#------------------------------------------------------------------------------
#$Date: 2021-05-05 11:06:36 +0300 (Wed, 05 May 2021) $
#$Revision: 264874 $
#$URL: file:///home/coder/svn-repositories/cod/cif/7/12/80/7128019.cif $
#------------------------------------------------------------------------------
#
# This file is available in the Crystallography Open Database (COD),
# http://www.crystallography.net/
#
# All data on this site have been placed in the public domain by the
# contributors.
#
data_7128019
loop_
_publ_author_name
'Liu, Hongming'
'Wu, Qingchen'
'Liu, Lili'
'Lin, Zheshuai'
'Halasyamani, P. Shiv'
'Chen, Xingguo'
'Qin, Jingui'
_publ_section_title
;
 AgBi(SO<sub>4</sub>)(IO<sub>3</sub>)<sub>2</sub>: aliovalent substitution
 induces structure dimensional upgrade and second harmonic generation
 enhancement.
;
_journal_issue                   30
_journal_name_full
'Chemical communications (Cambridge, England)'
_journal_page_first              3712
_journal_page_last               3715
_journal_paper_doi               10.1039/d0cc07862j
_journal_volume                  57
_journal_year                    2021
_chemical_formula_sum            'Ag2 Bi2 I4 O20 S2'
_chemical_formula_weight         1525.42
_space_group_crystal_system      triclinic
_space_group_IT_number           1
_space_group_name_Hall           'P 1'
_space_group_name_H-M_alt        'P 1'
_audit_creation_method           SHELXL-2014/7
_audit_update_record
;
2019-12-13 deposited with the CCDC.	2021-03-09 downloaded from the CCDC.
;
_cell_angle_alpha                90.5980(10)
_cell_angle_beta                 92.1510(10)
_cell_angle_gamma                109.8950(10)
_cell_formula_units_Z            1
_cell_length_a                   5.5189(4)
_cell_length_b                   6.9129(4)
_cell_length_c                   11.8527(8)
_cell_measurement_reflns_used    4886
_cell_measurement_temperature    296(2)
_cell_measurement_theta_max      27.55
_cell_measurement_theta_min      3.13
_cell_volume                     424.78(5)
_computing_cell_refinement       'Bruker SAINT'
_computing_data_collection       'Bruker APEX2'
_computing_data_reduction        'Bruker SAINT'
_computing_molecular_graphics    'Bruker SHELXTL'
_computing_publication_material  'Bruker SHELXTL'
_computing_structure_refinement  'SHELXL-2014/7 (Sheldrick, 2014)'
_computing_structure_solution    'SHELXS-97 (Sheldrick, 2008)'
_diffrn_ambient_temperature      296(2)
_diffrn_measured_fraction_theta_full 0.999
_diffrn_measured_fraction_theta_max 0.987
_diffrn_measurement_device_type  'Bruker APEX-II CCD'
_diffrn_measurement_method       '\f and \w scans'
_diffrn_radiation_type           MoK\a
_diffrn_radiation_wavelength     0.71073
_diffrn_reflns_av_R_equivalents  0.0212
_diffrn_reflns_av_unetI/netI     0.0346
_diffrn_reflns_Laue_measured_fraction_full 0.999
_diffrn_reflns_Laue_measured_fraction_max 0.987
_diffrn_reflns_limit_h_max       7
_diffrn_reflns_limit_h_min       -7
_diffrn_reflns_limit_k_max       8
_diffrn_reflns_limit_k_min       -8
_diffrn_reflns_limit_l_max       15
_diffrn_reflns_limit_l_min       -15
_diffrn_reflns_number            5137
_diffrn_reflns_point_group_measured_fraction_full 0.999
_diffrn_reflns_point_group_measured_fraction_max 0.987
_diffrn_reflns_theta_full        25.242
_diffrn_reflns_theta_max         27.551
_diffrn_reflns_theta_min         1.720
_diffrn_source                   'sealed tube'
_exptl_absorpt_coefficient_mu    30.546
_exptl_absorpt_correction_T_max  0.548
_exptl_absorpt_correction_T_min  0.543
_exptl_absorpt_correction_type   multi-scan
_exptl_crystal_colour            Colorless
_exptl_crystal_density_diffrn    5.963
_exptl_crystal_description       Block
_exptl_crystal_F_000             664
_exptl_crystal_size_max          0.020
_exptl_crystal_size_mid          0.020
_exptl_crystal_size_min          0.020
_refine_diff_density_max         2.392
_refine_diff_density_min         -2.370
_refine_diff_density_rms         0.347
_refine_ls_abs_structure_details
;
 Refined as an inversion twin.
;
_refine_ls_abs_structure_Flack   0.095(5)
_refine_ls_extinction_coef       0.0337(15)
_refine_ls_extinction_expression Fc^*^=kFc[1+0.001xFc^2^\l^3^/sin(2\q)]^-1/4^
_refine_ls_extinction_method     'SHELXL-2014/7 (Sheldrick 2014'
_refine_ls_goodness_of_fit_ref   1.065
_refine_ls_hydrogen_treatment    undef
_refine_ls_matrix_type           full
_refine_ls_number_parameters     273
_refine_ls_number_reflns         3680
_refine_ls_number_restraints     45
_refine_ls_restrained_S_all      1.061
_refine_ls_R_factor_all          0.0368
_refine_ls_R_factor_gt           0.0368
_refine_ls_shift/su_max          0.001
_refine_ls_shift/su_mean         0.000
_refine_ls_structure_factor_coef Fsqd
_refine_ls_weighting_details
'w=1/[\s^2^(Fo^2^)+(0.0733P)^2^+1.3986P] where P=(Fo^2^+2Fc^2^)/3'
_refine_ls_weighting_scheme      calc
_refine_ls_wR_factor_gt          0.0905
_refine_ls_wR_factor_ref         0.0905
_reflns_Friedel_coverage         1.000
_reflns_Friedel_fraction_full    0.999
_reflns_Friedel_fraction_max     0.987
_reflns_number_gt                3676
_reflns_number_total             3680
_reflns_threshold_expression     'I > 2\s(I)'
_cod_data_source_file            d0cc07862j2.cif
_cod_data_source_block           a
_cod_depositor_comments
;
The following automatic conversions were performed:

data item '_exptl_absorpt_correction_type' value 'Multi-scan' was
changed to 'multi-scan' in accordance with the
/home/data/users/saulius/crontab/automatic-downloads/rss-feeds/RSC/lib/dictionaries/cif_core.dic
dictionary named 'cif_core.dic' version 2.4.2 last updated on
2011-04-26.

Automatic conversion script
Id: cif_fix_values 7556 2019-12-06 15:28:31Z antanas 

 Adding full bibliography for 7128019.cif.
;
_cod_database_code               7128019
_shelx_shelxl_version_number     2014/7
_shelx_space_group_comment
;
The symmetry employed for this shelxl refinement is uniquely defined
by the following loop, which should always be used as a source of
symmetry information in preference to the above space-group names.
They are only intended as comments.
;
_shelx_estimated_absorpt_t_min   0.580
_shelx_estimated_absorpt_t_max   0.580
_shelx_res_file
;

    a.res created by SHELXL-2014/7

TITL a in P1
CELL 0.71073 5.5189 6.9129 11.8527 90.598 92.151 109.895
ZERR 1 0.0004 0.0004 0.0008 0.001 0.001 0.001
LATT -1
SFAC Ag Bi I  O  S
UNIT 2  2  4  20  2
L.S. 4
ACTA
FMAP 2
PLAN 10
twin
SIZE 0.02 0.02 0.02
ISOR 0.005 0.01 O10 O12 O19 O11 O17 S2 O15
TEMP 23
WGHT    0.073300    1.398600
EXTI    0.033707
BASF   0.09493
FVAR       0.12337
AG1   1    0.183551    0.030369    0.931619    11.00000    0.02197    0.01610 =
         0.01511   -0.00507   -0.00536    0.00502
AG2   1    0.592575    0.851104    0.732120    11.00000    0.01327    0.02416 =
         0.01680    0.00609   -0.00049    0.00479
BI1   2    0.003499    0.590770    0.493921    11.00000    0.00968    0.00941 =
         0.00601   -0.00324   -0.00132    0.00074
BI2   2    0.488550    0.624734    0.046371    11.00000    0.00939    0.00869 =
         0.00689   -0.00278   -0.00195    0.00273
I1    3    0.254196    0.202765    0.658288    11.00000    0.00964    0.00943 =
         0.00661   -0.00424   -0.00279    0.00341
I2    3   -0.057165    0.534854    0.812273    11.00000    0.00844    0.00943 =
         0.00403   -0.00310   -0.00256    0.00388
I3    3   -0.206309    0.228472    0.091472    11.00000    0.01044    0.00725 =
         0.00429   -0.00133   -0.00089    0.00409
I4    3    0.656630    0.988338    0.445626    11.00000    0.00848    0.00752 =
         0.00345   -0.00228   -0.00255    0.00313
O1    4    0.252862    0.464797    0.645825    11.00000    0.02874    0.01437 =
         0.01958    0.00020   -0.00721    0.01015
O2    4    0.003625    0.113823    0.757656    11.00000    0.01313    0.02438 =
         0.00985    0.00104    0.00298    0.00046
O3    4    0.511187    0.232590    0.760264    11.00000    0.01797    0.02508 =
         0.01811   -0.00664   -0.01549    0.00809
O4    4   -0.096840    0.657242    0.680982    11.00000    0.02530    0.02942 =
         0.00605    0.00581    0.00192    0.01918
O5    4    0.258651    0.713727    0.862599    11.00000    0.01091    0.01622 =
         0.00848   -0.00181   -0.00119   -0.00422
O6    4   -0.237799    0.663606    0.890577    11.00000    0.01747    0.01663 =
         0.00957    0.00047    0.00328    0.01220
O7    4    0.056089    0.378964    0.004233    11.00000    0.01082    0.02157 =
         0.00982    0.00460    0.00260    0.00184
O8    4   -0.464530    0.305149    0.025746    11.00000    0.00428    0.00762 =
         0.01594    0.00120   -0.00358    0.00147
O9    4   -0.273249   -0.004931    0.008404    11.00000    0.01447    0.00690 =
         0.01589   -0.00214   -0.00130    0.00274
O10   4    0.396977    0.846712    0.538475    11.00000    0.00534    0.01089 =
         0.00695   -0.00266   -0.00210   -0.00116
O11   4    0.906184    0.909561    0.509288    11.00000    0.01082    0.01052 =
         0.01143   -0.00429   -0.00665    0.00601
O12   4    0.730148    1.226079    0.527886    11.00000    0.01379    0.01277 =
         0.01213   -0.00403   -0.00187    0.00325
O13   4    0.168680    0.338054    0.396904    11.00000    0.01045    0.02020 =
         0.01621    0.00407    0.01031    0.00127
O14   4    0.597517    0.585726    0.380404    11.00000    0.02079    0.01891 =
         0.01394   -0.00568   -0.00215    0.00426
O15   4    0.312166    0.464445    0.213477    11.00000    0.01111    0.01383 =
         0.00719   -0.00218   -0.00418    0.00548
O16   4    0.500584    0.237740    0.307646    11.00000    0.02467    0.01705 =
         0.01420   -0.00465   -0.00867    0.01338
O17   4    0.156443    0.763533    0.320867    11.00000    0.00939    0.01340 =
         0.00936    0.00013   -0.00484    0.00385
O18   4    0.270684    0.875383    0.132402    11.00000    0.01345    0.01273 =
         0.01060    0.00322    0.00069    0.00190
O19   4   -0.144984    0.629827    0.159915    11.00000    0.01114    0.01055 =
         0.01395   -0.00552   -0.00355   -0.00066
O20   4   -0.052137    0.976167    0.227570    11.00000    0.02250    0.01811 =
         0.01563   -0.00401   -0.00372    0.01581
S1    5    0.397036    0.403914    0.324359    11.00000    0.00849    0.00948 =
         0.00469   -0.00348   -0.00167    0.00473
S2    5    0.059431    0.816337    0.211031    11.00000    0.00909    0.00876 =
         0.00330   -0.00208   -0.00384    0.00228
HKLF 4

REM  a in P1
REM R1 =  0.0368 for    3676 Fo > 4sig(Fo)  and  0.0368 for all    3680 data
REM    273 parameters refined using     45 restraints

END

WGHT      0.0737      1.3379

REM Highest difference peak  2.392,  deepest hole -2.370,  1-sigma level  0.347
Q1    1   0.5974  0.6819  0.0039  11.00000  0.05    2.39
Q2    1   0.1352  0.6677  0.4575  11.00000  0.05    2.22
Q3    1   0.3611  0.5564  0.0863  11.00000  0.05    2.21
Q4    1  -0.1069  0.5292  0.5381  11.00000  0.05    1.97
Q5    1   0.1192  0.1413  0.7005  11.00000  0.05    1.71
Q6    1  -0.0742  0.3109  0.0532  11.00000  0.05    1.62
Q7    1   0.5080  0.9080  0.4871  11.00000  0.05    1.61
Q8    1   0.3543  0.2579  0.6168  11.00000  0.05    1.45
Q9    1  -0.1645  0.4753  0.8567  11.00000  0.05    1.26
Q10   1   0.7649  1.0499  0.3985  11.00000  0.05    1.25
;
_shelx_res_checksum              41751
_shelx_hkl_file
;
  -1   0   0   10.13    0.41
  -1   0   0    8.62    0.40
  -1   0   0    9.90    0.39
   1   0   0    9.80    0.42
  -2   0   0   60.46    1.83
  -2   0   0   60.94    2.26
  -2   0   0   63.11    2.19
   2   0   0   85.13    3.08
  -3   0   0   69.28    2.09
  -3   0   0   65.96    2.52
  -3   0   0   70.12    2.46
   3   0   0   65.89    2.45
  -4   0   0  181.41    6.22
  -4   0   0  177.61    6.42
  -4   0   0  178.58    5.25
   4   0   0  146.16    5.31
  -5   0   0   41.27    1.49
   5   0   0   30.02    1.31
  -6   0   0   74.19    2.51
   6   0   0   37.78    1.66
   6  -1   0   38.96    1.66
  -6   1   0   57.31    2.00
   5  -1   0    6.94    0.48
  -5   1   0    8.27    0.51
  -5   1   0    7.37    0.54
   4  -1   0   85.30    3.16
  -4   1   0   52.39    2.05
  -4   1   0   56.87    2.08
  -4   1   0   55.78    1.77
   3  -1   0    4.34    0.30
   3  -1   0    4.50    0.38
  -3   1   0    5.91    0.35
  -3   1   0    5.94    0.34
   2  -1   0  693.77   23.59
   2  -1   0  652.25   22.81
   2  -1   0  636.29   23.35
  -2   1   0  744.64   26.38
  -2   1   0  746.51   21.40
   1  -1   0   26.93    0.94
   1  -1   0   27.01    0.95
   1  -1   0   24.20    0.98
  -1   1   0   28.34    0.98
  -1   1   0   27.03    0.81
  -1   1   0   25.14    0.96
   0  -1   0   53.89    1.87
   0   1   0   57.01    1.98
   0   1   0   53.73    1.97
  -1  -1   0   94.35    3.26
  -1  -1   0   88.45    2.64
  -1  -1   0   88.11    3.12
   1   1   0   85.07    3.05
  -2  -1   0  279.14    9.59
  -2  -1   0  262.08    9.15
  -2  -1   0  265.34    7.67
   2   1   0  196.33    6.98
  -3  -1   0   42.67    1.59
  -3  -1   0   42.19    1.42
  -3  -1   0   43.74    1.68
   3   1   0   38.47    1.52
  -4  -1   0  190.10    6.97
  -4  -1   0  197.49    6.72
  -4  -1   0  193.88    5.70
   4   1   0  125.03    4.60
  -5  -1   0   31.71    1.27
   5   1   0   27.07    1.24
  -6  -1   0   14.57    0.88
   6   1   0   13.93    0.86
   7  -2   0    6.62    0.56
  -7   2   0    4.12    0.55
   6  -2   0   71.94    2.79
  -6   2   0   71.35    2.77
  -6   2   0   72.97    2.38
   5  -2   0    2.90    0.33
  -5   2   0    3.99    0.45
   4  -2   0  587.10   20.46
   4  -2   0  555.98   19.52
  -4   2   0  730.35   25.08
  -4   2   0  688.11   20.37
   3  -2   0  114.04    3.96
   3  -2   0  105.67    3.93
  -3   2   0  115.66    3.39
  -3   2   0  115.35    4.12
   2  -2   0   43.30    1.52
   2  -2   0   39.21    1.59
  -2   2   0   34.80    1.28
   1  -2   0  108.14    3.84
  -1   2   0  134.51    4.77
  -1   2   0  131.25    4.72
   0  -2   0  203.25    7.42
   0  -2   0  217.08    7.22
   0   2   0  189.82    6.55
   0   2   0  180.07    6.56
  -1  -2   0   54.71    1.99
  -1  -2   0   60.05    2.12
  -1  -2   0   53.73    1.78
   1   2   0   57.01    2.10
   1   2   0   57.05    2.13
  -2  -2   0  286.35   10.22
  -2  -2   0  315.32   10.68
  -2  -2   0  299.43    8.61
   2   2   0  213.27    7.59
   2   2   0  212.60    7.59
  -3  -2   0  124.27    3.87
  -3  -2   0  130.86    4.73
  -3  -2   0  132.29    4.50
   3   2   0  111.64    4.09
   3   2   0  111.37    4.09
  -4  -2   0   13.31    0.70
   4   2   0   18.29    0.90
   4   2   0   18.63    0.88
  -5  -2   0   14.48    0.80
   5   2   0   12.79    0.78
  -6  -2   0  153.29    4.82
   6   2   0   97.23    3.82
   7  -3   0    3.10    0.43
  -7   3   0    3.16    0.47
   6  -3   0  257.95    9.28
  -6   3   0  343.44   11.84
  -6   3   0  336.00    9.87
   5  -3   0   53.19    2.13
   5  -3   0   50.77    2.01
  -5   3   0   52.77    1.75
   4  -3   0   46.08    1.77
   4  -3   0   46.71    1.91
  -4   3   0   25.85    0.96
  -4   3   0   26.81    1.03
   3  -3   0   53.91    2.17
   3  -3   0   57.92    2.07
  -3   3   0   73.81    2.66
  -3   3   0   72.92    2.22
   2  -3   0  265.91    8.89
   2  -3   0  247.06    9.14
  -2   3   0  238.56    8.51
   1  -3   0   16.47    0.66
   1  -3   0   17.13    0.77
  -1   3   0   20.90    0.84
  -1   3   0   21.01    0.79
   0  -3   0  392.52   13.62
   0   3   0  320.93   11.62
   0   3   0  321.37   11.38
  -1  -3   0  176.28    6.04
   1   3   0  165.01    5.97
   1   3   0  170.17    6.02
  -2  -3   0   28.10    1.06
  -2  -3   0   27.96    1.10
   2   3   0   10.90    0.57
   2   3   0   11.26    0.59
  -3  -3   0   57.86    1.96
   3   3   0   47.72    1.88
   3   3   0   46.92    1.89
  -4  -3   0  285.90    8.40
   4   3   0  207.45    7.60
   4   3   0  210.38    7.58
  -5  -3   0    4.77    0.57
   5   3   0    3.42    0.50
   7  -4   0   53.40    2.17
  -7   4   0   77.83    3.05
  -7   4   0   73.63    2.55
   6  -4   0   54.08    2.27
   6  -4   0   52.03    2.09
  -6   4   0   37.41    1.39
   5  -4   0   53.32    2.20
   5  -4   0   50.32    1.99
  -5   4   0   72.16    2.30
   4  -4   0   76.81    2.77
   4  -4   0   73.36    2.91
  -4   4   0   71.40    2.29
  -4   4   0   76.08    2.71
   3  -4   0   39.09    1.48
   3  -4   0   39.57    1.67
  -3   4   0   47.68    1.73
  -3   4   0   44.61    1.47
   2  -4   0  347.38   11.56
   2  -4   0  321.02   11.82
  -2   4   0  273.19    9.67
   1  -4   0  164.31    5.75
  -1   4   0  144.85    5.09
  -1   4   0  141.39    5.13
   0  -4   0   31.56    1.23
   0   4   0   10.36    0.52
   0   4   0    9.24    0.46
  -1  -4   0   53.86    1.96
   1   4   0   42.48    1.73
   1   4   0   45.00    1.67
  -2  -4   0  422.55   14.36
   2   4   0  388.32   13.57
   2   4   0  373.78   13.52
  -3  -4   0   10.05    0.65
   3   4   0    6.26    0.49
   3   4   0    5.68    0.48
  -4  -4   0    6.18    0.62
   4   4   0   21.66    1.08
   4   4   0   21.16    1.08
   6  -5   0   45.00    2.02
   6  -5   0   41.81    1.73
  -6   5   0   42.51    1.55
   5  -5   0   64.91    2.67
   5  -5   0   63.83    2.43
  -5   5   0   81.21    2.57
   4  -5   0  197.15    6.98
   4  -5   0  193.58    7.03
  -4   5   0  194.04    6.87
  -4   5   0  190.04    5.62
   3  -5   0  210.67    7.49
  -3   5   0  187.67    6.74
  -3   5   0  189.98    5.51
   2  -5   0   77.77    2.92
   2  -5   0   84.33    3.07
  -2   5   0   39.97    1.55
   1  -5   0  122.06    4.37
  -1   5   0   98.68    3.45
  -1   5   0   93.49    3.54
   0  -5   0  396.78   13.57
   0   5   0  359.89   12.94
   0   5   0  367.80   12.84
  -1  -5   0   71.63    2.59
   1   5   0   57.59    2.29
   1   5   0   58.07    2.19
   2   5   0    5.36    0.44
   2   5   0    4.42    0.45
   3   5   0   41.69    1.73
   3   5   0   40.18    1.77
   4   5   0   14.95    0.92
   6  -6   0   98.19    3.94
  -6   6   0  100.95    3.20
   5  -6   0  103.68    4.07
  -5   6   0  102.59    3.19
   4  -6   0   66.09    2.73
  -4   6   0   39.54    1.57
  -4   6   0   39.32    1.37
   3  -6   0   82.65    3.24
  -3   6   0   61.05    2.31
   2  -6   0  303.04   10.59
  -2   6   0  250.09    8.95
   1  -6   0   83.52    3.13
  -1   6   0   52.28    2.06
   0  -6   0   20.59    0.96
   0   6   0    8.00    0.55
   1   6   0   78.38    3.07
   2   6   0   20.08    1.08
   3   6   0   22.91    1.22
   6  -7   0   35.35    1.86
   5  -7   0   70.25    3.00
  -5   7   0   62.91    2.12
   4  -7   0  124.73    4.76
  -4   7   0  115.40    3.57
   3  -7   0  111.64    4.26
  -3   7   0   68.86    2.63
   2  -7   0   67.47    2.71
  -2   7   0   33.33    1.41
   1  -7   0  100.61    3.75
  -1   7   0   79.36    3.08
   0  -7   0    8.77    0.63
   0   7   0    8.04    0.63
   1   7   0   24.69    1.25
   2   7   0   41.50    1.91
   5  -8   0  107.50    4.31
  -5   8   0   85.82    2.81
   4  -8   0   64.74    2.77
  -4   8   0   37.51    1.43
   3  -8   0   76.51    3.12
  -3   8   0   57.06    2.26
   2  -8   0    1.15    0.39
  -2   8   0    1.15    0.33
   1  -8   0   60.74    2.48
  -1   8   0   23.94    1.21
   0   8   0   63.50    2.66
   0   8  -1   16.90    1.00
  -1   8  -1   18.25    0.98
   1  -8   1   11.70    0.82
  -2   8  -1   66.58    2.63
   2  -8   1   96.03    3.73
  -3   8  -1   76.27    2.94
   3  -8   1  107.64    4.18
  -4   8  -1   17.53    0.86
   4  -8   1   41.71    2.01
   2   7  -1   11.93    0.84
   1   7  -1   50.15    2.12
   0   7  -1   55.09    2.25
   0  -7   1   70.09    2.69
  -1   7  -1  145.49    5.37
   1  -7   1  178.95    6.39
  -2   7  -1   16.26    0.81
   2  -7   1   34.94    1.60
  -3   7  -1   14.43    0.74
   3  -7   1   12.39    0.89
  -4   7  -1   17.76    0.82
  -4   7  -1   17.87    0.87
   4  -7   1   16.03    1.10
  -5   7  -1   24.77    1.04
   5  -7   1   39.94    1.95
  -6   7  -1   46.09    1.70
   6  -7   1   53.24    2.47
   3   6  -1   72.35    2.92
   2   6  -1   46.91    1.98
   1   6  -1  127.92    4.77
  -1  -6   1  145.92    5.14
   0   6  -1   52.51    2.10
   0  -6   1   66.12    2.49
  -1   6  -1   52.17    2.04
   1  -6   1   53.52    2.11
  -2   6  -1   43.97    1.74
   2  -6   1   49.80    2.05
  -3   6  -1   12.82    0.65
   3  -6   1   25.64    1.32
  -4   6  -1   54.49    2.05
  -4   6  -1   50.70    1.75
   4  -6   1   64.96    2.70
  -5   6  -1  183.48    5.46
   5  -6   1  156.78    5.86
  -6   6  -1   43.15    1.59
   6  -6   1   52.53    2.38
   4   5  -1   20.36    1.08
   3   5  -1  108.84    4.13
   2   5  -1  121.61    4.54
   2   5  -1  122.42    4.45
   1   5  -1   54.27    2.00
   1   5  -1   52.82    2.11
  -1  -5   1   45.84    1.74
   0   5  -1   35.37    1.44
   0  -5   1   31.12    1.26
  -1   5  -1   22.03    0.94
   1  -5   1   12.45    0.70
  -2   5  -1   33.01    1.32
   2  -5   1   54.14    2.16
  -3   5  -1  360.88   12.77
  -4   5  -1   47.16    1.58
  -4   5  -1   47.40    1.83
   4  -5   1   58.69    2.14
   4  -5   1   56.06    2.37
  -5   5  -1   30.95    1.16
   5  -5   1   44.35    1.72
   5  -5   1   44.30    1.99
  -6   5  -1   63.65    2.14
   6  -5   1   64.51    2.72
   4   4  -1   99.19    3.80
   4   4  -1  100.98    3.80
  -4  -4   1  125.32    4.00
   3   4  -1   63.28    2.45
   3   4  -1   64.21    2.49
  -3  -4   1   66.05    2.28
   2   4  -1   26.80    1.10
   2   4  -1   26.10    1.14
  -2  -4   1   28.64    1.13
   1   4  -1   41.89    1.53
   1   4  -1   39.06    1.60
  -1  -4   1   13.10    0.62
   0   4  -1    4.81    0.25
   0   4  -1    5.00    0.34
   0  -4   1   10.75    0.55
  -1   4  -1  453.85   16.35
   1  -4   1  500.02   17.15
  -2   4  -1   77.05    2.81
   2  -4   1   91.78    3.33
   2  -4   1   95.09    3.43
  -3   4  -1   38.57    1.27
  -3   4  -1   38.92    1.49
   3  -4   1   70.64    2.64
   3  -4   1   75.76    2.83
  -4   4  -1   61.85    2.26
  -4   4  -1   57.78    1.90
   4  -4   1   64.12    2.35
   4  -4   1   62.59    2.53
  -5   4  -1  143.56    4.30
   5  -4   1  138.01    5.00
   5  -4   1  137.14    5.06
  -6   4  -1   63.98    2.15
   6  -4   1   55.58    2.26
   6  -4   1   51.04    2.09
  -7   4  -1   20.69    1.03
   7  -4   1   22.62    1.09
   5   3  -1   41.45    1.79
  -5  -3   1   31.82    1.36
   4   3  -1    7.17    0.49
   4   3  -1    6.62    0.52
  -4  -3   1    7.54    0.61
   3   3  -1  104.72    3.89
   3   3  -1  106.21    3.89
  -3  -3   1   77.20    2.51
  -3  -3   1   77.06    2.77
   2   3  -1   12.37    0.58
   2   3  -1   11.98    0.59
  -2  -3   1   14.78    0.73
  -2  -3   1   15.08    0.67
   1   3  -1  445.93   15.59
   1   3  -1  432.39   15.67
  -1  -3   1  457.79   15.73
   0   3  -1   71.82    2.61
   0   3  -1   71.21    2.54
   0  -3   1   83.16    2.87
   0  -3   1   78.49    2.91
  -1   3  -1    6.85    0.37
   1  -3   1   23.39    0.86
  -2   3  -1   58.31    2.13
   2  -3   1   65.24    2.43
   2  -3   1   64.62    2.33
  -3   3  -1  175.42    5.07
  -3   3  -1  175.39    6.25
   3  -3   1  190.32    6.75
   3  -3   1  193.31    6.81
  -4   3  -1   47.53    1.57
  -4   3  -1   49.59    1.84
   4  -3   1   43.03    1.80
   4  -3   1   44.28    1.67
  -5   3  -1   56.36    1.85
   5  -3   1   60.31    2.35
   5  -3   1   62.97    2.44
  -6   3  -1    8.61    0.59
  -6   3  -1    9.40    0.69
   6  -3   1    8.39    0.67
   6  -3   1    8.12    0.53
  -7   3  -1   44.83    1.69
   7  -3   1   64.34    2.58
   6   2  -1   10.27    0.76
  -6  -2   1    9.57    0.80
   5   2  -1   92.92    3.56
  -5  -2   1   72.51    2.46
   4   2  -1   19.85    0.93
   4   2  -1   19.71    0.88
  -4  -2   1   23.30    0.99
   3   2  -1  354.07   12.34
   3   2  -1  342.90   12.36
  -3  -2   1  491.69   16.48
  -3  -2   1  475.95   13.81
   2   2  -1   69.46    2.56
   2   2  -1   69.93    2.56
  -2  -2   1   69.69    2.22
  -2  -2   1   73.19    2.56
   1   2  -1    2.71    0.19
  -1  -2   1   17.44    0.72
  -1  -2   1   16.76    0.71
   0   2  -1   70.79    2.50
   0   2  -1   67.21    2.44
   0  -2   1   70.77    2.46
   0  -2   1   68.85    2.48
  -1   2  -1  152.84    5.72
  -1   2  -1  170.66    5.84
   1  -2   1  225.93    7.88
   1  -2   1  235.03    8.17
  -2   2  -1   19.37    0.77
  -2   2  -1   18.62    0.66
   2  -2   1   14.88    0.61
   2  -2   1   14.74    0.72
  -3   2  -1  185.41    6.57
  -3   2  -1  184.22    5.32
   3  -2   1  179.80    6.34
   3  -2   1  175.99    6.22
  -4   2  -1   70.64    2.62
  -4   2  -1   71.58    2.20
   4  -2   1   64.31    2.42
   4  -2   1   64.69    2.44
  -5   2  -1   48.27    1.64
  -5   2  -1   47.83    1.91
   5  -2   1   75.98    2.88
   5  -2   1   77.23    2.90
  -6   2  -1   55.07    1.89
   6  -2   1   46.03    1.89
  -7   2  -1  263.36    7.83
   7  -2   1  179.47    6.64
   6   1  -1   19.75    1.03
  -6  -1   1   21.44    1.06
   5   1  -1  179.72    6.57
  -5  -1   1  245.51    7.25
   4   1  -1   81.73    2.99
   4   1  -1   81.37    3.06
  -4  -1   1   77.34    2.77
  -4  -1   1   73.40    2.40
   3   1  -1   19.23    0.79
   3   1  -1   19.55    0.83
  -3  -1   1    3.92    0.36
  -3  -1   1    3.94    0.35
   2   1  -1   23.29    0.92
   2   1  -1   24.56    0.94
  -2  -1   1   23.52    0.83
  -2  -1   1   24.24    0.95
   1   1  -1  129.40    4.51
   1   1  -1  120.32    4.43
  -1  -1   1  197.88    6.69
  -1  -1   1  190.90    5.55
   0   1  -1   11.30    0.44
   0  -1   1   12.28    0.47
   0  -1   1   12.35    0.52
  -1   1  -1  114.94    3.20
  -1   1  -1  109.67    3.99
   1  -1   1  132.92    4.59
   1  -1   1  123.43    4.40
  -2   1  -1   16.88    0.59
  -2   1  -1   17.87    0.71
   2  -1   1   14.91    0.67
   2  -1   1   15.76    0.63
  -3   1  -1   39.18    1.24
  -3   1  -1   38.39    1.48
   3  -1   1   67.00    2.46
   3  -1   1   66.03    2.42
  -4   1  -1   83.30    3.03
  -4   1  -1   82.31    3.12
  -4   1  -1   85.71    2.56
   4  -1   1   75.93    2.84
  -5   1  -1  560.16   15.80
  -5   1  -1  548.65   18.91
   5  -1   1  410.20   14.60
  -6   1  -1    5.93    0.57
   6  -1   1    3.02    0.43
   6   0  -1   78.10    3.05
  -6   0   1   91.05    2.98
   5   0  -1   31.32    1.34
  -5   0   1   15.37    0.81
  -5   0   1   16.18    0.79
   4   0  -1   46.84    1.73
   4   0  -1   46.63    1.83
  -4   0   1   37.37    1.31
  -4   0   1   38.50    1.49
   3   0  -1   93.42    3.41
  -3   0   1  131.91    3.93
  -3   0   1  140.57    4.78
  -3   0   1  129.79    4.68
   2   0  -1   43.99    1.63
   2   0  -1   42.91    1.63
  -2   0   1   49.53    1.86
  -2   0   1   52.77    1.86
   1   0  -1  115.06    4.01
   1   0  -1  112.13    4.01
   1   0  -1  111.64    4.04
  -1   0   1  127.56    3.68
  -1   0   1  131.27    4.43
   0   0  -1   26.72    1.01
   0   0  -1   27.69    0.98
   0   0  -1   29.30    1.01
   0   0   1   23.23    0.82
  -1   0  -1   18.01    0.72
  -1   0  -1   19.87    0.61
  -1   0  -1   22.00    0.78
   1   0   1   39.40    1.39
   1   0   1   36.51    1.33
   1   0   1   37.88    1.11
  -2   0  -1   21.28    0.71
  -2   0  -1   22.39    0.90
  -2   0  -1   20.95    0.82
   2   0   1   22.04    0.88
   2   0   1   22.04    0.84
  -3   0  -1  846.25   28.92
  -3   0  -1  852.92   30.06
  -3   0  -1  824.60   24.23
   3   0   1  619.98   22.44
  -4   0  -1    0.90    0.21
  -4   0  -1    1.95    0.29
  -4   0  -1    1.06    0.26
   4   0   1    0.57    0.22
  -5   0  -1   99.99    3.12
  -6   0  -1   15.54    0.86
   6   0   1   11.43    0.74
   6  -1  -1   26.03    1.20
  -6   1   1   20.95    0.97
   5  -1  -1   23.36    1.04
  -5   1   1   36.74    1.53
  -5   1   1   37.55    1.33
   4  -1  -1   68.17    2.55
  -4   1   1   84.81    2.94
  -4   1   1   78.80    3.00
  -4   1   1   83.15    2.54
   3  -1  -1   89.82    3.22
   3  -1  -1   92.49    3.31
  -3   1   1  107.02    3.12
  -3   1   1  102.33    3.76
  -3   1   1  108.27    3.75
   2  -1  -1   55.14    1.95
   2  -1  -1   51.26    1.96
  -2   1   1   41.86    1.28
   1  -1  -1   30.40    1.18
   1  -1  -1   32.77    1.15
  -1   1   1   18.73    0.68
  -1   1   1   18.85    0.67
  -1   1   1   18.05    0.58
   0  -1  -1    5.28    0.29
   0  -1  -1    5.52    0.25
   0   1   1    2.93    0.17
   0   1   1    2.84    0.17
  -1  -1  -1 1000.00   32.72
  -1  -1  -1  800.32   30.91
  -1  -1  -1  940.17   26.14
   1   1   1  643.78   22.27
   1   1   1  668.54   23.49
  -2  -1  -1   10.81    0.46
  -2  -1  -1   11.20    0.58
  -2  -1  -1   10.83    0.47
   2   1   1   14.88    0.66
  -3  -1  -1   81.87    3.04
  -3  -1  -1   79.26    2.83
  -3  -1  -1   81.03    2.46
   3   1   1  116.94    4.28
  -4  -1  -1   55.18    2.26
  -4  -1  -1   60.51    1.90
   4   1   1   50.75    2.02
  -5  -1  -1  154.40    4.68
   5   1   1  119.84    4.51
  -6  -1  -1   58.09    2.07
   6   1   1   44.41    1.95
   7  -2  -1    8.38    0.64
  -7   2   1   13.86    0.83
   6  -2  -1   52.53    2.11
  -6   2   1   71.35    2.36
  -6   2   1   70.72    2.75
   5  -2  -1   22.29    0.99
  -5   2   1   24.16    1.14
  -5   2   1   24.39    0.97
   4  -2  -1   48.41    1.87
   4  -2  -1   49.19    1.94
  -4   2   1   33.18    1.38
  -4   2   1   32.26    1.13
   3  -2  -1   55.87    1.92
   3  -2  -1   54.69    2.01
   3  -2  -1   51.06    2.06
  -3   2   1   36.72    1.33
   2  -2  -1   39.68    1.42
   2  -2  -1   37.49    1.52
   2  -2  -1   40.98    1.46
  -2   2   1   42.69    1.53
   1  -2  -1  804.60   28.54
  -1   2   1  645.05   22.93
   0  -2  -1   20.19    0.78
   0   2   1    9.47    0.44
  -1  -2  -1   52.50    1.66
  -1  -2  -1   52.22    1.82
   1   2   1  102.31    3.70
  -2  -2  -1   89.01    2.65
  -2  -2  -1   84.11    3.00
  -2  -2  -1   88.21    3.27
   2   2   1  100.59    3.68
  -3  -2  -1  165.42    6.02
  -3  -2  -1  169.12    4.87
  -3  -2  -1  160.33    5.65
   3   2   1  156.86    5.70
  -4  -2  -1   80.65    3.18
  -4  -2  -1   85.05    2.64
   4   2   1   83.05    3.18
  -5  -2  -1  190.72    5.74
   5   2   1  129.11    4.87
  -6  -2  -1   31.77    1.37
   7  -3  -1    8.77    0.62
  -7   3   1    9.36    0.71
   6  -3  -1   40.24    1.66
  -6   3   1   26.26    1.12
  -6   3   1   29.81    1.37
   5  -3  -1   34.69    1.43
   5  -3  -1   36.00    1.58
  -5   3   1   24.10    1.14
  -5   3   1   22.20    0.92
   4  -3  -1   21.73    1.10
   4  -3  -1   21.64    0.91
  -4   3   1   14.13    0.61
   3  -3  -1  582.48   20.68
   3  -3  -1  568.81   19.68
  -3   3   1  605.33   21.70
  -3   3   1  620.58   17.50
   2  -3  -1   87.77    3.19
   2  -3  -1   87.72    3.16
  -2   3   1   95.59    3.34
  -2   3   1   90.69    2.74
   1  -3  -1   17.36    0.81
   1  -3  -1   18.62    0.73
  -1   3   1   25.90    1.01
   0  -3  -1  169.61    5.95
   0  -3  -1  176.40    6.22
   0   3   1  171.99    6.17
   0   3   1  172.38    6.13
  -1  -3  -1  190.26    6.49
   1   3   1  178.86    6.40
  -2  -3  -1   39.62    1.46
  -2  -3  -1   41.92    1.45
  -2  -3  -1   41.63    1.69
   2   3   1   52.81    2.04
  -3  -3  -1  298.08    8.49
  -3  -3  -1  284.99   10.49
   3   3   1  214.73    7.63
   3   3   1  206.98    7.64
  -4  -3  -1  112.17    3.52
   4   3   1   87.43    3.39
   4   3   1   88.70    3.39
  -5  -3  -1   45.18    1.74
   5   3   1   39.70    1.78
   7  -4  -1   19.46    0.98
  -7   4   1   18.94    1.12
  -7   4   1   17.41    0.92
   6  -4  -1   10.44    0.82
   6  -4  -1    9.95    0.59
  -6   4   1    7.62    0.68
  -6   4   1    6.74    0.52
   5  -4  -1  266.62    9.56
   5  -4  -1  268.88    9.48
  -5   4   1  333.10    9.61
   4  -4  -1   75.04    2.94
   4  -4  -1   75.29    2.78
  -4   4   1   67.79    2.13
   3  -4  -1    7.71    0.63
   3  -4  -1    7.39    0.39
  -3   4   1    1.68    0.22
  -3   4   1    1.38    0.21
   2  -4  -1   51.27    2.07
   2  -4  -1   53.95    1.96
  -2   4   1   79.71    2.90
   1  -4  -1  151.22    5.31
  -1   4   1  137.93    4.94
  -1   4   1  138.50    4.97
   0  -4  -1    4.88    0.38
   0   4   1   14.55    0.73
   0   4   1   15.22    0.68
  -1  -4  -1  324.15   11.04
   1   4   1  259.31    9.64
   1   4   1  282.48    9.72
   2   4   1  116.85    4.38
   2   4   1  117.27    4.31
  -3  -4  -1   37.64    1.44
   3   4   1   34.53    1.46
   3   4   1   32.07    1.48
  -4  -4  -1   44.11    1.68
   4   4   1   35.15    1.58
   4   4   1   34.28    1.56
   6  -5  -1   61.29    2.46
   6  -5  -1   66.52    2.73
  -6   5   1   70.56    2.33
   5  -5  -1   25.97    1.38
   5  -5  -1   25.05    1.09
  -5   5   1   14.70    0.69
   4  -5  -1   21.91    1.19
   4  -5  -1   22.90    0.95
  -4   5   1   39.31    1.35
   3  -5  -1  120.74    4.46
   3  -5  -1  121.08    4.37
  -3   5   1  108.08    3.93
  -3   5   1  109.14    3.26
   2  -5  -1   15.42    0.85
   2  -5  -1   15.81    0.70
  -2   5   1   21.24    0.90
   1  -5  -1  286.18    9.90
  -1   5   1  226.23    7.81
  -1   5   1  213.28    7.88
   0  -5  -1  232.52    8.04
   0   5   1  188.00    6.71
   0   5   1  187.39    6.81
  -1  -5  -1   14.56    0.68
   1   5   1    7.20    0.53
   1   5   1    6.63    0.49
   2   5   1   69.47    2.78
   2   5   1   70.20    2.69
   3   5   1  207.64    7.56
   3   5   1  202.70    7.48
   4   5   1   19.09    1.07
   4   5   1   20.16    1.12
   6  -6  -1    0.59    0.49
  -6   6   1    5.95    0.52
   5  -6  -1   41.80    1.97
  -5   6   1   43.94    1.54
   4  -6  -1   36.36    1.72
  -4   6   1   39.92    1.40
   3  -6  -1  215.19    7.67
  -3   6   1  171.24    6.16
   2  -6  -1  199.34    7.08
  -2   6   1  156.24    5.67
   1  -6  -1   46.67    1.89
  -1   6   1   29.28    1.28
   0  -6  -1  137.14    4.88
   0   6   1  117.78    4.43
   1   6   1  232.66    8.50
   2   6   1   36.86    1.68
   3   6   1    2.53    0.49
   5  -7  -1   88.92    3.63
  -5   7   1   80.51    2.61
   4  -7  -1  105.23    4.09
  -4   7   1   93.93    2.97
   3  -7  -1   26.04    1.33
  -3   7   1   10.34    0.59
   2  -7  -1  100.33    3.79
  -2   7   1   84.02    3.20
   1  -7  -1  277.48    9.71
  -1   7   1  210.48    7.68
   0   7   1   66.98    2.73
   1   7   1    8.71    0.73
   2   7   1   98.02    3.91
   4  -8  -1   49.80    2.25
  -4   8   1   51.61    1.84
   3  -8  -1  131.63    4.94
  -3   8   1   98.22    3.70
   2  -8  -1  101.50    3.87
  -2   8   1   68.79    2.74
  -1   8   1   29.88    1.43
   0   8   1  126.05    4.88
   0   8  -2   19.49    1.05
  -1   8  -2    8.34    0.63
   1  -8   2    5.35    0.61
  -2   8  -2  141.01    5.23
   2  -8   2  189.47    6.89
  -3   8  -2   25.71    1.19
   3  -8   2   31.48    1.65
  -4   8  -2   10.40    0.64
  -4   8  -2   10.36    0.67
   4  -8   2   16.74    1.20
   2   7  -2   32.62    1.52
   1   7  -2   13.85    0.83
   0   7  -2  212.15    7.73
   0  -7   2  247.49    8.66
  -1   7  -2   12.99    0.72
   1  -7   2   13.10    0.82
  -2   7  -2   47.72    1.91
   2  -7   2   62.93    2.55
  -3   7  -2   55.63    2.18
   3  -7   2   64.69    2.70
  -4   7  -2  161.95    5.95
  -4   7  -2  164.18    4.91
   4  -7   2  195.85    7.21
  -5   7  -2    6.22    0.50
   5  -7   2   13.52    1.03
  -6   7  -2   15.97    0.84
   3   6  -2   16.20    0.94
   2   6  -2  172.67    6.36
   1   6  -2   28.58    1.27
  -1  -6   2   32.93    1.36
   0   6  -2   59.27    2.32
   0  -6   2   69.70    2.62
  -1   6  -2  117.33    4.32
   1  -6   2  134.73    4.86
  -2   6  -2  273.51    9.76
   2  -6   2  338.29   11.78
  -3   6  -2   27.99    1.18
   3  -6   2   37.41    1.71
  -4   6  -2   48.88    1.68
  -4   6  -2   50.79    1.97
   4  -6   2   47.79    2.14
  -5   6  -2   15.06    0.73
   5  -6   2    7.36    0.75
  -6   6  -2    3.16    0.42
   6  -6   2    8.81    0.86
   3   5  -2    2.56    0.39
   2   5  -2   62.15    2.43
  -2  -5   2   66.25    2.45
   1   5  -2   60.54    2.34
  -1  -5   2   70.62    2.61
   0   5  -2  296.50   10.56
   0  -5   2  351.29   12.06
  -1   5  -2   67.38    2.53
   1  -5   2   70.47    2.64
  -2   5  -2   75.54    2.81
   2  -5   2   79.31    3.00
  -3   5  -2   57.63    2.19
   3  -5   2   45.51    1.95
  -4   5  -2    2.53    0.31
  -4   5  -2    2.71    0.34
   4  -5   2    5.53    0.61
  -5   5  -2    9.44    0.57
   5  -5   2   11.28    0.85
  -6   5  -2  248.00    7.31
   6  -5   2  184.11    6.74
   4   4  -2   71.66    2.73
   4   4  -2   69.03    2.73
  -4  -4   2   85.75    2.90
   3   4  -2   43.51    1.75
   3   4  -2   43.75    1.74
  -3  -4   2   51.72    1.88
   2   4  -2  217.66    7.84
   2   4  -2  222.63    7.89
  -2  -4   2  312.37    8.66
  -2  -4   2  278.85   10.13
   1   4  -2  213.40    7.56
   1   4  -2  214.04    7.64
  -1  -4   2  211.70    7.31
   0   4  -2  172.80    6.18
   0   4  -2  172.08    6.07
   0  -4   2  194.71    6.53
   0  -4   2  180.85    6.64
  -1   4  -2   66.58    2.47
   1  -4   2   66.12    2.45
  -2   4  -2   51.26    1.88
  -2   4  -2   53.17    1.96
   2  -4   2   28.37    1.02
   2  -4   2   27.00    1.21
  -3   4  -2   16.48    0.64
  -3   4  -2   15.54    0.71
   3  -4   2   20.67    0.81
  -4   4  -2  481.19   13.84
  -4   4  -2  491.70   17.20
   4  -4   2  395.39   13.70
   4  -4   2  394.76   13.96
  -5   4  -2   42.80    1.48
   5  -4   2   46.16    1.97
   5  -4   2   47.05    1.82
  -6   4  -2   18.37    0.88
   6  -4   2   29.72    1.30
   6  -4   2   31.06    1.47
  -7   4  -2   10.38    0.72
   7  -4   2   10.20    0.67
   5   3  -2   13.87    0.80
  -5  -3   2   14.70    0.91
   4   3  -2  110.28    4.01
   4   3  -2  106.96    4.04
  -4  -3   2  149.67    4.61
   3   3  -2  183.12    6.68
   3   3  -2  188.47    6.67
  -3  -3   2  230.78    6.96
  -3  -3   2  241.32    8.16
   2   3  -2   98.60    3.59
   2   3  -2   99.89    3.62
  -2  -3   2  106.80    3.30
  -2  -3   2  106.36    3.77
   1   3  -2   67.96    2.49
   1   3  -2   69.70    2.54
  -1  -3   2   79.82    2.87
   0   3  -2  126.55    4.45
   0   3  -2  126.24    4.53
   0  -3   2   68.02    2.40
   0  -3   2   66.61    2.42
  -1   3  -2   21.69    0.86
   1  -3   2   22.42    0.94
  -2   3  -2  748.27   26.73
   2  -3   2  770.51   27.76
   2  -3   2  799.19   27.12
  -3   3  -2   47.27    1.78
  -3   3  -2   46.29    1.48
   3  -3   2   50.52    1.85
   3  -3   2   48.92    1.97
  -4   3  -2   10.35    0.56
  -4   3  -2   10.62    0.51
   4  -3   2   19.44    1.00
   4  -3   2   20.26    0.85
  -5   3  -2    4.86    0.43
   5  -3   2    6.96    0.59
   5  -3   2    6.50    0.45
  -6   3  -2   71.39    2.79
  -6   3  -2   73.01    2.38
   6  -3   2   64.08    2.49
   6  -3   2   60.19    2.43
  -7   3  -2   26.73    1.19
   7  -3   2   19.94    1.04
   6   2  -2   83.86    3.32
   5   2  -2  148.65    5.49
  -5  -2   2  215.07    6.46
   4   2  -2   54.04    2.13
   4   2  -2   55.38    2.07
  -4  -2   2   59.14    2.21
  -4  -2   2   56.05    1.96
   3   2  -2    0.75    0.17
   3   2  -2    0.44    0.17
  -3  -2   2    1.90    0.33
  -3  -2   2    0.78    0.26
   2   2  -2  170.62    6.08
   2   2  -2  171.08    6.09
  -2  -2   2  145.82    5.02
  -2  -2   2  140.88    4.24
   1   2  -2   17.41    0.68
   1   2  -2   17.09    0.69
  -1  -2   2   17.68    0.76
   0   2  -2  482.22   17.36
   0   2  -2  488.70   17.13
   0  -2   2  572.20   19.60
   0  -2   2  538.80   19.08
  -1   2  -2  125.62    4.28
  -1   2  -2  114.54    4.25
   1  -2   2  124.52    4.37
   1  -2   2  126.86    4.44
  -2   2  -2   10.54    0.51
  -2   2  -2   12.12    0.44
   2  -2   2   35.04    1.41
   2  -2   2   37.24    1.35
  -3   2  -2   16.60    0.63
  -3   2  -2   17.35    0.75
   3  -2   2   16.09    0.79
   3  -2   2   15.71    0.68
  -4   2  -2  123.91    4.55
  -4   2  -2  127.22    3.72
   4  -2   2  109.09    3.96
   4  -2   2  111.44    4.03
  -5   2  -2    7.84    0.50
   5  -2   2    5.74    0.52
   5  -2   2    5.01    0.42
  -6   2  -2   16.85    0.81
   6  -2   2   16.15    0.86
  -7   2  -2    9.09    0.69
   7  -2   2    8.24    0.64
   6   1  -2   46.89    1.98
  -6  -1   2   57.19    2.08
   5   1  -2    3.17    0.39
  -5  -1   2    2.25    0.40
   4   1  -2  183.06    6.68
   4   1  -2  187.73    6.59
  -4  -1   2  183.72    5.47
  -4  -1   2  185.21    6.46
   3   1  -2   69.77    2.57
   3   1  -2   68.75    2.51
  -3  -1   2   82.32    2.53
  -3  -1   2   82.20    2.97
   2   1  -2  491.67   17.80
   2   1  -2  509.14   17.94
  -2  -1   2  832.20   28.74
   1   1  -2  138.65    4.93
   1   1  -2  140.07    4.93
  -1  -1   2  136.19    4.71
   0   1  -2   22.43    0.80
   0   1  -2   19.73    0.78
   0  -1   2    2.45    0.26
  -1   1  -2    0.91    0.14
   1  -1   2    0.80    0.16
   1  -1   2    1.02    0.14
  -2   1  -2  237.92    6.89
  -2   1  -2  245.24    8.56
   2  -1   2  237.19    8.09
   2  -1   2  219.52    7.83
  -3   1  -2    7.50    0.42
  -3   1  -2    9.78    0.50
   3  -1   2    8.23    0.48
   3  -1   2    6.90    0.43
  -4   1  -2   62.57    1.93
  -4   1  -2   59.77    2.36
   4  -1   2   43.68    1.66
   4  -1   2   42.47    1.70
  -5   1  -2    7.43    0.51
   5  -1   2    6.13    0.47
  -6   1  -2   39.26    1.48
   6  -1   2   61.96    2.51
   6   0  -2  115.83    4.36
  -6   0   2  121.97    3.86
   5   0  -2   56.44    2.21
  -5   0   2   73.24    2.78
  -5   0   2   75.37    2.42
   4   0  -2  338.01   12.01
  -4   0   2  431.62   14.85
  -4   0   2  436.43   12.40
   3   0  -2  221.94    7.93
   3   0  -2  226.81    7.99
  -3   0   2  240.00    8.15
  -3   0   2  232.89    6.79
   2   0  -2   76.56    2.77
   2   0  -2   74.47    2.73
   2   0  -2   78.38    2.71
  -2   0   2   39.23    1.47
   1   0  -2    5.85    0.27
   1   0  -2    5.52    0.24
  -1   0   2    4.55    0.20
  -1   0   2    4.31    0.30
  -1   0   2    4.61    0.23
   0   0  -2  121.27    4.19
   0   0  -2  117.09    4.04
   0   0  -2  115.81    3.34
   0   0   2  122.35    3.50
   0   0   2  122.77    4.23
   0   0   2  125.87    4.38
  -1   0  -2   78.58    2.31
  -1   0  -2   80.91    2.94
  -1   0  -2   80.81    2.78
   1   0   2   70.97    2.50
   1   0   2   72.05    2.64
   1   0   2   72.03    2.08
  -2   0  -2  133.42    4.77
  -2   0  -2  130.63    3.78
   2   0   2  104.29    3.59
  -3   0  -2   19.07    0.67
  -3   0  -2   16.93    0.73
  -3   0  -2   17.89    0.86
   3   0   2   13.07    0.64
  -4   0  -2   17.25    0.74
  -4   0  -2   16.03    0.69
  -4   0  -2   17.20    0.87
   4   0   2   43.54    1.75
  -5   0  -2   19.39    0.86
   5   0   2   17.59    0.92
  -6   0  -2  258.90    7.65
   6   0   2  185.67    6.87
   6  -1  -2  153.22    5.65
  -6   1   2  193.89    7.09
  -6   1   2  207.58    6.03
   5  -1  -2  189.04    6.84
  -5   1   2  209.36    7.43
  -5   1   2  214.56    6.24
   4  -1  -2   91.52    3.37
  -4   1   2   56.13    2.16
  -4   1   2   56.84    1.82
   3  -1  -2   38.87    1.49
  -3   1   2   33.09    1.33
  -3   1   2   33.37    1.10
   2  -1  -2   62.95    2.29
  -2   1   2   57.12    1.68
  -2   1   2   54.84    2.06
   1  -1  -2  177.41    5.94
   1  -1  -2  149.24    6.08
   1  -1  -2  187.99    6.14
  -1   1   2  169.73    5.72
  -1   1   2  156.77    5.57
  -1   1   2  156.82    4.59
   0   1   2   60.37    2.28
   0   1   2   66.83    2.38
   0   1   2   70.60    2.29
  -1  -1  -2   75.72    2.15
  -1  -1  -2   70.26    2.73
   1   1   2   48.11    1.81
  -2  -1  -2   20.80    0.75
  -2  -1  -2   20.06    0.73
  -2  -1  -2   21.49    0.75
  -2  -1  -2   20.87    0.97
   2   1   2   30.75    1.24
  -3  -1  -2   15.79    0.80
  -3  -1  -2   15.64    0.65
  -3  -1  -2   15.30    0.62
   3   1   2    9.89    0.56
  -4  -1  -2  584.19   20.61
  -4  -1  -2  578.01   16.52
   4   1   2  436.51   15.54
  -5  -1  -2    5.56    0.52
   5   1   2    2.45    0.39
  -6  -1  -2   68.93    2.36
   6   1   2   79.90    3.21
   7  -2  -2  100.77    3.86
  -7   2   2  126.14    4.01
   6  -2  -2   34.75    1.48
  -6   2   2   24.08    1.18
  -6   2   2   23.21    1.01
   5  -2  -2   26.08    1.12
  -5   2   2   20.40    1.02
   4  -2  -2   51.98    1.98
  -4   2   2   40.40    1.37
  -4   2   2   41.67    1.69
   3  -2  -2  170.99    5.95
   3  -2  -2  161.52    5.87
  -3   2   2  159.65    4.61
  -3   2   2  158.10    5.60
   2  -2  -2   36.67    1.48
   2  -2  -2   38.05    1.41
  -2   2   2   18.51    0.74
  -2   2   2   19.24    0.65
  -2   2   2   19.83    0.71
   1  -2  -2  151.33    5.27
   1  -2  -2  151.51    5.28
   1  -2  -2  140.82    5.13
   0  -2  -2   35.31    1.49
   0  -2  -2   41.01    1.40
   0   2   2   18.17    0.77
  -1  -2  -2   36.32    1.18
  -1  -2  -2   34.20    1.47
  -1  -2  -2   37.71    1.27
   1   2   2   17.53    0.64
   1   2   2   16.49    0.75
  -2  -2  -2  540.92   20.70
  -2  -2  -2  659.56   21.91
  -2  -2  -2  636.57   17.65
   2   2   2  491.86   17.47
  -3  -2  -2   27.87    1.26
  -3  -2  -2   26.37    1.00
   3   2   2   15.74    0.79
  -4  -2  -2   47.86    1.99
  -4  -2  -2   46.73    1.63
   4   2   2   72.85    2.85
  -5  -2  -2   19.45    0.93
   5   2   2   20.89    1.11
   7  -3  -2   23.84    1.15
  -7   3   2   23.41    1.09
  -7   3   2   22.05    1.22
   6  -3  -2   14.36    0.76
  -6   3   2   14.87    0.89
  -6   3   2   14.11    0.75
   5  -3  -2  143.23    5.21
  -5   3   2  160.57    5.75
  -5   3   2  158.06    4.74
   4  -3  -2   59.90    2.26
   4  -3  -2   60.25    2.40
   3  -3  -2  159.06    5.51
   3  -3  -2  148.25    5.48
  -3   3   2  128.35    4.54
  -3   3   2  128.37    3.76
   2  -3  -2   51.48    1.93
   2  -3  -2   52.78    2.00
  -2   3   2   31.43    1.16
  -2   3   2   29.96    0.99
   1  -3  -2  108.73    3.97
   1  -3  -2  111.24    3.96
   1  -3  -2  109.26    3.88
  -1   3   2   91.90    3.34
   0  -3  -2  791.69   25.74
   0  -3  -2  700.07   26.83
   0   3   2  698.44   24.99
  -1  -3  -2   47.07    1.63
  -1  -3  -2   44.23    1.84
   1   3   2   23.77    1.01
  -2  -3  -2   54.51    2.19
  -2  -3  -2   53.82    1.79
   2   3   2   85.56    3.21
  -3  -3  -2   51.15    2.12
  -3  -3  -2   50.43    1.74
   3   3   2   56.66    2.25
  -4  -3  -2  112.02    3.50
  -4  -3  -2  111.09    4.28
   4   3   2  102.17    3.91
  -5  -3  -2   35.40    1.45
   5   3   2   35.56    1.65
   7  -4  -2   66.99    2.65
  -7   4   2   94.70    3.70
   6  -4  -2   10.42    0.61
  -6   4   2    8.31    0.56
  -6   4   2    8.90    0.75
   5  -4  -2  126.25    4.66
   5  -4  -2  121.38    4.53
   4  -4  -2   52.45    2.20
   4  -4  -2   52.29    2.00
  -4   4   2   37.50    1.28
   3  -4  -2   83.88    3.10
   3  -4  -2   85.50    3.21
  -3   4   2   75.24    2.28
  -3   4   2   74.09    2.70
   2  -4  -2  522.04   17.44
   2  -4  -2  496.60   18.18
  -2   4   2  473.28   16.85
   1  -4  -2  177.88    6.22
  -1   4   2  116.47    4.26
  -1   4   2  120.15    4.31
   0  -4  -2   23.42    0.96
   0  -4  -2   22.58    1.06
   0   4   2   29.18    1.28
   0   4   2   30.57    1.21
  -1  -4  -2   25.80    1.00
  -1  -4  -2   24.85    1.18
   1   4   2   39.20    1.72
   1   4   2   44.49    1.67
  -2  -4  -2  131.88    4.97
   2   4   2  121.80    4.51
   2   4   2  118.14    4.44
  -3  -4  -2   16.97    1.00
   3   4   2   23.82    1.17
   3   4   2   22.60    1.12
  -4  -4  -2  155.94    4.80
   4   4   2  123.48    4.43
   4   4   2  106.66    4.37
   6  -5  -2   24.44    1.35
   6  -5  -2   22.45    1.07
  -6   5   2   17.22    0.82
   5  -5  -2   34.46    1.41
   5  -5  -2   33.78    1.67
  -5   5   2   30.96    1.16
   4  -5  -2  201.36    7.22
   4  -5  -2  201.31    7.25
  -4   5   2  220.40    6.42
   3  -5  -2  214.74    7.72
   3  -5  -2  216.64    7.65
  -3   5   2  174.99    5.11
  -3   5   2  174.30    6.24
   2  -5  -2   65.93    2.48
   2  -5  -2   65.67    2.53
  -2   5   2   47.13    1.81
   1  -5  -2   18.73    0.91
  -1   5   2   41.71    1.65
  -1   5   2   43.31    1.71
   0  -5  -2   54.99    2.07
   0   5   2   67.23    2.43
   0   5   2   60.83    2.51
   1   5   2    4.16    0.49
   1   5   2    5.14    0.44
   2   5   2  136.73    5.19
   2   5   2  145.42    5.32
   3   5   2   59.77    2.50
   3   5   2   64.61    2.59
   4   5   2   46.55    2.03
   4   5   2   44.25    1.98
   6  -6  -2   94.66    3.85
  -6   6   2  112.05    3.51
   5  -6  -2  112.06    4.38
  -5   6   2   99.73    3.11
   4  -6  -2   34.05    1.65
  -4   6   2   26.23    1.02
   3  -6  -2   10.18    0.74
  -3   6   2   15.64    0.73
  -3   6   2   15.91    0.70
   2  -6  -2   30.79    1.40
  -2   6   2   31.34    1.31
   1  -6  -2   16.34    0.87
  -1   6   2    7.70    0.54
   0  -6  -2  126.32    4.51
   0   6   2  104.22    3.99
   1   6   2  134.76    5.11
   2   6   2   17.59    1.04
   3   6   2   56.10    2.43
   5  -7  -2    1.95    0.54
  -5   7   2    2.26    0.36
   4  -7  -2   23.44    1.30
  -4   7   2   23.11    0.96
   3  -7  -2   27.70    1.37
  -3   7   2   11.99    0.66
   2  -7  -2  116.24    4.30
  -2   7   2   89.50    3.41
   1  -7  -2  141.72    5.12
  -1   7   2  107.52    4.11
   0   7   2    4.20    0.52
   1   7   2   58.32    2.51
   2   7   2  179.76    6.80
   4  -8  -2   68.80    2.89
  -4   8   2   57.11    1.99
   3  -8  -2  126.74    4.77
  -3   8   2   93.56    3.55
   2  -8  -2    6.54    0.66
  -2   8   2    4.84    0.52
  -1   8   2   47.86    2.09
   0   8   2  122.54    4.78
   0   8  -3   26.52    1.28
   0  -8   3   41.75    1.81
  -1   8  -3    7.51    0.59
   1  -8   3   25.17    1.30
  -2   8  -3   89.49    3.43
   2  -8   3  116.18    4.44
  -3   8  -3    9.51    0.63
   3  -8   3   35.47    1.77
  -4   8  -3   11.25    0.71
  -4   8  -3   11.51    0.68
   4  -8   3   17.49    1.24
   2   7  -3   38.37    1.72
   1   7  -3   17.40    0.93
   0   7  -3   77.73    3.01
   0  -7   3   93.42    3.48
  -1   7  -3    2.35    0.34
   1  -7   3   15.89    0.92
  -2   7  -3    3.35    0.39
   2  -7   3    4.84    0.56
  -3   7  -3  191.48    6.95
   3  -7   3  238.39    8.58
  -4   7  -3   37.85    1.59
  -4   7  -3   37.55    1.39
   4  -7   3   48.22    2.24
  -5   7  -3   25.98    1.09
   5  -7   3   42.27    2.08
   3   6  -3    3.64    0.49
   2   6  -3   49.58    2.04
   1   6  -3   21.64    1.02
  -1  -6   3   28.62    1.26
   0   6  -3    0.85    0.23
   0  -6   3    0.61    0.25
  -1   6  -3  239.58    8.60
   1  -6   3  278.54    9.71
  -2   6  -3   19.50    0.90
   2  -6   3   23.86    1.19
  -3   6  -3   61.31    2.37
   3  -6   3   84.97    3.34
  -4   6  -3  100.46    3.73
  -4   6  -3   99.04    3.09
   4  -6   3   97.54    3.84
  -5   6  -3  206.58    6.12
   5  -6   3  184.32    6.79
  -6   6  -3    0.28    0.29
   6  -6   3    1.63    0.50
   3   5  -3   27.73    1.24
   2   5  -3    2.76    0.35
  -2  -5   3    3.88    0.39
   1   5  -3  217.74    7.82
  -1  -5   3  264.75    9.16
   0   5  -3   20.27    0.90
   0  -5   3   25.94    1.15
  -1   5  -3   52.15    2.00
   1  -5   3   79.81    2.97
  -2   5  -3  126.96    4.62
   2  -5   3  132.72    4.80
  -3   5  -3  319.36   11.36
   3  -5   3  355.81   12.40
  -4   5  -3    5.91    0.43
  -4   5  -3    6.44    0.48
   4  -5   3    6.44    0.68
  -5   5  -3   92.64    2.90
   5  -5   3   79.78    3.18
  -6   5  -3   39.93    1.49
   6  -5   3   27.86    1.44
  -4  -4   3    6.97    0.65
   3   4  -3  156.89    5.74
   3   4  -3  160.77    5.77
  -3  -4   3  222.63    6.72
  -3  -4   3  225.29    7.80
   2   4  -3   24.63    1.06
   2   4  -3   25.45    1.01
  -2  -4   3   23.50    1.06
  -2  -4   3   23.89    1.05
   1   4  -3   49.50    1.77
   1   4  -3   46.68    1.84
  -1  -4   3   68.60    2.54
   0   4  -3   33.97    1.26
   0   4  -3   36.33    1.38
   0  -4   3   37.95    1.51
  -1   4  -3  308.52   11.00
   1  -4   3  363.97   12.50
  -2   4  -3   59.43    2.16
  -2   4  -3   55.18    2.06
   2  -4   3   58.39    2.07
  -3   4  -3   89.81    2.73
  -3   4  -3   91.18    3.34
   3  -4   3   99.67    3.79
   3  -4   3  104.72    3.66
  -4   4  -3   63.66    2.01
  -4   4  -3   63.49    2.44
   4  -4   3   51.46    1.95
   4  -4   3   52.25    2.15
  -5   4  -3   15.43    0.71
   5  -4   3   20.23    0.90
   5  -4   3   20.88    1.08
  -6   4  -3    0.87    0.33
   6  -4   3    0.69    0.36
   6  -4   3    1.59    0.28
   5   3  -3   60.87    2.44
  -5  -3   3   94.80    3.17
   4   3  -3   22.19    1.01
  -4  -3   3   15.06    0.83
   3   3  -3   60.75    2.35
   3   3  -3   63.88    2.35
  -3  -3   3   85.54    2.88
  -3  -3   3   94.69    3.30
   2   3  -3   62.46    2.34
   2   3  -3   63.16    2.31
  -2  -3   3   69.21    2.32
  -2  -3   3   73.21    2.63
   1   3  -3  283.33   10.20
   1   3  -3  292.91   10.24
  -1  -3   3  371.68   10.79
  -1  -3   3  380.18   12.87
   0   3  -3  155.30    5.43
   0   3  -3  148.13    5.35
   0  -3   3  174.98    6.01
   0  -3   3  169.78    6.07
  -1   3  -3  254.27    9.01
  -2   3  -3   85.44    3.12
   2  -3   3   88.41    3.05
   2  -3   3   82.12    3.10
  -3   3  -3   22.76    0.96
  -3   3  -3   21.97    0.80
   3  -3   3   18.60    0.91
   3  -3   3   18.40    0.75
  -4   3  -3   13.37    0.61
  -4   3  -3   13.68    0.70
   4  -3   3   11.23    0.56
   4  -3   3   11.83    0.73
  -5   3  -3  578.15   16.45
   5  -3   3  434.62   14.99
   5  -3   3  435.67   15.44
  -6   3  -3   30.16    1.21
   6  -3   3   26.53    1.21
   5   2  -3   21.26    1.03
  -5  -2   3   28.56    1.24
   4   2  -3   16.63    0.80
  -4  -2   3   13.85    0.75
  -4  -2   3   14.45    0.81
   3   2  -3   99.03    3.65
   3   2  -3  101.17    3.62
  -3  -2   3  142.34    5.01
  -3  -2   3  139.91    4.25
   2   2  -3  179.72    6.41
   2   2  -3  180.55    6.40
  -2  -2   3  249.04    8.43
  -2  -2   3  238.34    7.06
   1   2  -3  156.89    5.81
   1   2  -3  169.72    5.79
  -1  -2   3  208.07    6.89
  -1  -2   3  189.31    5.77
   0   2  -3   49.54    1.83
   0   2  -3   51.89    1.87
   0  -2   3   61.83    2.21
   0  -2   3   62.08    2.26
  -1   2  -3   93.25    3.60
  -1   2  -3  109.70    3.65
   1  -2   3   70.91    2.56
   1  -2   3   70.05    2.56
   1  -2   3   73.14    2.56
  -2   2  -3   14.06    0.64
  -2   2  -3   14.30    0.51
   2  -2   3   16.84    0.67
   2  -2   3   16.23    0.75
  -3   2  -3  773.38   22.51
  -3   2  -3  792.46   28.03
   3  -2   3  689.93   24.48
   3  -2   3  672.68   23.51
  -4   2  -3   45.49    1.46
  -4   2  -3   43.93    1.77
   4  -2   3   39.82    1.56
   4  -2   3   38.39    1.56
  -5   2  -3   37.31    1.32
   5  -2   3   39.33    1.60
   5  -2   3   39.11    1.62
  -6   2  -3   13.17    0.72
   6  -2   3   13.47    0.78
   6   1  -3   14.63    0.83
  -6  -1   3    8.98    0.74
   5   1  -3   64.48    2.51
  -5  -1   3  105.74    3.42
  -5  -1   3  110.01    3.99
   4   1  -3  150.59    5.46
  -4  -1   3  233.11    8.08
  -4  -1   3  229.65    6.79
   3   1  -3   73.34    2.77
   3   1  -3   76.98    2.71
  -3  -1   3   93.70    3.40
  -3  -1   3   94.22    2.87
   2   1  -3    4.81    0.26
   2   1  -3    5.08    0.29
  -2  -1   3    7.10    0.42
  -2  -1   3    6.99    0.47
   1   1  -3  158.71    5.66
   1   1  -3  157.73    5.62
  -1  -1   3  130.65    4.63
  -1  -1   3  135.25    3.86
   0   1  -3  156.24    5.24
   0   1  -3  137.63    5.21
   0  -1   3  157.49    5.45
  -1   1  -3  854.05   30.48
   1  -1   3  761.41   26.17
   1  -1   3  760.23   27.16
  -2   1  -3  185.94    5.32
  -2   1  -3  187.90    6.68
   2  -1   3  165.91    5.69
   2  -1   3  164.60    5.90
  -3   1  -3    8.53    0.50
  -3   1  -3    8.82    0.41
   3  -1   3   29.68    1.18
   3  -1   3   27.79    1.13
  -4   1  -3   54.28    1.74
  -4   1  -3   55.29    2.17
   4  -1   3   54.97    2.12
   4  -1   3   53.06    2.01
  -5   1  -3  155.53    4.62
   5  -1   3  110.78    4.16
  -6   1  -3    2.58    0.42
   6  -1   3    3.28    0.47
   6   0  -3   88.76    3.42
  -6   0   3  137.42    4.30
   5   0  -3   20.07    0.94
  -5   0   3   26.57    1.08
  -5   0   3   26.51    1.21
   4   0  -3   11.66    0.59
  -4   0   3    4.41    0.41
  -4   0   3    4.57    0.40
   3   0  -3  237.47    8.42
   3   0  -3  235.92    8.34
  -3   0   3  231.29    6.67
  -3   0   3  231.88    8.01
   2   0  -3   51.50    1.88
   2   0  -3   53.15    1.94
  -2   0   3   59.88    1.80
  -2   0   3   59.00    2.18
   1   0  -3  632.91   21.77
   1   0  -3  594.10   21.89
  -1   0   3  616.17   18.24
  -1   0   3  664.49   22.20
   0   0  -3  216.37    6.19
   0   0  -3  227.67    7.94
   0   0  -3  213.84    7.81
   0   0   3  190.21    6.29
   0   0   3  177.49    5.19
  -1   0  -3   19.02    0.79
  -1   0  -3   18.84    0.71
  -1   0  -3   18.53    0.57
   1   0   3    9.48    0.50
   1   0   3   10.28    0.31
   1   0   3    9.07    0.41
  -2   0  -3  190.63    5.37
  -2   0  -3  187.03    6.77
   2   0   3  171.11    6.06
   2   0   3  184.49    6.38
  -3   0  -3  195.02    5.60
  -3   0  -3  195.27    7.06
   3   0   3  166.20    5.80
   3   0   3  153.61    5.49
  -4   0  -3   21.21    0.82
  -4   0  -3   20.81    1.05
   4   0   3   21.95    1.04
  -5   0  -3   82.61    2.61
   5   0   3   45.14    1.89
  -6   0  -3   34.26    1.36
   6   0   3   24.59    1.27
   6  -1  -3   17.35    0.88
  -6   1   3   10.46    0.69
  -6   1   3    9.79    0.72
   5  -1  -3  128.81    4.73
  -5   1   3  126.61    4.58
  -5   1   3  126.13    3.84
   4  -1  -3   87.60    3.24
  -4   1   3  113.97    4.14
  -4   1   3  115.90    3.45
   3  -1  -3  503.22   18.00
  -3   1   3  557.39   19.27
  -3   1   3  561.18   16.09
   2  -1  -3  237.21    8.33
   2  -1  -3  225.54    8.13
  -2   1   3  198.91    7.05
  -2   1   3  200.23    5.72
  -2   1   3  202.62    6.94
   1  -1  -3   54.31    1.99
  -1   1   3   25.96    0.81
  -1   1   3   27.01    1.05
   0  -1  -3   70.73    2.61
   0   1   3   84.98    2.86
   0   1   3   80.38    2.99
  -1  -1  -3  130.03    3.77
  -1  -1  -3  132.66    4.78
   1   1   3  110.10    4.00
  -2  -1  -3   97.59    3.66
  -2  -1  -3   96.81    2.85
   2   1   3   89.96    3.34
  -3  -1  -3  159.65    5.97
  -3  -1  -3  165.45    4.73
   3   1   3  116.41    4.31
  -4  -1  -3   41.81    1.42
  -4  -1  -3   40.74    1.76
   4   1   3   24.78    1.16
  -5  -1  -3    7.43    0.63
  -5  -1  -3    7.11    0.54
   5   1   3   22.17    1.13
  -6  -1  -3   22.34    1.06
   6   1   3   12.20    0.85
   6  -2  -3   43.40    1.79
  -6   2   3   62.94    2.12
  -6   2   3   61.89    2.49
   5  -2  -3  226.57    8.14
  -5   2   3  275.22    9.45
  -5   2   3  264.15    7.83
   4  -2  -3  214.73    7.69
  -4   2   3  225.21    6.60
  -4   2   3  230.82    8.00
   3  -2  -3   63.65    2.36
  -3   2   3   34.41    1.14
  -3   2   3   35.73    1.46
   2  -2  -3  178.66    6.17
   2  -2  -3  176.65    6.21
   2  -2  -3  167.51    6.10
  -2   2   3  165.43    4.57
  -2   2   3  152.46    5.55
   1  -2  -3  168.95    6.07
   1  -2  -3  166.91    6.26
   1  -2  -3  189.62    6.26
  -1   2   3  149.91    4.28
   0  -2  -3  223.08    8.27
   0  -2  -3  238.12    7.89
   0   2   3  217.58    7.76
  -1  -2  -3  213.65    7.72
   1   2   3  166.73    5.74
   1   2   3  172.57    6.11
  -2  -2  -3  213.32    6.16
  -2  -2  -3  212.78    7.73
   2   2   3  152.30    5.54
  -3  -2  -3    9.79    0.66
  -3  -2  -3    9.26    0.51
   3   2   3    8.74    0.58
  -4  -2  -3   33.09    1.22
  -4  -2  -3   32.75    1.51
   4   2   3   20.43    1.05
  -5  -2  -3  234.94    8.53
  -5  -2  -3  229.75    6.87
   5   2   3  169.05    6.32
   7  -3  -3   62.87    2.52
  -7   3   3   81.31    3.21
   6  -3  -3  131.78    4.87
  -6   3   3  148.08    4.56
  -6   3   3  152.66    5.51
   5  -3  -3   41.37    1.66
  -5   3   3   30.27    1.40
  -5   3   3   28.43    1.09
   4  -3  -3   10.12    0.74
   4  -3  -3    9.60    0.53
  -4   3   3   18.99    1.03
  -4   3   3   20.54    0.78
   3  -3  -3   81.60    2.97
   3  -3  -3   79.87    3.05
  -3   3   3   71.46    2.51
  -3   3   3   69.30    2.14
   2  -3  -3  223.10    7.72
   2  -3  -3  210.36    7.56
  -2   3   3  205.23    5.83
  -2   3   3  202.02    7.21
   1  -3  -3  176.86    6.07
   1  -3  -3  165.28    6.27
   1  -3  -3  181.28    6.27
   0  -3  -3  337.36   10.74
   0  -3  -3  292.28   11.24
   0   3   3  267.30    9.53
  -1  -3  -3   26.25    1.23
  -1  -3  -3   27.09    0.98
   1   3   3   10.80    0.60
  -2  -3  -3  128.05    4.80
  -2  -3  -3  127.23    3.83
   2   3   3   90.53    3.40
  -3  -3  -3  345.25   10.09
  -3  -3  -3  354.20   12.61
   3   3   3  264.01    9.53
  -4  -3  -3   68.77    2.28
  -4  -3  -3   67.84    2.80
   4   3   3   38.38    1.71
  -5  -3  -3   17.87    0.94
   5   3   3   30.79    1.51
   7  -4  -3   21.88    1.09
  -7   4   3   18.26    1.11
   6  -4  -3   14.94    0.79
  -6   4   3   20.77    0.94
  -6   4   3   21.75    1.19
   5  -4  -3   32.27    1.55
   5  -4  -3   30.62    1.32
  -5   4   3   25.62    1.31
   4  -4  -3  187.35    6.83
   4  -4  -3  191.80    6.82
  -4   4   3  211.00    6.14
   3  -4  -3   80.56    3.05
   3  -4  -3   78.64    2.94
  -3   4   3   60.54    2.23
  -3   4   3   61.63    1.90
   2  -4  -3  251.36    8.65
   2  -4  -3  245.60    8.87
  -2   4   3  183.02    6.53
   1  -4  -3  102.37    3.87
   1  -4  -3  107.06    3.75
   1  -4  -3  104.78    3.84
  -1   4   3   71.31    2.66
  -1   4   3   69.22    2.61
   0  -4  -3  186.24    6.14
   0  -4  -3  168.96    6.49
   0   4   3  155.35    5.61
  -1  -4  -3  381.81   12.79
  -1  -4  -3  371.21   13.51
   1   4   3  345.11   12.28
  -2  -4  -3  151.33    5.68
   2   4   3  100.16    3.76
  -3  -4  -3   26.79    1.35
   3   4   3   28.72    1.33
  -4  -4  -3   45.22    1.67
  -4  -4  -3   45.37    2.05
   4   4   3   39.86    1.86
   4   4   3   44.95    1.89
   6  -5  -3  125.14    4.65
  -6   5   3  161.77    5.06
  -6   5   3  175.44    6.25
   5  -5  -3   16.26    0.81
   5  -5  -3   18.02    1.13
  -5   5   3   15.60    0.73
   4  -5  -3  205.80    7.26
   4  -5  -3  196.01    7.21
  -4   5   3  171.77    5.06
   3  -5  -3   63.80    2.40
   3  -5  -3   61.97    2.50
  -3   5   3   46.33    1.50
  -3   5   3   44.84    1.73
   2  -5  -3  165.56    6.06
   2  -5  -3  176.30    6.19
  -2   5   3  141.80    5.14
   1  -5  -3  299.70   10.34
  -1   5   3  280.52    9.78
  -1   5   3  267.14    9.83
   0  -5  -3  182.67    7.06
   0  -5  -3  201.47    6.67
   0   5   3  144.78    5.08
   0   5   3  133.76    5.18
  -1  -5  -3   55.89    2.35
   1   5   3   51.31    1.99
   1   5   3   48.42    2.10
  -2  -5  -3   55.79    2.41
   2   5   3   59.69    2.42
   2   5   3   62.05    2.54
   3   5   3   24.55    1.25
   3   5   3   21.61    1.15
   4   5   3    5.16    0.62
   4   5   3    6.08    0.66
   6  -6  -3  129.84    5.07
  -6   6   3  127.98    4.74
  -6   6   3  117.04    3.78
   5  -6  -3   40.48    1.94
  -5   6   3   35.51    1.32
   4  -6  -3   97.74    3.81
  -4   6   3   83.20    2.62
   3  -6  -3  116.05    4.33
  -3   6   3  104.79    3.14
  -3   6   3   99.98    3.75
   2  -6  -3  243.94    8.56
  -2   6   3  186.07    6.49
  -2   6   3  173.33    6.52
   1  -6  -3   72.76    2.73
  -1   6   3   53.78    2.17
  -1   6   3   52.92    2.06
   0   6   3   38.02    1.80
   0   6   3   44.90    1.69
   1   6   3   13.72    0.88
   3   6   3   39.73    1.86
   5  -7  -3   41.58    2.04
  -5   7   3   41.04    1.51
   4  -7  -3  206.41    7.50
  -4   7   3  151.97    4.58
   3  -7  -3   93.09    3.58
  -3   7   3   67.52    2.60
  -3   7   3   68.31    2.22
   2  -7  -3   15.23    0.90
  -2   7   3   17.87    0.92
   1  -7  -3    4.77    0.51
  -1   7   3    6.38    0.60
   0   7   3   18.22    1.06
   1   7   3   47.88    2.16
   4  -8  -3   17.94    1.14
  -4   8   3    9.38    0.61
   3  -8  -3    9.88    0.82
  -3   8   3    8.64    0.60
   2  -8  -3   59.73    2.43
  -2   8   3   25.10    1.25
  -1   8   3   16.14    1.01
   0   8   3   96.78    3.92
   0   8  -4   61.62    2.50
   0  -8   4   63.82    2.57
  -1   8  -4   20.95    1.05
   1  -8   4   27.42    1.39
  -2   8  -4   86.33    3.33
   2  -8   4  110.93    4.28
  -3   8  -4   46.03    1.93
   3  -8   4   71.32    3.03
  -4   8  -4    7.74    0.59
  -4   8  -4    7.29    0.59
   4  -8   4   15.58    1.22
   2   7  -4   74.48    2.96
   1   7  -4   23.89    1.15
  -1  -7   4   28.70    1.31
   0   7  -4   69.60    2.71
   0  -7   4   81.17    3.10
  -1   7  -4   90.50    3.43
   1  -7   4  114.41    4.26
  -2   7  -4    9.35    0.60
   2  -7   4   22.54    1.23
  -3   7  -4   45.41    1.87
   3  -7   4   54.19    2.38
  -4   7  -4    2.51    0.37
  -4   7  -4    1.37    0.33
   4  -7   4    6.74    0.78
  -5   7  -4    7.78    0.58
   5  -7   4   13.88    1.10
   3   6  -4    6.89    0.57
   2   6  -4   82.96    3.18
   1   6  -4  123.72    4.58
  -1  -6   4  154.11    5.51
   0   6  -4    5.68    0.43
   0  -6   4   16.64    0.88
  -1   6  -4   53.97    2.11
   1  -6   4   60.65    2.39
  -2   6  -4    5.47    0.44
   2  -6   4    1.39    0.37
  -3   6  -4   18.40    0.90
  -4   6  -4  222.11    7.93
  -4   6  -4  215.64    6.43
   4  -6   4  201.98    7.38
  -5   6  -4   34.48    1.30
   5  -6   4   35.72    1.78
  -6   6  -4   36.49    1.41
   6  -6   4   48.57    2.22
   3   5  -4  159.78    5.85
   2   5  -4    5.83    0.44
  -2  -5   4    4.15    0.43
   1   5  -4   39.53    1.59
  -1  -5   4   41.03    1.66
   0   5  -4   38.47    1.54
   0  -5   4   18.61    0.93
  -1   5  -4   14.77    0.71
   1  -5   4   14.69    0.80
  -2   5  -4  277.07    9.89
   2  -5   4  274.92    9.61
  -3   5  -4   64.29    2.46
   3  -5   4   60.33    2.46
  -4   5  -4   47.55    1.91
  -4   5  -4   46.80    1.59
   4  -5   4   64.02    2.64
  -5   5  -4   37.78    1.37
   5  -5   4   33.06    1.61
  -6   5  -4  143.32    4.38
   6  -5   4  124.57    4.72
   4   4  -4    8.74    0.56
  -4  -4   4    4.80    0.59
   3   4  -4   20.25    0.91
   3   4  -4   20.05    0.90
  -3  -4   4   16.76    0.91
  -3  -4   4   16.71    0.86
   2   4  -4   80.74    2.93
   2   4  -4   79.59    2.98
  -2  -4   4   59.79    2.26
  -2  -4   4   57.85    2.05
   1   4  -4   67.15    2.38
   1   4  -4   64.22    2.46
  -1  -4   4   74.54    2.77
   0   4  -4  227.74    7.94
   0   4  -4  224.00    8.05
   0  -4   4  242.08    8.40
  -1   4  -4   75.30    2.79
   1  -4   4   71.50    2.70
  -2   4  -4   37.87    1.50
   2  -4   4   59.12    2.06
   2  -4   4   56.59    2.23
  -3   4  -4   69.24    2.15
  -3   4  -4   70.00    2.64
   3  -4   4   64.70    2.34
   3  -4   4   64.03    2.52
  -4   4  -4  224.95    8.12
  -4   4  -4  225.36    6.54
   4  -4   4  220.30    7.80
   4  -4   4  218.18    7.81
  -5   4  -4    1.20    0.29
   5  -4   4    0.80    0.20
   5  -4   4    0.71    0.35
  -6   4  -4   53.64    1.85
   6  -4   4   54.57    2.26
   6  -4   4   53.70    2.16
   5   3  -4   39.40    1.67
  -5  -3   4   32.66    1.45
   4   3  -4   89.24    3.35
  -4  -3   4   91.68    3.39
  -4  -3   4   89.86    2.99
   3   3  -4   41.99    1.66
   3   3  -4   43.54    1.66
  -3  -3   4   50.65    1.83
  -3  -3   4   53.18    2.05
   2   3  -4  158.89    5.83
   2   3  -4  166.88    5.82
  -2  -3   4  213.69    6.42
  -2  -3   4  220.24    7.57
   1   3  -4  140.42    5.16
   1   3  -4  147.21    5.12
  -1  -3   4  139.18    4.93
   0   3  -4   18.59    0.80
   0   3  -4   19.28    0.72
   0  -3   4   48.33    1.87
  -1   3  -4   34.14    1.34
   1  -3   4   31.73    1.33
   1  -3   4   32.87    1.20
   1  -3   4   33.75    1.19
  -2   3  -4  253.32    9.01
   2  -3   4  268.38    9.27
   2  -3   4  254.12    9.03
  -3   3  -4   50.03    1.94
  -3   3  -4   49.77    1.57
   3  -3   4   46.89    1.90
   3  -3   4   48.57    1.79
  -4   3  -4  121.20    3.55
  -4   3  -4  117.12    4.40
   4  -3   4  125.35    4.53
   4  -3   4  124.25    4.53
  -5   3  -4   31.26    1.15
   5  -3   4   28.04    1.22
   5  -3   4   28.78    1.29
  -6   3  -4   31.46    1.23
   6  -3   4   47.84    1.98
   5   2  -4   34.55    1.48
  -5  -2   4   44.79    1.71
   4   2  -4   98.34    3.65
  -4  -2   4  142.13    5.08
  -4  -2   4  139.30    4.32
   3   2  -4   94.62    3.59
   3   2  -4  101.75    3.56
  -3  -2   4   89.62    2.82
  -3  -2   4   89.03    3.30
   2   2  -4    3.00    0.24
   2   2  -4    3.22    0.26
  -2  -2   4    3.96    0.45
  -2  -2   4    4.01    0.42
   1   2  -4   23.65    0.90
   1   2  -4   22.48    0.91
  -1  -2   4   15.22    0.74
  -1  -2   4   13.26    0.62
   0   2  -4  185.98    6.80
   0   2  -4  196.84    6.80
   0  -2   4  232.01    8.01
  -1   2  -4   46.15    1.74
   1  -2   4   58.04    2.23
   1  -2   4   63.61    2.24
  -2   2  -4   96.87    2.81
  -2   2  -4   96.30    3.53
   2  -2   4  119.03    4.09
   2  -2   4  108.30    4.00
  -3   2  -4   66.04    2.53
  -3   2  -4   66.97    2.01
   3  -2   4   68.87    2.55
   3  -2   4   68.37    2.54
  -4   2  -4   52.87    1.66
  -4   2  -4   50.93    2.06
   4  -2   4   50.32    1.97
   4  -2   4   51.78    2.00
  -5   2  -4    5.22    0.40
  -5   2  -4    4.60    0.47
   5  -2   4    5.62    0.50
   5  -2   4    5.58    0.47
  -6   2  -4  502.53   14.39
   6  -2   4  372.86   13.39
   6   1  -4   24.75    1.19
  -6  -1   4   38.79    1.59
   5   1  -4  102.24    3.83
  -5  -1   4  121.04    4.39
  -5  -1   4  116.87    3.73
   4   1  -4    2.51    0.30
  -4  -1   4    7.90    0.54
  -4  -1   4    7.82    0.62
   3   1  -4   27.35    1.02
   3   1  -4   25.95    1.08
  -3  -1   4   13.40    0.64
  -3  -1   4   13.61    0.76
   2   1  -4  106.86    3.83
   2   1  -4  107.59    3.87
  -2  -1   4  143.36    5.09
  -2  -1   4  145.18    4.24
   1   1  -4  280.38    9.70
   1   1  -4  262.22    9.80
  -1  -1   4  305.88    8.62
  -1  -1   4  300.30   10.40
   0   1  -4   38.08    1.51
   0   1  -4   42.99    1.52
   0  -1   4   74.56    2.68
  -1   1  -4  115.90    4.18
   1  -1   4  103.96    3.57
   1  -1   4   99.41    3.69
  -2   1  -4   14.69    0.70
  -2   1  -4   13.96    0.49
   2  -1   4   15.79    0.68
   2  -1   4   16.04    0.73
  -3   1  -4   21.26    0.98
  -3   1  -4   21.57    0.74
   3  -1   4   26.39    1.07
   3  -1   4   26.47    1.13
  -4   1  -4  638.26   17.39
  -4   1  -4  590.87   21.76
   4  -1   4  503.29   16.89
   4  -1   4  447.20   16.17
  -5   1  -4   26.76    1.29
  -5   1  -4   27.06    1.02
   5  -1   4   20.67    1.04
  -6   1  -4   46.21    1.64
   6  -1   4   54.47    2.29
   6   0  -4    5.03    0.45
  -6   0   4    1.93    0.45
   5   0  -4   37.94    1.56
  -5   0   4   22.36    0.98
  -5   0   4   22.85    1.12
   4   0  -4   37.55    1.50
  -4   0   4   55.71    2.19
  -4   0   4   57.10    1.85
   3   0  -4  225.37    8.10
   3   0  -4  234.07    8.19
  -3   0   4  293.05   10.18
  -3   0   4  297.32    8.46
   2   0  -4   99.64    3.60
   2   0  -4  103.19    3.67
  -2   0   4  108.29    3.15
  -2   0   4  106.54    3.82
   1   0  -4   36.77    1.43
   1   0  -4   39.56    1.42
  -1   0   4   22.18    0.73
  -1   0   4   23.26    0.94
   0   0  -4  116.99    3.30
   0   0  -4  112.47    4.21
   0   0  -4  121.91    4.21
   0   0   4   80.61    2.72
   0   0   4   72.64    2.18
  -1   0  -4  140.30    4.97
  -1   0  -4  135.16    3.88
   1   0   4  129.66    4.60
   1   0   4  137.87    4.85
  -2   0  -4  856.33   31.10
  -2   0  -4  885.58   24.78
   2   0   4  784.73   27.95
   2   0   4  766.07   26.45
  -3   0  -4   75.31    2.26
  -3   0  -4   76.50    2.92
   3   0   4   62.41    2.23
   3   0   4   64.10    2.45
  -4   0  -4   36.38    1.62
  -4   0  -4   37.47    1.25
   4   0   4   50.29    2.04
  -5   0  -4   91.68    2.81
  -5   0  -4   88.52    3.51
   5   0   4   86.22    3.37
   6   0   4   94.68    3.74
   6  -1  -4    5.62    0.48
  -6   1   4   10.08    0.74
  -6   1   4   11.02    0.71
   5  -1  -4   85.53    3.22
  -5   1   4  120.72    3.70
  -5   1   4  121.13    4.42
   4  -1  -4    4.54    0.35
  -4   1   4   13.37    0.78
  -4   1   4   14.64    0.64
   3  -1  -4   67.31    2.50
  -3   1   4   37.56    1.25
  -3   1   4   39.24    1.56
   2  -1  -4  149.49    5.35
   2  -1  -4  148.85    5.28
  -2   1   4  125.60    4.32
  -2   1   4  121.40    3.53
  -2   1   4  118.56    4.31
   1  -1  -4   83.19    3.13
   1  -1  -4   90.10    3.16
  -1   1   4   97.43    2.78
  -1   1   4   96.56    3.42
   0  -1  -4  536.93   19.40
   0   1   4  433.33   13.01
   0   1   4  487.78   15.91
  -1  -1  -4  163.76    5.88
  -1  -1  -4  167.04    4.62
  -1  -1  -4  156.17    5.51
   1   1   4  127.93    4.61
   1   1   4  143.23    4.92
  -2  -1  -4   13.26    0.74
  -2  -1  -4   12.52    0.50
   2   1   4   20.43    0.95
  -3  -1  -4  128.95    4.82
  -3  -1  -4  127.65    3.76
   3   1   4  141.88    5.22
  -4  -1  -4  214.37    6.18
  -4  -1  -4  210.14    7.78
   4   1   4  156.23    5.78
  -5  -1  -4   15.65    0.93
  -5  -1  -4   15.79    0.76
   5   1   4   23.26    1.21
   6  -2  -4    1.38    0.29
  -6   2   4    4.48    0.50
  -6   2   4    3.94    0.51
   5  -2  -4   64.54    2.48
  -5   2   4   42.09    1.51
  -5   2   4   44.82    1.85
   4  -2  -4   84.97    3.16
  -4   2   4   82.14    3.07
  -4   2   4   80.49    2.50
   3  -2  -4   75.43    2.80
  -3   2   4   86.08    3.15
  -3   2   4   83.88    2.54
   2  -2  -4  596.80   20.34
   2  -2  -4  534.39   20.04
  -2   2   4  467.94   13.21
  -2   2   4  455.02   15.77
   1  -2  -4  353.05   12.21
   1  -2  -4  331.45   12.15
  -1   2   4  269.00    7.37
  -1   2   4  247.74    8.87
   0   2   4   24.65    0.94
   0   2   4   24.14    1.02
  -1  -2  -4  174.69    6.40
   1   2   4  215.28    7.25
   1   2   4  188.07    6.82
  -2  -2  -4  150.26    5.64
  -2  -2  -4  154.47    4.46
   2   2   4  132.45    4.87
  -3  -2  -4   65.85    2.10
  -3  -2  -4   68.32    2.70
   3   2   4   71.21    2.78
  -4  -2  -4  140.59    5.20
  -4  -2  -4  134.16    4.12
   4   2   4   86.63    3.38
  -5  -2  -4   75.24    2.48
  -5  -2  -4   76.49    3.08
   5   2   4   54.72    2.33
  -7   3   4   41.35    1.89
   6  -3  -4   26.70    1.21
  -6   3   4   25.72    1.09
  -6   3   4   27.50    1.37
   5  -3  -4   21.56    0.99
  -5   3   4   29.50    1.41
  -5   3   4   29.95    1.13
   4  -3  -4  348.34   12.39
  -4   3   4  329.17    9.47
  -4   3   4  332.01   11.51
   3  -3  -4  176.32    6.24
   3  -3  -4  170.53    6.18
  -3   3   4  167.25    5.60
  -3   3   4  148.55    5.63
  -3   3   4  159.14    4.61
   2  -3  -4    8.90    0.63
   2  -3  -4    9.13    0.51
   2  -3  -4   10.08    0.48
  -2   3   4    3.66    0.26
   1  -3  -4   95.18    3.48
   1  -3  -4  103.27    3.59
   1  -3  -4   92.63    3.60
   0  -3  -4  214.17    7.24
   0  -3  -4  206.93    7.63
   0   3   4  174.19    6.30
  -1  -3  -4  188.04    6.89
   1   3   4  189.26    6.86
   1   3   4  202.23    6.46
   1   3   4  178.62    6.46
  -2  -3  -4  176.39    6.53
   2   3   4  132.38    4.89
  -3  -3  -4  139.56    5.28
  -3  -3  -4  139.59    4.20
   3   3   4   98.51    3.76
  -4  -3  -4    2.65    0.48
  -4  -3  -4    2.68    0.39
   4   3   4    1.15    0.37
  -5  -3  -4   96.79    3.86
   5   3   4   62.69    2.63
   6  -4  -4   93.67    3.57
  -6   4   4  102.65    3.28
  -6   4   4  106.88    4.05
   5  -4  -4  144.61    5.30
  -5   4   4  150.48    5.56
  -5   4   4  151.74    4.52
   4  -4  -4   30.15    1.44
   4  -4  -4   28.56    1.22
  -4   4   4   18.64    1.04
  -4   4   4   21.71    0.82
   3  -4  -4   28.74    1.12
   3  -4  -4   23.17    1.24
  -3   4   4   53.55    1.73
  -3   4   4   56.18    2.02
   2  -4  -4  115.25    4.23
   2  -4  -4  117.62    4.26
   2  -4  -4  117.35    4.30
  -2   4   4  102.08    3.07
  -2   4   4  105.61    3.80
   1  -4  -4  227.42    8.66
   1  -4  -4  251.36    8.33
   1  -4  -4  242.92    8.63
  -1   4   4  232.65    8.32
   0  -4  -4  159.65    5.36
   0  -4  -4  148.57    5.70
   0   4   4  123.37    4.53
  -1  -4  -4  195.43    7.21
   1   4   4  170.21    6.19
  -2  -4  -4   15.04    0.92
   2   4   4    5.65    0.53
  -3  -4  -4  126.86    4.89
   3   4   4  108.18    4.12
  -4  -4  -4  199.31    7.46
   4   4   4  150.05    5.65
   6  -5  -4    6.18    0.50
  -6   5   4    5.89    0.72
  -6   5   4    5.04    0.50
   5  -5  -4    1.44    0.27
   5  -5  -4    0.93    0.46
  -5   5   4    4.51    0.40
  -5   5   4    3.84    0.57
   4  -5  -4   35.46    1.65
   4  -5  -4   33.06    1.41
  -4   5   4   30.25    1.10
   3  -5  -4  209.12    7.54
   3  -5  -4  215.18    7.66
  -3   5   4  197.04    7.21
  -3   5   4  207.74    5.89
   2  -5  -4   56.67    2.27
   2  -5  -4   59.66    2.29
  -2   5   4   47.50    1.87
   1  -5  -4  344.02   11.38
   1  -5  -4  316.86   11.86
  -1   5   4  265.15   10.05
  -1   5   4  293.76   10.02
   0  -5  -4   41.92    1.89
   0  -5  -4   45.02    1.66
   0   5   4   31.03    1.31
  -1  -5  -4  193.34    7.19
   1   5   4  189.69    6.89
  -2  -5  -4  163.51    6.20
   2   5   4  143.50    5.32
  -3  -5  -4  137.35    5.32
   3   5   4   91.53    3.73
   3   5   4  102.38    3.83
  -6   6   4   13.48    1.01
  -6   6   4   11.53    0.69
   5  -6  -4   90.94    3.71
   5  -6  -4   93.45    3.50
  -5   6   4  109.96    3.41
   4  -6  -4   30.26    1.34
   4  -6  -4   31.59    1.56
  -4   6   4   26.63    1.03
   3  -6  -4  186.04    6.69
   3  -6  -4  179.82    6.58
  -3   6   4  129.93    4.90
  -3   6   4  140.67    4.06
   2  -6  -4   37.66    1.61
  -2   6   4   29.67    1.26
  -2   6   4   29.19    1.29
   1  -6  -4  185.99    6.54
  -1   6   4  179.64    6.41
  -1   6   4  173.02    6.51
   0   6   4  171.48    5.98
   0   6   4  156.21    6.12
   1   6   4  159.67    5.93
   1   6   4  164.18    6.11
   2   6   4   50.63    2.20
   2   6   4   49.16    2.08
   5  -7  -4  134.82    5.20
  -5   7   4  112.93    3.52
   4  -7  -4   29.80    1.55
  -4   7   4   24.96    1.03
   3  -7  -4   76.87    3.03
  -3   7   4   71.98    2.31
  -3   7   4   70.70    2.73
   2  -7  -4  105.68    3.93
  -2   7   4   88.75    3.43
  -1   7   4  158.69    5.96
   0   7   4   79.09    3.23
   1   7   4   68.37    2.89
   4  -8  -4   46.92    2.16
  -4   8   4   33.34    1.30
   3  -8  -4  244.12    8.71
  -3   8   4  181.08    5.45
  -2   8   4   67.50    2.75
  -1   8   4   38.62    1.82
   0   8   4    2.34    0.55
   0  -8   5   28.85    1.40
  -1   8  -5   97.43    3.73
   1  -8   5  122.79    4.63
  -2   8  -5    3.59    0.46
   2  -8   5    3.21    0.58
  -3   8  -5   42.89    1.83
   3  -8   5   44.94    2.17
  -4   8  -5   28.96    1.19
  -4   8  -5   29.12    1.37
   1   7  -5  103.55    3.92
  -1  -7   5  130.24    4.78
   0   7  -5    0.84    0.27
   0  -7   5    0.67    0.33
  -1   7  -5   94.63    3.58
   1  -7   5  108.27    4.08
  -2   7  -5   20.48    0.99
   2  -7   5   24.65    1.30
  -3   7  -5  149.34    5.52
   3  -7   5  168.02    6.25
  -4   7  -5   95.02    3.04
  -4   7  -5   97.60    3.70
   4  -7   5  109.22    4.36
  -5   7  -5   14.36    0.75
   5  -7   5   19.45    1.32
   3   6  -5   51.15    2.10
   2   6  -5    2.32    0.35
  -2  -6   5    2.64    0.41
   1   6  -5  112.49    4.18
  -1  -6   5  137.79    4.99
   0   6  -5   16.99    0.83
   0  -6   5   24.00    1.19
  -1   6  -5  195.51    7.08
   1  -6   5  208.45    7.40
  -2   6  -5  153.63    5.62
   2  -6   5  169.57    6.14
  -3   6  -5   31.77    1.37
   3  -6   5   41.40    1.89
  -4   6  -5   16.80    0.79
  -4   6  -5   18.07    0.93
   4  -6   5   17.19    1.11
  -5   6  -5   10.30    0.62
   5  -6   5    2.47    0.57
  -6   6  -5    8.96    0.65
   6  -6   5    8.06    0.87
   3   5  -5   80.86    3.08
   2   5  -5    0.97    0.25
  -2  -5   5    0.62    0.30
   1   5  -5  128.46    4.70
  -1  -5   5  148.45    5.31
   0   5  -5  230.49    8.26
   0  -5   5  270.21    9.42
  -1   5  -5   16.13    0.77
   1  -5   5   24.53    1.20
  -2   5  -5   10.43    0.60
   2  -5   5   10.71    0.72
  -3   5  -5   41.25    1.68
   3  -5   5   12.82    0.84
  -4   5  -5   48.37    1.95
  -4   5  -5   46.86    1.59
   4  -5   5   39.12    1.80
  -5   5  -5  250.00    7.31
   5  -5   5  181.03    6.63
  -6   5  -5   40.22    1.49
   6  -5   5   32.29    1.60
  -4  -4   5    4.81    0.63
   3   4  -5  108.08    3.93
   3   4  -5  106.63    3.95
  -3  -4   5  151.98    5.38
  -3  -4   5  147.53    4.68
   2   4  -5  211.94    7.94
   2   4  -5  232.42    7.91
  -2  -4   5  325.89   11.28
   1   4  -5   39.64    1.45
   1   4  -5   37.47    1.52
  -1  -4   5   46.71    1.88
   0   4  -5   10.30    0.46
   0   4  -5   11.55    0.58
   0  -4   5    9.35    0.64
  -1   4  -5   96.54    3.56
   1  -4   5   46.17    1.86
  -2   4  -5  139.53    5.07
   2  -4   5  129.87    4.69
  -3   4  -5  393.48   14.46
  -3   4  -5  421.22   11.61
   3  -4   5  347.78   12.16
   3  -4   5  340.22   11.94
  -4   4  -5  105.68    3.14
  -4   4  -5  101.71    3.90
   4  -4   5   80.36    2.96
   4  -4   5   80.12    3.11
  -5   4  -5   21.82    1.10
  -5   4  -5   22.53    0.92
   5  -4   5   39.04    1.72
   5  -4   5   37.97    1.56
  -6   4  -5    2.26    0.39
   5   3  -5   47.88    1.96
  -5  -3   5   60.68    2.26
   4   3  -5  182.97    6.62
  -4  -3   5  311.62    9.11
  -4  -3   5  305.09   10.74
   3   3  -5   14.13    0.65
   3   3  -5   13.51    0.65
  -3  -3   5    8.17    0.62
  -3  -3   5    8.83    0.65
   2   3  -5   12.81    0.59
   2   3  -5   13.40    0.62
  -2  -3   5    5.52    0.55
  -2  -3   5    5.46    0.53
   1   3  -5  215.09    7.46
   1   3  -5  205.63    7.50
  -1  -3   5  188.84    6.63
   0   3  -5  109.12    3.90
   0   3  -5  105.37    3.83
   0  -3   5  118.45    4.26
  -1   3  -5  377.93   13.60
   1  -3   5  368.41   12.62
   1  -3   5  366.13   12.94
  -2   3  -5  222.21    7.95
   2  -3   5  180.93    6.55
   2  -3   5  192.87    6.65
  -3   3  -5    5.96    0.48
  -3   3  -5    6.95    0.37
   3  -3   5   17.86    0.76
   3  -3   5   16.69    0.89
  -4   3  -5    2.14    0.27
  -4   3  -5    1.85    0.34
   4  -3   5    3.60    0.34
   4  -3   5    3.71    0.48
  -5   3  -5   83.26    3.17
  -5   3  -5   78.50    2.52
   5  -3   5   75.80    2.93
   5  -3   5   77.48    2.92
  -6   3  -5   13.73    0.72
   6  -3   5   10.79    0.70
   5   2  -5    8.98    0.58
  -5  -2   5    5.82    0.59
   4   2  -5   29.08    1.22
  -4  -2   5   26.21    1.12
  -4  -2   5   26.64    1.28
   3   2  -5  167.90    5.73
   3   2  -5  152.20    5.75
  -3  -2   5  149.98    4.54
  -3  -2   5  151.21    5.40
   2   2  -5  144.67    5.18
   2   2  -5  144.57    5.18
  -2  -2   5  176.71    6.27
  -2  -2   5  178.38    5.24
   1   2  -5  299.73   10.29
   1   2  -5  275.34   10.17
  -1  -2   5  308.92   10.43
  -1  -2   5  295.59    8.68
   0   2  -5  329.86   11.29
   0   2  -5  305.39   11.41
   0  -2   5  319.40   10.99
  -1   2  -5    4.35    0.31
   1  -2   5    5.97    0.44
   1  -2   5    5.87    0.40
  -2   2  -5    2.75    0.21
  -2   2  -5    2.66    0.33
   2  -2   5    6.24    0.46
   2  -2   5    7.46    0.45
  -3   2  -5  129.05    4.82
  -3   2  -5  133.36    3.81
   3  -2   5  131.59    4.74
   3  -2   5  128.68    4.61
  -4   2  -5   66.44    2.00
  -4   2  -5   62.58    2.54
   4  -2   5   56.46    2.11
   4  -2   5   52.84    2.14
  -5   2  -5   21.82    0.86
  -5   2  -5   21.10    1.08
   5  -2   5   33.47    1.47
   6  -2   5   11.38    0.78
   6   1  -5   37.62    1.63
  -6  -1   5   33.70    1.46
   5   1  -5  117.88    4.37
  -5  -1   5  148.22    4.58
  -5  -1   5  148.80    5.42
   4   1  -5  108.95    4.01
  -4  -1   5  146.87    4.50
  -4  -1   5  150.63    5.38
   3   1  -5  146.48    5.41
   3   1  -5  153.82    5.35
  -3  -1   5  177.43    6.38
  -3  -1   5  183.30    5.32
   2   1  -5  264.44    9.33
   2   1  -5  263.76    9.37
  -2  -1   5  264.22    9.19
  -2  -1   5  265.87    7.62
   1   1  -5   28.65    1.10
   1   1  -5   28.80    1.12
  -1  -1   5   17.29    0.83
  -1  -1   5   17.21    0.66
   0   1  -5   65.26    2.40
   0   1  -5   64.81    2.40
   0  -1   5   48.26    1.83
  -1   1  -5  171.45    6.16
   1  -1   5  145.18    5.30
   1  -1   5  146.92    5.10
  -2   1  -5  169.53    6.14
  -2   1  -5  169.65    4.82
   2  -1   5  138.98    5.28
   2  -1   5  152.07    5.05
  -3   1  -5   25.27    1.14
  -3   1  -5   24.37    0.83
   3  -1   5   36.54    1.46
   3  -1   5   39.69    1.57
  -4   1  -5    7.48    0.60
  -4   1  -5    8.78    0.46
   4  -1   5    3.49    0.36
   4  -1   5    3.78    0.44
  -5   1  -5   15.94    0.73
  -5   1  -5   16.13    0.94
   5  -1   5   32.93    1.51
   6  -1   5    1.07    0.39
   6   0  -5   57.51    2.32
  -6   0   5   86.83    3.40
  -6   0   5   87.10    2.91
   5   0  -5   40.19    1.65
  -5   0   5   55.51    1.93
  -5   0   5   56.18    2.27
   4   0  -5  221.38    7.94
  -4   0   5  243.68    8.52
  -4   0   5  242.64    7.09
   3   0  -5   25.70    0.96
   3   0  -5   24.95    1.05
  -3   0   5   12.29    0.58
  -3   0   5   12.54    0.71
   2   0  -5   16.52    0.72
   2   0  -5   16.43    0.67
  -2   0   5    6.63    0.49
  -2   0   5    6.84    0.38
   1   0  -5   41.43    1.62
   1   0  -5   43.41    1.60
  -1   0   5   40.68    1.60
  -1   0   5   41.70    1.27
   0   0  -5  238.18    8.42
   0   0  -5  238.47    6.68
   0   0  -5  233.80    8.43
   0   0   5  207.61    5.89
   0   0   5  210.89    7.21
  -1   0  -5   12.61    0.64
   1   0   5   17.86    0.82
   1   0   5   16.84    0.73
  -2   0  -5   55.69    1.64
  -2   0  -5   56.03    2.19
   2   0   5   31.99    1.10
   2   0   5   27.32    1.27
  -3   0  -5    2.41    0.25
  -3   0  -5    2.80    0.39
   3   0   5   11.47    0.68
   3   0   5   11.81    0.51
  -4   0  -5   41.65    1.37
  -4   0  -5   41.58    1.82
   4   0   5   31.79    1.44
  -5   0  -5  366.42   13.23
   5   0   5  318.22   11.53
   6   0   5   10.24    0.79
   6  -1  -5  139.40    5.17
  -6   1   5  167.68    5.04
  -6   1   5  161.83    5.97
   5  -1  -5   11.87    0.66
  -5   1   5    6.57    0.58
  -5   1   5    6.93    0.53
   4  -1  -5   59.94    2.30
  -4   1   5   44.61    1.51
  -4   1   5   45.13    1.85
   3  -1  -5   10.38    0.55
   3  -1  -5   10.34    0.43
  -3   1   5    4.10    0.35
  -3   1   5    4.42    0.48
   2  -1  -5  287.55   10.39
   2  -1  -5  301.23   10.45
  -2   1   5  289.80    9.89
  -2   1   5  283.39    8.15
   1  -1  -5   21.93    0.91
   1  -1  -5   22.83    0.95
  -1   1   5   29.20    0.88
  -1   1   5   27.37    1.14
   0  -1  -5  105.33    3.84
   0  -1  -5  103.99    3.83
   0   1   5   59.48    1.68
   0   1   5   56.63    2.12
   0   1   5   61.17    2.23
  -1  -1  -5   23.24    1.06
   1   1   5    8.04    0.41
   1   1   5    8.11    0.30
   1   1   5    9.18    0.54
  -2  -1  -5   67.94    2.63
  -2  -1  -5   65.16    1.98
   2   1   5   63.98    2.48
  -3  -1  -5  516.79   14.46
  -3  -1  -5  505.21   18.23
   3   1   5  413.21   14.74
  -4  -1  -5  106.65    3.19
  -4  -1  -5  105.41    4.11
   4   1   5   73.35    2.92
  -5  -1  -5   24.02    1.25
   5   1   5   38.28    1.76
   6  -2  -5   47.91    1.96
  -6   2   5   34.81    1.61
  -6   2   5   34.26    1.34
   5  -2  -5    4.14    0.40
  -5   2   5    1.72    0.33
  -5   2   5    2.37    0.41
   4  -2  -5  209.35    7.54
  -4   2   5  231.39    8.14
  -4   2   5  230.76    6.71
   3  -2  -5    9.13    0.51
   3  -2  -5    9.97    0.39
  -3   2   5   10.38    0.49
   2  -2  -5  197.36    6.99
   2  -2  -5  192.51    6.98
  -2   2   5  119.19    4.33
  -2   2   5  123.13    3.52
   1  -2  -5   26.12    1.13
   1  -2  -5   26.50    1.15
  -1   2   5   12.27    0.63
  -1   2   5   12.80    0.45
   0  -2  -5   63.53    2.48
   0   2   5   62.64    2.43
   0   2   5   64.93    2.28
  -1  -2  -5  601.95   21.37
   1   2   5  575.49   19.66
   1   2   5  583.17   20.99
  -2  -2  -5  144.26    5.59
  -2  -2  -5  155.51    4.38
   2   2   5  113.32    4.22
  -3  -2  -5   21.59    0.85
  -3  -2  -5   22.68    1.17
   3   2   5   35.21    1.54
  -4  -2  -5   74.00    3.00
   4   2   5   92.75    3.62
  -5  -2  -5  100.22    3.95
   5   2   5   76.75    3.13
   6  -3  -5   97.40    3.71
  -6   3   5  108.51    3.47
  -6   3   5  113.35    4.23
   5  -3  -5   21.70    1.01
  -5   3   5   21.89    0.89
  -5   3   5   21.31    1.14
   4  -3  -5  164.63    5.97
  -4   3   5  126.54    4.63
  -4   3   5  125.42    3.76
   3  -3  -5   22.43    0.98
  -3   3   5   15.51    0.61
  -3   3   5   14.66    0.85
  -3   3   5   15.03    0.61
   2  -3  -5   81.25    3.05
   2  -3  -5   81.71    3.02
  -2   3   5   74.08    2.17
  -2   3   5   70.48    2.69
   1  -3  -5  393.96   13.95
   1  -3  -5  389.01   13.92
  -1   3   5  322.36   11.06
   0  -3  -5  290.40   10.47
   0   3   5  237.57    8.57
   0   3   5  238.43    8.16
  -1  -3  -5   35.31    1.57
   1   3   5   37.12    1.33
   1   3   5   38.45    1.56
  -2  -3  -5   92.98    3.63
   2   3   5  129.44    4.80
  -3  -3  -5  121.78    4.68
   3   3   5   99.99    3.82
  -4  -3  -5   18.94    1.12
   4   3   5   26.28    1.32
  -5  -3  -5   60.81    2.62
   5   3   5   45.22    2.06
   6  -4  -5  132.32    4.93
  -6   4   5  102.72    3.29
  -6   4   5  106.80    4.07
   5  -4  -5    6.78    0.48
  -5   4   5    6.32    0.47
  -5   4   5    6.00    0.66
   4  -4  -5   35.47    1.46
  -4   4   5   35.81    1.67
  -4   4   5   39.83    1.31
   3  -4  -5  243.08    8.37
   3  -4  -5  221.89    8.20
  -3   4   5  219.91    6.13
  -3   4   5  203.96    7.46
  -3   4   5  211.35    7.51
   2  -4  -5  210.77    7.52
   2  -4  -5  218.02    7.70
   2  -4  -5  213.60    7.74
  -2   4   5  152.97    5.52
  -2   4   5  159.46    4.54
   1  -4  -5   48.06    2.01
   1  -4  -5   49.64    1.97
   1  -4  -5   49.09    1.89
  -1   4   5   42.17    1.70
   0  -4  -5   71.15    2.54
   0  -4  -5   68.79    2.80
   0   4   5  104.08    4.00
   0   4   5  109.71    3.75
  -1  -4  -5   84.34    3.34
   1   4   5   85.92    3.27
  -2  -4  -5   68.33    2.82
   2   4   5   71.13    2.79
  -3  -4  -5  125.61    4.86
   3   4   5  100.77    3.87
  -4  -4  -5  101.05    4.04
   4   4   5   78.98    3.17
   6  -5  -5   30.63    1.38
  -6   5   5   31.77    1.25
  -6   5   5   31.58    1.62
   5  -5  -5   92.92    3.52
  -5   5   5   91.14    3.62
  -5   5   5   93.58    2.90
   4  -5  -5  155.82    5.77
   4  -5  -5  157.54    5.74
  -4   5   5  144.63    4.31
   3  -5  -5   67.84    2.58
   3  -5  -5   63.90    2.62
  -3   5   5   55.43    2.13
  -3   5   5   57.54    1.81
   2  -5  -5    4.46    0.47
  -2   5   5   21.09    0.97
  -2   5   5   20.26    0.79
   1  -5  -5   18.70    0.90
   1  -5  -5   19.24    1.02
  -1   5   5   19.47    0.96
   0  -5  -5   56.02    2.37
   0   5   5   60.94    2.38
  -1  -5  -5   77.40    3.16
   1   5   5   69.00    2.69
  -2  -5  -5  131.19    5.08
   2   5   5  107.89    4.09
  -3  -5  -5    0.92    0.43
   3   5   5    0.67    0.33
   6  -6  -5   86.18    3.34
  -6   6   5   86.23    2.86
  -6   6   5   91.49    3.64
   5  -6  -5   25.29    1.21
   5  -6  -5   27.24    1.48
  -5   6   5   25.06    1.07
  -5   6   5   28.87    1.45
   4  -6  -5    3.38    0.56
   4  -6  -5    3.60    0.43
  -4   6   5    5.54    0.42
   3  -6  -5   15.83    0.95
   3  -6  -5   16.61    0.90
  -3   6   5   12.61    0.61
  -3   6   5   12.04    0.65
   2  -6  -5  104.14    3.85
  -2   6   5  104.47    3.85
  -2   6   5   99.85    3.86
   1  -6  -5   41.81    1.69
  -1   6   5   37.06    1.68
  -1   6   5   38.74    1.63
   0  -6  -5  190.21    7.13
   0   6   5  166.17    5.99
   0   6   5  161.01    6.14
  -1  -6  -5    2.10    0.52
   1   6   5    2.07    0.44
   1   6   5    1.75    0.36
  -2  -6  -5  106.32    4.29
   2   6   5  115.22    4.50
   2   6   5  123.45    4.66
   5  -7  -5    8.17    0.89
  -5   7   5    5.69    0.53
  -5   7   5    6.94    0.75
   4  -7  -5   61.24    2.61
  -4   7   5   56.59    1.92
   3  -7  -5   14.84    0.94
  -3   7   5   10.57    0.61
   2  -7  -5  140.01    5.09
  -2   7   5  108.96    4.16
  -1   7   5    8.76    0.73
   0   7   5  101.23    4.03
   1   7   5  125.09    4.89
   4  -8  -5   91.34    3.65
  -4   8   5   75.71    2.51
   3  -8  -5   14.98    0.98
  -3   8   5   14.86    0.77
  -2   8   5   69.73    2.86
  -1   8   5   51.19    2.29
  -1   8  -6   40.95    1.76
   1  -8   6   52.40    2.28
  -2   8  -6   22.76    1.14
   2  -8   6   31.69    1.63
  -3   8  -6    4.28    0.52
   3  -8   6    4.84    0.74
   1   7  -6   21.84    1.07
  -1  -7   6   27.25    1.34
   0   7  -6   41.70    1.75
   0  -7   6   48.02    2.06
  -1   7  -6   24.62    1.15
   1  -7   6   30.36    1.46
  -2   7  -6  109.56    4.14
   2  -7   6  127.55    4.82
  -3   7  -6    5.39    0.50
   3  -7   6    5.40    0.74
  -4   7  -6   65.15    2.63
  -4   7  -6   64.74    2.17
   4  -7   6   73.15    3.15
  -5   7  -6   30.97    1.24
   5  -7   6   29.15    1.69
   2   6  -6   56.17    2.24
  -2  -6   6   67.85    2.66
   1   6  -6   22.83    1.06
  -1  -6   6   34.10    1.52
   0   6  -6  109.82    4.09
   0  -6   6  137.66    5.04
  -1   6  -6    5.49    0.44
   1  -6   6    3.15    0.47
  -2   6  -6   97.85    3.70
   2  -6   6  109.25    4.13
  -3   6  -6   34.23    1.50
   3  -6   6   41.67    1.92
  -4   6  -6  190.72    7.02
  -4   6  -6  192.29    5.67
   4  -6   6  175.16    6.51
  -5   6  -6   80.24    2.59
   5  -6   6   75.77    3.20
   3   5  -6   34.42    1.46
  -3  -5   6   57.40    2.33
   2   5  -6   67.62    2.59
  -2  -5   6  101.54    3.79
   1   5  -6    5.95    0.43
  -1  -5   6    2.91    0.44
   0   5  -6  106.14    3.92
   0  -5   6  130.63    4.75
  -1   5  -6   13.54    0.72
   1  -5   6   21.99    1.14
  -2   5  -6  190.35    6.90
   2  -5   6  191.93    6.86
  -3   5  -6  112.78    4.21
   3  -5   6  115.08    4.33
  -4   5  -6   56.69    2.31
  -4   5  -6   58.05    1.88
   4  -5   6   61.85    2.59
  -5   5  -6   37.19    1.70
  -5   5  -6   40.12    1.41
   5  -5   6   38.49    1.81
   6  -5   6   11.71    0.91
  -4  -4   6   36.83    1.58
   3   4  -6   22.47    1.00
  -3  -4   6   19.50    1.02
  -3  -4   6   18.44    1.00
   2   4  -6  119.19    4.36
  -2  -4   6  176.78    6.29
   1   4  -6    1.43    0.25
  -1  -4   6    3.88    0.47
   0   4  -6  174.80    6.30
   0  -4   6  210.86    7.44
  -1   4  -6  302.45   10.77
   1  -4   6  321.42   11.16
  -2   4  -6   55.75    2.18
   2  -4   6   68.01    2.65
  -3   4  -6   15.20    0.63
  -3   4  -6   14.03    0.76
   3  -4   6   19.98    1.05
  -4   4  -6   49.93    2.08
  -4   4  -6   51.66    1.66
   4  -4   6   25.60    1.27
  -5   4  -6   52.09    1.73
  -5   4  -6   51.18    2.17
   5  -4   6   45.32    1.97
   5   3  -6   16.04    0.85
   4   3  -6   43.56    1.75
  -4  -3   6   72.20    2.87
  -4  -3   6   74.39    2.55
   3   3  -6    3.72    0.33
   3   3  -6    4.68    0.34
  -3  -3   6    1.21    0.36
  -3  -3   6    0.99    0.34
   2   3  -6  132.74    4.62
   2   3  -6  122.74    4.62
  -2  -3   6  149.28    4.64
  -2  -3   6  155.83    5.48
   1   3  -6  260.30    9.86
   1   3  -6  294.88    9.83
  -1  -3   6  375.27   12.95
   0   3  -6   58.32    2.19
   0   3  -6   56.97    2.13
   0  -3   6   76.20    2.87
  -1   3  -6    8.74    0.51
   1  -3   6   18.19    0.92
   1  -3   6   17.37    0.79
  -2   3  -6  152.68    5.54
   2  -3   6  100.73    3.57
   2  -3   6   94.83    3.59
  -3   3  -6  191.67    5.26
  -3   3  -6  172.04    6.60
   3  -3   6  163.80    5.91
   3  -3   6  169.82    6.01
  -4   3  -6  487.10   17.89
  -4   3  -6  518.47   14.27
   4  -3   6  400.33   14.00
   4  -3   6  411.15   14.42
  -5   3  -6   93.77    2.89
  -5   3  -6   95.17    3.68
   5  -3   6   67.62    2.66
   5  -3   6   68.49    2.63
   6  -3   6   10.23    0.69
   5   2  -6   15.49    0.81
  -5  -2   6   11.59    0.78
  -5  -2   6   12.48    0.90
   4   2  -6   60.74    2.34
  -4  -2   6   90.86    3.46
  -4  -2   6   90.02    2.95
   3   2  -6  207.59    7.64
   3   2  -6  219.25    7.60
  -3  -2   6  329.87    9.34
  -3  -2   6  312.19   11.17
   2   2  -6    5.36    0.35
   2   2  -6    4.58    0.33
  -2  -2   6   15.91    0.91
  -2  -2   6   15.99    0.77
   1   2  -6    7.18    0.40
   1   2  -6    8.45    0.43
  -1  -2   6    1.88    0.35
  -1  -2   6    2.24    0.31
   0   2  -6  220.05    7.87
   0   2  -6  222.62    7.89
   0  -2   6  180.93    6.36
  -1   2  -6  262.41    9.35
   1  -2   6  263.14    9.35
   1  -2   6  260.06    9.06
  -2   2  -6  406.77   14.52
  -2   2  -6  411.11   11.63
   2  -2   6  383.66   13.00
   2  -2   6  373.86   13.44
  -3   2  -6  238.74    6.65
  -3   2  -6  226.94    8.41
   3  -2   6  191.56    6.55
   3  -2   6  183.17    6.77
  -4   2  -6    2.66    0.31
  -4   2  -6    2.38    0.42
   4  -2   6    8.46    0.59
   4  -2   6    9.23    0.61
  -5   2  -6   37.17    1.69
   5  -2   6   42.62    1.82
   6  -2   6   40.44    1.81
   6   1  -6   14.41    0.82
   5   1  -6  147.63    5.42
  -5  -1   6  254.69    8.95
  -5  -1   6  249.79    7.49
   4   1  -6    3.16    0.33
  -4  -1   6    5.29    0.61
  -4  -1   6    5.70    0.50
   3   1  -6   15.88    0.66
   3   1  -6   14.76    0.72
  -3  -1   6    5.75    0.56
  -3  -1   6    4.95    0.49
   2   1  -6  285.57   10.03
   2   1  -6  281.68   10.07
  -2  -1   6  288.57   10.15
  -2  -1   6  296.64    8.41
   1   1  -6  278.40   10.19
   1   1  -6  294.38   10.17
  -1  -1   6  296.23   10.17
  -1  -1   6  291.63    8.39
   0   1  -6  448.20   16.29
   0   1  -6  459.79   16.19
   0  -1   6  379.50   13.01
  -1   1  -6  412.09   14.60
   1  -1   6  352.30   12.16
   1  -1   6  357.92   12.64
  -2   1  -6   18.15    0.58
  -2   1  -6   17.83    0.89
   2  -1   6    5.33    0.40
   2  -1   6    3.46    0.39
  -3   1  -6   67.04    2.00
  -3   1  -6   67.53    2.65
   3  -1   6   77.99    2.78
   3  -1   6   76.67    2.97
  -4   1  -6   58.19    2.38
  -4   1  -6   57.70    1.79
   4  -1   6   45.44    1.91
  -5   1  -6   67.68    2.79
   5  -1   6   54.63    2.30
   6  -1   6    7.35    0.71
   6   0  -6    7.00    0.53
  -6   0   6    7.88    0.79
  -6   0   6    7.95    0.70
   5   0  -6   42.20    1.73
  -5   0   6   26.23    1.12
  -5   0   6   26.63    1.32
   4   0  -6  149.06    5.43
  -4   0   6  161.06    5.81
  -4   0   6  161.76    4.82
   3   0  -6  183.61    6.26
   3   0  -6  168.64    6.34
  -3   0   6  213.31    6.07
  -3   0   6  203.27    7.33
   2   0  -6  240.55    8.46
   2   0  -6  236.76    8.51
  -2   0   6  256.20    8.75
  -2   0   6  246.04    7.20
   1   0  -6  393.89   13.67
   1   0  -6  368.29   13.49
  -1   0   6  353.73    9.98
  -1   0   6  351.29   12.11
   0   0  -6   25.96    0.74
   0   0  -6   23.62    1.06
   0   0  -6   26.44    1.07
   0   0   6   12.86    0.66
  -1   0  -6  117.32    4.32
   1   0   6  125.12    4.56
   1   0   6  121.64    4.31
  -2   0  -6   79.14    2.30
  -2   0  -6   80.79    3.06
   2   0   6   66.32    2.28
   2   0   6   61.69    2.50
  -3   0  -6  196.83    7.09
  -3   0  -6  189.68    5.52
   3   0   6  152.82    5.64
  -4   0  -6   11.60    0.79
   4   0   6    4.93    0.52
  -5   0  -6   21.42    1.21
   5   0   6    6.78    0.66
   6   0   6   16.69    1.05
   6  -1  -6   90.24    3.47
  -6   1   6  100.62    3.30
  -6   1   6  104.33    3.93
   5  -1  -6   90.37    3.42
  -5   1   6  117.14    4.33
  -5   1   6  115.63    3.60
   4  -1  -6   66.52    2.55
  -4   1   6   75.92    2.90
  -4   1   6   74.70    2.37
   3  -1  -6  303.44   11.03
   3  -1  -6  316.20   10.92
  -3   1   6  292.49   10.00
  -3   1   6  282.06    8.23
   2  -1  -6   50.42    1.90
   2  -1  -6   51.09    1.95
  -2   1   6   34.83    1.12
  -2   1   6   34.47    1.45
   1  -1  -6  110.06    4.12
   1  -1  -6  116.17    4.17
  -1   1   6  118.61    3.36
  -1   1   6  114.39    4.15
   0  -1  -6  104.91    3.83
   0  -1  -6  101.73    3.81
   0   1   6   85.22    3.18
   0   1   6   81.58    3.04
   0   1   6   89.89    2.42
  -1  -1  -6  347.71   12.42
   1   1   6  346.92   11.84
   1   1   6  349.58   12.44
  -2  -1  -6    9.96    0.69
  -2  -1  -6   11.61    0.45
   2   1   6    4.30    0.45
   2   1   6    4.55    0.23
  -3  -1  -6  109.01    3.18
  -3  -1  -6  107.00    4.17
   3   1   6   62.59    2.50
  -4  -1  -6    7.83    0.71
   4   1   6    6.28    0.62
  -5  -1  -6   57.80    2.47
   5   1   6   39.35    1.81
   6  -2  -6   15.31    0.85
  -6   2   6   18.04    1.08
  -6   2   6   20.42    0.93
   5  -2  -6  197.11    7.17
  -5   2   6  197.18    6.00
  -5   2   6  210.12    7.30
   4  -2  -6   21.57    0.98
  -4   2   6   15.43    0.69
  -4   2   6   15.11    0.90
   3  -2  -6   25.92    1.11
  -3   2   6   21.77    1.06
  -3   2   6   21.68    0.81
   2  -2  -6   69.46    2.58
   2  -2  -6   66.83    2.58
  -2   2   6   46.40    1.88
  -2   2   6   49.28    1.48
   1  -2  -6  400.53   13.77
   1  -2  -6  372.63   13.75
  -1   2   6  308.51    8.96
  -1   2   6  325.58   10.89
   0  -2  -6    5.71    0.51
   0   2   6    2.52    0.33
   0   2   6    2.98    0.29
  -1  -2  -6  205.29    7.51
   1   2   6  140.45    4.79
   1   2   6  139.18    5.15
  -2  -2  -6   43.55    1.91
   2   2   6   33.49    1.46
  -3  -2  -6  127.85    4.90
   3   2   6  106.67    4.06
  -4  -2  -6  158.59    5.99
   4   2   6  145.62    5.49
  -5  -2  -6   90.35    3.64
   5   2   6   49.54    2.19
   6  -3  -6   25.22    1.19
  -6   3   6   25.18    1.10
  -6   3   6   26.71    1.36
   5  -3  -6   31.56    1.38
  -5   3   6   24.67    1.01
  -5   3   6   25.24    1.30
   4  -3  -6   15.30    0.78
  -4   3   6   13.31    0.60
  -4   3   6   12.26    0.83
   3  -3  -6  347.13   12.37
  -3   3   6  298.49    8.42
  -3   3   6  289.77   10.24
   2  -3  -6    6.22    0.47
   2  -3  -6    7.51    0.51
  -2   3   6    4.96    0.48
  -2   3   6    4.62    0.31
   1  -3  -6  227.55    8.42
   1  -3  -6  239.06    8.45
  -1   3   6  150.44    5.08
  -1   3   6  138.29    4.15
   0  -3  -6   42.00    1.80
   0   3   6   31.00    1.36
   0   3   6   31.44    1.20
  -1  -3  -6  219.68    8.06
   1   3   6  204.14    7.41
  -2  -3  -6  170.65    6.37
   2   3   6  185.82    6.80
  -3  -3  -6  160.03    6.04
   3   3   6  112.43    4.27
  -4  -3  -6   43.60    2.00
   4   3   6   46.20    2.02
   6  -4  -6   11.17    0.70
  -6   4   6   12.97    0.71
  -6   4   6   11.90    0.91
   5  -4  -6  192.40    7.01
  -5   4   6  190.36    6.98
  -5   4   6  194.99    5.70
   4  -4  -6   57.45    2.26
  -4   4   6   50.62    2.18
  -4   4   6   54.59    1.73
   3  -4  -6  268.05    9.63
  -3   4   6  202.04    5.66
  -3   4   6  188.82    6.93
  -3   4   6  192.63    6.90
   2  -4  -6   47.48    1.95
   2  -4  -6   47.48    1.91
  -2   4   6   42.59    1.40
  -2   4   6   45.16    1.77
   1  -4  -6  157.03    5.92
   1  -4  -6  164.52    5.96
  -1   4   6  140.77    4.94
  -1   4   6  139.48    5.16
   0  -4  -6  179.48    6.65
   0   4   6  163.36    5.51
   0   4   6  154.29    5.86
  -1  -4  -6  290.86   10.59
   1   4   6  217.39    7.89
  -2  -4  -6   53.60    2.33
   2   4   6   50.35    2.08
  -3  -4  -6   32.48    1.62
   3   4   6   48.52    2.06
  -4  -4  -6   18.91    1.19
   4   4   6   18.67    1.09
   6  -5  -6   34.94    1.55
  -6   5   6   35.47    1.80
  -6   5   6   38.45    1.41
   5  -5  -6  184.51    6.76
  -5   5   6  143.67    5.53
  -5   5   6  153.42    4.48
   4  -5  -6   23.11    1.09
  -4   5   6   23.78    1.25
  -4   5   6   26.29    0.99
   3  -5  -6   80.82    3.14
  -3   5   6   73.03    2.84
  -3   5   6   74.04    2.30
   2  -5  -6   82.82    3.28
   2  -5  -6   90.36    3.34
   2  -5  -6   83.93    3.21
  -2   5   6   73.45    2.70
  -2   5   6   68.85    2.20
   1  -5  -6  309.22   11.10
   1  -5  -6  303.82   10.58
  -1   5   6  224.41    8.03
  -1   5   6  239.77    8.43
   0  -5  -6  117.28    4.53
   0   5   6   94.52    3.60
  -1  -5  -6   17.53    1.06
   1   5   6   41.83    1.77
  -2  -5  -6   15.10    1.03
   2   5   6   14.50    0.84
  -3  -5  -6   17.39    1.12
   3   5   6   14.28    0.91
   6  -6  -6    3.53    0.48
  -6   6   6    6.95    0.58
   5  -6  -6   51.77    2.14
  -5   6   6   53.25    2.30
  -5   6   6   51.14    1.80
   4  -6  -6   64.03    2.63
   4  -6  -6   61.76    2.53
  -4   6   6   48.66    1.67
  -4   6   6   49.48    2.11
   3  -6  -6  214.80    7.87
   3  -6  -6  227.39    8.10
  -3   6   6  159.52    5.80
  -3   6   6  163.02    4.79
   2  -6  -6  134.24    4.87
  -2   6   6  126.37    4.49
  -2   6   6  112.26    4.46
  -2   6   6  114.79    3.58
  -2   6   6  122.43    4.32
   1  -6  -6    1.79    0.42
  -1   6   6    4.46    0.51
  -1   6   6    5.04    0.54
   0  -6  -6   10.32    0.82
   0   6   6    8.25    0.62
  -1  -6  -6   68.21    2.91
   1   6   6   48.76    2.03
  -2  -6  -6   12.80    1.00
   2   6   6   13.69    0.90
   2   6   6   12.18    0.82
  -5   7   6  129.00    4.19
  -5   7   6  144.89    5.22
   4  -7  -6  110.44    4.27
  -4   7   6  117.96    4.26
  -4   7   6  104.82    3.44
   3  -7  -6   18.50    1.08
  -3   7   6    7.06    0.51
   2  -7  -6   12.75    0.81
  -2   7   6    6.99    0.61
  -1   7   6   48.64    2.15
   0   7   6    8.57    0.74
   1   7   6   67.53    2.86
   3  -8  -6   59.58    2.49
  -3   8   6   47.00    1.70
  -2   8   6   18.57    1.08
  -1   8   6   57.15    2.51
   1   7  -7   30.84    1.39
  -1  -7   7   36.28    1.69
   0   7  -7  101.27    3.85
   0  -7   7  140.88    5.24
  -1   7  -7   10.79    0.68
   1  -7   7   32.15    1.56
  -2   7  -7   38.45    1.66
   2  -7   7   40.01    1.89
  -3   7  -7   16.27    0.93
   3  -7   7    7.84    0.86
  -4   7  -7   16.86    0.82
  -4   7  -7   16.65    0.98
   4  -7   7   16.48    1.21
   2   6  -7  105.52    3.97
  -2  -6   7  154.25    5.61
   1   6  -7    9.67    0.60
  -1  -6   7   28.07    1.34
   0   6  -7   21.03    1.00
   0  -6   7   15.60    0.94
  -1   6  -7   62.86    2.48
   1  -6   7   50.39    2.18
  -2   6  -7   43.73    1.82
   2  -6   7   43.56    1.94
  -3   6  -7   97.46    3.74
   3  -6   7   95.39    3.77
  -4   6  -7   27.17    1.29
  -4   6  -7   25.74    1.04
   4  -6   7   19.41    1.23
  -5   6  -7   46.76    2.05
   5  -6   7   55.71    2.55
   3   5  -7    4.43    0.43
  -3  -5   7   11.19    0.82
   2   5  -7   28.89    1.25
  -2  -5   7   18.63    1.02
   1   5  -7   45.98    1.84
  -1  -5   7   38.30    1.68
   0   5  -7   63.09    2.45
   0  -5   7   69.23    2.71
  -1   5  -7  110.16    4.10
   1  -5   7  130.97    4.83
  -2   5  -7   37.67    1.59
   2  -5   7   21.61    1.15
  -3   5  -7   61.63    2.45
   3  -5   7   68.64    2.78
  -4   5  -7   17.94    1.00
  -4   5  -7   19.55    0.81
   4  -5   7   24.36    1.34
  -5   5  -7  156.32    5.86
   5  -5   7  152.51    5.70
  -4  -4   7   28.64    1.42
  -4  -4   7   29.21    1.41
   3   4  -7   53.93    2.10
  -3  -4   7   57.14    2.11
  -3  -4   7   56.87    2.33
   2   4  -7   76.80    2.89
  -2  -4   7  103.47    3.87
   1   4  -7   56.04    2.17
  -1  -4   7   77.00    2.97
   0   4  -7   63.97    2.45
   0  -4   7   43.56    1.85
  -1   4  -7   37.67    1.54
   1  -4   7   56.43    2.26
  -2   4  -7   12.66    0.70
   2  -4   7   19.79    1.06
  -3   4  -7  143.92    4.08
  -3   4  -7  132.10    5.10
   3  -4   7  123.64    4.55
  -4   4  -7  124.13    3.55
  -4   4  -7  112.53    4.46
   4  -4   7  112.34    4.22
  -5   4  -7   57.24    2.40
   5  -4   7   68.32    2.75
   4   3  -7   44.85    1.81
  -4  -3   7   61.03    2.23
  -4  -3   7   61.13    2.49
   3   3  -7   24.93    1.05
   3   3  -7   24.17    1.06
  -3  -3   7   35.98    1.47
  -3  -3   7   37.40    1.65
   2   3  -7  107.58    3.83
   2   3  -7  100.85    3.80
  -2  -3   7   96.27    3.59
  -2  -3   7   94.51    3.06
   1   3  -7   64.00    2.34
   1   3  -7   61.68    2.38
  -1  -3   7   83.20    3.15
   0   3  -7   12.50    0.60
   0   3  -7   12.85    0.64
   0  -3   7   16.23    0.89
  -1   3  -7  161.85    5.87
   1  -3   7  171.10    6.25
   1  -3   7  175.61    6.16
  -2   3  -7  224.11    8.07
   2  -3   7  236.36    8.59
   2  -3   7  254.45    8.78
  -3   3  -7   65.31    2.73
  -3   3  -7   75.59    2.15
   3  -3   7   90.01    3.39
   3  -3   7   92.83    3.41
  -4   3  -7   18.59    1.01
   4  -3   7   28.18    1.29
   4  -3   7   27.00    1.22
  -5   3  -7   33.84    1.60
   5  -3   7   20.35    1.03
   6  -3   7   46.98    2.03
   5   2  -7    0.83    0.27
  -5  -2   7    1.23    0.42
  -5  -2   7    3.13    0.59
   4   2  -7   77.15    2.93
  -4  -2   7   77.14    2.63
  -4  -2   7   79.41    3.10
   3   2  -7   15.67    0.75
   3   2  -7   16.08    0.72
  -3  -2   7   29.11    1.41
  -3  -2   7   29.57    1.21
   2   2  -7   16.66    0.77
   2   2  -7   18.10    0.77
  -2  -2   7    4.45    0.55
  -2  -2   7    5.16    0.50
   1   2  -7   66.97    2.55
   1   2  -7   70.59    2.57
  -1  -2   7   70.82    2.55
  -1  -2   7   60.57    2.06
   0   2  -7  233.31    8.40
   0   2  -7  237.36    8.39
   0  -2   7  278.15    9.66
  -1   2  -7   48.84    1.91
   1  -2   7   68.84    2.73
   1  -2   7   74.87    2.72
  -2   2  -7   29.54    1.32
  -2   2  -7   32.07    0.97
   2  -2   7   36.66    1.49
   2  -2   7   35.74    1.51
  -3   2  -7  154.97    5.82
  -3   2  -7  160.57    4.54
   3  -2   7  112.29    4.32
   3  -2   7  120.00    4.16
  -4   2  -7  110.58    4.24
   4  -2   7  105.83    3.98
   4  -2   7  104.09    3.81
  -5   2  -7  350.79   12.69
   5  -2   7  299.11   10.84
   6  -2   7   54.86    2.36
   5   1  -7    8.20    0.57
  -5  -1   7   14.72    0.87
  -5  -1   7   15.35    1.02
   4   1  -7   28.39    1.23
  -4  -1   7   18.25    0.89
  -4  -1   7   18.02    1.04
   3   1  -7   33.65    1.26
   3   1  -7   30.50    1.31
  -3  -1   7   39.96    1.79
  -3  -1   7   42.57    1.48
   2   1  -7  262.08    9.25
   2   1  -7  259.29    9.29
  -2  -1   7  321.62    9.09
  -2  -1   7  309.97   10.97
   1   1  -7   34.69    1.36
   1   1  -7   33.12    1.34
  -1  -1   7   42.87    1.43
  -1  -1   7   46.26    1.82
   0   1  -7   16.25    0.76
   0   1  -7   15.99    0.75
   0  -1   7    6.91    0.55
  -1   1  -7   85.43    2.45
  -1   1  -7   85.84    2.47
  -1   1  -7   86.77    3.23
   1  -1   7   52.57    2.07
   1  -1   7   56.43    2.16
  -2   1  -7  257.90    7.34
  -2   1  -7  262.68    9.38
   2  -1   7  255.37    9.64
   2  -1   7  281.42    9.24
  -3   1  -7  496.17   17.69
   3  -1   7  462.08   14.95
   3  -1   7  414.32   15.62
  -4   1  -7  129.34    4.92
   4  -1   7  106.03    4.07
  -5   1  -7    3.84    0.58
   5  -1   7    8.11    0.70
   6  -1   7   87.94    3.56
   6   0  -7   38.82    1.69
  -6   0   7   29.99    1.35
  -6   0   7   30.93    1.56
   5   0  -7    6.44    0.49
  -5   0   7    9.80    0.68
  -5   0   7    9.61    0.82
   4   0  -7  112.13    4.16
  -4   0   7  165.10    4.95
  -4   0   7  165.10    5.99
   3   0  -7   24.05    1.05
  -3   0   7   32.56    1.49
  -3   0   7   31.96    1.18
   2   0  -7   57.24    2.09
   2   0  -7   54.19    2.13
  -2   0   7   25.58    1.20
  -2   0   7   25.33    0.93
   1   0  -7  187.72    6.67
   1   0  -7  183.95    6.70
  -1   0   7  157.80    5.67
  -1   0   7  161.97    4.61
   0   0  -7  237.39    8.36
   0   0  -7  229.01    8.37
   0   0  -7  232.79    6.55
   0   0   7  205.40    7.14
  -1   0  -7  437.88   15.56
   1   0   7  421.31   14.00
   1   0   7  399.17   14.62
  -2   0  -7  335.98   12.05
   2   0   7  335.04   12.34
   2   0   7  354.39   11.75
  -3   0  -7    4.94    0.54
   3   0   7    3.06    0.45
  -4   0  -7  133.62    5.12
   4   0   7  133.97    5.07
  -5   0  -7   79.52    3.30
   5   0   7   51.38    2.23
   6  -1  -7   67.20    2.68
  -6   1   7  112.57    4.28
  -6   1   7  110.16    3.57
   5  -1  -7   23.40    1.10
  -5   1   7   24.99    1.06
  -5   1   7   24.52    1.27
   4  -1  -7   68.83    2.65
  -4   1   7   41.40    1.78
  -4   1   7   41.02    1.44
   3  -1  -7  110.08    4.07
  -3   1   7   97.20    3.63
  -3   1   7   97.04    2.93
   2  -1  -7  140.55    4.99
   2  -1  -7  132.37    4.92
  -2   1   7  156.58    5.56
  -2   1   7  155.71    4.52
   1  -1  -7  264.59    9.77
   1  -1  -7  283.23    9.82
  -1   1   7  249.18    8.70
  -1   1   7  252.91    7.12
   0  -1  -7  338.43   11.62
   0  -1  -7  311.18   11.58
   0   1   7  292.23   10.20
   0   1   7  302.48   10.62
  -1  -1  -7    6.22    0.53
   1   1   7    1.66    0.33
   1   1   7    2.28    0.31
  -2  -1  -7  115.36    4.39
   2   1   7  187.94    6.88
  -3  -1  -7  110.25    4.29
   3   1   7   89.87    3.48
  -4  -1  -7  170.77    6.48
   4   1   7  143.82    5.43
  -5  -1  -7   28.61    1.51
   5   1   7   15.73    1.02
   6  -2  -7   51.51    2.13
  -6   2   7   38.17    1.79
  -6   2   7   37.31    1.46
   5  -2  -7   59.24    2.35
  -5   2   7   59.82    2.03
  -5   2   7   62.17    2.52
   4  -2  -7  104.79    3.92
  -4   2   7  119.49    3.62
  -4   2   7  120.49    4.45
   3  -2  -7  129.17    4.75
  -3   2   7  118.20    3.44
  -3   2   7  113.22    4.25
   2  -2  -7  402.23   13.85
   2  -2  -7  375.31   13.81
  -2   2   7  332.99    9.42
  -2   2   7  330.43   11.47
   1  -2  -7   41.88    1.75
   1  -2  -7   43.64    1.77
  -1   2   7   32.48    1.02
  -1   2   7   33.32    1.35
   0  -2  -7  106.63    4.03
   0   2   7  135.04    4.51
   0   2   7  123.71    3.65
   0   2   7  127.44    4.76
  -1  -2  -7  110.26    4.22
   1   2   7   96.67    3.31
   1   2   7   92.74    3.61
  -2  -2  -7  253.09    9.28
   2   2   7  264.08    9.55
  -3  -2  -7   12.51    0.91
   3   2   7    6.12    0.61
  -4  -2  -7   87.78    3.56
   4   2   7   63.54    2.64
  -5  -2  -7   10.76    0.89
   5   2   7    5.59    0.64
   6  -3  -7   14.55    0.82
  -6   3   7   25.08    1.09
  -6   3   7   24.93    1.35
   5  -3  -7   48.25    1.98
  -5   3   7   40.92    1.86
  -5   3   7   41.07    1.47
   4  -3  -7  179.49    6.54
  -4   3   7  168.84    4.91
  -4   3   7  163.23    6.01
   3  -3  -7   20.21    0.96
  -3   3   7   18.02    0.71
  -3   3   7   17.03    0.94
   2  -3  -7   27.49    1.26
   2  -3  -7   28.86    1.27
  -2   3   7   48.52    1.90
  -2   3   7   46.85    1.49
   1  -3  -7   88.48    3.41
   1  -3  -7   88.92    3.43
  -1   3   7   70.91    2.17
  -1   3   7   76.18    2.71
   0  -3  -7  391.11   14.05
   0   3   7  381.98   12.60
   0   3   7  356.67   13.22
  -1  -3  -7    5.86    0.63
   1   3   7    3.32    0.47
  -2  -3  -7  168.76    6.35
   2   3   7  131.16    4.92
  -3  -3  -7   22.27    1.23
   3   3   7   17.26    0.99
  -4  -3  -7  165.15    6.30
   4   3   7  139.94    5.33
   6  -4  -7   84.21    3.29
  -6   4   7   93.44    2.99
  -6   4   7   92.47    3.70
   5  -4  -7   15.61    0.85
  -5   4   7   15.51    1.01
  -5   4   7   17.30    0.79
   4  -4  -7    4.12    0.41
  -4   4   7    7.28    0.45
  -4   4   7    7.19    0.64
   3  -4  -7   20.61    1.01
  -3   4   7   19.98    0.77
  -3   4   7   19.65    1.02
   2  -4  -7  326.29   12.06
   2  -4  -7  345.21   12.04
  -2   4   7  277.85    8.11
  -2   4   7  289.45    9.85
   1  -4  -7    9.55    0.67
   1  -4  -7    9.39    0.71
  -1   4   7    8.46    0.41
  -1   4   7    7.52    0.57
  -1   4   7    8.50    0.55
   0  -4  -7  233.22    8.55
   0   4   7  165.45    6.14
  -1  -4  -7   83.87    3.37
   1   4   7   72.23    2.85
  -2  -4  -7  176.73    6.66
   2   4   7  168.64    6.24
  -3  -4  -7   64.40    2.76
   3   4   7   57.90    2.40
   6  -5  -7    4.76    0.49
  -6   5   7    4.31    0.51
  -6   5   7    3.06    0.60
   5  -5  -7    9.30    0.66
  -5   5   7    9.27    0.82
  -5   5   7    9.69    0.60
   4  -5  -7  226.28    8.24
  -4   5   7  226.89    6.57
  -4   5   7  222.26    8.02
   3  -5  -7    9.82    0.70
  -3   5   7    8.27    0.48
  -3   5   7    7.72    0.64
   2  -5  -7  288.18   10.43
   2  -5  -7  287.06   10.39
  -2   5   7  208.55    7.22
  -2   5   7  202.43    5.96
   1  -5  -7   61.66    2.56
  -1   5   7   59.53    2.44
  -1   5   7   59.85    2.25
   0  -5  -7  180.11    6.76
   0   5   7  163.67    6.06
  -1  -5  -7   37.38    1.78
   1   5   7   32.11    1.47
  -2  -5  -7  248.54    9.23
   2   5   7  184.44    6.81
  -3  -5  -7   80.35    3.38
   3   5   7   70.26    2.86
   5  -6  -7   23.76    1.20
  -5   6   7   29.33    1.50
  -5   6   7   27.42    1.15
   4  -6  -7  189.71    7.02
  -4   6   7  159.14    4.71
  -4   6   7  154.51    5.75
   3  -6  -7   31.11    1.49
  -3   6   7   35.36    1.29
  -3   6   7   37.46    1.62
   2  -6  -7   93.87    3.67
  -2   6   7   91.55    3.33
  -2   6   7   86.98    2.75
  -2   6   7   85.67    3.46
  -2   6   7   92.90    3.49
   1  -6  -7   25.72    1.34
  -1   6   7   15.51    0.95
   0  -6  -7  361.25   13.16
   0   6   7  259.58    9.41
  -1  -6  -7  146.04    5.67
   1   6   7  120.92    4.57
   2   6   7   18.93    1.06
  -4   7   7   49.44    2.12
  -4   7   7   46.79    1.69
  -3   7   7   15.06    0.74
  -3   7   7   15.35    0.92
  -2   7   7  197.55    5.83
  -2   7   7  197.01    7.30
  -1   7   7  150.45    5.72
   0  -7  -7    4.48    0.69
   0   7   7   12.54    0.89
   0   7  -8  107.43    4.09
   0  -7   8  139.15    5.23
  -1   7  -8    5.97    0.52
   1  -7   8    5.68    0.66
  -2   7  -8   60.17    2.45
   2  -7   8   53.66    2.38
  -3   7  -8  182.75    6.79
   3  -7   8  182.29    6.82
  -4   7  -8   10.48    0.81
   4  -7   8   22.12    1.44
   2   6  -8   88.46    3.39
  -2  -6   8  129.21    4.81
   1   6  -8   18.44    0.95
  -1  -6   8   17.55    1.03
   0   6  -8   59.98    2.39
   0  -6   8   61.70    2.55
  -1   6  -8  199.32    7.27
   1  -6   8  255.30    9.13
  -2   6  -8    6.91    0.58
   2  -6   8   18.05    1.12
  -3   6  -8    2.88    0.45
   3  -6   8    2.01    0.51
  -4   6  -8   29.37    1.42
   4  -6   8   10.26    0.95
  -5   6  -8   58.87    2.51
   5  -6   8   51.20    2.41
  -3  -5   8   54.02    2.28
   2   5  -8   43.92    1.79
  -2  -5   8   51.41    2.19
   1   5  -8  181.67    6.61
  -1  -5   8  276.68    9.76
   0   5  -8    1.65    0.30
   0  -5   8    9.52    0.71
  -1   5  -8   13.60    0.76
   1  -5   8    4.17    0.55
  -2   5  -8   91.19    3.50
   2  -5   8   55.67    2.36
  -3   5  -8  112.06    3.26
  -3   5  -8  102.59    4.07
   3  -5   8   82.35    3.26
  -4   5  -8   77.81    3.10
   4  -5   8   68.97    2.86
  -5   5  -8   73.94    3.02
   5  -5   8   53.39    2.37
  -4  -4   8   21.53    1.23
  -4  -4   8   22.70    1.24
  -3  -4   8  248.26    7.50
  -3  -4   8  248.38    8.81
   2   4  -8   10.14    0.60
  -2  -4   8   11.82    0.80
   1   4  -8   29.93    1.28
  -1  -4   8   20.04    1.07
   0   4  -8  136.74    5.02
   0  -4   8  126.59    4.67
  -1   4  -8  188.24    6.84
   1  -4   8  182.53    6.53
  -2   4  -8   98.13    3.71
   2  -4   8   98.58    3.76
  -3   4  -8  121.43    4.56
   3  -4   8   84.95    3.27
  -4   4  -8    7.83    0.64
   4  -4   8   18.97    1.08
  -5   4  -8    7.24    0.69
   4   3  -8   21.37    1.00
  -4  -3   8   22.98    1.28
  -4  -3   8   24.45    1.19
   3   3  -8   58.17    2.25
  -3  -3   8   41.59    1.63
  -3  -3   8   39.80    1.80
   2   3  -8  111.17    4.06
   2   3  -8  109.59    4.05
  -2  -3   8   94.70    3.55
  -2  -3   8   91.52    3.00
   1   3  -8  184.55    6.70
   1   3  -8  186.86    6.67
  -1  -3   8  199.73    7.11
   0   3  -8   59.14    2.27
   0   3  -8   60.68    2.32
   0  -3   8   66.67    2.61
  -1   3  -8  216.34    7.80
   1  -3   8  193.80    6.88
   1  -3   8  186.35    6.75
  -2   3  -8   11.95    0.69
   2  -3   8   21.50    1.11
   2  -3   8   23.31    1.04
  -3   3  -8    3.90    0.44
   3  -3   8    7.52    0.60
   3  -3   8    7.61    0.57
  -4   3  -8   38.23    1.71
   4  -3   8   42.60    1.78
   4  -3   8   41.24    1.76
  -5   3  -8  110.80    4.34
   5  -3   8   88.92    3.47
   5   2  -8   50.10    2.05
  -5  -2   8   53.99    2.05
  -5  -2   8   54.40    2.40
   4   2  -8   75.34    2.88
  -4  -2   8   90.46    3.02
  -4  -2   8   91.79    3.58
   3   2  -8  158.84    5.77
  -3  -2   8  189.72    6.98
  -3  -2   8  198.24    5.84
   2   2  -8   10.12    0.56
   2   2  -8    9.84    0.55
  -2  -2   8   10.68    0.66
  -2  -2   8   10.86    0.78
   1   2  -8  168.07    5.98
   1   2  -8  163.06    5.97
  -1  -2   8  118.40    3.62
  -1  -2   8  124.14    4.45
   0   2  -8    3.61    0.38
   0   2  -8    4.11    0.36
   0  -2   8   10.76    0.71
   1  -2   8    7.35    0.61
   1  -2   8    7.88    0.57
  -2   2  -8   37.39    1.58
   2  -2   8   34.22    1.51
   2  -2   8   36.15    1.47
  -3   2  -8  167.25    6.19
   3  -2   8  155.33    5.92
   3  -2   8  166.25    5.68
  -4   2  -8   31.26    1.51
   4  -2   8   47.05    2.00
  -5   2  -8    4.29    0.61
   5  -2   8    6.30    0.64
   5   1  -8   97.65    3.71
  -5  -1   8  139.64    5.21
  -5  -1   8  137.57    4.36
   4   1  -8    4.56    0.41
  -4  -1   8    4.32    0.61
  -4  -1   8    4.15    0.50
   3   1  -8  209.53    7.55
  -3  -1   8  223.09    6.50
  -3  -1   8  217.43    7.85
   2   1  -8    7.56    0.45
   2   1  -8    7.41    0.48
  -2  -1   8   10.40    0.60
  -2  -1   8   11.31    0.81
   1   1  -8   27.62    1.22
   1   1  -8   30.42    1.21
  -1  -1   8   11.38    0.52
  -1  -1   8   10.29    0.72
   0   1  -8    5.24    0.43
   0   1  -8    5.19    0.40
   0  -1   8    7.44    0.56
  -1   1  -8  207.65    7.51
   1  -1   8  207.07    7.10
   1  -1   8  199.83    7.38
  -2   1  -8   66.95    2.65
   2  -1   8   87.26    3.39
   2  -1   8   89.35    3.20
  -3   1  -8   17.74    1.01
   3  -1   8    5.58    0.60
   3  -1   8    7.73    0.47
  -4   1  -8    5.63    0.62
   4  -1   8    2.49    0.45
  -5   1  -8   55.57    2.47
   5  -1   8   53.17    2.30
   5   0  -8  112.21    4.22
  -5   0   8  130.00    4.85
  -5   0   8  125.33    4.00
   4   0  -8   11.39    0.64
  -4   0   8   14.12    0.94
  -4   0   8   14.74    0.78
   3   0  -8   72.79    2.78
  -3   0   8   55.86    2.32
  -3   0   8   56.53    1.87
   2   0  -8    1.84    0.28
   2   0  -8    2.58    0.34
  -2   0   8    0.95    0.38
  -2   0   8    1.74    0.29
   1   0  -8  238.21    8.50
   1   0  -8  237.03    8.55
  -1   0   8  231.00    8.03
  -1   0   8  227.20    6.54
   0   0  -8   42.84    1.78
   0   0  -8   44.71    1.77
   0   0   8   39.54    1.61
  -1   0  -8   66.19    2.60
   1   0   8   27.29    1.16
   1   0   8   28.04    1.29
  -2   0  -8   25.62    1.23
   2   0   8   17.91    0.99
   2   0   8   19.16    0.81
  -3   0  -8  146.29    5.53
   3   0   8  136.40    5.12
  -4   0  -8  278.82   10.26
   4   0   8  228.66    8.41
  -5   0  -8   90.61    3.74
   5   0   8   56.46    2.44
   6  -1  -8   21.79    1.10
  -6   1   8   26.39    1.20
  -6   1   8   26.50    1.45
   5  -1  -8   63.46    2.52
  -5   1   8   53.67    2.26
  -5   1   8   49.90    1.81
   4  -1  -8    5.63    0.47
  -4   1   8    5.79    0.61
  -4   1   8    5.54    0.48
   3  -1  -8  138.85    5.11
  -3   1   8  149.14    5.45
  -3   1   8  151.17    4.44
   2  -1  -8  172.73    6.39
   2  -1  -8  178.55    6.33
  -2   1   8  159.14    4.61
  -2   1   8  158.02    5.69
   1  -1  -8  150.04    5.50
   1  -1  -8  151.94    5.55
  -1   1   8   84.09    3.13
  -1   1   8   84.15    2.46
   0  -1  -8   44.97    1.80
   0  -1  -8   42.13    1.80
   0   1   8   33.55    1.37
   0   1   8   34.47    1.44
  -1  -1  -8  140.93    5.25
   1   1   8  153.01    5.91
   1   1   8  166.77    5.55
  -2  -1  -8  292.26   10.63
   2   1   8  294.82   10.64
  -3  -1  -8  187.23    7.04
   3   1   8  148.98    5.58
  -4  -1  -8    3.95    0.64
   4   1   8    6.48    0.66
  -5  -1  -8   91.85    3.79
   5   1   8  110.07    4.35
   6  -2  -8    4.18    0.48
  -6   2   8    4.35    0.53
  -6   2   8    4.94    0.70
   5  -2  -8  103.59    3.93
  -5   2   8  121.12    3.83
  -5   2   8  128.51    4.71
   4  -2  -8   96.10    3.64
  -4   2   8   92.65    3.56
  -4   2   8   92.15    2.86
   3  -2  -8  148.22    5.45
  -3   2   8   90.70    3.47
  -3   2   8   91.95    2.77
   2  -2  -8   17.03    0.90
   2  -2  -8   19.59    0.92
  -2   2   8   15.76    0.89
  -2   2   8   15.99    0.63
   1  -2  -8  106.29    3.95
   1  -2  -8  102.63    3.93
  -1   2   8  108.48    3.88
  -1   2   8  106.34    3.10
   0  -2  -8  177.50    6.54
   0   2   8  182.18    6.07
   0   2   8  166.19    6.38
  -1  -2  -8  238.26    8.73
   1   2   8  203.39    7.45
  -2  -2  -8   15.47    1.00
   2   2   8   16.21    0.94
  -3  -2  -8  100.88    4.06
   3   2   8  149.92    5.63
  -4  -2  -8   42.86    2.05
   4   2   8   36.05    1.70
   6  -3  -8   77.33    3.07
  -6   3   8   78.66    2.64
  -6   3   8   81.39    3.27
   5  -3  -8  105.89    4.02
  -5   3   8   71.15    2.33
  -5   3   8   71.52    2.92
   4  -3  -8   23.67    1.12
  -4   3   8   19.57    1.12
  -4   3   8   21.18    0.85
   3  -3  -8   84.46    3.25
  -3   3   8   84.00    3.26
  -3   3   8   87.65    2.62
   2  -3  -8  125.49    4.95
   2  -3  -8  139.55    4.95
  -2   3   8  101.64    3.65
  -2   3   8   96.38    2.93
   1  -3  -8  228.31    8.36
   1  -3  -8  230.14    8.38
  -1   3   8  167.55    5.19
  -1   3   8  195.58    6.37
   0  -3  -8   17.30    1.01
   0   3   8   14.99    0.89
   0   3   8   16.21    0.74
  -1  -3  -8   56.88    2.45
   1   3   8   87.78    3.41
  -2  -3  -8   34.36    1.69
   2   3   8   29.51    1.38
  -3  -3  -8  133.88    5.20
   3   3   8  130.70    4.96
  -4  -3  -8    8.78    0.81
   4   3   8    8.06    0.71
   6  -4  -8   16.33    0.94
  -6   4   8    9.45    0.85
  -6   4   8    8.83    0.66
   5  -4  -8   22.92    1.13
  -5   4   8   29.26    1.13
  -5   4   8   27.46    1.46
   4  -4  -8   85.58    3.32
  -4   4   8   60.44    2.55
  -4   4   8   65.33    2.04
   3  -4  -8  144.21    5.38
  -3   4   8  122.65    3.71
  -3   4   8  126.69    4.58
   2  -4  -8   67.58    2.59
   2  -4  -8   61.36    2.60
  -2   4   8   54.41    1.76
  -2   4   8   58.54    2.22
   1  -4  -8   22.46    1.15
  -1   4   8   43.32    1.87
  -1   4   8   45.95    1.73
  -1   4   8   43.11    1.39
   0  -4  -8   38.60    1.77
   0   4   8   34.59    1.61
  -1  -4  -8  138.64    5.31
   1   4   8  146.56    5.47
  -2  -4  -8    8.70    0.79
   2   4   8    7.69    0.64
  -3  -4  -8  105.80    4.25
   3   4   8   86.65    3.44
   5  -5  -8   67.57    2.72
  -5   5   8   65.04    2.78
  -5   5   8   68.11    2.21
   4  -5  -8   49.63    2.10
  -4   5   8   44.33    1.54
  -4   5   8   44.72    1.96
   3  -5  -8    3.25    0.47
  -3   5   8    7.12    0.47
  -3   5   8    7.36    0.60
   2  -5  -8    1.32    0.40
   2  -5  -8    1.68    0.41
  -2   5   8    3.81    0.36
  -2   5   8    2.80    0.41
   1  -5  -8  191.87    7.14
  -1   5   8  173.36    6.46
   0  -5  -8   16.10    1.01
   0   5   8   10.36    0.74
  -1  -5  -8  146.74    5.65
   1   5   8  110.80    4.25
  -2  -5  -8   23.73    1.35
   2   5   8   27.06    1.33
   5  -6  -8   12.66    0.84
  -5   6   8    7.79    0.58
  -5   6   8    7.87    0.76
   4  -6  -8    7.54    0.68
  -4   6   8    3.86    0.56
  -4   6   8    3.61    0.43
   3  -6  -8  150.55    5.70
  -3   6   8  138.46    5.08
  -3   6   8  140.21    4.19
   2  -6  -8   15.92    0.97
  -2   6   8   11.73    0.72
  -2   6   8   11.38    0.81
   1  -6  -8  129.80    5.02
  -1   6   8   99.40    3.92
   0  -6  -8   29.20    1.53
   0   6   8   32.52    1.52
  -1  -6  -8  138.68    5.43
   1   6   8  139.43    5.25
  -4   7   8   38.78    1.45
  -4   7   8   38.54    1.79
  -3   7   8   68.81    2.73
  -2   7   8   19.60    1.09
   1  -7  -8   65.28    2.84
  -1   7   8   79.33    3.24
   0  -7  -8   12.68    1.03
   0   7   8    5.60    0.62
  -1   7  -9   25.51    1.24
   1  -7   9   34.50    1.75
  -2   7  -9    5.19    0.59
   2  -7   9    6.78    0.81
  -3   7  -9  103.01    4.02
   3  -7   9  100.98    4.11
   1   6  -9   16.24    0.89
  -1  -6   9   24.67    1.29
   0   6  -9    5.09    0.48
   0  -6   9   11.26    0.87
  -1   6  -9  130.06    4.88
  -2   6  -9    9.11    0.67
   2  -6   9   12.48    0.93
  -3   6  -9  119.74    4.58
   3  -6   9  100.42    3.99
  -4   6  -9  157.91    5.96
   4  -6   9  157.80    5.99
   2   5  -9   11.10    0.68
  -2  -5   9   14.33    0.98
   1   5  -9   74.90    2.89
  -1  -5   9  109.67    4.16
   0   5  -9   15.78    0.85
   0  -5   9   22.56    1.20
  -1   5  -9   57.18    2.31
   1  -5   9   54.48    2.31
  -2   5  -9  256.47    9.30
   2  -5   9  271.20    9.66
  -3   5  -9   13.35    0.85
   3  -5   9   19.36    1.13
  -4   5  -9   10.00    0.77
   4  -5   9   21.30    1.24
  -5   5  -9   65.37    2.76
   5  -5   9   40.18    1.94
  -3  -4   9  109.10    4.16
   2   4  -9   29.15    1.27
  -2  -4   9   33.09    1.56
   1   4  -9   55.34    2.19
  -1  -4   9   64.91    2.64
   0   4  -9  299.72   10.75
   0  -4   9  397.68   13.84
  -1   4  -9    7.83    0.55
   1  -4   9   18.04    1.03
  -2   4  -9    1.22    0.33
   2  -4   9    6.62    0.67
  -3   4  -9   99.72    3.84
   3  -4   9   72.40    2.86
  -4   4  -9  175.98    6.55
   4  -4   9  176.29    6.40
  -5   4  -9   93.30    3.75
  -4  -3   9   41.89    1.96
  -4  -3   9   44.62    1.80
   3   3  -9   34.12    1.43
  -3  -3   9   37.52    1.78
  -3  -3   9   39.66    1.60
   2   3  -9  219.19    8.03
   2   3  -9  227.56    8.04
  -2  -3   9  266.48    8.05
  -2  -3   9  280.63    9.67
   1   3  -9   20.59    0.97
   1   3  -9   21.46    0.95
  -1  -3   9   27.21    1.34
   0   3  -9   21.47    1.00
   0   3  -9   20.98    0.96
   0  -3   9   10.62    0.78
  -1   3  -9  239.91    8.66
   1  -3   9  234.77    8.23
   1  -3   9  220.51    8.04
  -2   3  -9  213.81    7.78
   2  -3   9  205.89    7.50
   2  -3   9  218.02    7.69
  -3   3  -9   70.81    2.82
   3  -3   9   69.09    2.64
   3  -3   9   66.55    2.66
  -4   3  -9  164.60    6.18
   4  -3   9  127.59    4.97
   4  -3   9  137.75    4.86
  -5   3  -9    1.54    0.49
   4   2  -9  131.29    4.86
  -4  -2   9  222.14    8.18
  -4  -2   9  231.51    6.87
   3   2  -9   28.04    1.22
  -3  -2   9   30.95    1.29
  -3  -2   9   29.32    1.52
   2   2  -9   52.18    1.96
   2   2  -9   47.94    1.97
  -2  -2   9   35.37    1.33
  -2  -2   9   34.32    1.64
   1   2  -9  178.10    6.44
   1   2  -9  177.51    6.43
  -1  -2   9  152.16    5.52
   0   2  -9  331.60   11.61
   0   2  -9  319.06   11.61
   0  -2   9  327.42   11.38
  -1   2  -9   55.12    2.20
   1  -2   9   58.63    2.30
   1  -2   9   56.48    2.28
  -2   2  -9  239.37    8.68
   2  -2   9  217.29    7.65
   2  -2   9  219.46    7.94
  -3   2  -9    1.03    0.34
   3  -2   9    1.62    0.34
   3  -2   9    1.00    0.35
  -4   2  -9   29.82    1.49
   4  -2   9   41.63    1.85
  -5   2  -9   19.25    1.19
   5  -2   9   11.77    0.86
   5   1  -9   21.72    1.07
  -5  -1   9   31.64    1.40
  -5  -1   9   31.21    1.62
   4   1  -9   44.48    1.83
  -4  -1   9   35.53    1.71
  -4  -1   9   35.30    1.43
   3   1  -9  133.55    4.92
  -3  -1   9  142.22    5.40
  -3  -1   9  150.00    4.47
   2   1  -9  305.20   11.03
   2   1  -9  312.12   10.99
  -2  -1   9  304.46   10.91
  -2  -1   9  317.91    8.99
   1   1  -9   23.61    1.03
   1   1  -9   22.36    1.05
  -1  -1   9   19.43    0.75
  -1  -1   9   19.44    1.05
   0   1  -9  331.79   11.73
   0   1  -9  324.36   11.71
   0  -1   9  257.35    8.98
  -1   1  -9   13.41    0.75
   1  -1   9   11.48    0.72
   1  -1   9   10.97    0.68
  -2   1  -9   60.66    2.46
   2  -1   9   66.05    2.42
   2  -1   9   63.25    2.58
  -3   1  -9   19.77    1.09
   3  -1   9   10.92    0.78
  -4   1  -9  177.89    6.71
   4  -1   9  140.22    5.32
  -5   1  -9   10.43    0.89
   5  -1   9   11.44    0.89
   5   0  -9   63.25    2.52
  -5   0   9   81.09    2.72
  -5   0   9   79.39    3.28
   4   0  -9  124.80    4.65
  -4   0   9  162.54    6.05
  -4   0   9  164.55    4.97
   3   0  -9    1.51    0.29
  -3   0   9    0.87    0.42
  -3   0   9    1.18    0.33
   2   0  -9  301.21   11.03
   2   0  -9  314.77   10.97
  -2   0   9  290.57    8.28
  -2   0   9  284.79   10.11
   1   0  -9   21.48    1.02
   1   0  -9   20.44    0.96
  -1   0   9   17.40    0.64
  -1   0   9   16.77    0.96
   0   0  -9   27.77    1.28
   0   0  -9   28.83    1.26
   0   0   9   24.77    1.18
   0   0   9   27.30    1.18
  -1   0  -9   23.04    1.12
   1   0   9   15.76    0.77
   1   0   9   14.65    0.88
  -2   0  -9  286.34   10.39
   2   0   9  287.86   10.55
   2   0   9  296.30   10.01
  -3   0  -9   51.77    2.26
   3   0   9   53.98    2.27
  -4   0  -9   33.71    1.73
   4   0   9    7.63    0.69
  -5   0  -9    4.07    0.71
   5   0   9    2.82    0.56
   5  -1  -9    9.34    0.65
  -5   1   9   11.68    0.74
  -5   1   9   11.71    0.92
   4  -1  -9  203.98    7.43
  -4   1   9  216.14    7.74
  -4   1   9  213.19    6.34
   3  -1  -9   22.07    1.05
  -3   1   9   20.73    0.87
  -3   1   9   21.79    1.17
   2  -1  -9   69.14    2.78
   2  -1  -9   74.15    2.73
  -2   1   9   54.28    1.71
  -2   1   9   52.99    2.21
   1  -1  -9   39.87    1.71
   1  -1  -9   40.94    1.67
  -1   1   9   38.65    1.17
  -1   1   9   35.61    1.59
   0  -1  -9  321.52   11.54
   0   1   9  319.01   11.47
   0   1   9  320.52   11.02
  -1  -1  -9  123.22    4.67
   1   1   9  116.74    4.68
   1   1   9  130.99    4.37
  -2  -1  -9  106.31    4.16
   2   1   9   59.70    2.45
  -3  -1  -9   20.69    1.22
   3   1   9   17.44    1.00
  -4  -1  -9   96.66    3.99
   4   1   9   83.37    3.37
   5  -2  -9   36.28    1.60
  -5   2   9   40.32    1.50
  -5   2   9   40.44    1.89
   4  -2  -9   52.90    2.16
  -4   2   9   39.63    1.80
  -4   2   9   39.47    1.41
   3  -2  -9   21.48    1.06
  -3   2   9   23.86    1.24
  -3   2   9   26.17    0.96
   2  -2  -9  263.57    9.63
   2  -2  -9  271.86    9.70
  -2   2   9  250.73    8.82
  -2   2   9  251.93    7.20
   1  -2  -9  157.64    5.99
   1  -2  -9  167.82    6.04
  -1   2   9  159.38    5.66
   0  -2  -9  186.79    6.90
   0   2   9  130.69    4.52
   0   2   9  123.86    4.78
  -1  -2  -9   22.00    1.19
   1   2   9   20.52    1.11
  -2  -2  -9  146.18    5.63
   2   2   9  139.73    5.27
  -3  -2  -9   89.68    3.72
   3   2   9   79.56    3.19
  -4  -2  -9   92.10    3.83
   4   2   9   56.24    2.43
   5  -3  -9   12.91    0.79
  -5   3   9   18.87    0.88
  -5   3   9   18.90    1.17
   4  -3  -9  137.51    5.15
  -4   3   9  122.61    4.77
  -4   3   9  133.16    3.88
   3  -3  -9  201.72    7.39
  -3   3   9  176.29    5.05
  -3   3   9  168.29    6.20
   2  -3  -9  227.74    8.02
   2  -3  -9  210.49    8.01
  -2   3   9  135.75    4.10
  -2   3   9  145.86    5.08
   1  -3  -9   26.00    1.30
   1  -3  -9   26.96    1.33
  -1   3   9   29.88    1.40
  -1   3   9   31.50    1.31
   0  -3  -9  172.55    6.48
   0   3   9  170.65    5.67
   0   3   9  153.24    6.04
  -1  -3  -9   81.50    3.34
   1   3   9   61.71    2.54
  -2  -3  -9  208.84    7.85
   2   3   9  166.03    6.19
  -3  -3  -9   63.82    2.79
   3   3   9   59.36    2.49
   5  -4  -9  118.01    4.51
  -5   4   9  107.58    4.27
  -5   4   9  114.06    3.47
   4  -4  -9  160.12    5.96
  -4   4   9  106.21    4.12
  -4   4   9  110.95    3.34
   3  -4  -9    3.26    0.50
  -3   4   9    7.07    0.45
  -3   4   9    7.53    0.64
   2  -4  -9   57.97    2.54
   2  -4  -9   66.27    2.55
  -2   4   9   60.94    2.37
   1  -4  -9  115.52    4.44
  -1   4   9   73.87    3.07
  -1   4   9   80.17    2.86
   0  -4  -9  264.96    9.72
   0   4   9  203.99    7.58
  -1  -4  -9   80.97    3.31
   1   4   9   71.32    2.89
  -2  -4  -9   31.09    1.61
   2   4   9   60.33    2.52
  -3  -4  -9    3.44    0.63
   3   4   9    1.99    0.47
   5  -5  -9    1.96    0.41
  -5   5   9    2.10    0.39
  -5   5   9    2.29    0.51
   4  -5  -9   31.55    1.51
  -4   5   9   27.21    1.37
  -4   5   9   26.52    1.06
   3  -5  -9  110.12    4.27
  -3   5   9   76.34    2.37
  -3   5   9   74.14    2.92
   2  -5  -9  152.67    6.00
   2  -5  -9  165.28    5.97
  -2   5   9  120.61    4.41
  -2   5   9  122.80    4.67
   1  -5  -9  138.64    5.30
  -1   5   9  115.07    4.48
   0  -5  -9   19.98    1.16
   0   5   9   24.14    1.29
  -1  -5  -9    1.43    0.46
   1   5   9    0.86    0.39
  -2  -5  -9   54.74    2.48
   2   5   9   50.69    2.20
   4  -6  -9   91.24    3.65
  -4   6   9   72.95    2.42
  -4   6   9   76.13    2.99
   3  -6  -9  133.84    5.16
  -3   6   9  105.90    3.96
   2  -6  -9   19.47    1.13
  -2   6   9   16.44    1.03
   1  -6  -9    7.46    0.77
   0  -6  -9   96.31    3.92
   0   6   9   80.90    3.25
  -1  -6  -9   48.99    2.29
   1   6   9   32.82    1.58
  -3   7   9    7.96    0.75
  -2   7   9   52.51    2.29
  -2   7   9   47.39    2.15
   1  -7  -9   59.82    2.64
  -1   7   9   35.68    1.74
  -1   7   9   37.03    1.72
   1   6 -10   19.18    1.01
  -1  -6  10    7.36    0.72
   0   6 -10   35.46    1.59
   0  -6  10   35.17    1.72
  -1   6 -10   46.19    2.00
   1  -6  10   53.58    2.39
  -2   6 -10   26.42    1.32
   2  -6  10   33.00    1.68
  -3   6 -10   20.18    1.12
   3  -6  10   10.27    0.89
  -4   6 -10   68.53    2.88
   2   5 -10   28.65    1.31
  -2  -5  10   32.03    1.62
   1   5 -10   67.97    2.69
  -1  -5  10   83.76    3.34
   0   5 -10   11.04    0.73
   0  -5  10   17.69    1.09
  -1   5 -10   11.62    0.76
   1  -5  10    6.46    0.71
  -2   5 -10   77.96    3.10
   2  -5  10   86.84    3.48
  -3   5 -10    8.07    0.66
   3  -5  10   16.12    1.06
  -4   5 -10   83.60    3.38
   4  -5  10   76.81    3.16
  -3  -4  10   72.43    2.97
   2   4 -10    3.24    0.42
  -2  -4  10    5.91    0.69
   1   4 -10   47.91    1.96
  -1  -4  10   37.80    1.76
   0   4 -10   57.25    2.30
   0  -4  10   74.58    2.98
  -1   4 -10    6.61    0.54
   1  -4  10    8.37    0.73
  -2   4 -10   49.10    2.06
   2  -4  10   49.36    2.12
  -3   4 -10  199.13    7.36
   3  -4  10  206.51    7.40
  -4   4 -10   38.19    1.78
   4  -4  10   50.12    2.16
  -5   4 -10   18.41    1.17
  -4  -3  10    4.42    0.67
  -4  -3  10    3.20    0.64
  -3  -3  10   14.48    1.02
  -3  -3  10   17.99    0.99
   2   3 -10   44.29    1.81
  -2  -3  10   49.99    2.18
   1   3 -10   20.95    0.99
   1   3 -10   21.36    1.00
  -1  -3  10   19.07    1.10
   0   3 -10   15.77    0.82
   0   3 -10   15.17    0.79
   0  -3  10   15.53    0.93
  -1   3 -10  220.99    8.03
   1  -3  10  265.19    9.34
  -2   3 -10   29.41    1.36
   2  -3  10   37.78    1.67
  -3   3 -10    4.10    0.52
   3  -3  10   16.00    0.93
  -4   3 -10   97.74    3.88
  -5   3 -10  159.31    6.12
   4   2 -10   32.75    1.44
  -4  -2  10   40.82    1.65
  -4  -2  10   37.36    1.91
   3   2 -10   39.17    1.64
  -3  -2  10   33.72    1.71
  -3  -2  10   36.23    1.45
   2   2 -10    3.23    0.38
   2   2 -10    3.44    0.38
  -2  -2  10    3.07    0.42
  -2  -2  10    2.91    0.52
   1   2 -10  160.31    5.98
   1   2 -10  167.81    6.00
  -1  -2  10  194.92    7.00
   0   2 -10   72.49    2.80
   0   2 -10   72.39    2.79
   0  -2  10   75.31    2.84
   0  -2  10   74.32    2.89
  -1   2 -10    7.48    0.55
   1  -2  10    1.28    0.38
   1  -2  10    2.33    0.38
  -2   2 -10  128.51    4.83
   2  -2  10  123.50    4.52
   2  -2  10  126.21    4.70
  -3   2 -10  186.53    6.93
   3  -2  10  178.61    7.03
   3  -2  10  203.45    6.74
  -4   2 -10   95.24    3.82
   4  -2  10   76.47    3.09
  -5   2 -10  177.16    6.78
   5  -2  10  122.42    4.76
   5   1 -10   34.29    1.53
  -5  -1  10   43.11    1.73
  -5  -1  10   39.89    2.03
   4   1 -10    0.64    0.27
  -4  -1  10    0.50    0.39
  -4  -1  10    0.31    0.44
   3   1 -10  126.86    4.72
  -3  -1  10  182.78    5.37
  -3  -1  10  172.41    6.52
   2   1 -10   56.90    2.28
   2   1 -10   57.90    2.24
  -2  -1  10   55.43    2.34
  -2  -1  10   54.79    1.84
   1   1 -10   40.17    1.70
   1   1 -10   41.12    1.67
  -1  -1  10   27.10    1.37
   0   1 -10  152.32    5.68
   0   1 -10  157.59    5.71
   0  -1  10  125.00    4.84
   0  -1  10  143.26    4.96
  -1   1 -10  223.74    8.14
   1  -1  10  236.80    8.76
   1  -1  10  245.29    8.41
  -2   1 -10   80.44    3.19
   2  -1  10   75.69    2.83
   2  -1  10   77.44    3.02
  -3   1 -10  235.88    8.70
   3  -1  10  202.66    7.48
  -4   1 -10    3.71    0.61
   4  -1  10    1.55    0.43
  -5   1 -10   75.70    3.30
   5  -1  10   74.80    3.14
   5   0 -10   34.83    1.56
  -5   0  10   68.16    2.98
  -5   0  10   70.68    2.43
   4   0 -10   62.86    2.51
  -4   0  10   70.45    2.98
  -4   0  10   71.17    2.40
   3   0 -10   43.08    1.80
  -3   0  10   27.74    1.45
  -3   0  10   27.58    1.12
   2   0 -10  113.14    4.26
   2   0 -10  113.60    4.19
  -2   0  10  110.49    3.27
  -2   0  10  105.39    4.10
   1   0 -10  267.80    9.58
   1   0 -10  262.24    9.52
  -1   0  10  248.44    8.76
   0   0 -10   43.44    1.79
   0   0 -10   42.07    1.82
   0   0  10   36.01    1.50
   0   0  10   32.78    1.48
  -1   0 -10  308.03   11.14
   1   0  10  293.36    9.77
   1   0  10  271.79   10.24
  -2   0 -10    7.26    0.67
   2   0  10    5.91    0.56
  -3   0 -10   68.77    2.92
   3   0  10   95.39    3.74
  -4   0 -10   40.97    2.02
   4   0  10   31.64    1.58
   5  -1 -10   28.36    1.33
  -5   1  10   22.02    1.34
  -5   1  10   21.67    1.04
   4  -1 -10   64.25    2.58
  -4   1  10   65.19    2.19
  -4   1  10   65.29    2.77
   3  -1 -10  166.19    6.13
  -3   1  10  174.99    6.62
  -3   1  10  187.94    5.38
   2  -1 -10   13.66    0.73
   2  -1 -10   12.05    0.77
  -2   1  10    6.73    0.71
   1  -1 -10  260.49    9.34
   1  -1 -10  253.76    9.28
  -1   1  10  245.58    8.63
   0  -1 -10   32.00    1.45
   0   1  10   31.31    1.43
   0   1  10   31.46    1.35
  -1  -1 -10   48.52    2.10
   1   1  10   61.20    2.68
   1   1  10   69.98    2.44
  -2  -1 -10   54.01    2.37
   2   1  10   52.14    2.21
  -3  -1 -10  271.82   10.10
   3   1  10  247.62    9.08
  -4  -1 -10    9.46    0.97
   4   1  10    7.58    0.73
   5  -2 -10   60.45    2.49
  -5   2  10   79.53    2.60
  -5   2  10   77.35    3.22
   4  -2 -10   20.38    1.07
  -4   2  10   13.64    0.71
  -4   2  10   12.63    0.93
   3  -2 -10  191.96    7.07
  -3   2  10  178.53    6.54
  -3   2  10  182.59    5.30
   2  -2 -10   16.77    0.91
   2  -2 -10   16.42    0.93
  -2   2  10   17.16    1.00
   1  -2 -10   29.33    1.40
   1  -2 -10   28.93    1.37
  -1   2  10   43.55    1.81
   0  -2 -10   60.53    2.53
   0   2  10   65.63    2.67
   0   2  10   64.97    2.45
  -1  -2 -10  274.76   10.09
   1   2  10  255.84    9.37
  -2  -2 -10   88.62    3.66
   2   2  10   74.80    3.02
  -3  -2 -10  119.49    4.83
   3   2  10   72.20    2.97
  -4  -2 -10   39.66    2.04
   4   2  10   36.54    1.75
   5  -3 -10   58.57    2.45
  -5   3  10   64.68    2.76
  -5   3  10   65.14    2.19
   4  -3 -10   15.97    0.91
  -4   3  10   14.72    0.99
  -4   3  10   16.84    0.77
   3  -3 -10   26.55    1.31
  -3   3  10   27.14    1.35
   2  -3 -10   27.91    1.34
   2  -3 -10   24.97    1.31
  -2   3  10   33.05    1.48
   1  -3 -10  261.24    9.76
   1  -3 -10  272.88    9.78
  -1   3  10  275.39    9.32
  -1   3  10  260.33    9.74
   0  -3 -10  103.34    4.09
   0   3  10   97.44    3.85
  -1  -3 -10  162.42    6.22
   1   3  10  106.61    4.14
  -2  -3 -10   58.75    2.63
   2   3  10   61.59    2.59
  -3  -3 -10  125.93    5.03
   3   3  10  114.68    4.46
   5  -4 -10   14.47    0.90
  -5   4  10   12.85    0.74
  -5   4  10   12.17    0.97
   4  -4 -10   13.99    0.89
  -4   4  10   22.87    1.25
   3  -4 -10  164.34    6.18
  -3   4  10  151.15    5.49
   2  -4 -10  176.32    6.88
   2  -4 -10  192.38    6.85
  -2   4  10  157.21    5.63
   1  -4 -10  211.86    7.85
  -1   4  10  155.63    5.48
  -1   4  10  153.93    5.85
   0  -4 -10   57.84    2.50
   0   4  10   68.09    2.88
  -1  -4 -10  126.42    4.95
   1   4  10  115.74    4.48
  -2  -4 -10   24.02    1.40
   2   4  10   10.85    0.82
   5  -5 -10   72.56    2.99
   4  -5 -10  125.35    4.84
  -4   5  10  114.35    4.32
   3  -5 -10  150.67    5.73
  -3   5  10  109.07    4.07
   2  -5 -10   23.80    1.34
   2  -5 -10   25.19    1.29
  -2   5  10   35.54    1.68
  -2   5  10   35.69    1.53
   1  -5 -10   96.63    3.86
  -1   5  10   94.82    3.83
   0  -5 -10   70.74    2.99
   0   5  10   46.26    2.11
  -1  -5 -10  229.24    8.59
   1   5  10  184.41    6.91
   4  -6 -10    1.21    0.44
  -4   6  10    6.29    0.68
   3  -6 -10   42.20    2.00
  -3   6  10   34.03    1.54
  -2   6  10   78.83    3.27
   1  -6 -10  192.95    7.28
  -1   6  10  152.24    5.89
   0  -6 -10  151.48    5.88
   0   6  10  134.40    5.18
   0   6 -11  117.83    4.51
  -1   6 -11   28.64    1.40
   1  -6  11   43.37    2.07
  -2   6 -11   14.60    0.95
   2  -6  11    5.13    0.72
   3  -6  11   20.93    1.32
   1   5 -11   28.62    1.36
  -1  -5  11   36.58    1.78
   0   5 -11   29.19    1.37
   0  -5  11   13.41    0.94
  -1   5 -11   49.57    2.11
   1  -5  11   40.82    1.89
  -2   5 -11  136.08    5.17
   2  -5  11  122.63    4.71
  -3   5 -11   15.54    0.97
   3  -5  11   19.07    1.19
  -4   5 -11   49.78    2.22
   4  -5  11   32.70    1.68
   2   4 -11   53.49    2.18
  -2  -4  11   33.89    1.69
   1   4 -11   58.51    2.36
  -1  -4  11   62.21    2.62
   0   4 -11  159.05    5.90
   0  -4  11  164.93    6.06
  -1   4 -11   12.39    0.78
   1  -4  11   15.03    0.95
  -2   4 -11   68.60    2.78
   2  -4  11   43.61    1.94
  -3   4 -11   16.58    0.98
   3  -4  11   20.68    1.13
  -4   4 -11    5.01    0.66
  -3  -3  11   44.28    1.76
  -3  -3  11   43.25    2.03
   2   3 -11  154.37    5.68
  -2  -3  11  154.98    5.76
   1   3 -11   14.79    0.81
  -1  -3  11   14.59    0.95
   0   3 -11   89.57    3.45
   0  -3  11   68.15    2.74
  -1   3 -11   20.86    1.06
   1  -3  11   21.75    1.16
  -2   3 -11   25.65    1.25
   2  -3  11   19.60    1.07
  -3   3 -11    3.97    0.52
   3  -3  11    4.56    0.55
  -4   3 -11  101.54    4.05
   4   2 -11  112.26    4.26
  -4  -2  11  128.57    5.11
  -4  -2  11  136.36    4.32
   3   2 -11   40.47    1.73
  -3  -2  11   45.65    1.75
  -3  -2  11   42.76    2.06
   2   2 -11   67.79    2.74
   2   2 -11   71.98    2.71
  -2  -2  11   49.60    2.19
   1   2 -11   25.76    1.17
   1   2 -11   24.60    1.17
  -1  -2  11   19.60    1.11
   0   2 -11   40.25    1.74
   0   2 -11   42.34    1.75
   0  -2  11   26.57    1.18
   0  -2  11   25.86    1.27
  -1   2 -11    1.74    0.35
   1  -2  11    1.33    0.38
   1  -2  11    1.18    0.35
  -2   2 -11  133.60    5.05
   2  -2  11  160.93    5.82
   2  -2  11  165.23    6.06
  -3   2 -11   67.28    2.79
   3  -2  11   63.95    2.63
  -4   2 -11    5.90    0.72
   4  -2  11    8.70    0.78
   4   1 -11   45.38    1.92
  -4  -1  11   40.85    1.62
  -4  -1  11   36.80    1.91
   3   1 -11   33.95    1.50
  -3  -1  11   31.06    1.67
  -3  -1  11   33.25    1.33
   2   1 -11   42.63    1.84
   2   1 -11   45.05    1.79
  -2  -1  11   30.07    1.54
   1   1 -11   12.75    0.73
   1   1 -11   13.42    0.78
  -1  -1  11   11.11    0.85
   0   1 -11  141.80    5.26
   0  -1  11  161.07    5.72
   0  -1  11  149.49    5.58
  -1   1 -11  125.82    4.75
   1  -1  11  125.36    4.80
   1  -1  11  128.19    4.59
  -2   1 -11   13.26    0.88
   2  -1  11    3.21    0.44
   2  -1  11    2.71    0.45
  -3   1 -11   25.13    1.34
   3  -1  11   22.51    1.19
  -4   1 -11  117.14    4.69
   4  -1  11  109.12    4.29
   4   0 -11   49.06    2.06
  -4   0  11   40.35    2.01
  -4   0  11   41.26    1.59
   3   0 -11    5.78    0.52
  -3   0  11    8.18    0.86
   2   0 -11   66.52    2.55
   2   0 -11   64.26    2.62
  -2   0  11   80.23    3.21
   1   0 -11  200.25    7.31
   1   0 -11  198.35    7.26
  -1   0  11  160.77    5.84
   0   0 -11   55.94    2.29
   0   0  11   25.36    1.18
   0   0  11   23.21    1.15
  -1   0 -11   84.50    3.35
   1   0  11   89.02    3.17
   1   0  11   82.59    3.39
  -2   0 -11  177.12    6.65
   2   0  11  174.79    6.50
  -3   0 -11   58.24    2.58
   3   0  11   48.84    2.15
  -4   0 -11  170.40    6.64
   4   0  11  132.97    5.14
   5  -1 -11   19.13    1.04
  -5   1  11   25.07    1.19
   4  -1 -11   31.86    1.49
  -4   1  11   50.63    2.33
   3  -1 -11  202.64    7.46
  -3   1  11  189.44    6.96
   2  -1 -11   59.69    2.55
   2  -1 -11   65.96    2.50
  -2   1  11   28.64    1.44
   1  -1 -11   71.48    2.84
   1  -1 -11   69.23    2.78
  -1   1  11   67.92    2.68
   0  -1 -11  109.32    4.19
   0   1  11  127.60    4.58
   0   1  11  125.72    4.80
  -1  -1 -11   61.75    2.61
   1   1  11   41.35    1.88
  -2  -1 -11  152.02    5.86
   2   1  11  131.29    5.01
  -3  -1 -11    4.91    0.76
   3   1  11    5.35    0.67
  -4  -1 -11   70.13    3.17
   4   1  11   93.11    3.75
   5  -2 -11  156.69    5.90
  -5   2  11  161.27    6.11
  -5   2  11  161.22    4.94
   4  -2 -11   45.32    1.97
  -4   2  11   27.88    1.53
   3  -2 -11   22.99    1.20
  -3   2  11   17.29    1.08
   2  -2 -11  132.06    5.06
   2  -2 -11  134.11    5.01
  -2   2  11  137.16    5.07
   1  -2 -11   70.65    2.91
   1  -2 -11   72.46    2.90
  -1   2  11   52.06    2.13
   0  -2 -11  133.97    5.14
   0   2  11  137.11    5.25
   0   2  11  138.85    4.92
  -1  -2 -11   23.90    1.34
   1   2  11   18.07    1.09
  -2  -2 -11   47.43    2.25
   2   2  11   71.60    2.95
  -3  -2 -11   27.17    1.60
   3   2  11   28.88    1.49
   4  -3 -11   28.02    1.39
  -4   3  11   33.60    1.67
   3  -3 -11   83.33    3.35
  -3   3  11   55.16    2.33
   2  -3 -11   87.32    3.42
   2  -3 -11   84.10    3.42
  -2   3  11   88.11    3.36
   1  -3 -11   27.50    1.38
   1  -3 -11   24.52    1.36
  -1   3  11   23.45    1.14
  -1   3  11   22.24    1.21
   0  -3 -11   18.44    1.13
   0   3  11   39.10    1.86
  -1  -3 -11   23.31    1.37
   1   3  11   30.72    1.54
  -2  -3 -11  216.02    8.21
   2   3  11  204.16    7.60
   4  -4 -11   30.69    1.52
  -4   4  11   34.19    1.66
   3  -4 -11   47.93    2.14
  -3   4  11   39.31    1.75
   2  -4 -11   10.71    0.86
  -2   4  11   17.07    0.94
   1  -4 -11   11.67    0.88
  -1   4  11   22.53    1.28
   0  -4 -11  134.30    5.23
   0   4  11  142.70    5.54
  -1  -4 -11   71.23    3.06
   1   4  11   59.62    2.55
  -2  -4 -11   90.58    3.79
   2   4  11   68.16    2.86
   4  -5 -11    1.50    0.46
  -4   5  11    3.00    0.55
   3  -5 -11    1.83    0.49
  -3   5  11    6.27    0.63
   2  -5 -11  118.75    4.69
  -2   5  11  119.94    4.69
   1  -5 -11  143.74    5.53
  -1   5  11  121.54    4.82
   0  -5 -11   75.82    3.20
   0   5  11   52.70    2.37
  -1  -5 -11   29.71    1.63
   1   5  11   47.95    2.17
   3  -6 -11  139.77    5.45
  -3   6  11  113.33    4.44
  -3   6  11  127.77    4.77
  -2   6  11   54.04    2.46
   1  -6 -11   16.43    1.13
  -1   6  11   31.43    1.72
   0   5 -12   16.49    0.98
   0  -5  12   16.20    1.11
  -1   5 -12  149.94    5.67
   1  -5  12  189.73    6.95
  -2   5 -12   25.73    1.35
   2  -5  12   31.00    1.64
   3  -5  12    3.41    0.62
   2   4 -12   10.31    0.71
   1   4 -12  160.83    5.98
  -1  -4  12  213.55    7.77
   0   4 -12   40.93    1.81
   0  -4  12   46.86    2.11
  -1   4 -12   30.93    1.47
   1  -4  12   22.28    1.24
  -2   4 -12   98.89    3.88
   2  -4  12   90.35    3.54
  -3   4 -12  175.41    6.59
   3  -4  12  174.95    6.37
   2   3 -12   53.09    2.18
  -2  -3  12   57.11    2.52
   1   3 -12   52.00    2.15
  -1  -3  12   36.48    1.73
   0   3 -12   88.36    3.44
   0  -3  12   90.05    3.52
  -1   3 -12  213.52    7.84
   1  -3  12  209.70    7.51
  -2   3 -12   13.27    0.86
   2  -3  12   13.47    0.88
  -3   3 -12  152.05    5.78
  -4   3 -12    0.51    0.45
   3   2 -12   56.83    2.34
  -3  -2  12   52.51    2.42
   2   2 -12   69.31    2.70
   2   2 -12   67.86    2.74
  -2  -2  12   72.83    3.03
   1   2 -12  231.54    8.27
   1   2 -12  222.25    8.25
  -1  -2  12  209.12    7.54
   0   2 -12   23.72    1.15
   0  -2  12   23.44    1.11
   0  -2  12   23.15    1.22
  -1   2 -12  128.22    4.85
   1  -2  12  121.26    4.57
   1  -2  12  127.16    4.72
  -2   2 -12   15.31    0.95
   2  -2  12   15.99    0.95
   2  -2  12   15.79    0.91
  -3   2 -12   37.10    1.79
   3  -2  12   29.50    1.46
  -4   2 -12   11.22    0.91
   4  -2  12   10.04    0.86
   4   1 -12   26.81    1.31
   3   1 -12  153.52    5.73
  -3  -1  12  159.85    6.05
   2   1 -12   36.32    1.65
   2   1 -12   37.44    1.57
  -2  -1  12   35.75    1.78
   1   1 -12  149.18    5.60
   1   1 -12  153.46    5.65
  -1  -1  12  115.10    4.35
   0   1 -12   28.35    1.34
   0  -1  12   22.58    1.19
   0  -1  12   24.99    1.17
  -1   1 -12   42.04    1.85
   1  -1  12   34.86    1.62
   1  -1  12   34.45    1.51
  -2   1 -12   22.37    1.22
   2  -1  12   25.14    1.26
  -3   1 -12  112.25    4.45
   3  -1  12  113.14    4.39
  -4   1 -12  106.93    4.38
   4  -1  12   90.25    3.65
   4   0 -12   49.83    2.13
  -4   0  12   55.72    2.58
   3   0 -12   71.65    2.89
  -3   0  12   69.07    2.97
   2   0 -12   36.69    1.70
   2   0 -12   38.52    1.62
  -2   0  12   32.76    1.64
   1   0 -12   70.37    2.88
   1   0 -12   72.66    2.84
  -1   0  12   52.26    2.22
   0   0 -12   40.31    1.79
   0   0  12   42.91    1.84
   0   0  12   45.26    1.90
  -1   0 -12  163.79    6.16
   1   0  12  163.06    6.21
   1   0  12  167.80    5.86
  -2   0 -12  159.10    6.06
   2   0  12  144.85    5.48
  -3   0 -12   32.52    1.72
   3   0  12    8.69    0.79
   4   0  12   12.75    0.95
   4  -1 -12   62.10    2.58
  -4   1  12   57.38    2.62
   3  -1 -12   55.63    2.35
  -3   1  12   39.85    1.95
   2  -1 -12   39.35    1.79
  -2   1  12   46.66    2.10
   1  -1 -12   92.41    3.63
   1  -1 -12   90.73    3.56
  -1   1  12   94.49    3.61
   0  -1 -12  284.12   10.35
   0   1  12  274.15    9.94
   0   1  12  270.19    9.49
  -1  -1 -12   84.25    3.44
   1   1  12   44.36    2.00
  -2  -1 -12   16.07    1.13
   2   1  12   22.05    1.21
  -3  -1 -12   81.39    3.53
   3   1  12   70.82    2.94
   4  -2 -12   34.91    1.66
  -4   2  12   40.14    2.01
   3  -2 -12   35.22    1.68
  -3   2  12   32.51    1.68
   2  -2 -12  296.38   10.81
  -2   2  12  288.45   10.21
   1  -2 -12  106.00    4.09
   1  -2 -12  102.72    4.11
  -1   2  12   70.20    2.86
  -1   2  12   69.48    2.74
   0  -2 -12    3.28    0.56
   0   2  12   10.85    0.83
  -1  -2 -12   60.22    2.68
   1   2  12   56.62    2.47
  -2  -2 -12   93.13    3.91
   2   2  12   62.69    2.67
   4  -3 -12  245.68    9.08
  -4   3  12  215.95    7.87
   3  -3 -12   90.75    3.65
  -3   3  12   61.58    2.59
   2  -3 -12    4.27    0.59
  -2   3  12    2.23    0.50
   1  -3 -12   56.19    2.46
  -1   3  12   55.58    2.40
   0  -3 -12  124.46    4.92
   0   3  12   94.81    3.86
  -1  -3 -12   86.49    3.67
   1   3  12   65.22    2.78
  -2  -3 -12   75.34    3.34
   2   3  12   57.03    2.51
   4  -4 -12   15.06    1.01
  -4   4  12    4.71    0.69
   3  -4 -12   21.21    1.22
  -3   4  12   18.91    1.11
   2  -4 -12  137.89    5.35
  -2   4  12   98.82    3.82
  -2   4  12  105.25    4.07
   1  -4 -12   44.13    2.06
  -1   4  12   43.16    2.06
   0  -4 -12   78.06    3.30
   0   4  12   66.62    2.93
  -1  -4 -12   21.32    1.32
   1   4  12   30.41    1.59
   3  -5 -12   12.00    0.93
  -3   5  12    9.84    0.77
  -2   5  12   83.92    3.49
   1  -5 -12   36.48    1.81
  -1   5  12   34.29    1.80
   0   5  12    7.55    0.82
   1   4 -13   46.49    2.02
   0   4 -13   71.83    2.93
   0  -4  13   71.58    2.98
  -1   4 -13    2.87    0.49
   1  -4  13    2.96    0.52
  -2   4 -13  122.28    4.74
   2  -4  13  169.88    6.24
  -2  -3  13   76.36    3.20
   1   3 -13    3.20    0.47
  -1  -3  13    5.61    0.74
   0   3 -13   88.15    3.47
   0  -3  13  132.03    4.97
  -1   3 -13   39.51    1.78
   1  -3  13   38.59    1.77
  -2   3 -13   12.84    0.86
   2  -3  13   12.92    0.88
  -3   3 -13   96.18    3.86
   2   2 -13   61.70    2.54
  -2  -2  13   90.49    3.68
   1   2 -13   74.25    2.93
   1   2 -13   72.22    2.90
  -1  -2  13   67.08    2.79
   0   2 -13   16.27    0.94
   0  -2  13   16.39    0.92
   0  -2  13   16.52    0.99
  -1   2 -13   81.56    3.26
   1  -2  13   95.60    3.59
   1  -2  13   93.02    3.69
  -2   2 -13  176.70    6.64
   2  -2  13  207.30    7.65
  -3   2 -13    3.71    0.59
   3   1 -13   83.49    3.33
   2   1 -13   24.38    1.25
  -2  -1  13   18.71    1.26
   1   1 -13   64.23    2.59
   1   1 -13   61.28    2.54
  -1  -1  13   62.83    2.63
   0   1 -13  201.12    7.42
   0  -1  13  200.02    7.25
   0  -1  13  206.37    7.48
  -1   1 -13   27.07    1.37
   1  -1  13   23.51    1.16
   1  -1  13   22.58    1.24
  -2   1 -13  165.87    6.30
   2  -1  13  163.62    6.14
  -3   1 -13    7.51    0.80
   3  -1  13    9.63    0.78
   3   0 -13   53.33    2.29
  -3   0  13   46.17    2.23
   2   0 -13  132.08    5.05
  -2   0  13  129.07    4.96
   1   0 -13   47.59    2.06
   1   0 -13   46.48    2.01
  -1   0  13   38.12    1.79
   0   0 -13   93.90    3.70
   0   0  13   92.88    3.55
   0   0  13   95.83    3.71
  -1   0 -13   18.78    1.11
   1   0  13   23.36    1.29
  -2   0 -13   44.73    2.08
   2   0  13   48.84    2.14
  -3   0 -13   49.12    2.36
   3   0  13   54.51    2.39
   3  -1 -13   75.98    3.13
  -3   1  13   69.52    2.99
   2  -1 -13   68.13    2.83
  -2   1  13   65.20    2.75
   1  -1 -13   33.00    1.54
   1  -1 -13   32.20    1.60
  -1   1  13   29.00    1.44
  -1   1  13   29.99    1.46
   0  -1 -13   44.44    2.01
   0   1  13   41.99    1.87
   0   1  13   38.40    1.68
  -1  -1 -13   62.48    2.73
   1   1  13   75.29    3.12
  -2  -1 -13  124.54    4.99
   2   1  13  118.16    4.61
   3  -2 -13   43.06    1.99
  -3   2  13   42.97    2.08
   2  -2 -13   41.34    1.92
  -2   2  13   38.57    1.83
   1  -2 -13   52.18    2.31
   1  -2 -13   51.10    2.28
  -1   2  13   64.14    2.77
  -1   2  13   69.24    2.67
   0  -2 -13  113.38    4.51
   0   2  13  111.27    4.42
  -1  -2 -13  205.77    7.83
   1   2  13  176.47    6.68
  -2  -2 -13   65.83    3.00
   2   2  13   33.76    1.70
   3  -3 -13   37.95    1.83
  -3   3  13   57.89    2.53
   2  -3 -13   53.38    2.39
  -2   3  13   55.52    2.35
   1  -3 -13  337.65   12.36
  -1   3  13  327.25   11.98
   0  -3 -13   97.49    4.01
   0   3  13   70.58    3.06
  -1  -3 -13   25.28    1.56
   1   3  13   37.09    1.84
  -3   4  13  250.48    8.94
   2  -4 -13   82.31    3.45
  -2   4  13   63.91    2.77
   1  -4 -13    4.96    0.70
  -1   4  13   16.53    1.19
   0  -4 -13   37.53    1.92
   0   4  13   33.48    1.81
   1   3 -14    8.61    0.71
  -1  -3  14    4.91    0.70
   0   3 -14   29.73    1.46
   0  -3  14   18.32    1.16
  -1   3 -14   45.54    2.04
   1  -3  14   45.24    2.01
   2  -3  14    5.05    0.67
   1   2 -14   38.55    1.73
  -1  -2  14   30.52    1.60
   0   2 -14    4.29    0.56
   0  -2  14    6.89    0.68
  -1   2 -14   39.62    1.82
   1  -2  14   72.09    2.85
  -2   2 -14  112.77    4.45
   2   1 -14   23.11    1.25
  -2  -1  14   21.72    1.38
   1   1 -14   17.34    1.01
   1   1 -14   19.28    1.09
  -1  -1  14   31.43    1.48
  -1  -1  14   32.06    1.61
   0   1 -14  143.63    5.44
   0  -1  14  131.85    4.91
   0  -1  14  134.08    5.07
  -1   1 -14    3.29    0.53
   1  -1  14    1.22    0.42
  -2   1 -14   38.88    1.89
   2  -1  14   50.59    2.22
   3   0 -14    4.50    0.64
   2   0 -14  161.28    6.11
  -2   0  14  140.83    5.40
   1   0 -14   12.54    0.90
   1   0 -14   12.78    0.84
  -1   0  14    4.74    0.59
  -1   0  14    4.15    0.62
   0   0 -14   42.01    1.91
   0   0  14   45.28    1.96
   0   0  14   47.99    2.10
  -1   0 -14  118.96    4.66
   1   0  14  126.43    4.90
  -2   0 -14   46.01    2.18
   2   0  14   31.33    1.58
   3  -1 -14   10.16    0.86
  -3   1  14    4.17    0.75
   2  -1 -14   24.21    1.32
  -2   1  14   19.24    1.25
   1  -1 -14   61.98    2.67
   1  -1 -14   61.69    2.60
  -1   1  14   63.28    2.58
  -1   1  14   60.41    2.60
   0  -1 -14   70.47    2.97
   0   1  14   52.81    2.37
  -1  -1 -14   67.54    2.95
   1   1  14   71.96    3.04
   2   1  14   12.43    0.93
  -3   2  14   41.27    2.03
   2  -2 -14   94.27    3.84
  -2   2  14   80.58    3.26
   1  -2 -14   29.26    1.54
  -1   2  14   31.99    1.63
   0  -2 -14   37.25    1.89
   0   2  14   31.74    1.67
  -1  -2 -14   12.39    1.08
   1   2  14   18.20    1.16
   2  -3 -14   29.08    1.57
  -2   3  14   26.91    1.47
  -2   3  14   27.29    1.44
   1  -3 -14    4.23    0.69
  -1   3  14    9.27    0.92
   0  -3 -14   16.05    1.15
   0   2 -15   28.39    1.45
   0  -2  15   23.39    1.31
   1   1 -15   52.43    2.29
   1   1 -15   54.68    2.36
  -1  -1  15   44.85    2.03
  -1  -1  15   42.22    1.92
   0   1 -15   50.05    2.22
   0  -1  15   40.96    1.90
   0  -1  15   41.33    1.85
  -1   1 -15   49.19    2.24
   1  -1  15   50.28    2.23
   1   0 -15   47.16    2.09
  -1   0  15   53.20    2.33
  -1   0  15   55.18    2.37
   0   0 -15    2.03    0.46
   0   0  15    5.37    0.71
  -1   0 -15  251.42    9.35
   1   0  15  232.37    8.63
   1  -1 -15  231.90    8.61
  -1   1  15  210.99    7.47
  -1   1  15  202.75    7.73
   0  -1 -15   25.80    1.45
   0   1  15   12.83    1.02
   1  -2 -15   10.03    0.91
   0   0   0    0.00    0.00
;
_shelx_hkl_checksum              97558
loop_
_space_group_symop_operation_xyz
'x, y, z'
loop_
_atom_site_label
_atom_site_type_symbol
_atom_site_fract_x
_atom_site_fract_y
_atom_site_fract_z
_atom_site_U_iso_or_equiv
_atom_site_adp_type
_atom_site_occupancy
_atom_site_site_symmetry_order
_atom_site_calc_flag
_atom_site_refinement_flags_posn
_atom_site_refinement_flags_adp
_atom_site_refinement_flags_occupancy
_atom_site_disorder_assembly
_atom_site_disorder_group
Ag1 Ag 0.1836(3) 0.0304(2) 0.93162(15) 0.0183(4) Uani 1 1 d . . . . .
Ag2 Ag 0.5926(3) 0.8511(3) 0.73212(15) 0.0185(4) Uani 1 1 d . . . . .
Bi1 Bi 0.00350(9) 0.59077(8) 0.49392(5) 0.0091(2) Uani 1 1 d . . . . .
Bi2 Bi 0.48855(10) 0.62473(8) 0.04637(5) 0.0085(2) Uani 1 1 d . . . . .
I1 I 0.2542(2) 0.20276(18) 0.65829(10) 0.0086(3) Uani 1 1 d . . . . .
I2 I -0.0572(2) 0.53485(18) 0.81227(9) 0.0072(3) Uani 1 1 d . . . . .
I3 I -0.2063(2) 0.22847(17) 0.09147(9) 0.0071(3) Uani 1 1 d . . . . .
I4 I 0.6566(2) 0.98834(17) 0.44563(9) 0.0065(3) Uani 1 1 d . . . . .
O1 O 0.253(3) 0.465(2) 0.6458(13) 0.020(3) Uani 1 1 d . . . . .
O2 O 0.004(3) 0.114(2) 0.7577(12) 0.017(3) Uani 1 1 d . . . . .
O3 O 0.511(3) 0.233(2) 0.7603(13) 0.021(3) Uani 1 1 d . . . . .
O4 O -0.097(3) 0.657(2) 0.6810(11) 0.018(3) Uani 1 1 d . . . . .
O5 O 0.259(3) 0.714(2) 0.8626(11) 0.014(3) Uani 1 1 d . . . . .
O6 O -0.238(3) 0.664(2) 0.8906(11) 0.013(3) Uani 1 1 d . . . . .
O7 O 0.056(2) 0.379(2) 0.0042(12) 0.015(3) Uani 1 1 d . . . . .
O8 O -0.465(2) 0.3051(19) 0.0257(11) 0.010(2) Uani 1 1 d . . . . .
O9 O -0.273(3) -0.005(2) 0.0084(12) 0.013(2) Uani 1 1 d . . . . .
O10 O 0.397(2) 0.847(2) 0.5385(11) 0.009(2) Uani 1 1 d . U . . .
O11 O 0.906(2) 0.910(2) 0.5093(11) 0.011(2) Uani 1 1 d . U . . .
O12 O 0.730(2) 1.226(2) 0.5279(11) 0.013(3) Uani 1 1 d . U . . .
O13 O 0.169(3) 0.338(2) 0.3969(12) 0.016(3) Uani 1 1 d . . . . .
O14 O 0.598(3) 0.586(2) 0.3804(12) 0.019(3) Uani 1 1 d . . . . .
O15 O 0.312(2) 0.464(2) 0.2135(11) 0.011(2) Uani 1 1 d . U . . .
O16 O 0.501(3) 0.238(2) 0.3076(12) 0.017(3) Uani 1 1 d . . . . .
O17 O 0.156(2) 0.764(2) 0.3209(11) 0.011(2) Uani 1 1 d . U . . .
O18 O 0.271(2) 0.875(2) 0.1324(11) 0.013(3) Uani 1 1 d . . . . .
O19 O -0.145(2) 0.630(2) 0.1599(11) 0.013(3) Uani 1 1 d . U . . .
O20 O -0.052(3) 0.976(2) 0.2276(12) 0.017(3) Uani 1 1 d . . . . .
S1 S 0.3970(8) 0.4039(7) 0.3244(4) 0.0072(9) Uani 1 1 d . . . . .
S2 S 0.0594(8) 0.8163(7) 0.2110(4) 0.0074(8) Uani 1 1 d . U . . .
loop_
_atom_site_aniso_label
_atom_site_aniso_U_11
_atom_site_aniso_U_22
_atom_site_aniso_U_33
_atom_site_aniso_U_23
_atom_site_aniso_U_13
_atom_site_aniso_U_12
Ag1 0.0220(8) 0.0161(8) 0.0151(8) -0.0051(6) -0.0054(6) 0.0050(6)
Ag2 0.0133(6) 0.0242(9) 0.0168(8) 0.0061(6) -0.0005(5) 0.0048(6)
Bi1 0.0097(3) 0.0094(3) 0.0060(3) -0.0032(2) -0.0013(2) 0.0007(2)
Bi2 0.0094(3) 0.0087(4) 0.0069(3) -0.0028(2) -0.0020(2) 0.0027(2)
I1 0.0096(5) 0.0094(6) 0.0066(5) -0.0042(4) -0.0028(4) 0.0034(4)
I2 0.0084(5) 0.0094(6) 0.0040(5) -0.0031(4) -0.0026(4) 0.0039(4)
I3 0.0104(5) 0.0073(5) 0.0043(6) -0.0013(4) -0.0009(4) 0.0041(4)
I4 0.0085(5) 0.0075(5) 0.0034(5) -0.0023(4) -0.0026(4) 0.0031(4)
O1 0.029(7) 0.014(7) 0.020(8) 0.000(6) -0.007(6) 0.010(6)
O2 0.013(6) 0.024(8) 0.010(6) 0.001(5) 0.003(5) 0.000(6)
O3 0.018(7) 0.025(8) 0.018(7) -0.007(6) -0.015(6) 0.008(6)
O4 0.025(7) 0.029(8) 0.006(6) 0.006(5) 0.002(5) 0.019(6)
O5 0.011(6) 0.016(7) 0.008(6) -0.002(5) -0.001(5) -0.004(5)
O6 0.017(6) 0.017(7) 0.010(6) 0.000(5) 0.003(5) 0.012(5)
O7 0.011(6) 0.022(7) 0.010(6) 0.005(5) 0.003(5) 0.002(5)
O8 0.004(5) 0.008(6) 0.016(6) 0.001(5) -0.004(5) 0.001(5)
O9 0.014(6) 0.007(6) 0.016(6) -0.002(5) -0.001(5) 0.003(5)
O10 0.005(4) 0.011(5) 0.007(5) -0.003(4) -0.002(4) -0.001(4)
O11 0.011(5) 0.011(5) 0.011(5) -0.004(4) -0.007(4) 0.006(4)
O12 0.014(5) 0.013(5) 0.012(5) -0.004(4) -0.002(4) 0.003(4)
O13 0.010(6) 0.020(8) 0.016(7) 0.004(6) 0.010(5) 0.001(5)
O14 0.021(7) 0.019(8) 0.014(7) -0.006(6) -0.002(5) 0.004(6)
O15 0.011(4) 0.014(5) 0.007(5) -0.002(4) -0.004(4) 0.005(4)
O16 0.025(7) 0.017(7) 0.014(7) -0.005(5) -0.009(6) 0.013(6)
O17 0.009(4) 0.013(5) 0.009(5) 0.000(4) -0.005(4) 0.004(4)
O18 0.013(6) 0.013(7) 0.011(6) 0.003(5) 0.001(5) 0.002(5)
O19 0.011(5) 0.011(5) 0.014(5) -0.006(4) -0.004(4) -0.001(4)
O20 0.022(7) 0.018(7) 0.016(7) -0.004(6) -0.004(5) 0.016(6)
S1 0.0085(18) 0.009(2) 0.005(2) -0.0035(17) -0.0017(16) 0.0047(16)
S2 0.0091(18) 0.009(2) 0.0033(18) -0.0021(15) -0.0038(15) 0.0023(16)
loop_
_atom_type_symbol
_atom_type_description
_atom_type_scat_dispersion_real
_atom_type_scat_dispersion_imag
_atom_type_scat_source
Ag Ag -0.8971 1.1015 'International Tables Vol C Tables 4.2.6.8 and 6.1.1.4'
Bi Bi -4.1077 10.2566 'International Tables Vol C Tables 4.2.6.8 and 6.1.1.4'
I I -0.4742 1.8119 'International Tables Vol C Tables 4.2.6.8 and 6.1.1.4'
O O 0.0106 0.0060 'International Tables Vol C Tables 4.2.6.8 and 6.1.1.4'
S S 0.1246 0.1234 'International Tables Vol C Tables 4.2.6.8 and 6.1.1.4'
loop_
_geom_angle_atom_site_label_1
_geom_angle_atom_site_label_2
_geom_angle_atom_site_label_3
_geom_angle
_geom_angle_site_symmetry_1
_geom_angle_site_symmetry_3
_geom_angle_publ_flag
O2 Ag1 O8 116.8(5) . 1_656 ?
O2 Ag1 O5 98.1(5) . 1_545 ?
O8 Ag1 O5 119.6(4) 1_656 1_545 ?
O2 Ag2 O5 130.5(5) 1_665 . ?
O2 Ag2 O10 112.3(5) 1_665 . ?
O5 Ag2 O10 109.7(4) . . ?
O2 Ag2 O4 77.9(5) 1_665 1_655 ?
O5 Ag2 O4 121.4(5) . 1_655 ?
O10 Ag2 O4 97.1(4) . 1_655 ?
O10 Bi1 O4 84.2(5) . . ?
O10 Bi1 O17 72.9(4) . . ?
O4 Bi1 O17 141.5(5) . . ?
O10 Bi1 O11 74.7(4) . 1_455 ?
O4 Bi1 O11 67.7(5) . 1_455 ?
O17 Bi1 O11 76.4(4) . 1_455 ?
O10 Bi1 O12 144.7(4) . 1_445 ?
O4 Bi1 O12 85.0(5) . 1_445 ?
O17 Bi1 O12 130.9(4) . 1_445 ?
O11 Bi1 O12 130.6(4) 1_455 1_445 ?
O10 Bi1 O13 98.6(5) . . ?
O4 Bi1 O13 137.0(5) . . ?
O17 Bi1 O13 78.1(4) . . ?
O11 Bi1 O13 154.5(4) 1_455 . ?
O12 Bi1 O13 68.1(4) 1_445 . ?
O10 Bi1 O14 133.3(5) . 1_455 ?
O4 Bi1 O14 101.8(5) . 1_455 ?
O17 Bi1 O14 74.7(4) . 1_455 ?
O11 Bi1 O14 65.7(4) 1_455 1_455 ?
O12 Bi1 O14 81.9(5) 1_445 1_455 ?
O13 Bi1 O14 106.5(5) . 1_455 ?
O10 Bi1 O1 70.3(5) . . ?
O4 Bi1 O1 67.0(5) . . ?
O17 Bi1 O1 128.7(5) . . ?
O11 Bi1 O1 124.4(5) 1_455 . ?
O12 Bi1 O1 74.5(5) 1_445 . ?
O13 Bi1 O1 73.6(5) . . ?
O14 Bi1 O1 154.5(5) 1_455 . ?
O8 Bi2 O15 78.5(4) 1_655 . ?
O8 Bi2 O19 72.4(4) 1_655 1_655 ?
O15 Bi2 O19 76.1(4) . 1_655 ?
O8 Bi2 O6 75.9(4) 1_655 1_654 ?
O15 Bi2 O6 152.1(4) . 1_654 ?
O19 Bi2 O6 85.6(4) 1_655 1_654 ?
O8 Bi2 O7 73.8(4) 1_655 . ?
O15 Bi2 O7 70.3(4) . . ?
O19 Bi2 O7 136.0(4) 1_655 . ?
O6 Bi2 O7 112.3(5) 1_654 . ?
O8 Bi2 O9 139.7(4) 1_655 1_665 ?
O15 Bi2 O9 130.6(4) . 1_665 ?
O19 Bi2 O9 87.1(4) 1_655 1_665 ?
O6 Bi2 O9 68.0(5) 1_654 1_665 ?
O7 Bi2 O9 136.5(4) . 1_665 ?
O8 Bi2 O18 152.6(4) 1_655 . ?
O15 Bi2 O18 76.1(4) . . ?
O19 Bi2 O18 110.7(4) 1_655 . ?
O6 Bi2 O18 130.9(4) 1_654 . ?
O7 Bi2 O18 88.0(5) . . ?
O9 Bi2 O18 67.0(4) 1_665 . ?
O8 Bi2 O5 110.9(4) 1_655 1_554 ?
O15 Bi2 O5 130.3(4) . 1_554 ?
O19 Bi2 O5 153.5(4) 1_655 1_554 ?
O6 Bi2 O5 70.5(4) 1_654 1_554 ?
O7 Bi2 O5 66.6(4) . 1_554 ?
O9 Bi2 O5 73.7(4) 1_665 1_554 ?
O18 Bi2 O5 78.9(4) . 1_554 ?
O3 I1 O2 94.7(7) . . ?
O3 I1 O1 102.5(7) . . ?
O2 I1 O1 98.0(7) . . ?
O6 I2 O4 92.8(6) . . ?
O6 I2 O5 94.3(6) . . ?
O4 I2 O5 99.5(7) . . ?
O9 I3 O7 94.1(6) . . ?
O9 I3 O8 96.1(6) . . ?
O7 I3 O8 97.9(6) . . ?
O11 I4 O12 96.4(6) . . ?
O11 I4 O10 97.3(6) . . ?
O12 I4 O10 92.6(6) . . ?
I1 O1 Bi1 125.8(7) . . ?
I1 O2 Ag2 128.6(8) . 1_445 ?
I1 O2 Ag1 109.2(6) . . ?
Ag2 O2 Ag1 104.5(5) 1_445 . ?
I2 O4 Bi1 129.7(7) . . ?
I2 O4 Ag2 103.2(6) . 1_455 ?
Bi1 O4 Ag2 125.1(5) . 1_455 ?
I2 O5 Ag2 120.0(6) . . ?
I2 O5 Ag1 106.2(6) . 1_565 ?
Ag2 O5 Ag1 102.0(5) . 1_565 ?
I2 O5 Bi2 119.3(6) . 1_556 ?
Ag2 O5 Bi2 105.9(5) . 1_556 ?
Ag1 O5 Bi2 100.2(5) 1_565 1_556 ?
I2 O6 Bi2 142.7(7) . 1_456 ?
I3 O7 Bi2 133.9(7) . . ?
I3 O8 Bi2 125.8(6) . 1_455 ?
I3 O8 Ag1 115.7(6) . 1_454 ?
Bi2 O8 Ag1 117.8(5) 1_455 1_454 ?
I3 O9 Bi2 132.9(7) . 1_445 ?
I4 O10 Bi1 129.9(7) . . ?
I4 O10 Ag2 108.0(5) . . ?
Bi1 O10 Ag2 117.6(5) . . ?
I4 O11 Bi1 132.3(7) . 1_655 ?
I4 O12 Bi1 133.0(7) . 1_665 ?
S1 O13 Bi1 122.6(8) . . ?
S1 O14 Bi1 127.3(8) . 1_655 ?
S1 O15 Bi2 139.9(7) . . ?
S2 O17 Bi1 141.0(7) . . ?
S2 O18 Bi2 125.3(7) . . ?
S2 O19 Bi2 126.5(8) . 1_455 ?
O16 S1 O15 109.9(8) . . ?
O16 S1 O14 110.1(9) . . ?
O15 S1 O14 109.5(8) . . ?
O16 S1 O13 111.2(9) . . ?
O15 S1 O13 107.8(8) . . ?
O14 S1 O13 108.2(9) . . ?
O20 S2 O18 112.7(9) . . ?
O20 S2 O17 110.2(8) . . ?
O18 S2 O17 109.1(7) . . ?
O20 S2 O19 108.5(8) . . ?
O18 S2 O19 106.7(8) . . ?
O17 S2 O19 109.6(8) . . ?
loop_
_geom_bond_atom_site_label_1
_geom_bond_atom_site_label_2
_geom_bond_distance
_geom_bond_site_symmetry_2
_geom_bond_publ_flag
Ag1 O2 2.415(14) . ?
Ag1 O8 2.430(13) 1_656 ?
Ag1 O5 2.498(15) 1_545 ?
Ag2 O2 2.381(14) 1_665 ?
Ag2 O5 2.397(13) . ?
Ag2 O10 2.495(13) . ?
Ag2 O4 2.593(13) 1_655 ?
Bi1 O10 2.325(13) . ?
Bi1 O4 2.383(13) . ?
Bi1 O17 2.417(13) . ?
Bi1 O11 2.446(13) 1_455 ?
Bi1 O12 2.504(14) 1_445 ?
Bi1 O13 2.515(15) . ?
Bi1 O14 2.560(14) 1_455 ?
Bi1 O1 2.561(14) . ?
Bi2 O8 2.322(13) 1_655 ?
Bi2 O15 2.357(13) . ?
Bi2 O19 2.377(13) 1_655 ?
Bi2 O6 2.389(12) 1_654 ?
Bi2 O7 2.442(14) . ?
Bi2 O9 2.503(13) 1_665 ?
Bi2 O18 2.638(14) . ?
Bi2 O5 2.662(13) 1_554 ?
I1 O3 1.784(14) . ?
I1 O2 1.799(13) . ?
I1 O1 1.821(15) . ?
I2 O6 1.818(12) . ?
I2 O4 1.820(13) . ?
I2 O5 1.834(14) . ?
I3 O9 1.801(14) . ?
I3 O7 1.833(13) . ?
I3 O8 1.833(11) . ?
I4 O11 1.790(12) . ?
I4 O12 1.816(14) . ?
I4 O10 1.846(12) . ?
O2 Ag2 2.381(14) 1_445 ?
O4 Ag2 2.593(13) 1_455 ?
O5 Ag1 2.498(15) 1_565 ?
O5 Bi2 2.662(13) 1_556 ?
O6 Bi2 2.389(12) 1_456 ?
O8 Bi2 2.322(13) 1_455 ?
O8 Ag1 2.430(12) 1_454 ?
O9 Bi2 2.503(13) 1_445 ?
O11 Bi1 2.446(13) 1_655 ?
O12 Bi1 2.504(14) 1_665 ?
O13 S1 1.495(13) . ?
O14 S1 1.492(15) . ?
O14 Bi1 2.560(14) 1_655 ?
O15 S1 1.490(13) . ?
O16 S1 1.461(14) . ?
O17 S2 1.485(13) . ?
O18 S2 1.470(13) . ?
O19 S2 1.498(13) . ?
O19 Bi2 2.377(13) 1_455 ?
O20 S2 1.451(14) . ?
