#------------------------------------------------------------------------------
#$Date: 2021-09-06 12:04:47 +0300 (Mon, 06 Sep 2021) $
#$Revision: 268516 $
#$URL: file:///home/coder/svn-repositories/cod/cif/7/12/84/7128476.cif $
#------------------------------------------------------------------------------
#
# This file is available in the Crystallography Open Database (COD),
# http://www.crystallography.net/
#
# All data on this site have been placed in the public domain by the
# contributors.
#
data_7128476
loop_
_publ_author_name
'Zhang, Mengsi'
'Cui, Meiyan'
'Zhao, Zhiying'
'Huang, Xing'
'He, Zhangzhen'
_publ_section_title
;
 A spin-1/2 gapped compound
 CdCu<sub>2</sub>(SeO<sub>3</sub>)<sub>2</sub>Cl<sub>2</sub> with a ladder
 structure.
;
_journal_issue                   56
_journal_name_full
'Chemical communications (Cambridge, England)'
_journal_page_first              6923
_journal_page_last               6926
_journal_paper_doi               10.1039/d1cc02243a
_journal_volume                  57
_journal_year                    2021
_chemical_formula_moiety         '0.25(Cd4 Cl8 Cu8 O24 Se8)'
_chemical_formula_sum            'Cd Cl2 Cu2 O6 Se2'
_chemical_formula_weight         564.33
_space_group_crystal_system      monoclinic
_space_group_IT_number           15
_space_group_name_Hall           '-C 2yc'
_space_group_name_H-M_alt        'C 1 2/c 1'
_atom_sites_solution_primary     dual
_audit_creation_date             2019-08-26
_audit_creation_method
;
Olex2 1.2
(compiled 2017.08.10 svn.r3458 for OlexSys, GUI svn.r5381)
;
_audit_update_record
;
2020-06-11 deposited with the CCDC.	2021-06-09 downloaded from the CCDC.
;
_cell_angle_alpha                90
_cell_angle_beta                 117.547(3)
_cell_angle_gamma                90
_cell_formula_units_Z            4
_cell_length_a                   11.9190(5)
_cell_length_b                   9.6321(3)
_cell_length_c                   7.8264(2)
_cell_measurement_reflns_used    3588
_cell_measurement_temperature    293(2)
_cell_measurement_theta_max      32.8290
_cell_measurement_theta_min      3.3900
_cell_volume                     796.65(5)
_computing_cell_refinement       'CrysAlisPro 1.171.39.46c (Rigaku OD, 2018)'
_computing_data_collection       'CrysAlisPro 1.171.39.46c (Rigaku OD, 2018)'
_computing_data_reduction        'CrysAlisPro 1.171.39.46c (Rigaku OD, 2018)'
_computing_molecular_graphics    'Olex2 (Dolomanov et al., 2009)'
_computing_publication_material  'Olex2 (Dolomanov et al., 2009)'
_computing_structure_refinement  'ShelXL (Sheldrick, 2015)'
_computing_structure_solution    'ShelXT (Sheldrick, 2015)'
_diffrn_ambient_temperature      293(2)
_diffrn_detector                 'CCD plate'
_diffrn_measured_fraction_theta_full 0.997
_diffrn_measured_fraction_theta_max 0.996
_diffrn_measurement_details
;
List of Runs (angles in degrees, time in seconds):

  # Type    Start    End  Width  t~exp~   \w     \q     \k     \f   Frames
#--------------------------------------------------------------------------
  1  \w   -115.00  65.00   0.50    5.00    --  -25.00  45.00   0.00  360
  2  \w   -115.00  25.00   0.50    5.00    --  -25.00  45.00  90.00  280
  3  \w   -115.00 -35.00   0.50    5.00    --  -25.00  45.00 180.00  160
;
_diffrn_measurement_device       'abstract diffractometer'
_diffrn_measurement_device_type
'dtrek-CrysAlisPro-abstract goniometer imported rigaku-d*trek images'
_diffrn_measurement_method       '\w scans'
_diffrn_orient_matrix_type
'CrysAlisPro convention (1999,Acta A55,543-557)'
_diffrn_orient_matrix_UB_11      0.0360887000
_diffrn_orient_matrix_UB_12      0.0678580000
_diffrn_orient_matrix_UB_13      0.0058365000
_diffrn_orient_matrix_UB_21      -0.0833575000
_diffrn_orient_matrix_UB_22      0.0278384000
_diffrn_orient_matrix_UB_23      0.0017326000
_diffrn_orient_matrix_UB_31      0.0189387000
_diffrn_orient_matrix_UB_32      -0.0066057000
_diffrn_orient_matrix_UB_33      0.0668299000
_diffrn_radiation_monochromator  graphite
_diffrn_radiation_probe          x-ray
_diffrn_radiation_type           MoK\a
_diffrn_radiation_wavelength     0.71073
_diffrn_reflns_av_R_equivalents  0.0183
_diffrn_reflns_av_unetI/netI     0.0148
_diffrn_reflns_Laue_measured_fraction_full 0.997
_diffrn_reflns_Laue_measured_fraction_max 0.996
_diffrn_reflns_limit_h_max       15
_diffrn_reflns_limit_h_min       -15
_diffrn_reflns_limit_k_max       12
_diffrn_reflns_limit_k_min       -11
_diffrn_reflns_limit_l_max       10
_diffrn_reflns_limit_l_min       -10
_diffrn_reflns_number            3237
_diffrn_reflns_point_group_measured_fraction_full 0.997
_diffrn_reflns_point_group_measured_fraction_max 0.996
_diffrn_reflns_theta_full        25.242
_diffrn_reflns_theta_max         27.484
_diffrn_reflns_theta_min         3.402
_diffrn_source                   'fine-focus sealed X-ray tube'
_diffrn_source_type              'Enhance (Mo) X-ray Source'
_exptl_absorpt_coefficient_mu    17.730
_exptl_absorpt_correction_T_max  1.00000
_exptl_absorpt_correction_T_min  0.32046
_exptl_absorpt_correction_type   multi-scan
_exptl_absorpt_process_details
;
CrysAlisPro 1.171.39.46c (Rigaku Oxford Diffraction, 2018)
Empirical absorption correction using spherical harmonics,
 implemented in SCALE3 ABSPACK scaling algorithm.
;
_exptl_crystal_colour            'clear light green'
_exptl_crystal_colour_lustre     clear
_exptl_crystal_colour_modifier   light
_exptl_crystal_colour_primary    green
_exptl_crystal_density_diffrn    4.705
_exptl_crystal_description       block
_exptl_crystal_F_000             1024
_exptl_crystal_size_max          0.05
_exptl_crystal_size_mid          0.04
_exptl_crystal_size_min          0.03
_refine_diff_density_max         0.602
_refine_diff_density_min         -1.031
_refine_diff_density_rms         0.215
_refine_ls_extinction_method     none
_refine_ls_goodness_of_fit_ref   1.179
_refine_ls_hydrogen_treatment    undef
_refine_ls_matrix_type           full
_refine_ls_number_parameters     60
_refine_ls_number_reflns         910
_refine_ls_number_restraints     0
_refine_ls_restrained_S_all      1.179
_refine_ls_R_factor_all          0.0205
_refine_ls_R_factor_gt           0.0191
_refine_ls_shift/su_max          0.000
_refine_ls_shift/su_mean         0.000
_refine_ls_structure_factor_coef Fsqd
_refine_ls_weighting_details
'w=1/[\s^2^(Fo^2^)+(0.0250P)^2^+2.1100P] where P=(Fo^2^+2Fc^2^)/3'
_refine_ls_weighting_scheme      calc
_refine_ls_wR_factor_gt          0.0476
_refine_ls_wR_factor_ref         0.0481
_reflns_Friedel_coverage         0.000
_reflns_number_gt                864
_reflns_number_total             910
_reflns_threshold_expression     'I > 2\s(I)'
_cod_data_source_file            d1cc02243a2.cif
_cod_data_source_block           cdcuseocl
_cod_depositor_comments          'Adding full bibliography for 7128476.cif.'
_cod_database_code               7128476
_shelx_shelxl_version_number     2014/7
_chemical_oxdiff_formula         'C11 H10 N O'
_shelx_space_group_comment
;
The symmetry employed for this shelxl refinement is uniquely defined
by the following loop, which should always be used as a source of
symmetry information in preference to the above space-group names.
They are only intended as comments.
;
_shelx_estimated_absorpt_t_max   0.618
_shelx_estimated_absorpt_t_min   0.471
_reflns_odcompleteness_completeness 99.69
_reflns_odcompleteness_iscentric 1
_reflns_odcompleteness_theta     27.42
_olex2_refinement_description
;
;
_shelx_res_file
;
    cdcuseocl.res created by SHELXL-2014/7

TITL cdcuseocl_a.res in I2/a C2/c
CELL 0.71073 11.919 9.6321 7.8264 90 117.547 90
ZERR 4 0.0005 0.0003 0.0002 0 0.003 0
LATT 7
SYMM -X,+Y,0.5-Z
SFAC  Cd 19.221 0.595 17.644 6.909 4.461 24.701 1.603 87.483 5.069 -0.808 =
 1.202 5180 1.69 112.41
SFAC  Cl 11.460 0.01 7.196 1.166 6.256 18.519 1.646 47.778 -9.557 0.148 =
 0.159 678 0.99 35.45
SFAC  Cu 13.338 3.583 7.168 0.247 5.616 11.397 1.674 64.813 1.191 0.32 =
 1.265 5180 1.52 63.55
SFAC  O 3.049 13.277 2.287 5.701 1.546 0.324 0.867 32.909 0.251 0.011 0.006 =
 32.5 0.68 16
SFAC  Se 17.001 2.41 5.82 0.273 3.973 15.237 4.354 43.816 2.841 -0.093 =
 2.226 9110 1.22 78.96
UNIT 4 8 8 24 8

L.S. 5
PLAN  20
SIZE 0.04 0.03 0.05
fmap 2
acta
OMIT 1 1 0
OMIT -2 2 2
REM <olex2.extras>
REM <HklSrc "%.\\CdCuSeOCl.hkl">
REM </olex2.extras>

WGHT    0.025000    2.110000
FVAR       0.23533
CD1   1    0.000000   -0.032007    0.250000    10.50000    0.01477    0.01456 =
         0.01163    0.00000    0.00795    0.00000
SE1   5   -0.337089   -0.039440   -0.028946    11.00000    0.00870    0.00596 =
         0.00610   -0.00036    0.00419   -0.00060
CU1   3   -0.277650    0.251281    0.175652    11.00000    0.01695    0.00596 =
         0.00830   -0.00125    0.00868   -0.00138
CL1   2    0.030505    0.176717    0.056463    11.00000    0.01403    0.01543 =
         0.01151   -0.00018    0.00624   -0.00146
O1    4   -0.272323    0.124034   -0.018408    11.00000    0.02129    0.00857 =
         0.01079   -0.00219    0.01068   -0.00395
O2    4   -0.205553   -0.116007    0.150068    11.00000    0.01294    0.01020 =
         0.00965    0.00422    0.00505    0.00184
O3    4   -0.343917   -0.098382   -0.234145    11.00000    0.02291    0.01033 =
         0.00728   -0.00215    0.00736    0.00197
HKLF 4 1 -1 0 -1 0 1 0 1 0 0

REM  cdcuseocl_a.res in I2/a C2/c
REM R1 =  0.0191 for     864 Fo > 4sig(Fo)  and  0.0205 for all     910 data
REM     60 parameters refined using      0 restraints

END

WGHT      0.0252      2.0975

REM Highest difference peak  0.602,  deepest hole -1.031,  1-sigma level  0.215
Q1    1  -0.1239  0.0776  0.1229  11.00000  0.05    0.60
Q2    1  -0.1235  0.0077  0.0265  11.00000  0.05    0.59
Q3    1  -0.5000  0.0711 -0.2500  10.50000  0.05    0.58
Q4    1  -0.2235 -0.0360  0.1604  11.00000  0.05    0.55
Q5    1  -0.2141 -0.0034  0.0305  11.00000  0.05    0.53
Q6    1  -0.2090  0.0753  0.0560  11.00000  0.05    0.52
Q7    1   0.1097  0.0431  0.2050  11.00000  0.05    0.52
Q8    1  -0.1799 -0.1238  0.2576  11.00000  0.05    0.51
Q9    1  -0.3349  0.3651  0.0509  11.00000  0.05    0.50
Q10   1  -0.1832  0.0632 -0.0218  11.00000  0.05    0.50
Q11   1  -0.4474 -0.0383 -0.2000  11.00000  0.05    0.49
Q12   1  -0.4626  0.0030 -0.2930  11.00000  0.05    0.49
Q13   1   0.1115  0.1954  0.1823  11.00000  0.05    0.48
Q14   1  -0.1200 -0.0215  0.1217  11.00000  0.05    0.48
Q15   1  -0.4897  0.0748 -0.1336  11.00000  0.05    0.48
Q16   1   0.1658  0.1150  0.0420  11.00000  0.05    0.45
Q17   1   0.0053  0.2176 -0.0376  11.00000  0.05    0.45
Q18   1  -0.1171  0.1174  0.0214  11.00000  0.05    0.45
Q19   1  -0.4923 -0.1237 -0.3131  11.00000  0.05    0.44
Q20   1  -0.4492  0.1344 -0.2267  11.00000  0.05    0.43
;
_shelx_res_checksum              53849
_shelx_hkl_file
;
   0   0   2 1432.02   12.70
   0   0  -2 1443.48   13.34
   0   0   2 1457.80   14.56
   0   0  -2 1429.50   12.20
   0   0  -2 1468.63   12.37
   0   0  -4 3813.09   27.38
   0   0   4 3839.79   26.57
   0   0  -4 3904.14   28.42
   0   0  -4 3920.29   29.11
   0   0   4 3944.67   33.26
   0   0   4 3830.58   28.50
   0   0   6 4130.25   33.83
   0   0   6 4228.47   40.51
   0   0   6 4142.39   36.32
   0   0   8  241.17    9.52
   0   0   8  275.60   10.73
   0   0  10    9.10    3.63
   0   0  10    9.03    3.22
   0   0 -12  529.66   15.14
   0  -1   1   -0.14    0.38
   0  -1  -1    1.01    0.73
   0   1   1   -0.61    0.70
   0   1  -1   -0.73    0.48
   0  -1  -1    0.29    0.33
   0   1   1   -0.25    0.41
   0   1  -3 8541.55   29.99
   0   1   3 8343.48   29.44
   0  -1  -3 8224.16   40.79
   0  -1  -3 8093.51   40.62
   0   1  -3 8342.66   30.07
   0   1  -3 8270.93   36.85
   0  -1  -3 8493.47   28.72
   0   1   3 8296.28   39.54
   0  -1   3 8468.11   30.45
   0  -1   3 8553.82   27.83
   0  -1   5  440.95   10.79
   0   1   5  425.64    9.69
   0   1  -5  461.69   10.15
   0  -1   5  413.30    8.72
   0  -1   5  383.68   11.11
   0   1   5  450.19   11.31
   0  -1  -5  429.75    9.04
   0  -1   7    8.51    2.28
   0   1   7    4.97    2.48
   0  -1   7   12.20    3.51
   0  -1   7   17.67    3.64
   0   1   7   22.01    3.43
   0   1   9 2960.71   33.99
   0  -1   9 2945.02   36.53
   0   1  11   73.85    6.81
   0   1  11   66.56    6.36
   0   1 -11   75.46    6.41
   0  -2   0  753.54    7.66
   0   2   0  718.49    7.45
   0   2   0  738.79    7.57
   0  -2   0  746.83    6.98
   0   2  -2 1580.80   13.37
   0  -2  -2 1660.73   12.02
   0   2  -2 1611.59    6.45
   0  -2  -2 1683.02   16.93
   0   2   2 1630.54   16.66
   0   2   2 1641.77   11.97
   0  -2   2 1589.60   13.05
   0  -2   2 1624.42   11.25
   0  -2  -4 1366.92   13.87
   0   2  -4 1368.31   13.69
   0   2  -4 1363.04   16.95
   0  -2   4 1355.97   13.61
   0   2   4 1398.14   19.71
   0   2   4 1350.12   13.72
   0   2   6 5604.92   36.05
   0  -2   6 5506.88   37.31
   0   2  -6 5380.08   42.18
   0   2   6 5672.74   44.86
   0   2  -6 5516.49   35.01
   0   2  -8   27.11    4.03
   0  -2   8   23.02    3.98
   0   2   8   27.60    3.93
   0   2   8   24.10    4.06
   0   2  10   11.16    3.27
   0   2 -10   20.10    3.83
   0  -2  10   20.58    4.31
   0   2  10   14.47    3.83
   0   2  12 1879.61   33.57
   0   2  12 1829.77   28.75
   0  -3   1  175.18    3.18
   0  -3  -1  180.46    5.31
   0  -3  -1  179.72    4.73
   0   3   1  184.20    4.68
   0   3   1  187.36    5.63
   0   3  -1  173.12    3.80
   0   3  -1  180.96    4.97
   0  -3   3 2051.75   15.71
   0   3  -3 2068.03   19.62
   0   3   3 2064.37   16.45
   0   3   3 2074.00   23.00
   0   3  -3 2058.71    8.94
   0   3   5    2.22    1.31
   0   3  -5    1.26    1.14
   0  -3   5    1.11    1.13
   0   3   5    1.10    2.13
   0   3  -5    1.52    1.66
   0  -3   7    5.08    2.15
   0   3  -7    4.24    2.48
   0   3   7    7.84    3.04
   0   3   7    2.93    2.09
   0   3  -7    6.83    2.41
   0   3  -9 1647.69   28.18
   0   3   9 1597.22   28.87
   0  -3   9 1618.06   26.33
   0   3  11  109.42    8.67
   0  -3  11  114.37    8.16
   0   3  11   96.67    7.06
   0   3 -13   44.40    6.11
   0   3  13   52.36    7.06
   0   4   0 3366.19   24.00
   0   4   0 3394.19   23.08
   0  -4   0 3350.86   20.33
   0   4   2  179.18    6.88
   0   4  -2  175.15    4.13
   0  -4   2  178.10    3.25
   0   4  -2  171.31    5.72
   0   4   2  177.28    5.34
   0   4   4  625.09   14.84
   0   4  -4  638.46    5.65
   0   4   4  634.34   10.77
   0   4  -4  649.03   13.11
   0  -4   4  605.18    9.93
   0   4  -6  404.47   12.28
   0   4  -6  384.02    5.18
   0  -4   6  387.45    9.35
   0   4  -6  417.16    7.20
   0   4   6  376.32   13.02
   0   4   6  411.97    9.84
   0  -4   8  190.14    7.99
   0   4   8  160.52    9.56
   0   4  -8  159.58    8.96
   0   4  -8  178.07    4.75
   0   4   8  198.35    8.17
   0   4 -10   19.31    4.36
   0   4  10   17.21    4.76
   0  -4  10   21.77    4.35
   0   4  10   23.81    4.34
   0   4 -12  306.55   13.98
   0   4  12  295.30   14.89
   0  -5   1  665.26    8.69
   0   5  -1  663.99   11.93
   0   5   1  672.48   11.59
   0   5  -1  688.88   11.47
   0   5   1  672.45   13.57
   0   5  -3 1151.25   11.32
   0   5   3 1156.27   15.42
   0   5  -3 1157.21   17.34
   0   5   3 1137.00   20.14
   0  -5   3 1128.38    7.97
   0   5   5  221.33   10.22
   0  -5   5  207.74    6.75
   0   5  -5  195.73    3.22
   0   5  -5  211.65    8.73
   0   5  -5  220.67    3.49
   0   5   7   88.74    7.34
   0   5  -7   84.50    2.40
   0   5   7   91.16    5.49
   0   5  -7  102.33    7.36
   0   5   9  253.30   12.70
   0  -5   9  240.46    9.58
   0   5   9  247.00   10.04
   0   5  -9  243.76   12.25
   0   5  11    1.80    3.98
   0   5  11   -3.69    3.90
   0   5 -11    3.97    3.57
   0   6   0  271.47    9.19
   0   6   0  282.21    8.46
   0  -6   2 3183.08   18.66
   0   6   2 3207.19   34.58
   0   6   2 3236.87   27.35
   0   6  -2 3269.87   26.61
   0   6  -4   39.79    2.55
   0   6   4   35.01    3.56
   0   6   4   44.51    5.16
   0   6  -4   37.41    4.11
   0   6   6  594.35   13.14
   0  -6   6  596.26   12.78
   0   6  -6  566.43   16.06
   0   6   8    7.44    2.74
   0   6   8    5.10    4.17
   0   6  -8    5.35    3.50
   0  -6   8    8.03    2.54
   0  -6  10   -0.26    2.87
   0   6  10    7.56    3.80
   0   6 -10    6.51    4.39
   0   6  10    6.75    4.64
   0   6 -12   42.41    6.70
   0   6  12   45.96    7.82
   0   7   1   90.19    5.39
   0   7  -1   92.74    5.62
   0   7   1   88.79    6.69
   0   7  -1   92.87    5.97
   0   7   3    3.05    3.00
   0   7   3    8.04    2.52
   0   7  -3    7.40    2.46
   0   7  -3    8.60    2.58
   0  -7   3    5.10    1.33
   0  -7   5   17.64    2.82
   0   7   5   21.10    3.14
   0   7  -5   18.88    3.59
   0   7   5   25.02    4.95
   0   7   7   81.04    7.74
   0   7   7   72.48    5.32
   0  -7   7   68.78    5.14
   0   7  -7   77.82    7.27
   0   7   9   37.28    5.10
   0   7  -9   25.48    5.46
   0  -7   9   24.25    3.78
   0   7 -11   18.00    5.67
   0   7  11   22.03    5.73
   0   8   0  191.93    9.96
   0   8   0  171.41    7.89
   0   8   2 1467.52   22.02
   0   8   2 1572.72   29.13
   0   8  -2 1540.69   23.76
   0   8  -2 1469.43   24.01
   0   8  -4  564.54   10.50
   0   8   4  566.93   18.82
   0   8   4  523.56   13.65
   0   8  -4  556.09   16.04
   0   8   6  765.28   22.45
   0   8  -6  788.13   21.41
   0  -8   6  781.18   16.48
   0   8   6  775.41   16.87
   0  -8   8   26.40    3.73
   0   8   8   37.08    4.80
   0   8   8   25.29    5.86
   0   8  -8   32.47    6.07
   0   8 -10  109.38   10.84
   0   8  10   97.95   10.13
   0   9  -1   23.35    3.79
   0   9   1   15.40    4.38
   0   9  -1   22.20    4.55
   0   9   1   15.41    3.05
   0   9   3  940.57   19.61
   0   9  -3  916.37   21.27
   0   9  -3  975.80   18.35
   0   9   3 1012.74   26.23
   0  -9   5    1.79    2.22
   0   9   5    5.51    4.16
   0   9   5    8.92    3.34
   0   9  -5    0.35    3.17
   0   9   7    6.49    3.58
   0  -9   7    2.14    2.74
   0   9  -7    5.59    4.48
   0   9   7    3.19    3.99
   0   9  -9  149.63   12.77
   0   9   9  148.74    9.32
   0   9   9  165.90   12.73
   0  10   0 2029.75   37.31
   0  10   0 2082.43   31.17
   0  10  -2  535.21   16.49
   0  10  -2  504.05   16.02
   0  10   2  554.44   20.84
   0  10   2  515.10   15.69
   0  10   4  113.03    7.84
   0  10  -4   96.58    8.20
   0  10   4  107.77    9.95
   0  10   6  144.73   11.80
   0  10   6  170.00    9.40
   0 -10   6  160.85    8.58
   0  10  -6  153.40   11.11
   0  10   8    1.97    5.22
   0  10  -8    6.72    5.34
   0  10   8    4.52    3.56
   0  11  -1   95.43    7.99
   0  11   1  101.78    7.87
   0  11   1  115.58   10.93
   0  11   3  454.37   15.78
   0  11   3  512.41   21.87
   0  11  -3  482.88   17.47
   0 -11   5   17.94    4.27
   0  11  -5   13.12    5.09
   0  11   5   21.48    4.53
   0  11   5   27.11    7.48
   0  12   0  138.77    9.59
   0  12   2   41.57    6.17
   0  12   2   36.69    9.01
   0  12  -2   40.78    6.41
   1   0 -11    1.97    2.64
  -1   0  11   -1.28    2.66
   1   0  -9    2.76    2.48
  -1   0   9    7.22    2.86
  -1   0   9    4.57    3.81
  -1   0   7   -0.73    1.85
  -1   0   7   -0.29    2.11
  -1   0   7    1.73    3.15
  -1   0   5   -0.06    1.71
  -1   0   5   -0.22    2.05
  -1   0   5    1.70    1.21
   1   0  -5    0.61    1.25
   1   0  -3    4.33    1.09
   1   0  -3    6.29    1.08
  -1   0   3    2.93    1.90
   1   0  -3    3.89    1.84
   1   0  -1    0.64    0.59
  -1   0   1   -0.23    0.63
   1   0  -1    0.56    0.39
  -1   0   1   -0.15    0.36
  -1   0  -1    0.85    0.97
   1   0   1    0.89    0.89
  -1   0  -3    2.57    2.05
   1   0   3    2.10    1.66
  -1   0  -3    3.02    1.39
  -1   0  -3    1.71    1.29
   1   0   5    3.72    2.27
  -1   0  -5    0.03    1.60
   1   0   7    0.37    2.41
   1   0   9    4.52    3.20
   1   0  11    4.67    3.88
  -1   0 -13    0.55    2.99
  -1   1  12   84.73    7.26
  -1  -1  10  144.00    7.23
  -1   1  10  140.86    8.30
   1   1 -10  143.84    7.60
  -1  -1  10  139.97    9.49
  -1   1   8 2085.86   24.49
  -1  -1   8 2010.71   31.37
  -1  -1   8 2043.38   24.01
   1   1  -8 1994.37   24.95
  -1   1   8 1957.47   26.43
   1   1  -6 1959.65   20.25
  -1   1   6 2070.79   31.25
  -1  -1   6 1922.12   19.29
   1  -1  -6 1852.05   16.61
  -1  -1   6 1945.01   25.50
  -1   1   6 2013.38   20.57
  -1   1   6 1915.26   22.55
   1   1  -4 3713.60   19.75
   1   1  -4 3652.04   22.10
  -1  -1   4 3678.47   26.59
  -1   1   4 3741.97   19.10
  -1   1   4 3672.37   25.34
   1   1  -4 3698.20   18.86
  -1  -1   4 3739.31   20.32
   1  -1  -4 3729.52   15.73
  -1  -1   2  575.54    7.69
   1  -1  -2  574.35    7.26
   1   1  -2  575.82    7.84
  -1  -1   2  599.13    5.52
   1   1  -2  597.55    4.31
   1   1  -2  587.93    5.78
  -1   1   2  591.02    7.39
  -1  -1   2  580.11    4.24
  -1   1   2  613.81   12.16
   1  -1   0   52.63    2.42
   1  -1   0   -0.67    0.75
   1  -1   0   35.05    1.49
   1   1   0    1.88    0.53
  -1   1   0   -0.53    0.50
  -1   1   0   42.33    2.29
  -1  -1   0   38.04    1.70
  -1  -1  -2    5.41    1.58
  -1  -1  -2    2.34    1.65
   1   1   2    2.10    1.37
   1   1   2    5.16    1.39
  -1   1  -4  614.51    8.17
   1  -1   4  582.62   13.75
   1   1   4  601.78   12.70
   1   1   4  595.04   11.94
  -1   1  -4  619.90   10.60
   1  -1   6   53.64    5.19
  -1   1  -6   56.29    3.64
   1   1   6   64.69    5.17
   1   1   6   57.50    4.99
   1   1   8 1360.64   24.38
   1   1   8 1281.24   23.64
   1   1  10  146.80    9.02
   1  -1  10  155.58    9.89
   1   1  12  771.07   21.03
  -1   1 -12  810.25   20.37
  -1   2  13   11.75    4.53
  -1   2  11   36.01    5.36
   1   2 -11   45.74    5.19
  -1   2  11   36.78    4.67
  -1   2   9  270.54   11.12
  -1  -2   9  280.05   12.16
   1   2  -9  310.46   10.92
  -1   2   9  329.14   10.01
   1   2  -7  421.23   10.91
  -1   2   7  451.36   10.24
  -1  -2   7  433.68    8.91
  -1  -2   7  430.93   12.03
  -1   2   7  409.81   12.29
  -1  -2   5    7.02    1.28
   1   2  -5    5.53    1.13
   1  -2  -5    9.48    1.40
  -1  -2   5    5.15    1.62
  -1   2   5    7.22    1.33
  -1   2   5    5.24    1.97
   1   2  -5    5.43    1.47
  -1  -2   3  200.38    5.39
   1   2  -3  189.29    4.58
  -1  -2   3  201.94    4.60
   1  -2  -3  210.20    3.83
   1   2  -3  193.09    5.41
  -1   2   3  191.48    3.56
  -1   2   3  189.14    5.73
  -1   2   1   15.29    1.57
  -1   2   1   13.34    1.12
   1  -2  -1   13.86    1.20
  -1  -2   1   14.53    1.36
   1  -2  -1   12.12    1.44
  -1  -2   1   13.52    1.44
   1   2  -1   13.52    1.46
  -1   2  -1   30.41    1.70
   1  -2   1   26.10    1.42
  -1   2  -1   32.59    2.27
  -1  -2  -1   32.29    2.27
   1   2   1   31.49    2.81
  -1  -2  -1   32.88    2.90
  -1   2  -1   30.45    2.69
   1   2   1   27.15    2.03
   1   2   3 1887.71   17.45
   1  -2   3 1917.43   11.09
   1  -2   5  620.67   16.11
   1   2   5  620.46   12.41
   1  -2   5  605.54   10.54
  -1   2  -5  619.70    8.70
   1  -2   7   38.14    3.89
   1   2   7   32.33    4.68
   1   2   7   31.93    4.06
   1   2   9 1575.82   28.58
   1   2   9 1562.53   27.08
  -1   2 -11   76.59    6.88
   1   2  11   70.31    6.66
  -1   2 -13    3.87    3.73
  -1  -3  12 1187.62   26.98
   1   3 -12 1212.62   25.26
  -1   3  12 1196.06   28.11
  -1   3  10  177.78    7.86
   1   3 -10  177.25    9.30
  -1   3  10  169.51    9.90
  -1  -3  10  181.04   10.49
   1   3  -8  555.13   14.35
  -1   3   8  551.64   11.97
  -1   3   8  567.08   16.37
  -1  -3   8  537.52   14.14
  -1  -3   6  474.19   10.97
  -1   3   6  465.98    8.76
   1   3  -6  475.86    6.15
   1   3  -6  486.97   11.26
  -1   3   4  935.14   15.55
  -1  -3   4  883.17   12.75
   1   3  -4  891.96   12.55
   1  -3  -4  922.44   10.56
  -1   3   4  879.03    9.84
   1  -3  -2  432.09    6.84
  -1   3   2  413.74    6.29
  -1   3   2  417.68    8.39
   1   3  -2  408.07    7.57
   1   3   0 4673.85   27.52
   1  -3   0 4700.72   21.27
   1  -3   0 4670.11   24.48
   1   3   0 4731.92   24.80
  -1   3   0 4739.31   23.76
  -1   3   0 4706.74   22.09
  -1  -3   0 4630.10   27.32
   1   3   2   43.33    2.78
   1  -3   2   41.94    1.84
   1   3   2   52.15    4.02
  -1   3  -2   50.61    3.30
  -1   3  -2   38.47    1.95
   1   3   4  528.77   13.86
   1  -3   4  499.95    7.27
  -1   3  -4  516.86    7.13
   1   3   4  510.03   10.37
  -1   3  -4  507.92   12.45
   1  -3   6 3525.85   26.22
   1   3   6 3668.01   32.45
   1   3   6 3815.68   41.61
  -1   3  -6 3431.70   38.52
   1  -3   8  258.09    9.26
   1   3   8  283.40   12.70
   1   3   8  259.35   10.53
  -1   3  -8  276.89   11.91
   1   3  10  109.41    7.96
   1   3  10  107.25    8.65
  -1   3 -10  128.05    8.96
  -1   3 -12   19.24    4.62
   1   3  12   17.35    4.87
  -1   4  13   16.38    5.36
  -1   4  11   38.04    6.02
   1   4 -11   35.72    5.23
  -1  -4  11   46.92    6.24
  -1  -4   9 2506.63   32.18
  -1   4   9 2539.40   27.40
  -1   4   9 2535.12   36.76
  -1  -4   7  264.74    9.01
  -1   4   7  275.06    7.85
  -1   4   7  252.35   10.76
   1   4  -7  251.00    9.50
  -1  -4   5  185.87    6.69
  -1   4   5  175.37    5.29
  -1   4   5  175.75    7.86
   1   4  -5  189.27    7.03
   1   4  -3 4772.60   30.76
  -1   4   3 4796.42   34.67
  -1  -4   3 4830.52   29.76
   1   4  -1  340.25    7.29
  -1   4   1  325.86    6.94
   1   4  -1  339.14    7.62
  -1   4   1  336.91    7.76
  -1  -4   1  352.95    6.51
   1  -4   1   48.30    2.38
   1   4   1   53.70    3.33
  -1   4  -1   46.78    3.02
  -1   4  -1   60.53    2.82
   1   4   1   59.28    4.25
   1   4   3 2528.78   30.41
  -1   4  -3 2582.84   16.38
  -1   4  -3 2544.51   26.05
   1   4   3 2492.02   22.61
  -1   4  -5   29.27    3.85
  -1   4  -5   24.43    1.95
   1   4   5   24.24    4.12
   1  -4   5   24.95    2.28
   1   4   5   28.40    3.21
  -1   4  -7  477.17    8.63
   1  -4   7  489.66   10.69
  -1   4  -7  471.85   15.27
   1   4   7  489.90   13.03
   1   4   9  682.02   20.76
   1  -4   9  654.98   15.33
  -1   4  -9  701.38   20.19
   1   4   9  635.09   17.33
   1   4  11   13.87    4.88
   1   4  11    3.92    3.67
  -1   4 -11   12.32    4.17
  -1  -5  12  620.39   20.27
   1   5 -12  678.89   21.13
  -1   5  12  626.91   21.59
   1   5 -10  525.86   17.59
  -1   5  10  552.65   18.78
  -1  -5  10  548.47   16.29
  -1   5  10  554.23   14.17
  -1  -5   8  229.90    9.21
  -1   5   8  259.06    8.64
   1   5  -8  249.55   10.89
  -1   5   8  253.89   12.12
   1   5  -6 6866.55   48.51
  -1   5   6 6927.20   37.64
   1   5  -4   12.17    2.34
  -1   5   4   12.61    2.09
  -1   5   2  359.29    7.98
  -1  -5   2  370.52    5.56
  -1   5   2  355.84    9.82
   1   5  -2  354.47    9.07
  -1   5   0 3283.78   25.38
  -1   5   0 3314.37   26.11
   1   5   2  173.27    8.22
   1   5   2  189.47    6.72
  -1   5  -2  192.16    7.06
  -1   5  -2  181.45    5.16
   1   5   4   11.09    2.34
   1  -5   4    2.80    1.26
  -1   5  -4    9.76    1.60
   1   5   4    5.41    2.96
  -1   5  -4   10.32    2.68
   1   5   6  471.63   16.03
   1   5   6  451.99   12.03
  -1   5  -6  437.19   14.42
  -1   5  -6  441.06    7.79
   1  -5   6  420.19    9.15
   1   5   8  852.21   23.27
  -1   5  -8  801.90   21.73
  -1   5  -8  769.47   11.19
   1  -5   8  839.86   15.17
   1   5   8  791.84   17.98
   1   5  10 1057.61   27.50
  -1   5 -10 1129.33   27.33
   1   5  10 1117.29   24.71
  -1   5 -12 1284.80   30.21
   1   5  12 1198.29   31.01
  -1   6  11   15.47    5.46
   1   6 -11   12.28    4.83
  -1  -6  11   13.92    4.30
  -1   6   9 1270.76   20.70
  -1  -6   9 1213.12   22.46
  -1   6   9 1190.47   27.50
   1   6  -9 1203.53   26.57
  -1   6   7  112.35    5.56
  -1  -6   7  122.77    6.67
   1   6  -7  123.36    7.75
  -1   6   7  126.89    8.87
  -1  -6   5  313.04    9.36
   1   6  -5  329.76   10.97
  -1   6   5  312.02    8.70
  -1   6   5  296.81   11.70
  -1   6   3 3854.54   37.34
   1   6  -3 3859.85   19.63
   1   6  -3 3835.30   33.49
  -1  -6   3 3828.58   15.17
  -1   6   3 3939.13   29.09
   1   6  -1  225.55    7.98
  -1   6   1  219.29    7.30
   1   6  -1  207.62    7.54
  -1   6   1  215.46    8.02
   1   6   1   90.05    6.27
  -1   6  -1   86.26    4.71
  -1   6  -1   79.74    4.84
   1   6   1   86.16    5.07
   1   6   3 3824.33   42.51
  -1   6  -3 3824.68   36.12
  -1   6  -3 3863.28   26.14
  -1   6  -5  276.34   11.36
   1   6   5  283.50    9.58
   1   6   5  305.76   13.20
  -1   6  -5  299.62    6.81
   1  -6   5  296.73    7.87
  -1   6  -7   13.39    3.92
   1  -6   7    7.48    2.25
   1   6   7    5.01    2.43
   1   6   7   15.02    4.54
   1   6   9 1094.16   23.04
  -1   6  -9 1051.54   27.35
   1   6   9 1116.21   28.49
   1   6  11  399.44   18.12
   1   6  11  435.80   17.01
  -1   6 -11  454.53   19.10
  -1  -7  10  345.61   13.11
   1   7 -10  318.00   15.54
  -1   7  10  326.53   15.86
  -1   7   8  103.41    6.36
  -1   7   8  113.39    9.17
  -1  -7   8   90.47    6.43
   1   7  -8  114.88    8.84
  -1   7   6   63.61    6.51
  -1   7   6   76.95    5.01
   1   7  -6   85.20    6.54
  -1  -7   6   71.35    5.25
   1   7  -4 1094.84   20.31
  -1   7   4 1160.06   18.02
  -1   7   4 1153.19   23.36
  -1   7   2 1221.18   22.18
   1   7  -2 1252.44   17.03
  -1   7   2 1207.73   18.26
   1   7   0 3637.91   37.68
  -1   7   0 3734.26   33.20
  -1   7   0 3728.91   35.04
   1   7   0 3703.38   33.48
   1   7   2  829.56   16.41
  -1   7  -2  840.15   15.30
  -1   7  -2  802.00   16.75
   1   7   2  829.64   20.38
   1   7   4  146.68    7.36
  -1   7  -4  157.64    6.09
  -1   7  -4  145.66    8.33
   1   7   4  162.94   10.31
   1   7   6 4098.73   38.82
  -1   7  -6 4012.34   47.37
   1   7   8  161.65   11.63
   1   7   8  148.34    8.63
  -1   7  -8  129.89    9.77
   1  -7   8  125.99    6.35
  -1   7 -10  208.88   13.31
   1   7  10  225.42   11.88
   1   7  10  221.94   13.84
  -1   8   9 1047.31   28.00
   1   8  -9  982.49   27.33
  -1  -8   9  980.39   21.49
  -1   8   9 1048.24   20.67
  -1  -8   7   25.49    4.03
  -1   8   7   34.25    4.00
  -1   8   7   26.61    5.39
  -1   8   5  119.54    6.46
  -1  -8   5  111.29    6.65
   1   8  -5  120.55    8.02
  -1   8   5  118.33    8.77
   1   8  -3 1992.14   18.59
  -1   8   3 2045.33   32.35
   1   8  -3 2038.69   28.69
  -1   8   3 1988.82   24.62
   1   8  -1  212.72    9.32
  -1   8   1  194.99    9.65
   1   8  -1  199.40    8.85
  -1   8   1  190.30    8.04
   1   8   1    6.95    3.74
  -1   8  -1   11.05    3.46
  -1   8  -1   11.31    2.92
   1   8   1   10.56    3.06
   1   8   3 1962.31   34.60
   1   8   3 2015.35   27.58
  -1   8  -3 1953.46   29.58
  -1   8  -3 2010.97   26.00
   1   8   5  550.87   19.39
   1   8   5  546.82   14.86
   1  -8   5  536.12   12.58
  -1   8  -5  549.16   17.72
  -1   8  -7    5.97    3.79
   1  -8   7    3.43    2.53
   1   8   7    8.59    4.85
   1   8   7    3.10    2.78
   1   8   9  956.84   28.41
   1   8   9  976.91   23.48
  -1   8  -9  890.19   27.41
  -1   9   8  203.76   13.23
  -1  -9   8  195.92   10.13
   1   9  -8  182.79   12.15
  -1   9   8  185.41    8.97
  -1   9   6 3578.07   37.37
  -1  -9   6 3606.35   38.98
   1   9  -6 3604.20   46.68
  -1   9   6 3653.25   51.36
   1   9  -4   16.89    4.06
  -1   9   4   25.44    5.28
  -1   9   4   21.08    3.63
   1   9  -2  330.01   12.39
   1   9  -2  363.02   11.23
  -1   9   2  354.05   14.67
  -1   9   2  315.07   11.07
   1   9   0 1003.65   22.96
  -1   9   0  978.67   20.02
   1   9   2  272.48   13.78
  -1   9  -2  267.51   11.61
  -1   9  -2  256.52   11.23
   1   9   2  276.81   11.17
  -1   9  -4    3.11    3.11
   1   9   4    2.25    3.22
   1   9   6  218.05   10.38
  -1   9  -6  221.25   12.70
   1  -9   6  202.16    8.67
   1   9   6  227.17   13.88
   1   9   8  616.90   23.62
  -1   9  -8  615.21   23.47
   1   9   8  591.70   17.97
   1  10  -7  168.25   12.13
  -1  10   7  150.79    8.55
  -1 -10   7  138.71    8.99
  -1  10   7  151.83   12.05
  -1  10   5  198.21    9.66
  -1 -10   5  217.05   10.33
  -1  10   5  227.93   14.04
   1  10  -5  217.11   12.10
   1  10  -3  979.41   23.04
  -1  10   3  971.82   20.69
   1  10  -1  402.41   14.33
  -1  10   1  405.43   17.21
  -1  10   1  373.35   13.26
   1  10  -1  391.49   13.85
  -1  10  -1   12.70    3.80
   1  10   1   11.07    3.51
   1  10   1    4.41    4.18
  -1  10  -1    5.44    4.76
   1  10   3  619.73   22.27
   1  10   3  629.81   17.81
  -1  10  -3  605.02   18.75
  -1  10  -5   91.22    8.61
   1  10   5   82.53    7.01
   1 -10   5   75.17    6.05
   1  10   5   78.87    9.25
   1  10   7  138.53    9.19
  -1  10  -7  126.77   11.45
   1  10   7  132.11   12.21
  -1  11   6   61.90    6.43
  -1 -11   6   68.36    6.79
   1  11  -6   61.37    7.98
  -1  11   4  483.69   15.86
  -1  11   4  496.01   21.64
   1  11  -4  514.46   18.63
   1  11  -2   23.80    4.98
  -1  11   2   19.12    6.10
  -1  11   2   30.30    4.64
   1  11   0  887.74   24.84
  -1  11   0  847.22   26.26
  -1  11   0  831.64   21.34
   1  11   0  819.15   21.46
   1  11   2   79.62    7.55
   1  11   2   90.90   10.42
  -1  11  -2   66.56    6.96
   1  11   4   38.50    5.48
  -1  11  -4   35.06    6.06
   1  11   4   27.38    7.39
   1  11   6  688.16   26.52
   1  11   6  695.92   20.40
  -1  11  -6  690.73   24.81
  -1  12   3   74.92   10.67
  -1  12   3   62.53    7.11
   1  12  -3   76.69    8.29
  -1  12   1   11.34    7.38
  -1  12   1    9.79    3.78
   1  12  -1   12.82    4.34
   1  12   1   46.82    6.64
  -1  12  -1   59.43    7.17
   1  12   3  136.66   13.46
   1  12   3  160.47   10.72
  -1  12  -3  171.83   11.92
  -2   0  12 3290.46   38.39
  -2   0  10  110.95    6.79
  -2   0  10  123.15    9.50
   2   0 -10  128.61    5.84
   2   0  -8   74.11    4.05
   2   0  -8   79.24    3.74
  -2   0   8   85.86    5.32
  -2   0   6 3507.31   39.57
   2   0  -6 3559.44   19.87
   2   0  -6 3518.83   16.55
  -2   0   4  149.41    4.29
   2   0  -4  143.84    4.37
  -2   0   4  153.71    6.93
   2   0  -2    4.17    1.04
  -2   0   2    3.88    1.49
  -2   0   2    4.76    1.01
  -2   0   2    4.83    0.71
   2   0  -2    2.42    1.40
   2   0  -2    5.25    0.90
   2   0   0  785.85   11.01
  -2   0   0  806.43    8.07
  -2   0   0  816.40    8.38
   2   0   0  809.11    7.44
  -2   0   0  815.41   10.47
   2   0   2 1728.92   21.08
   2   0   4 2176.49   28.15
  -2   0  -4 2182.48   16.97
  -2   0  -6 3603.19   27.28
   2   0   6 3414.87   39.17
   2   0   8  151.63    9.22
   2   0  10   16.01    4.73
   2   0  12  755.28   22.70
  -2   1  13  122.87    8.84
   2   1 -11   16.02    2.92
  -2  -1  11   20.70    3.57
  -2  -1  11   10.56    4.17
  -2   1  11   19.74    3.97
  -2  -1   9 1898.25   23.41
   2  -1  -9 2023.03   19.69
  -2  -1   9 1995.24   34.22
  -2   1   9 2011.06   35.56
  -2   1   9 1896.53   27.07
   2   1  -9 1822.78   20.76
   2  -1  -7  854.88   10.11
   2   1  -7  856.64   13.56
   2  -1  -7  838.95    8.71
  -2   1   7  913.60   16.18
  -2  -1   7  894.41   19.63
   2   1  -7  865.82   11.42
  -2  -1   7  867.39   13.39
  -2  -1   5   45.11    2.56
   2   1  -5   42.18    2.48
   2   1  -5   48.15    2.18
  -2  -1   5   53.17    4.22
  -2   1   5   49.63    3.25
   2   1  -5   48.07    2.53
  -2   1   5   58.82    5.89
  -2  -1   3 3491.76   14.61
   2   1  -3 3425.94   16.32
  -2   1   3 3548.26   34.60
  -2  -1   3 3487.26   24.99
  -2  -1   3 3432.65   15.76
  -2   1   3 3470.92   20.69
   2   1  -3 3473.82   15.41
  -2  -1   1 1438.42   12.76
   2   1  -1 1430.43   12.42
  -2  -1   1 1482.66   10.36
   2  -1  -1 1436.92   15.85
   2  -1  -1 1458.48   13.60
   2   1  -1 1396.75   11.43
  -2  -1   1 1437.02   11.34
   2  -1  -1 1413.30   11.81
  -2   1   1 1309.83   16.46
  -2   1   1 1367.20   11.82
  -2   1   1 1436.75   15.25
  -2   1  -1  603.17    7.86
  -2   1  -1  650.33    6.51
  -2  -1  -1  581.89    9.35
   2  -1   1  573.13   12.06
  -2   1  -1  629.83   13.39
   2   1   1  596.48    9.82
   2  -1   3 3776.68   36.25
   2   1   3 3788.38   30.39
   2  -1   5  724.17   17.70
   2   1   5  732.62   16.42
  -2   1  -5  696.59    8.21
  -2   1  -7  127.54    4.89
   2  -1   7  113.21    7.96
   2   1   9 1243.45   26.13
   2  -1   9 1379.64   28.78
   2  -1  11  599.72   19.92
   2   1  11  560.84   18.38
  -2  -2  12  152.64   10.90
  -2   2  12  162.18    9.86
  -2  -2  10  654.85   13.31
   2   2 -10  613.13   13.83
  -2  -2  10  668.88   20.26
  -2   2  10  670.52   17.96
  -2  -2   8  356.79    8.55
  -2  -2   8  347.24   12.44
  -2   2   8  337.29   11.37
   2   2  -8  325.36    8.71
   2  -2  -8  336.69    6.33
  -2   2   6 3314.72   30.07
   2  -2  -6 3383.64   14.30
   2   2  -6 3288.72   19.60
  -2  -2   6 3212.12   31.17
  -2  -2   6 3326.85   21.01
   2   2  -6 3223.79   22.78
  -2   2   4 2370.62    9.72
  -2  -2   4 2381.20   16.02
  -2  -2   4 2334.22   22.28
  -2   2   4 2348.55   21.13
   2   2  -4 2351.98   16.84
  -2  -2   4 2332.66   12.13
   2  -2  -4 2389.65   10.30
  -2  -2   2  476.92    8.60
  -2   2   2  482.59    5.70
  -2  -2   2  463.17    5.25
  -2   2   2  475.14    8.04
  -2  -2   2  491.18    7.16
   2   2  -2  466.36    7.38
  -2  -2   0 9340.58   35.40
  -2   2   0 9408.11   47.05
   2   2   0 9314.59   35.66
  -2   2   0 9102.71   37.84
  -2   2   0 9999.00   33.82
   2  -2   0 8900.29   47.10
   2  -2   0 9573.85   31.12
   2   2   2  113.68    4.75
  -2   2  -2  104.23    3.63
   2   2   4 1609.15   20.85
   2  -2   4 1620.76   26.84
   2   2   6  504.82   14.10
   2  -2   6  561.98   17.61
   2  -2   8 2444.49   38.02
   2   2   8 2309.12   34.68
  -2   2 -10  232.65   11.48
   2   2  10  255.78   12.79
   2   2  12  429.25   17.15
  -2   2 -12  462.89   16.78
  -2   3  13   11.93    4.47
  -2  -3  13    8.49    5.10
   2   3 -11  232.62    9.96
  -2  -3  11  234.44   12.88
  -2   3  11  231.34   11.54
  -2   3   9 1324.19   16.49
  -2  -3   9 1220.76   23.89
   2   3  -9 1200.24   19.63
  -2   3   9 1311.50   24.83
  -2   3   7  254.54    9.94
  -2  -3   7  260.16    5.35
   2   3  -7  251.48    4.90
  -2   3   7  252.71    5.95
   2   3  -7  246.26    7.82
   2  -3  -7  253.48    5.60
  -2  -3   7  251.13    9.45
   2   3  -5    2.42    1.38
  -2  -3   5    4.02    1.64
  -2   3   5    8.16    1.99
  -2   3   5    7.21    1.08
  -2  -3   5    5.83    0.75
   2  -3  -5    4.62    1.02
  -2  -3   3 4386.98   29.35
  -2  -3   3 4407.17   13.46
   2  -3  -3 4377.41   21.26
  -2   3   3 4392.06   19.50
  -2   3   3 4446.96   29.32
   2   3  -3 4447.00   26.05
   2   3  -1 2652.22   20.89
  -2  -3   1 2612.48   19.74
   2  -3  -1 2599.99   20.13
  -2   3   1 2594.24   19.64
  -2   3   1 2592.64   17.68
  -2   3  -1  332.11    8.32
   2   3   1  327.37    7.92
  -2   3  -1  313.74    6.59
   2   3   3 3609.68   35.53
  -2   3  -3 3612.03   34.24
  -2   3  -3 3540.19   22.07
   2  -3   3 3548.69   13.59
   2   3   5 2338.98   32.19
   2   3   5 2323.26   27.30
  -2   3  -5 2323.65   32.04
  -2   3  -5 2231.69   19.50
   2  -3   5 2319.95   16.24
   2   3   7   11.06    3.41
   2   3   7   10.57    4.04
  -2   3  -7   16.60    3.72
  -2   3  -9  908.59   22.70
   2   3   9  862.69   22.20
   2   3  11  326.87   15.05
  -2   3 -11  342.76   14.59
  -2   4  12 1109.11   27.27
  -2  -4  12 1114.29   28.48
  -2  -4  10   20.71    4.29
   2   4 -10   33.05    4.61
  -2   4  10   28.26    5.27
  -2   4   8   40.40    3.02
  -2  -4   8   33.10    4.23
   2   4  -8   37.07    3.97
  -2  -4   6 1077.06   18.04
   2   4  -6 1115.31   16.88
  -2   4   6 1121.25   12.13
   2  -4  -6 1129.74   13.12
   2  -4  -4  276.62    6.33
  -2  -4   4  275.36    8.22
  -2   4   4  261.14    8.68
   2   4  -4  271.27    7.67
  -2   4   4  258.47    5.44
  -2  -4   2  648.05    9.56
  -2   4   2  631.31    9.41
   2   4  -2  663.18   11.36
  -2   4   0    5.12    1.47
   2   4   0    5.25    1.77
  -2   4   0    5.02    1.44
   2   4   2 6975.07   48.53
  -2   4  -2 7034.65   32.65
   2   4   2 6909.30   39.91
  -2   4  -2 6865.09   43.33
   2   4   4 2301.10   32.33
  -2   4  -4 2314.26   30.12
  -2   4  -4 2301.30   18.99
   2  -4   4 2266.49   14.34
   2   4   6 3748.71   44.94
   2  -4   6 3697.43   22.79
  -2   4  -6 3751.61   26.28
   2   4   8   16.01    3.92
  -2   4  -8   14.25    2.40
  -2   4  -8   16.66    4.11
   2   4   8   21.04    4.77
   2   4  10    8.01    4.18
  -2   4 -10   11.07    4.23
   2   4  12  150.09   11.43
  -2   4 -12  161.10   10.96
   2   5 -11    4.20    3.62
  -2   5  11    3.75    4.08
  -2  -5  11    0.65    3.36
  -2  -5   9  742.56   18.40
  -2   5   9  711.39   12.98
   2   5  -9  726.81   18.16
  -2   5   9  691.66   19.65
  -2   5   7  133.16    5.18
  -2  -5   7  133.17    7.21
   2   5  -7  122.92    6.77
  -2   5   5   60.96    3.35
  -2  -5   5   70.21    4.85
  -2   5   5   77.29    5.67
   2   5  -5   72.68    4.82
  -2  -5   3  635.55   12.72
  -2   5   3  622.92   10.04
   2   5  -3  629.06   12.39
  -2   5   3  640.29   13.60
  -2  -5   3  658.12    7.00
  -2   5   1   23.08    2.45
  -2   5   1   25.25    2.78
   2   5  -1   24.18    2.78
   2   5   1   97.94    5.96
  -2   5  -1  117.25    5.66
   2   5   1  107.20    5.51
  -2   5  -1  105.47    4.62
   2   5   3   52.77    5.56
  -2   5  -3   52.79    3.43
  -2   5  -3   45.39    4.36
   2   5   5  182.16    8.14
  -2   5  -5  187.41    9.64
  -2   5  -5  176.26    5.91
   2  -5   5  180.66    5.19
   2   5   7   37.27    4.75
   2  -5   7   37.99    3.01
  -2   5  -7   37.62    3.29
  -2   5  -7   44.57    5.64
   2   5   7   45.57    6.37
   2   5   9   91.30    8.68
  -2   5  -9   89.25    8.28
   2   5   9   81.70    7.42
  -2   5 -11  234.07   13.40
   2   5  11  207.34   12.99
   2   6 -12    6.72    4.56
  -2  -6  12   -0.19    4.18
  -2   6  12   -4.17    4.70
  -2  -6  10  478.65   15.69
   2   6 -10  448.70   16.23
  -2   6  10  480.00   18.33
   2   6  -8   14.79    3.63
  -2   6   8   19.15    4.14
  -2  -6   8   13.53    3.36
  -2   6   8   15.19    2.53
  -2   6   6  126.78    8.06
  -2   6   6  129.08    5.45
  -2  -6   6  128.13    7.05
   2   6  -6  112.25    6.75
  -2  -6   4  248.05    8.85
   2   6  -4  228.56    8.41
  -2   6   4  264.41   10.19
  -2   6   4  220.67    6.76
  -2   6   2  919.30   14.47
  -2   6   2  908.99   16.84
  -2  -6   2  885.51   11.85
   2   6  -2  903.56   16.12
   2   6   0  762.83   15.37
   2   6   0  754.96   15.18
  -2   6   0  728.10   13.79
   2   6   2  889.06   20.45
   2   6   2  862.47   16.58
  -2   6  -2  839.11   16.97
  -2   6  -2  834.39   13.51
   2   6   4  298.51   13.50
   2   6   4  289.00   10.11
  -2   6  -4  284.66   11.46
  -2   6  -4  297.87    8.04
   2   6   6  397.12   16.18
   2   6   6  366.77   12.32
   2  -6   6  395.69    8.45
  -2   6  -6  388.03    9.24
   2   6   8  347.08   15.95
  -2   6  -8  323.67   14.96
   2   6   8  360.88   13.68
   2   6  10    9.25    4.80
   2   6  10   19.65    5.08
  -2   6 -10   14.92    4.86
  -2  -7  11   46.72    6.59
  -2   7  11   42.67    7.16
   2   7 -11   48.44    7.34
   2   7  -9    6.65    3.67
  -2  -7   9    5.04    3.05
  -2   7   9    6.89    4.06
  -2  -7   7   17.38    3.63
   2   7  -7   24.78    4.20
  -2   7   7   18.30    2.71
  -2   7   7   13.67    3.75
  -2   7   5   56.02    4.11
  -2   7   5   53.03    5.53
  -2  -7   5   46.57    4.50
   2   7  -5   46.64    4.77
   2   7  -3   10.81    2.98
  -2   7   3    9.91    3.34
  -2  -7   3    9.34    1.40
  -2   7   3   12.33    2.84
   2   7  -1   36.60    3.66
  -2   7   1   30.49    3.26
   2   7  -1   40.04    4.18
  -2   7   1   37.55    4.43
  -2   7  -1   17.47    2.97
   2   7   1   14.70    3.31
   2   7   1   15.10    3.90
  -2   7  -1   11.72    2.77
  -2   7  -3    2.59    2.32
   2   7   3    1.02    2.65
  -2   7  -3   -0.06    2.40
   2   7   3   -0.77    3.76
  -2   7  -5    4.52    2.16
   2   7   5    4.43    3.73
   2  -7   5    4.23    1.63
   2   7   5    1.66    2.24
  -2   7  -5    3.54    2.64
  -2   7  -7   37.94    6.07
   2   7   7   31.14    6.03
   2   7   7   37.09    4.97
   2   7   9    8.61    4.07
  -2   7  -9   -5.36    4.50
   2   7   9    0.07    4.35
  -2   8  10  201.22   13.42
  -2  -8  10  199.29   10.98
   2   8 -10  189.68   12.44
  -2  -8   8  175.46    9.53
  -2   8   8  166.94    7.51
  -2   8   8  192.61   11.85
   2   8  -8  195.03   11.34
  -2   8   6   93.71    5.72
  -2  -8   6  103.64    6.96
   2   8  -6  110.17    7.84
  -2   8   6  115.41    8.63
   2   8  -4   21.33    3.81
  -2  -8   4   18.89    3.70
  -2   8   4   30.96    4.89
  -2   8   4   19.95    2.93
  -2   8   2 1135.31   22.72
  -2   8   2 1094.88   18.80
   2   8  -2 1109.61   20.78
  -2   8   0  348.40   12.06
   2   8   0  368.56   12.50
   2   8   0  343.30   11.85
  -2   8   0  351.65   11.41
   2   8   2  584.29   18.68
  -2   8  -2  589.01   16.12
  -2   8  -2  555.46   14.09
  -2   8  -4   10.94    3.43
  -2   8  -4   11.73    2.94
   2   8   4    9.30    3.09
   2   8   4   11.29    4.79
   2   8   6  120.17   10.39
   2  -8   6  118.45    5.70
  -2   8  -6  139.01   10.11
   2   8   6  143.67    8.60
  -2   8  -8  122.33   10.58
   2   8   8  121.26    8.91
   2   8   8  151.79   11.78
  -2  -9   9  523.20   17.50
   2   9  -9  494.78   20.04
  -2   9   9  527.37   21.45
   2   9  -7    9.30    4.09
  -2   9   7    8.58    4.44
  -2   9   7   10.33    3.11
  -2  -9   7    5.10    3.24
  -2   9   5  217.93    9.12
  -2  -9   5  209.16    9.94
   2   9  -5  215.56   10.75
  -2   9   5  234.93   12.55
  -2   9   3  199.77    8.75
  -2   9   3  219.80   11.64
  -2   9   1    0.41    2.34
   2   9  -1    6.20    3.19
   2   9  -1    0.53    2.33
   2   9   1  474.12   14.98
   2   9   1  500.31   17.15
  -2   9  -1  496.81   15.09
  -2   9  -3   24.19    4.21
   2   9   3   31.34    6.36
   2   9   3   27.25    4.38
  -2   9  -3   19.34    3.96
   2   9   5   44.79    7.43
   2   9   5   39.23    5.02
   2  -9   5   36.33    3.71
  -2   9  -5   41.17    6.08
   2   9   7  266.30   15.69
   2   9   7  279.15   13.03
  -2   9  -7  269.31   15.31
   2  10  -8   27.70    6.53
  -2 -10   8   37.61    6.17
  -2  10   8   29.50    6.91
  -2  10   6  454.94   14.05
  -2 -10   6  446.87   15.53
  -2  10   6  454.03   19.07
  -2 -10   4   42.89    5.23
   2  10  -4   38.74    5.54
  -2  10   4   40.22    6.28
  -2  10   4   43.46    4.91
   2  10  -2    7.88    3.59
  -2  10   2   10.26    3.15
   2  10   0   41.16    5.58
   2  10   0   47.22    5.80
  -2  10   0   31.91    5.77
  -2  10   0   41.26    5.32
   2  10   2 1329.46   30.99
   2  10   2 1334.21   26.67
  -2  10  -2 1356.44   27.55
  -2  10  -2 1357.59   27.94
   2  10   4 1184.38   32.01
   2  10   4 1199.19   25.80
  -2  10  -4 1259.16   29.17
   2  10   6 1137.53   32.28
   2  10   6 1202.36   26.24
  -2  10  -6 1143.60   30.65
  -2  11   5  216.44   10.58
  -2 -11   5  193.11   10.82
   2  11  -5  198.80   12.49
  -2  11   5  212.58   14.21
   2  11  -3 1115.45   25.93
  -2  11   3 1142.17   30.82
  -2  11   3 1083.38   22.74
  -2  11   1  388.65   14.48
   2  11  -1  398.39   15.51
   2  11   1   67.62    7.34
   2  11   1   61.37    7.62
  -2  11  -1   71.74    7.20
  -2  11  -1   87.49    9.54
   2  11   3  994.27   29.96
   2  11   3  980.17   24.56
   2  11   5  340.21   19.04
   2  11   5  369.24   15.47
  -2  11  -5  316.99   16.51
  -2  12   2  440.28   16.03
   2  12  -2  463.34   18.05
   2  12   0 2342.58   39.54
  -2  12   0 2366.88   38.06
  -2  12  -2    6.43    4.80
   2  12   2    3.54    4.41
   2  12   2   -5.38    6.29
  -3   0  13   -2.32    3.60
  -3   0  11    2.13    2.94
  -3   0  11    1.54    4.58
   3   0  -9    1.51    0.96
  -3   0   9    2.27    2.18
  -3   0   9    5.09    3.89
  -3   0   7    2.97    1.93
  -3   0   7   -0.21    3.08
  -3   0   5    1.93    1.26
  -3   0   5    2.61    2.43
   3   0  -3    0.14    0.81
  -3   0   3    4.06    1.12
  -3   0   3    2.03    0.67
  -3   0   3    2.49    1.57
  -3   0   1    1.85    0.99
  -3   0   1    1.44    1.11
   3   0  -1    0.59    1.42
  -3   0   1    0.13    1.15
   3   0  -1    0.10    1.11
  -3   0  -1    1.02    0.77
   3   0   1    2.72    1.73
   3   0   3   17.42    3.37
  -3   0  -5    0.85    1.49
   3   0   5    1.23    2.90
   3   0   7    4.93    3.39
   3   0   9   -3.35    3.60
   3   0  11    7.53    4.58
  -3   1  12  163.51    9.44
  -3  -1  12  164.23    8.14
  -3  -1  12  157.94   11.63
  -3   1  10   17.84    3.41
  -3  -1  10   15.21    4.87
  -3   1  10   17.77    4.98
  -3  -1  10   25.14    3.71
  -3  -1   8  681.42   19.17
   3   1  -8  663.16   11.16
  -3   1   8  694.53   15.01
   3   1  -8  686.55    9.11
  -3  -1   8  715.71   13.19
   3   1  -6    6.25    1.11
  -3  -1   6    7.79    1.58
  -3   1   6   11.99    4.05
   3   1  -6    6.67    1.30
  -3   1   6    8.44    2.07
  -3  -1   6    5.12    2.41
  -3  -1   4 3169.33   15.40
   3   1  -4 3184.17   17.27
  -3  -1   4 3187.74   29.50
  -3  -1   4 3188.14   19.07
  -3   1   4 3160.48   22.87
  -3   1   4 3164.38   37.28
  -3  -1   2  174.68    4.51
   3  -1  -2  185.05    5.41
   3   1  -2  169.20    4.74
  -3  -1   2  174.49    5.80
  -3  -1   2  178.20    4.45
  -3   1   2  178.04    4.78
  -3   1   2  178.14    5.23
  -3   1   2  178.97    7.41
   3  -1   0 1553.32   20.75
  -3  -1   0 1549.57   14.29
   3  -1   0 1512.42   12.61
  -3   1   0 1539.94   16.28
   3   1   0 1582.39   17.61
  -3   1   0 1594.31   14.85
   3   1   2    3.92    1.94
  -3   1  -2    1.52    1.08
   3   1   4    5.67    2.27
   3  -1   4   10.92    3.68
  -3   1  -6    6.53    0.93
   3   1   6    8.21    3.84
   3  -1   6    4.37    3.61
   3   1   8  106.54    8.63
   3  -1   8  109.09    8.57
   3  -1  10    2.30    4.03
   3   1  10    6.59    4.43
   3  -1  12  218.65   13.67
   3   1  12  220.23   13.10
  -3   2  13  105.17    8.74
  -3  -2  13  132.09   11.41
  -3  -2  11    5.43    2.70
  -3  -2  11    5.45    4.08
  -3   2  11    1.45    2.91
  -3  -2   9  473.82   16.52
   3   2  -9  444.27    9.62
  -3   2   9  458.43   13.73
  -3  -2   9  454.06   10.57
  -3  -2   7  855.82   18.72
  -3   2   7  932.43   24.48
   3   2  -7  919.91   12.04
  -3   2   7  855.12   16.41
  -3  -2   7  895.49   12.10
  -3  -2   5  150.95    6.86
  -3   2   5  163.92    9.94
  -3  -2   5  147.63    4.27
  -3  -2   5  146.42    3.95
   3   2  -5  142.64    4.11
  -3   2   5  144.87    5.86
   3   2  -5  148.12    4.48
   3   2  -3  553.34    8.95
  -3  -2   3  591.66   11.93
  -3   2   3  544.74    6.09
  -3   2   3  554.34   15.17
  -3  -2   3  531.07    7.16
  -3   2   3  564.35   10.12
  -3  -2   3  569.62    8.35
  -3   2   3  595.80   10.41
   3  -2  -1 1956.17   23.55
  -3   2   1 1949.75   22.02
   3  -2  -1 1984.13   20.24
  -3   2   1 1992.14   17.74
   3   2  -1 1929.72   18.00
  -3  -2   1 2032.51   18.91
   3  -2   1   15.02    1.33
   3   2   1   19.14    2.51
  -3   2  -1   15.45    1.88
   3  -2   1   14.29    2.78
   3  -2   3  237.41   10.40
   3   2   3  234.47    8.53
  -3   2  -3  234.05    6.63
   3  -2   5  244.87   11.61
   3   2   5  247.29   10.41
   3  -2   7  219.51   12.22
   3   2   7  230.40   11.47
   3  -2   9   40.48    6.23
   3   2   9   33.71    5.69
  -3   2 -11    5.37    3.39
   3   2  11    0.40    4.03
  -3   3  12  217.31   12.00
  -3  -3  12  214.94   13.59
  -3  -3  10  743.42   21.48
  -3   3  10  769.57   19.74
  -3   3   8 1164.14   21.78
  -3  -3   8 1127.46   22.21
   3   3  -8 1143.71   16.47
  -3  -3   8 1109.78   12.91
   3   3  -6 3236.85   24.89
   3   3  -6 3216.43   17.08
  -3   3   6 3220.97   31.53
  -3  -3   6 3240.97   17.56
  -3  -3   6 3294.28   33.33
  -3   3   4  390.93    8.74
  -3  -3   4  383.57   10.50
  -3   3   4  364.09    5.22
  -3  -3   4  354.08    5.38
  -3   3   4  375.35    9.57
   3   3  -4  373.57    8.23
   3   3  -2 1631.44   17.64
  -3  -3   2 1663.25   19.15
  -3   3   2 1669.10   14.37
  -3  -3   2 1690.77   13.26
  -3   3   2 1665.10   17.96
   3   3   0  315.72    8.22
  -3   3   0  325.45    8.49
  -3   3   0  315.99    7.66
  -3   3  -2 3085.14   23.55
   3   3   2 3047.04   28.89
   3   3   4  147.06    7.36
  -3   3  -4  148.39    5.74
  -3   3  -6  172.38    6.88
   3   3   6  171.51    9.09
  -3   3  -8 1319.13   20.73
   3   3   8 1349.57   28.32
   3   3  10  295.15   14.78
  -3   3 -10  322.01   14.37
  -3   3 -10  304.96   10.99
  -3   4  13  151.57   10.91
  -3  -4  13  165.97   12.48
  -3  -4  11  161.24   10.98
   3   4 -11  152.11    8.14
  -3   4  11  183.78   10.85
  -3  -4   9  264.56   11.61
   3   4  -9  257.09    9.44
  -3   4   9  274.05   11.89
  -3  -4   7  318.09   11.20
   3  -4  -7  321.65    6.01
  -3   4   7  324.98    5.56
   3   4  -7  331.08    9.49
  -3   4   7  296.49   11.09
   3  -4  -5  776.52   11.32
  -3  -4   5  775.69   16.01
  -3  -4   5  774.43    6.28
  -3   4   5  762.18   15.54
   3   4  -5  778.45   13.45
  -3   4   5  777.51    8.82
  -3  -4   3  380.31    7.84
  -3  -4   3  397.98    5.84
  -3   4   3  392.37    7.20
  -3   4   3  432.07   10.46
  -3  -4   3  413.62   10.46
   3   4  -3  426.15    9.88
   3   4  -1 1032.73   15.81
  -3   4   1  993.83   13.55
  -3   4   1 1020.23   14.66
   3   4   1  369.47    9.90
  -3   4  -1  357.35   10.10
  -3   4  -1  346.01    8.47
   3   4   3 1074.12   18.65
  -3   4  -3 1090.64   20.82
  -3   4  -3 1042.59   14.75
  -3   4  -5 1458.64   27.19
   3   4   5 1452.42   24.25
  -3   4  -5 1427.96   17.94
  -3   4  -7    4.60    2.09
   3   4   7    8.02    3.77
  -3   4  -7    4.85    3.44
  -3   4  -9  711.53   21.79
   3   4   9  652.04   21.11
   3   4  11  803.78   25.29
  -3   4 -11  805.49   23.70
  -3  -5  12  613.73   21.72
  -3   5  12  617.90   21.54
  -3  -5  10   59.09    6.47
  -3   5  10   49.39    6.08
   3   5 -10   60.24    5.71
   3   5  -8    1.91    2.47
  -3  -5   8    1.83    2.61
  -3   5   8   -2.20    2.94
  -3   5   8    3.93    1.59
  -3   5   6   10.59    1.81
   3   5  -6   11.77    2.86
  -3  -5   6   10.05    2.83
  -3   5   6    5.41    2.73
  -3  -5   4 4215.09   15.81
  -3  -5   4 4197.89   35.93
  -3   5   4 4307.29   25.14
  -3   5   4 4259.56   37.05
   3   5  -4 4111.49   33.09
  -3  -5   4 4198.46   21.52
  -3   5   2 3893.75   32.17
  -3   5   2 3891.41   27.13
   3   5   0 4352.74   35.90
  -3   5   0 4333.89   33.34
  -3   5   0 4378.01   31.91
  -3   5  -2  481.91   13.17
   3   5   2  457.46   12.17
  -3   5  -2  480.40   10.54
   3  -5   4   34.37    1.90
   3   5   4   34.94    4.17
  -3   5  -4   33.71    4.48
  -3   5  -4   32.10    3.20
   3   5   6 1260.79   24.37
  -3   5  -6 1190.90   26.18
  -3   5  -6 1246.45   17.99
  -3   5  -8  680.09   14.27
   3   5   8  718.67   20.55
  -3   5 -10   76.47    8.02
   3   5  10   74.03    8.26
  -3  -6  11   90.60    8.34
   3   6 -11   90.08    7.80
  -3   6  11   90.50    8.72
  -3  -6   9 1453.70   27.33
   3   6  -9 1371.98   25.32
  -3   6   9 1412.15   29.07
  -3  -6   7 1057.19   21.55
  -3   6   7 1029.63   13.74
   3   6  -7  997.21   19.56
  -3   6   7  987.35   22.38
  -3  -6   5  169.54    8.14
  -3   6   5  179.00    8.92
   3   6  -5  171.64    7.94
  -3   6   5  167.08    5.62
  -3  -6   3 2602.54   29.05
  -3   6   3 2569.70   29.74
  -3  -6   3 2608.68   21.29
   3   6  -3 2520.34   28.39
   3   6  -1 1686.98   23.59
  -3   6   1 1622.13   21.70
  -3   6   1 1618.94   20.46
   3   6   1  129.52    7.04
  -3   6  -1  132.38    6.94
  -3   6  -1  116.54    5.84
  -3   6  -3 1021.82   21.22
   3   6   3  979.57   19.07
  -3   6  -3 1039.16   16.38
   3  -6   5 1371.08   12.87
   3   6   5 1396.91   24.70
  -3   6  -7  206.56   12.06
   3   6   7  194.70   10.55
  -3   6  -7  204.94    7.93
  -3   6  -9  189.39   12.40
   3   6   9  196.87   11.97
  -3  -7  10 1084.50   25.43
  -3   7  10 1076.26   27.74
  -3  -7   8  267.76   11.73
   3   7  -8  274.86   11.72
  -3   7   8  274.71   13.30
  -3   7   6 4332.65   31.84
   3   7  -6 4264.43   42.15
  -3   7   6 4365.90   47.47
  -3  -7   4  670.46   16.21
  -3  -7   4  661.69    6.34
  -3   7   4  659.95   12.77
  -3   7   4  649.62   16.96
  -3   7   2  179.46    7.26
  -3   7   2  158.32    7.97
   3   7  -2  158.75    8.06
   3   7   0  926.30   19.07
  -3   7   0  908.90   17.44
  -3   7   0  959.57   17.88
   3   7   2 2711.42   33.30
  -3   7  -2 2710.06   33.86
  -3   7  -2 2724.38   28.72
   3   7   4  518.77   15.03
  -3   7  -4  518.73   16.83
  -3   7  -4  524.93   12.50
   3   7   6  304.50   12.67
  -3   7  -6  344.69   10.34
  -3   7  -6  338.01   15.13
  -3   7  -8  887.98   26.03
   3   7   8  914.43   23.92
  -3  -8   9 1100.09   25.52
   3   8  -9 1025.56   25.29
  -3   8   9 1031.88   27.70
  -3   8   7  785.26   14.89
  -3  -8   7  822.74   20.65
   3   8  -7  852.24   21.32
  -3   8   7  826.83   23.23
  -3  -8   5   56.37    5.55
   3   8  -5   44.29    5.08
  -3   8   5   52.56    6.01
  -3   8   5   50.19    4.19
  -3   8   3 1815.81   23.74
   3   8  -3 1797.03   27.57
   3   8  -1 1393.23   24.53
  -3   8   1 1381.90   22.37
  -3   8   1 1382.57   24.33
   3   8   1  118.89    7.61
  -3   8  -1  116.68    7.23
  -3   8  -3  933.64   18.35
   3   8   3  911.27   20.40
  -3   8  -3  965.66   22.38
   3   8   5  831.15   20.21
  -3   8  -5  884.29   24.14
  -3   8  -5  881.65   17.21
   3   8   7  180.42   10.86
  -3   8  -7  176.84   12.31
   3   9  -8    4.97    3.86
  -3  -9   8    5.45    3.71
  -3   9   8    1.95    4.16
  -3   9   6   54.50    4.73
  -3  -9   6   57.50    6.16
  -3   9   6   46.67    6.50
   3   9  -6   60.15    6.53
  -3  -9   4 1520.36   26.75
  -3   9   4 1484.91   22.57
  -3   9   4 1526.06   29.96
   3   9  -4 1440.62   26.46
  -3   9   2 1005.81   19.74
  -3   9   2 1014.64   23.51
   3   9  -2  969.06   21.98
   3   9   0 1804.55   30.00
  -3   9   0 1760.10   28.11
  -3   9   0 1776.06   29.67
   3   9   2  364.85   13.90
  -3   9  -2  386.66   14.56
  -3   9  -2  372.59   13.12
   3   9   4   17.53    3.89
  -3   9  -4   21.74    4.81
  -3   9  -4   16.38    3.77
   3   9   6  699.54   20.89
  -3   9  -6  626.94   22.47
  -3 -10   7   44.79    6.18
   3  10  -7   54.39    7.11
  -3  10   7   56.23    7.94
  -3  10   5   91.72    8.97
   3  10  -5  106.47    8.47
  -3 -10   5   87.49    7.37
  -3  10   5   81.12    6.17
  -3  10   3  143.90    8.18
  -3  10   3  146.32   10.47
   3  10  -3  160.45   10.02
   3  10  -1  318.60   13.61
  -3  10   1  309.60   12.39
   3  10   1   34.92    5.43
  -3  10  -1   36.88    5.38
  -3  10  -1   38.67    5.74
   3  10   3  389.21   15.31
  -3  10  -3  349.64   15.29
   3  10   5  643.04   20.00
  -3  10  -5  714.35   23.69
  -3  11   6  800.38   19.48
  -3 -11   6  822.65   22.92
   3  11  -6  820.11   24.44
  -3 -11   4  101.77    8.15
  -3  11   4  123.67   11.07
  -3  11   4   95.68    7.04
   3  11  -4  102.03    8.80
   3  11  -2  495.57   18.12
  -3  11   2  478.61   15.66
  -3  11   2  507.33   20.48
  -3  11   0   18.13    4.44
   3  11   0   12.79    4.25
   3  11   2  704.44   21.59
  -3  11  -2  690.82   21.48
  -3  11  -4    6.25    4.73
   3  11   4    5.20    4.47
  -4   0  12    2.88    2.96
  -4   0  12    4.42    4.73
  -4   0  10 2307.54   42.33
  -4   0  10 2161.78   28.08
  -4   0   8 1611.81   33.21
  -4   0   8 1521.61   20.41
  -4   0   6 2111.95   32.86
  -4   0   6 1965.53   20.14
   4   0  -4 3523.26   22.57
  -4   0   4 3537.52   36.08
  -4   0   4 3561.24   16.54
  -4   0   2   18.91    2.64
  -4   0   2   23.47    2.31
   4   0  -2   22.09    2.72
  -4   0   0 3392.65   24.61
  -4   0   0 3360.32   24.53
   4   0   0 3398.62   33.25
  -4   0  -2 3422.75   20.56
   4   0   2 3360.82   38.23
  -4   0  -4 1702.72   11.85
   4   0   4 1281.46   26.47
   4   0   6    8.80    4.18
   4   0   8 5451.13   60.18
   4   0  10  261.30   14.26
  -4   1  13  427.04   15.56
  -4  -1  13  456.91   20.66
  -4  -1  11  154.46   11.94
  -4   1  11  146.63   11.70
  -4   1  11  147.57    8.46
  -4  -1  11  155.08    7.79
  -4  -1   9  321.81   14.72
  -4   1   9  339.35   16.37
  -4   1   9  313.04   10.63
  -4  -1   9  338.38    9.97
   4   1  -7 2973.83   15.99
  -4  -1   7 3014.51   38.65
  -4  -1   7 2966.84   24.53
  -4   1   7 2928.17   28.47
   4   1  -5  382.09    6.66
  -4  -1   5  372.55    5.69
  -4  -1   5  373.08    7.85
  -4   1   5  372.66    9.01
   4  -1  -3 1402.12   15.61
  -4  -1   3 1409.47   19.91
  -4   1   3 1416.99   13.02
   4   1  -3 1430.81   15.69
  -4  -1   3 1437.35   14.98
  -4   1   3 1450.50   16.63
  -4   1   3 1406.21   23.66
   4  -1  -1 5346.88   41.29
  -4  -1   1 5431.25   33.65
  -4   1   1 5369.89   39.08
  -4  -1   1 5639.64   30.47
   4   1  -1 5631.70   37.15
  -4   1   1 5585.79   32.27
   4  -1   1   54.56    5.44
  -4   1  -1   38.05    3.05
  -4   1  -1   50.80    3.17
  -4  -1  -1   45.97    3.02
   4   1   1   49.10    4.42
   4  -1   3 1444.67   27.48
  -4   1  -3 1408.44   18.68
   4   1   3 1450.75   25.01
   4  -1   5 2933.47   40.88
   4   1   5 3010.68   40.50
   4  -1   7   12.35    4.34
   4   1   7    9.89    3.74
   4   1   9  119.83   10.10
   4  -1   9  137.71   10.45
   4  -1  11 1122.14   31.02
   4   1  11 1068.54   29.56
  -4  -2  12 1774.39   39.23
  -4   2  12 1661.54   30.10
  -4  -2  10  346.65   15.67
  -4   2  10  348.49   12.69
  -4  -2  10  327.77    9.60
  -4  -2   8  263.13   11.91
  -4   2   8  252.23    9.60
  -4  -2   8  259.29    7.46
   4   2  -8  259.09    6.72
   4   2  -6  182.61    5.55
  -4  -2   6  159.77    8.19
  -4   2   6  178.52   11.23
  -4  -2   6  187.00    5.35
  -4   2   6  177.31    7.24
  -4  -2   4 3801.30   34.58
  -4   2   4 3846.29   16.41
  -4   2   4 3814.52   19.10
  -4  -2   4 3914.22   23.35
   4   2  -4 3860.56   25.66
  -4   2   4 3924.59   30.11
  -4  -2   2  130.43    5.95
   4   2  -2  135.42    5.32
  -4   2   2  156.83    8.40
   4  -2  -2  145.61    5.94
  -4  -2   2  131.77    4.51
  -4   2   2  162.03    6.00
   4  -2   0   26.19    2.25
   4  -2   0   30.35    3.77
  -4  -2   0   24.42    2.57
  -4   2   0   29.81    3.12
   4   2   0   28.47    3.07
  -4   2   0   32.16    2.85
  -4   2  -2 4919.88   32.89
   4   2   2 4904.97   40.82
   4  -2   4 1686.80   30.69
  -4   2  -4 1666.54   21.00
   4   2   4 1670.46   27.18
   4  -2   6 1252.43   28.08
  -4   2  -6 1209.92   20.06
   4   2   6 1187.79   26.21
   4  -2   8  247.03   13.97
   4   2   8  242.83   13.53
   4   2  10   74.98    8.92
   4  -2  10   64.11    8.26
  -4  -3  13  794.36   27.51
  -4   3  13  795.47   23.28
  -4   3  11   10.84    3.74
  -4  -3  11    5.59    4.90
  -4  -3   9 1233.14   26.39
  -4   3   9 1198.05   23.09
   4   3  -9 1232.12   16.92
  -4  -3   9 1200.95   15.09
  -4  -3   7 1202.43   13.23
  -4   3   7 1193.86   20.64
   4   3  -7 1208.43   16.37
  -4   3   5    5.52    0.78
  -4  -3   5    7.30    1.25
  -4   3   5    5.39    2.05
  -4  -3   5    4.99    2.40
   4   3  -5    7.51    2.15
   4   3  -3  540.20   11.09
  -4  -3   3  492.89   12.18
  -4   3   3  509.42    8.13
  -4  -3   3  526.74    8.47
  -4   3   3  500.52   11.12
  -4   3   1 1180.74   16.50
   4   3  -1 1154.69   17.00
  -4  -3   1 1190.41   17.18
  -4   3   1 1206.95   16.70
   4  -3   1  211.78    5.48
   4   3   1  214.48    8.19
  -4   3  -1  227.99    7.35
  -4   3  -3    9.88    2.18
   4  -3   3   11.80    4.34
   4   3   3    9.55    3.01
   4  -3   5  992.27   25.61
  -4   3  -5 1017.95   17.11
   4   3   5 1025.71   22.33
  -4   3  -7  220.66    8.92
   4  -3   7  227.69   13.18
   4   3   7  245.95   12.63
  -4   3  -9   64.58    5.56
   4   3   9   75.17    8.46
  -4   4  12    3.73    4.00
  -4  -4  12    0.91    4.44
  -4  -4  10 1664.53   32.09
   4   4 -10 1584.43   22.53
  -4  -4   8  537.11   16.40
  -4   4   8  529.27   15.52
   4   4  -8  519.42   12.18
  -4   4   6 1816.54   11.30
  -4  -4   6 1777.21   26.99
  -4  -4   6 1806.56   13.23
  -4   4   6 1782.58   25.45
   4   4  -6 1848.87   22.15
   4   4  -4  319.65    9.39
  -4  -4   4  334.33    6.31
  -4   4   4  333.91    6.48
  -4  -4   4  324.39   10.84
   4   4  -2   43.65    3.89
  -4  -4   2   37.77    3.68
  -4   4   2   42.02    3.67
  -4   4   2   36.53    2.81
  -4   4   0 1206.82   18.58
   4   4   0 1154.20   18.58
  -4   4   0 1160.95   17.15
   4   4   2   85.07    5.87
   4  -4   2   84.84    3.66
  -4   4  -2   81.10    6.06
  -4   4  -2   74.79    4.71
   4   4   4  218.50   10.07
  -4   4  -4  220.71    8.01
  -4   4  -4  216.15   10.84
  -4   4  -6   32.71    5.28
   4   4   6   43.79    5.75
  -4   4  -6   42.18    4.11
  -4   4  -8 1385.12   30.31
  -4   4  -8 1276.94   21.63
   4   4   8 1332.61   30.30
  -4   4 -10  134.38   10.40
  -4   4 -10  130.36    8.00
   4   4  10  120.24   11.31
  -4  -5  11   38.96    6.29
  -4   5  11   66.45    7.37
  -4  -5   9  142.66    9.42
   4   5  -9  142.30    7.61
  -4   5   9  129.95    8.86
  -4   5   7   23.11    1.80
  -4   5   7   15.38    3.41
   4   5  -7   17.44    3.19
  -4  -5   7   14.80    3.44
  -4  -5   5   48.66    3.26
  -4  -5   5   54.14    5.18
  -4  -5   5   54.46    2.38
  -4   5   5   54.28    4.98
  -4   5   5   54.62    2.93
   4   5  -5   54.74    4.58
   4   5  -3  380.38   11.10
  -4  -5   3  368.38   11.35
  -4  -5   3  375.17    7.09
  -4   5   3  362.16    8.28
  -4   5   3  358.37   10.74
  -4   5   1  642.40   12.81
  -4   5   1  643.71   13.62
  -4   5  -1  157.28    7.58
  -4   5  -1  174.62    7.17
   4   5   1  170.13    8.01
  -4   5  -3  451.10   14.70
   4   5   3  445.73   13.76
  -4   5  -3  439.58   11.27
  -4   5  -5  877.70   22.45
   4   5   5  935.77   21.81
  -4   5  -5  910.82   16.82
   4   5   7    0.22    3.20
  -4   5  -7    3.29    2.37
  -4   5  -7    5.54    3.70
  -4   5  -9  195.98   12.40
  -4   5  -9  159.17    8.26
   4   5   9  188.58   12.69
  -4  -6  10  351.84   15.20
   4   6 -10  316.28   12.56
  -4   6  10  352.24   15.50
  -4  -6   8  229.75   11.27
  -4   6   8  224.65   11.30
   4   6  -8  205.66    9.42
  -4  -6   6   60.32    5.75
  -4   6   6   56.08    5.60
   4   6  -6   52.88    4.98
  -4   6   6   52.25    3.20
   4   6  -4  289.20   10.68
  -4  -6   4  283.80   10.81
  -4  -6   4  284.87    5.63
  -4   6   4  289.78    7.80
  -4   6   4  279.43   10.63
   4   6  -2  133.31    7.43
  -4   6   2  128.84    5.90
  -4  -6   2  131.30    7.17
  -4   6   2  130.52    6.92
  -4   6   0  143.21    7.10
  -4   6   0  114.94    6.27
   4   6   2 1328.18   23.58
  -4   6  -2 1315.93   23.79
  -4   6  -2 1306.03   19.96
   4   6   4   65.88    6.19
  -4   6  -4   74.74    6.86
  -4   6  -4   63.82    5.00
  -4   6  -6 1318.88   29.30
   4   6   6 1356.41   28.13
  -4   6  -6 1333.93   21.63
  -4   6  -8   41.50    6.92
   4   6   8   46.47    6.95
  -4   7  11   37.38    6.87
  -4  -7  11   42.89    6.63
  -4   7   9    0.45    3.67
   4   7  -9    5.56    3.73
  -4  -7   9    1.45    3.13
   4   7  -7    7.68    3.48
  -4  -7   7   -1.29    2.74
  -4   7   7    0.45    3.40
  -4   7   5   16.68    2.41
  -4   7   5   21.92    4.01
   4   7  -5   11.11    2.96
  -4  -7   5   20.45    3.77
   4   7  -3   50.80    5.21
  -4  -7   3   42.92    4.74
  -4   7   3   45.66    3.92
  -4   7   3   47.10    4.93
  -4   7   1    8.29    2.77
   4   7  -1   10.67    3.12
  -4   7   1    3.78    2.07
   4   7   1   81.30    6.44
  -4   7  -1   70.98    5.78
  -4   7  -1   69.47    5.40
   4   7   3   45.52    5.14
  -4   7  -3   44.34    5.24
  -4   7  -3   60.12    5.04
  -4   7  -5   17.66    3.47
   4   7   5   19.85    4.57
  -4   7  -5   19.87    4.64
  -4   7  -7   61.63    7.58
   4   7   7   59.30    7.07
  -4  -8  10  128.64    9.94
   4   8 -10  134.24    9.93
  -4   8  10  128.69   10.71
  -4   8   8    6.66    4.45
  -4  -8   8   -0.08    3.25
   4   8  -8    4.50    3.59
  -4  -8   6   94.02    7.47
  -4   8   6   84.19    7.84
   4   8  -6   94.73    7.27
  -4   8   6   88.78    5.22
   4   8  -4  270.75   11.71
  -4  -8   4  273.85   11.66
  -4   8   4  247.48    8.63
  -4   8   4  250.04   11.76
  -4   8   2   20.22    3.99
  -4   8   2   19.90    3.22
   4   8  -2   23.62    4.32
   4   8   0    1.57    3.06
  -4   8   0    3.70    2.92
  -4   8   0    0.23    2.42
   4   8   2 1291.63   25.63
  -4   8  -2 1265.55   25.21
  -4   8  -2 1310.70   22.80
   4   8   4  458.94   16.15
  -4   8  -4  487.28   14.08
  -4   8  -4  499.15   18.06
   4   8   6  848.20   23.60
  -4   8  -6  774.48   24.50
  -4  -9   9   56.39    7.38
  -4   9   9   46.12    7.33
   4   9  -9   47.96    7.02
   4   9  -7   34.54    5.74
  -4   9   7   26.67    5.96
  -4  -9   7   23.02    4.82
  -4  -9   5   82.92    7.18
  -4   9   5   92.97    8.36
  -4   9   5   89.35    5.79
   4   9  -5   75.82    7.07
   4   9  -3  125.92    8.67
  -4  -9   3  107.28    7.83
  -4   9   3  127.51    7.22
  -4   9   3  133.52    9.15
   4   9  -1  363.40   14.27
  -4   9   1  357.95   12.66
  -4   9   1  376.08   14.20
  -4   9  -1    4.90    3.39
  -4   9  -1    6.57    3.24
   4   9   3   79.41    7.47
  -4   9  -3   99.53    8.37
  -4   9  -3   97.33    7.33
   4   9   5  644.90   20.78
  -4   9  -5  633.16   21.79
  -4 -10   6  482.16   17.54
  -4  10   6  511.22   20.25
   4  10  -6  466.48   17.87
   4  10  -4  174.32   11.01
  -4 -10   4  166.46   10.03
  -4  10   4  154.12    8.36
  -4  10   4  164.77   11.25
   4  10  -2  246.56   12.44
  -4  10   2  228.71   10.64
  -4  10   2  231.00   12.60
   4  10   0  380.86   15.51
  -4  10   0  375.01   14.44
  -4  10   0  361.24   15.21
   4  10   2   38.98    6.12
  -4  10  -2   40.94    6.02
  -4  10  -2   33.19    5.35
   4  10   4    4.76    4.02
  -4  10  -4   16.01    4.96
   4  11  -3   95.87    9.08
  -4 -11   3   90.18    8.06
  -4  11   3   91.50    7.47
  -4  11   3  109.02   10.22
   4  11  -1  372.56   16.23
  -4  11   1  361.08   14.50
  -4  11   1  387.49   17.59
   4  11   1  435.50   17.75
  -4  11  -1  410.60   16.43
  -4  11  -1  383.32   17.03
  -5   0  13   -1.32    6.17
  -5   0  11    0.84    2.65
  -5   0  11    3.38    4.56
  -5   0   9    1.19    2.01
  -5   0   9    6.33    4.43
  -5   0   7   -0.09    1.80
  -5   0   7    1.44    3.43
  -5   0   5    0.91    1.03
  -5   0   5   -0.42    1.65
  -5   0   5    1.81    3.10
   5   0  -5    0.16    1.68
  -5   0   3    8.10    1.88
   5   0  -3    2.65    2.26
  -5   0   3    0.50    2.28
  -5   0   1    1.14    1.48
   5   0  -1    0.27    2.42
  -5   0  -1   -0.73    1.55
  -5   0  -1   -1.39    1.61
   5   0   1    3.78    3.23
  -5   0  -3   -1.86    1.97
  -5   0  -3    4.62    1.43
   5   0   3   -3.17    4.00
   5   0   5   -0.89    3.53
   5   0   7    6.91    4.66
   5   0   9    1.71    4.13
  -5  -1  12  127.09   11.69
  -5   1  12  136.87   11.85
  -5   1  12  123.52    8.42
  -5  -1  10   15.99    3.12
  -5  -1  10   14.57    5.78
  -5   1  10   26.18    6.18
  -5   1  10   24.45    3.92
  -5  -1   8  370.68   15.71
  -5  -1   8  343.23    9.43
  -5   1   8  353.21   10.92
  -5   1   6  122.78    9.59
  -5  -1   6  135.96    8.57
   5   1  -6  125.92    4.77
  -5  -1   6  123.38    3.49
  -5  -1   6  144.00    5.71
  -5   1   6  133.08    6.13
   5  -1  -4  835.74   12.55
  -5  -1   4  827.20   17.90
  -5   1   4  819.17   20.88
   5   1  -4  816.35   13.58
  -5   1   4  770.45    9.79
  -5  -1   4  836.81   13.08
  -5   1   4  787.46   13.83
   5  -1  -2  588.03   14.38
  -5   1   2  564.59   15.24
  -5  -1   2  556.36   12.99
  -5  -1   2  555.14   10.68
   5   1  -2  566.67   13.04
  -5   1   2  546.14   11.49
   5  -1   0 2699.21   35.80
  -5  -1   0 2626.64   25.20
  -5   1   0 2602.86   27.39
  -5  -1   0 2615.98   24.93
  -5   1   0 2527.04   24.31
   5   1   0 2556.91   31.54
  -5  -1  -2 2309.90   21.75
  -5   1  -2 2332.19   19.46
  -5   1  -2 2256.27   24.74
   5   1   2 2296.49   33.28
   5  -1   4  727.53   21.97
  -5  -1  -4  678.45   10.92
  -5   1  -4  725.72   15.72
   5   1   4  709.13   20.68
   5  -1   6  213.32   12.70
   5   1   6  202.13   12.65
   5   1   8  240.65   14.41
   5  -1   8  249.36   14.32
   5  -1  10    3.07    5.15
   5   1  10   -0.51    4.85
  -5  -2  13  352.68   19.56
  -5   2  13  328.22   14.41
  -5  -2  11  136.58   11.41
  -5   2  11  125.40    8.28
  -5  -2   9   13.10    4.61
  -5   2   9   13.52    5.34
  -5   2   9   15.52    3.35
  -5  -2   9   16.93    2.65
   5   2  -7  349.20    8.03
  -5   2   7  359.65   16.65
  -5  -2   7  361.20    8.59
  -5   2   7  362.36   11.25
   5   2  -5  539.57   10.74
  -5  -2   5  559.90   15.33
  -5   2   5  539.35    5.86
  -5  -2   5  530.05    9.99
  -5   2   5  545.30   12.55
  -5  -2   3    4.58    1.59
  -5   2   3    7.15    2.28
   5  -2  -3    8.37    2.37
  -5   2   3    5.14    3.26
   5   2  -3    7.23    2.03
  -5  -2   1  474.16   11.84
   5  -2  -1  454.32   13.06
  -5   2   1  470.63   13.27
   5   2  -1  461.69   12.38
  -5  -2   1  438.16    9.84
  -5   2   1  455.76   11.04
   5  -2   1  142.52    4.08
  -5  -2  -1  148.57    6.16
  -5   2  -1  153.92    5.40
   5  -2   1  162.64    9.66
  -5   2  -1  153.80    6.52
   5   2   1  164.97    8.44
  -5   2  -3    5.25    2.35
   5  -2   3    0.25    3.39
   5   2   3    3.13    3.23
  -5  -2  -3    5.93    2.06
   5  -2   5  705.22   22.03
  -5   2  -5  721.95   16.17
   5   2   5  669.52   20.49
  -5   2  -7    8.88    3.04
   5   2   7   15.65    5.20
   5  -2   7   20.02    5.64
   5   2   9   20.45    6.01
  -5   2  -9   23.32    4.44
   5  -2   9   26.75    6.78
  -5   3  12   23.76    5.24
  -5  -3  12   16.97    6.18
  -5  -3  10  729.81   22.85
  -5   3  10  720.27   19.04
  -5   3   8    4.30    2.46
  -5  -3   8    8.51    1.89
  -5  -3   8    6.20    3.45
  -5  -3   6    9.01    1.76
  -5   3   6    7.62    2.64
  -5  -3   6    8.97    3.18
  -5   3   6    5.28    4.34
   5   3  -6    9.99    2.43
  -5  -3   4 4057.64   39.03
   5   3  -4 4034.38   32.36
  -5   3   4 3894.47   46.49
  -5   3   4 4185.26   23.11
  -5  -3   4 4242.99   27.39
  -5   3   4 4179.15   35.38
  -5   3   2  961.99   15.05
  -5  -3   2  974.50   13.86
  -5   3   2  940.94   16.43
  -5  -3   2  968.86   17.79
  -5  -3   0  972.26   16.77
   5   3   0  979.04   18.74
  -5   3   0  966.51   16.40
   5  -3   2  581.34   18.60
   5   3   2  552.19   15.57
  -5   3  -2  536.86   12.80
   5  -3   4   97.59    9.09
  -5   3  -4   92.14    5.92
   5   3   4   84.01    7.11
   5  -3   6   54.54    7.81
  -5   3  -6   46.74    4.70
   5   3   6   52.35    6.54
  -5   3  -8  800.43   19.18
   5   3   8  813.81   26.11
   5   3  10    1.10    5.30
  -5   3 -10   -1.29    3.67
  -5   3 -10    4.47    4.21
  -5  -4  11   59.17    7.79
  -5   4  11   55.66    6.71
   5   4  -9  308.45   10.22
  -5  -4   9  300.49   13.69
  -5   4   9  302.94   12.74
   5   4  -7 2394.63   27.43
  -5  -4   7 2328.67   34.20
  -5  -4   7 2344.25   18.50
  -5   4   7 2317.51   31.01
  -5  -4   5    7.17    1.59
  -5   4   5    9.01    2.79
  -5  -4   5   13.45    3.46
   5   4  -5   13.39    3.06
  -5   4   5    8.55    1.48
   5   4  -3  587.10   13.73
  -5   4   3  611.71   10.84
  -5  -4   3  615.03   15.28
  -5  -4   3  604.34   10.41
  -5   4   3  618.09   14.22
  -5  -4   1 3513.03   34.43
  -5   4   1 3526.00   31.82
  -5   4  -1    2.80    2.43
   5   4   1    3.83    2.72
  -5   4  -3   62.83    6.15
   5   4   3   73.23    6.50
  -5   4  -3   60.79    4.91
  -5   4  -5 1496.07   30.44
  -5   4  -5 1416.44   22.45
   5   4   5 1439.89   29.01
  -5   4  -7   51.19    6.76
  -5   4  -7   44.96    4.98
   5   4   7   52.48    7.24
  -5   4  -9   26.53    4.79
  -5   4  -9   38.06    6.54
   5   4   9   39.76    7.66
  -5  -5  12  206.30   13.97
  -5   5  12  216.68   12.93
  -5  -5  10 1171.71   28.39
  -5   5  10 1248.79   27.73
   5   5  -8   90.05    6.32
  -5  -5   8   83.82    7.44
  -5   5   8   78.48    6.96
   5   5  -6 1108.92   20.13
  -5  -5   6 1024.33   22.38
  -5  -5   6 1073.32   11.73
  -5   5   6 1069.86   21.50
  -5   5   6 1005.00   10.73
   5   5  -4 1429.12   22.76
  -5  -5   4 1378.28   24.29
  -5  -5   4 1414.81   15.16
  -5   5   4 1400.22   16.02
  -5   5   4 1420.22   23.01
  -5  -5   2  598.84   15.13
   5   5  -2  605.79   15.09
  -5   5   2  553.04   11.90
  -5  -5   2  659.56   11.74
  -5   5   2  642.68   14.95
   5   5   0   44.77    4.79
  -5   5   0   46.45    4.43
  -5   5   0   51.68    4.91
  -5   5  -2 4803.54   47.36
   5   5   2 4880.01   47.00
  -5   5  -2 4757.17   39.91
  -5   5  -4  273.47   12.92
   5   5   4  248.09   12.05
  -5   5  -4  270.22   10.07
  -5   5  -6   78.90    7.92
  -5   5  -6   74.46    6.06
   5   5   6   71.12    7.46
  -5   5  -8  714.18   18.36
   5   5   8  764.77   25.16
  -5   6  11   27.09    5.72
  -5  -6  11   19.85    5.65
   5   6  -9   60.89    6.30
  -5  -6   9   71.67    7.55
  -5   6   9   60.76    6.76
   5   6  -7 1405.52   24.52
  -5  -6   7 1392.09   27.46
  -5   6   7 1426.54   27.43
   5   6  -5   87.68    6.53
  -5  -6   5   78.53    6.64
  -5  -6   5   79.89    3.44
  -5   6   5   94.99    4.53
  -5   6   5   83.80    6.55
   5   6  -3   53.78    5.35
  -5  -6   3   58.01    5.42
  -5  -6   3   63.58    3.67
  -5   6   3   48.99    3.84
  -5   6   3   51.51    5.09
  -5  -6   1 2062.16   28.89
   5   6  -1 2035.88   29.32
  -5   6   1 2073.52   25.93
  -5   6   1 2110.55   28.00
   5   6   1   41.30    4.85
  -5   6  -1   48.32    5.03
  -5   6  -1   44.68    4.50
  -5   6  -3   61.31    6.29
   5   6   3   49.15    5.61
  -5   6  -3   66.63    5.49
  -5   6  -5 1569.66   32.26
   5   6   5 1561.23   31.31
  -5   6  -5 1597.68   25.89
   5   6   7   11.51    4.66
  -5   6  -7    8.08    3.13
  -5   6  -7    4.06    3.94
  -5  -7  10  875.39   25.28
  -5   7  10  876.78   25.51
   5   7  -8   45.61    5.81
  -5  -7   8   54.66    6.76
  -5   7   8   45.49    6.19
   5   7  -6  107.81    7.71
  -5  -7   6   96.85    7.86
  -5   7   6  110.41    8.28
   5   7  -4 2886.02   36.87
  -5  -7   4 2859.54   37.47
  -5  -7   4 2954.61   21.59
  -5   7   4 2946.78   27.82
  -5   7   4 2875.01   37.17
   5   7  -2 1680.53   28.37
  -5  -7   2 1705.99   27.92
  -5   7   2 1737.65   23.81
  -5   7   2 1685.18   26.99
   5   7   0 1180.34   24.01
  -5   7   0 1167.06   22.08
  -5   7   0 1165.92   21.76
   5   7   2  138.89    8.88
  -5   7  -2  149.82    9.05
  -5   7  -2  135.61    7.86
   5   7   4  287.74   13.50
  -5   7  -4  281.30   13.65
  -5   7  -4  295.87   11.46
  -5   7  -6    3.93    3.34
  -5   7  -6   -3.83    3.99
   5   7   6    1.25    3.93
   5   8  -9   89.55    8.23
  -5  -8   9   97.00    9.16
  -5   8   9  103.35    9.63
   5   8  -7  673.79   19.81
  -5  -8   7  720.03   21.48
  -5   8   7  691.40   21.72
  -5   8   5   13.64    2.82
  -5   8   5    8.78    3.97
   5   8  -5   14.86    4.43
  -5  -8   5   17.63    4.16
  -5   8   3   19.36    4.23
   5   8  -3   20.39    4.37
  -5  -8   3   18.51    3.90
  -5  -8   3   16.27    2.41
  -5   8   3   23.50    3.40
   5   8  -1 1274.87   26.34
  -5   8   1 1261.55   22.77
  -5   8   1 1238.19   24.21
   5   8   1    6.15    3.49
  -5   8  -1    4.24    3.18
  -5   8  -1   11.21    3.57
   5   8   3   47.16    6.51
  -5   8  -3   45.94    6.27
  -5   8  -3   34.36    4.93
   5   8   5 1300.10   30.09
  -5   8  -5 1219.45   30.16
  -5   8  -5 1227.88   24.09
  -5   9   8   21.91    6.29
   5   9  -8   11.55    4.97
  -5  -9   8   12.45    4.93
   5   9  -6  721.61   21.40
  -5  -9   6  705.41   21.40
  -5   9   6  730.33   23.00
   5   9  -4  302.89   13.64
  -5  -9   4  271.51   12.54
  -5   9   4  290.46   10.46
  -5   9   4  286.17   13.71
   5   9  -2  811.89   22.01
  -5  -9   2  774.11   20.78
  -5   9   2  806.75   18.72
  -5   9   2  779.16   21.18
   5   9   0   80.67    7.62
  -5   9   0  100.14    7.52
  -5   9   0   91.57    7.70
  -5   9  -2 2672.06   40.29
  -5   9  -2 2710.80   37.10
   5   9   4  116.90    9.74
  -5   9  -4  126.40   10.43
  -5   9  -4  125.96    8.66
   5  10  -5   54.50    7.19
  -5 -10   5   43.42    6.17
  -5  10   5   41.53    7.09
   5  10  -3  356.94   15.74
  -5 -10   3  353.11   14.96
  -5  10   3  389.10   13.57
  -5  10   3  381.92   16.50
   5  10  -1 1071.38   26.92
  -5  10   1 1065.90   23.79
  -5  10   1 1018.55   25.66
   5  10   1   48.78    6.78
  -5  10  -1   75.01    7.58
  -5  10  -1   70.22    7.65
   5  10   3   84.46    8.37
  -5  10  -3   80.62    8.42
  -6   0  12  919.66   31.15
  -6   0  12  788.71   19.46
  -6   0  10  916.19   29.52
  -6   0  10  890.65   18.57
  -6   0   8 1230.22   31.11
  -6   0   8 1216.47   19.72
   6   0  -6  271.47    7.05
  -6   0   6  268.46   13.60
  -6   0   6  259.75    8.72
  -6   0   4 7589.34   62.08
  -6   0   4 7732.84   46.35
   6   0  -4 7638.29   51.46
  -6   0   2  440.72   13.55
  -6   0   2  474.72   11.63
   6   0  -2  428.40   14.05
  -6   0   0   34.32    3.92
   6   0   0   40.30    5.82
  -6   0  -2 2707.60   25.17
  -6   0  -2 2792.90   30.97
   6   0   2 2832.42   43.01
   6   0   4  374.60   17.02
  -6   0  -4  358.41   12.38
   6   0   6    7.83    5.06
   6   0   8  262.88   15.50
  -6  -1  11    6.03    2.95
  -6   1  11    5.79    3.41
  -6  -1  11   10.69    5.62
  -6   1  11    3.26    4.77
  -6  -1   9  147.47   11.22
  -6   1   9  124.79   11.54
  -6  -1   9  130.49    6.60
  -6   1   9  126.28    7.28
  -6  -1   7 3159.27   44.80
  -6   1   7 3217.63   50.58
  -6  -1   7 3106.17   28.92
   6   1  -7 3147.53   23.31
  -6   1   7 3120.81   31.90
  -6  -1   5   11.40    2.41
   6   1  -5    3.16    2.21
  -6   1   5    4.15    2.25
   6  -1  -5    3.89    1.78
  -6  -1   5    8.00    3.56
  -6   1   5    7.18    4.16
   6  -1  -3  151.84    7.89
  -6  -1   3  174.23    8.77
  -6   1   3  163.02    9.74
  -6  -1   3  142.18    6.22
  -6   1   3  152.31    6.88
   6   1  -3  148.95    7.76
   6  -1  -1 2879.54   38.25
  -6   1   1 2800.59   34.52
  -6  -1   1 2899.33   31.40
  -6  -1   1 2927.00   28.39
  -6   1   1 2865.61   29.14
   6   1  -1 2924.63   37.01
  -6  -1  -1    6.31    2.32
  -6   1  -1    1.88    2.08
   6  -1   1    6.56    3.88
   6   1   1    7.48    3.80
  -6  -1  -1    8.38    2.53
  -6   1  -1    8.54    2.72
  -6  -1  -3    4.24    2.08
  -6   1  -3    2.43    2.29
   6  -1   3   13.94    5.02
  -6  -1  -3    5.80    2.17
   6   1   3   11.81    4.02
   6  -1   5 1654.85   35.31
  -6   1  -5 1548.44   26.10
   6   1   5 1626.76   35.70
   6   1   7   53.12    8.14
   6  -1   7   55.63    8.16
  -6   1  -7   54.04    5.89
   6   1   9   58.45    8.53
   6  -1   9   61.14    8.69
  -6   1  -9   51.78    6.50
  -6  -2  12  104.44   11.49
  -6   2  12  101.28    8.24
  -6  -2  10 2222.05   42.98
  -6   2  10 2147.31   31.75
  -6  -2  10 2144.08   25.84
  -6  -2   8  719.82   21.82
  -6  -2   8  681.62   13.30
  -6   2   8  707.88   16.72
  -6  -2   6  711.62   19.63
   6   2  -6  698.45   13.82
  -6  -2   6  711.06   13.15
  -6   2   6  703.91   15.54
  -6  -2   4  832.51   19.17
  -6   2   4  871.22   23.97
   6   2  -4  894.13   17.41
   6  -2  -4  816.33   13.75
  -6  -2   4  804.31   14.04
  -6   2   4  829.23   16.39
  -6  -2   2  515.04   14.08
   6  -2  -2  506.47   14.02
  -6   2   2  470.89   15.75
  -6  -2   2  494.72   11.40
   6   2  -2  476.96   13.72
  -6   2   2  506.91   12.82
   6   2   0    2.44    3.03
  -6  -2   0    7.81    2.34
  -6   2   0   12.32    2.96
   6  -2   0   10.45    4.12
  -6  -2   0    4.29    2.57
  -6   2   0   11.13    3.02
   6  -2   2 2720.30   42.39
  -6   2  -2 2584.99   29.77
   6   2   2 2656.07   38.82
  -6  -2  -2 2673.30   27.75
  -6  -2  -4  676.12   13.37
  -6   2  -4  626.09   15.72
   6   2   4  641.99   21.06
   6  -2   6   81.53    8.98
  -6   2  -6   93.54    6.95
   6   2   6   82.50    9.14
   6   2   8 2666.43   49.33
  -6   2  -8 2616.33   37.43
  -6  -3  11   77.71    9.36
  -6   3  11   58.65    6.33
  -6   3   9   13.08    3.65
  -6  -3   9   15.63    4.47
  -6  -3   7  763.67   21.20
   6   3  -7  720.76   14.07
  -6   3   7  750.06   24.90
  -6   3   7  772.12   17.83
  -6  -3   5   26.73    4.38
   6   3  -5   28.33    3.76
  -6   3   5   26.24    2.04
  -6   3   5   18.74    5.01
  -6  -3   5   28.93    2.94
  -6   3   5   26.80    3.63
  -6  -3   3   -0.34    1.68
  -6   3   3   -0.39    2.25
  -6  -3   3   -0.62    2.61
  -6   3   3    3.67    4.09
  -6   3   3    1.60    1.65
   6   3  -3    0.22    2.54
  -6  -3   1 2676.77   31.92
   6   3  -1 2587.37   33.19
   6  -3  -1 2662.52   33.94
  -6  -3   1 2614.93   26.82
  -6   3   1 2566.22   29.45
  -6  -3  -1  273.11    9.98
   6  -3   1  313.02   14.08
   6   3   1  301.60   12.28
  -6   3  -1  286.38   10.11
  -6  -3  -3  112.09    6.35
   6  -3   3  124.52   10.13
  -6   3  -3  114.91    6.90
   6   3   3  116.17    8.72
  -6  -3  -5 2220.95   27.01
  -6   3  -5 2141.94   30.39
   6   3   5 2126.80   38.88
   6  -3   7  198.40   14.20
  -6   3  -7  161.86    9.25
   6   3   7  191.40   13.41
  -6  -4  10   66.82    7.72
  -6   4  10   75.99    7.48
   6   4  -8  316.08   10.40
  -6  -4   8  323.96   14.48
  -6   4   8  308.71   12.44
   6   4  -6  267.88    9.98
  -6  -4   6  255.22   11.85
  -6  -4   6  248.94    7.30
  -6   4   6  249.12   10.51
   6   4  -4 2119.77   27.84
  -6   4   4 2137.11   19.75
  -6  -4   4 2144.91   22.03
  -6  -4   2    5.19    2.13
  -6   4   2   10.44    3.00
  -6  -4   2    5.36    3.13
  -6   4   2    9.07    2.09
   6   4  -2   11.50    3.84
  -6  -4   0   69.94    5.49
  -6   4   0   59.81    5.35
   6   4   0   60.90    6.10
  -6   4   0   56.01    4.92
   6   4   2 1236.46   25.93
  -6   4  -2 1252.13   21.80
  -6  -4  -2 1294.85   22.34
   6   4   4    7.56    4.26
  -6   4  -4    1.87    2.69
   6  -4   4    2.34    4.10
  -6   4  -6  290.97   14.71
  -6   4  -6  281.46   11.67
   6   4   6  289.52   15.33
  -6   4  -8   43.16    7.26
  -6   4  -8   54.41    6.24
   6   4   8   59.03    9.66
  -6  -5  11   80.83    9.05
  -6   5  11   78.74    8.24
  -6  -5   9  110.25    9.27
  -6   5   9   96.41    7.91
  -6  -5   7  354.56   14.58
  -6   5   7  412.75   14.51
   6   5  -5  234.81   10.04
  -6  -5   5  248.50   11.52
  -6  -5   5  233.74    7.01
  -6   5   5  231.81    6.36
  -6   5   5  234.13   10.36
  -6  -5   3    0.62    1.51
  -6   5   3    7.71    3.07
  -6  -5   3    3.65    3.11
   6   5  -3   -0.91    2.93
  -6   5   3    1.42    1.62
  -6  -5   1  332.19   12.04
   6   5  -1  366.20   13.34
  -6   5   1  345.88   11.15
  -6  -5   1  352.87   10.21
  -6   5   1  330.47   11.43
  -6   5  -1   18.77    3.77
  -6  -5  -1   11.54    3.00
  -6   5  -1   17.16    3.60
   6   5   1   19.88    4.30
  -6   5  -3   47.68    5.83
   6   5   3   54.11    6.66
  -6   5  -3   53.59    5.23
  -6   5  -5  142.45   10.45
  -6   5  -5  124.13    8.02
   6   5   5  122.14    9.82
  -6   5  -7    3.69    3.40
   6   5   7    9.45    5.44
  -6   5  -7    6.97    5.00
  -6  -6  10  818.82   25.65
  -6   6  10  863.61   24.76
   6   6  -8   58.20    6.27
  -6  -6   8   56.10    6.86
  -6   6   8   51.88    6.30
   6   6  -6  825.29   20.03
  -6  -6   6  867.43   22.61
  -6   6   6  798.34   20.45
   6   6  -4   72.06    6.39
  -6  -6   4   74.93    6.74
  -6  -6   4   70.00    4.14
  -6   6   4   82.69    4.76
  -6   6   4   80.27    6.58
  -6  -6   2  364.80   13.40
   6   6  -2  346.42   13.12
  -6   6   2  364.80   11.18
  -6  -6   2  328.71    9.47
  -6   6   2  359.79   12.65
  -6  -6   0   43.94    5.40
   6   6   0   43.89    5.60
  -6   6   0   37.66    4.45
  -6   6   0   48.06    5.14
  -6   6  -2   31.76    4.86
  -6   6  -2   29.23    4.65
   6   6   2   28.54    5.07
  -6   6  -4   74.04    7.75
   6   6   4   73.73    7.79
  -6   6  -4   83.79    6.80
  -6   6  -6  306.21   15.74
  -6   6  -6  285.34   12.44
   6   6   6  335.58   16.88
  -6   7   9    5.55    4.42
  -6  -7   9   -1.35    4.01
  -6   7   7    8.33    3.58
   6   7  -7    5.10    3.59
  -6  -7   7    4.73    3.60
  -6   7   5   11.89    3.93
  -6  -7   5   14.17    4.48
   6   7  -5    8.36    3.79
   6   7  -3   32.20    5.16
  -6  -7   3   34.26    5.11
  -6  -7   3   32.39    3.18
  -6   7   3   35.98    3.97
  -6   7   3   29.93    4.70
  -6   7   1    4.95    3.31
  -6  -7   1   10.56    3.65
   6   7  -1   11.85    3.97
  -6   7   1    4.00    2.53
  -6   7  -1   10.61    3.49
   6   7   1   12.20    4.24
  -6   7  -1   14.77    3.73
  -6   7  -3   34.62    5.74
   6   7   3   42.76    6.47
  -6   7  -3   32.53    4.96
  -6   7  -5   25.43    4.70
  -6   7  -5   24.30    5.71
   6   7   5   24.53    5.79
   6   8  -8  333.22   15.22
  -6  -8   8  296.80   15.32
  -6   8   8  333.38   16.33
   6   8  -6  430.07   16.48
  -6  -8   6  439.42   17.58
  -6   8   6  413.38   16.72
   6   8  -4   55.89    6.73
  -6  -8   4   60.42    6.76
  -6   8   4   51.52    4.67
  -6   8   4   61.55    6.72
  -6  -8   2   79.65    7.28
   6   8  -2   54.54    6.51
  -6  -8   2   61.99    4.56
  -6   8   2   75.16    5.93
  -6   8   2   60.74    6.38
  -6  -8   0  212.99   11.39
   6   8   0  242.07   12.46
  -6   8   0  224.71   10.84
  -6   8   0  223.81   11.17
  -6   8  -2    2.07    3.44
   6   8   2    4.26    3.89
  -6   8  -2    3.82    3.16
  -6   8  -4   -0.56    3.53
  -6   8  -4   -0.26    3.74
   6   8   4   -6.35    4.92
  -6   9   5   13.15    4.74
  -6  -9   5   15.55    4.84
   6   9  -5    9.72    4.57
   6   9  -3   95.74    8.61
  -6  -9   3  102.48    8.58
  -6   9   3   86.96    6.52
  -6   9   3   94.00    8.24
  -6  -9   1  305.52   14.16
   6   9  -1  301.17   14.57
  -6   9   1  320.43   12.87
   6   9   1   58.40    7.45
  -6   9  -1   57.78    6.56
  -6   9  -1   58.88    6.71
   6   9   3  124.94   10.51
  -6   9  -3  153.80   11.24
  -6   9  -3  139.49    9.67
  -6 -10   2   61.59    7.40
   6  10  -2   68.03    7.95
  -6  10   2   71.70    6.82
  -6  10   2   86.84    8.79
  -7   0  11    0.08    2.86
  -7   0  11    6.27    6.35
  -7   0   9    0.44    2.43
  -7   0   9    6.11    5.63
  -7   0   7    2.65    2.55
  -7   0   7    8.47    4.55
   7   0  -5    9.49    3.04
  -7   0   5    6.58    2.68
  -7   0   5    2.74    4.20
  -7   0   3    1.25    2.26
  -7   0   3   -3.54    3.12
   7   0  -3    0.72    3.19
  -7   0   1   -3.87    2.61
  -7   0   1    1.55    2.56
   7   0  -1   -4.67    4.02
  -7   0  -1    1.01    2.17
  -7   0  -1   -2.26    2.41
   7   0   1    3.02    3.85
   7   0   3    5.20    4.81
  -7   0  -3    3.80    2.68
  -7   0  -5    7.91    3.38
   7   0   5    8.05    5.47
  -7   0  -7   -3.50    3.62
   7   0   7   -0.52    5.12
  -7  -1  10  325.32   18.33
  -7  -1  10  301.27   10.99
  -7   1  10  300.06   12.11
  -7  -1   8   -0.91    1.94
  -7   1   8   -0.19    2.40
  -7  -1   8    0.49    4.25
  -7   1   8    3.68    4.61
  -7  -1   6   50.27    6.53
  -7   1   6   46.73    7.70
  -7  -1   6   49.20    4.41
  -7   1   6   45.21    4.60
   7   1  -6   43.09    4.49
   7  -1  -4  885.63   17.87
  -7  -1   4  905.39   22.53
  -7   1   4  896.81   25.11
  -7  -1   4  901.55   17.23
  -7   1   4  891.34   17.90
   7   1  -4  825.71   19.20
  -7  -1   2   11.84    2.75
  -7   1   2   11.93    2.94
  -7  -1   2   27.25    4.34
   7   1  -2   22.75    4.60
   7  -1  -2   12.81    4.02
  -7   1   2   12.13    4.07
   7  -1   0  899.62   24.42
  -7  -1   0  920.70   18.80
  -7   1   0  904.61   19.57
  -7  -1   0  883.25   17.76
  -7   1   0  896.89   18.56
   7   1   0  952.46   24.86
  -7  -1  -2    6.95    2.80
  -7   1  -2   12.39    3.55
  -7  -1  -2   14.35    2.96
   7  -1   2   14.76    5.16
   7   1   2   13.02    4.44
   7  -1   4  554.29   21.69
  -7  -1  -4  566.67   17.14
  -7   1  -4  507.80   15.84
   7   1   4  548.96   21.98
   7   1   6  184.11   14.10
   7  -1   6  197.85   14.38
  -7  -1  -6  198.83   11.41
  -7   1  -6  191.42   10.73
  -7   2  11   10.32    4.06
  -7  -2  11    8.77    5.74
  -7   2  11    8.27    5.66
  -7  -2   9   69.35    8.71
  -7   2   9   59.49    9.38
  -7  -2   9   48.70    4.52
  -7   2   9   49.71    5.41
  -7  -2   7  346.63   15.54
  -7   2   7  374.46   18.99
  -7  -2   7  365.76   10.52
  -7   2   7  371.40   12.41
  -7  -2   5  195.71   10.93
  -7   2   5  169.47    5.67
  -7   2   5  204.23   13.23
   7   2  -5  164.98    8.39
  -7  -2   5  190.53    7.80
  -7   2   5  175.89    8.44
  -7  -2   3  120.22    8.11
   7  -2  -3  125.15    7.43
  -7   2   3  118.47    9.32
  -7  -2   3  131.21    6.67
   7   2  -3  117.92    7.94
  -7   2   3  101.75    6.56
  -7  -2   1  671.40   17.16
   7  -2  -1  648.62   18.89
  -7   2   1  684.76   18.95
  -7  -2   1  643.42   14.75
  -7   2   1  678.74   16.07
   7   2  -1  689.88   19.53
   7  -2   1  293.60   14.73
  -7  -2  -1  274.94   10.49
  -7   2  -1  271.08    8.32
  -7  -2  -1  284.27   10.66
  -7   2  -1  291.57   11.07
   7   2   1  306.66   14.27
  -7  -2  -3   -0.99    2.57
  -7   2  -3    1.45    2.46
   7  -2   3   10.14    5.10
  -7  -2  -3    0.21    2.40
   7   2   3    4.94    4.34
   7  -2   5  413.29   19.23
  -7   2  -5  416.24   14.64
   7   2   5  418.43   19.92
  -7   2  -7    7.40    4.02
   7  -2   7    1.73    5.21
   7   2   7    2.63    6.30
  -7  -3  10  105.29   10.49
  -7   3  10  113.05    8.50
  -7  -3   8  115.39    9.66
  -7   3   8  123.37   11.75
  -7  -3   8  108.65    5.69
  -7   3   8   95.12    7.26
  -7  -3   6    9.75    2.40
  -7   3   6    6.12    2.96
  -7  -3   6   15.49    4.41
  -7   3   6    8.89    5.06
   7   3  -6    8.34    3.07
  -7  -3   4  289.35   12.51
  -7   3   4  282.53    8.37
  -7   3   4  270.60   13.90
   7   3  -4  282.99   11.53
  -7  -3   4  278.94    9.23
  -7   3   4  275.50   10.78
  -7  -3   2  536.28   15.92
  -7  -3   2  556.08   13.31
   7   3  -2  563.03   16.84
   7  -3  -2  556.75   16.03
  -7  -3   0  944.48   20.92
   7  -3   0  920.72   24.16
  -7  -3   0  877.81   17.87
   7   3   0  900.17   22.81
  -7   3   0  883.17   19.06
   7  -3   2 2616.59   44.85
  -7  -3  -2 2637.32   34.47
  -7   3  -2 2632.09   33.75
   7   3   2 2612.81   41.87
   7  -3   4  313.69   17.37
  -7   3  -4  293.74   12.08
   7   3   4  300.85   15.88
   7  -3   6  172.19   13.75
  -7   3  -6  175.47   10.25
   7   3   6  177.50   13.69
  -7   4  11   23.08    5.36
  -7  -4  11   20.96    6.43
  -7   4   9   23.59    4.79
  -7  -4   9   10.31    4.68
  -7  -4   7  681.22   21.38
   7   4  -7  686.23   17.30
  -7  -4   7  654.74   12.95
  -7   4   7  664.06   18.20
  -7  -4   5    2.19    2.02
  -7   4   5    6.17    2.95
  -7  -4   5    1.39    3.19
   7   4  -5    3.69    3.03
  -7  -4   3  183.04   10.04
  -7   4   3  195.61    7.69
   7   4  -3  209.89   10.59
  -7  -4   3  174.65    7.25
  -7   4   3  212.61    9.97
  -7  -4   1  572.71   16.84
  -7   4   1  525.26   15.01
   7   4  -1  591.79   18.36
  -7  -4   1  539.28   13.54
  -7   4   1  515.70   15.09
   7   4   1   16.45    4.36
  -7  -4  -1   13.29    3.18
  -7   4  -1    9.71    3.31
  -7  -4  -1   12.29    3.44
  -7   4  -1   12.14    3.59
  -7  -4  -3  141.46    8.32
   7  -4   3  120.56   10.55
   7   4   3  130.83   10.23
  -7   4  -5  668.44   18.95
   7   4   5  691.30   24.48
  -7  -5  10 1519.72   36.41
  -7   5  10 1555.31   32.27
  -7   5   8    5.07    3.27
  -7  -5   8    2.04    3.72
  -7  -5   6  141.02    9.98
   7   5  -6  127.78    8.07
  -7  -5   6  125.10    5.88
  -7   5   6  133.69    8.67
  -7  -5   4 1757.59   31.49
   7   5  -4 1866.04   31.19
  -7   5   4 1850.05   21.95
  -7  -5   4 1841.75   22.59
  -7   5   4 1845.02   29.56
  -7  -5   2  167.05    9.85
  -7   5   2  158.69    7.75
   7   5  -2  155.88    9.65
  -7  -5   2  150.29    7.12
  -7   5   2  170.99    9.17
  -7  -5   0   70.65    6.61
  -7   5   0   76.32    6.51
   7   5   0   63.50    7.00
  -7  -5   0   78.73    5.89
  -7   5   0   78.11    6.42
  -7  -5  -2   64.43    6.37
  -7   5  -2   55.22    6.43
   7   5   2   51.13    6.87
  -7   5  -2   70.22    6.32
  -7  -5  -4 1061.49   23.56
  -7   5  -4 1010.81   27.49
  -7   5  -4  993.27   22.79
   7   5   4 1056.55   28.64
  -7   5  -6  486.30   17.14
   7   5   6  517.80   22.24
  -7  -6   9   61.14    7.92
  -7   6   9   42.96    6.79
   7   6  -7 1712.32   30.14
  -7  -6   7 1787.53   35.56
  -7   6   7 1717.28   32.27
  -7  -6   5  171.04   10.84
   7   6  -5  195.49   10.60
  -7   6   5  199.78   10.77
  -7  -6   3   63.98    6.73
   7   6  -3   63.43    6.83
  -7   6   3   57.25    4.84
  -7  -6   3   59.79    4.56
  -7   6   3   60.18    6.19
  -7  -6   1 2282.47   35.70
   7   6  -1 2234.38   36.48
  -7   6   1 2279.32   31.55
  -7  -6   1 2263.15   28.44
  -7   6   1 2311.11   33.63
  -7  -6  -1  215.66   11.37
  -7   6  -1  201.21   10.83
   7   6   1  213.10   12.51
  -7   6  -1  185.26   10.01
  -7   6  -3   26.03    4.81
  -7  -6  -3   18.43    4.49
  -7   6  -3   24.90    5.42
   7   6   3   14.18    5.17
  -7   6  -5  866.99   26.60
  -7   6  -5  842.77   22.25
   7   6   5  809.93   26.57
  -7  -7   8  218.46   13.47
  -7   7   8  212.73   12.87
  -7   7   6    0.24    3.60
  -7  -7   6    4.02    3.69
   7   7  -6   11.74    4.40
  -7  -7   4 1607.39   32.42
   7   7  -4 1633.32   31.47
  -7   7   4 1693.53   31.06
  -7  -7   2 1242.78   27.51
   7   7  -2 1309.18   29.20
  -7  -7   2 1247.69   20.02
  -7   7   2 1243.67   22.63
  -7   7   2 1283.47   26.28
  -7  -7   0  230.02   12.22
   7   7   0  236.32   12.99
  -7   7   0  247.37   11.58
  -7   7   0  248.16   11.72
  -7  -7  -2 3099.15   43.91
  -7   7  -2 3188.90   45.46
   7   7   2 3174.54   48.89
  -7   7  -2 3031.66   40.45
   7   7   4   38.62    7.14
  -7   7  -4   38.44    5.77
  -7   7  -4   41.32    7.04
  -7  -8   5  171.83   11.78
   7   8  -5  166.67   11.34
  -7   8   5  169.72   11.26
  -7   8   3    8.86    4.37
  -7  -8   3    7.62    4.71
   7   8  -3    6.49    4.74
  -7   8   3    5.74    2.85
  -7  -8   1 1489.28   30.92
  -7  -8   1 1507.58   23.73
  -7   8   1 1522.76   27.15
  -7   8   1 1572.91   30.14
  -7  -8  -1  257.03   13.73
   7   8   1  278.42   14.89
  -7   8  -1  295.45   13.86
  -7   8  -1  288.25   13.44
  -7   9   2   11.56    4.71
  -7  -9   2    9.00    4.82
   7   9  -2    6.58    4.42
  -7   9   2    8.58    3.61
  -8   0  10  932.14   32.99
  -8   0  10  895.25   20.50
  -8   0   8    8.65    3.06
  -8   0   8   10.00    6.22
  -8   0   6    0.28    2.42
  -8   0   6   -3.85    4.64
   8   0  -4  210.37   10.91
  -8   0   4  208.05   12.96
  -8   0   4  215.79    9.68
   8   0  -2 1688.79   34.00
  -8   0   2 1636.29   31.54
  -8   0   2 1631.59   25.96
  -8   0   0  237.97   11.02
  -8   0   0  243.98   10.59
   8   0   2 1911.03   41.22
  -8   0  -2 1687.93   28.94
   8   0   4 1059.31   31.81
  -8   0  -4 1018.25   24.43
  -8   0  -6   16.57    5.10
   8   0   6   10.62    6.48
  -8  -1   9   98.84   11.01
  -8   1   9  108.86   12.22
  -8  -1   9  116.49    7.34
  -8   1   9  100.99    7.56
  -8  -1   7  878.85   27.75
  -8   1   7  882.36   30.05
  -8  -1   7  841.23   18.00
  -8   1   7  824.53   19.06
  -8  -1   5  462.57   18.51
  -8   1   5  427.55   19.69
  -8  -1   5  425.10   12.97
  -8   1   5  424.54   13.46
   8   1  -5  455.38   15.68
   8  -1  -3   67.39    6.67
  -8  -1   3   90.08    8.17
  -8   1   3   79.63    8.92
  -8  -1   3   72.50    5.75
  -8   1   3   75.31    6.08
   8   1  -3   84.66    8.17
   8  -1  -1 1108.55   27.50
  -8  -1   1 1158.96   24.73
  -8   1   1 1113.21   25.95
  -8  -1   1 1132.91   21.77
  -8   1   1 1112.41   22.20
   8   1  -1 1183.80   29.70
   8  -1   1  925.45   27.32
  -8  -1  -1  828.38   19.10
  -8  -1  -1  869.24   20.05
  -8   1  -1  894.73   20.76
   8   1   1  895.65   27.70
  -8  -1  -3   31.81    4.82
  -8   1  -3   29.71    5.16
   8   1   3   27.85    6.74
   8  -1   3   25.19    6.65
   8   1   5  818.63   28.91
   8  -1   5  838.55   29.25
  -8   1  -5  782.32   21.85
  -8  -2  10  598.71   25.26
  -8   2  10  566.05   25.57
  -8   2  10  527.01   17.46
  -8  -2   8 1368.24   34.26
  -8  -2   8 1444.60   22.77
  -8   2   8 1396.78   26.16
  -8  -2   6  533.09   19.99
  -8   2   6  546.06   23.03
  -8  -2   6  561.38   14.37
  -8   2   6  529.34   15.65
  -8  -2   4 3546.95   47.25
  -8   2   4 3661.96   55.27
   8  -2  -4 3370.66   36.46
  -8  -2   4 3555.16   36.36
  -8   2   4 3476.15   39.30
   8   2  -4 3535.67   45.15
  -8  -2   2   14.64    3.27
  -8   2   2   10.29    3.20
   8   2  -2    9.67    4.31
  -8  -2   2    8.76    3.61
  -8   2   2   12.61    4.45
   8  -2  -2   14.95    4.29
  -8  -2   0   64.60    6.33
   8  -2   0   65.31    7.81
  -8  -2   0   49.25    5.11
  -8   2   0   47.93    5.51
   8   2   0   65.94    8.03
   8  -2   2  284.91   15.88
  -8   2  -2  292.84   12.43
   8   2   2  290.59   16.11
   8  -2   4  344.63   18.29
  -8  -2  -4  380.19   15.45
  -8   2  -4  338.81   13.79
   8   2   4  355.05   19.06
  -8   3   9   29.42    5.17
  -8  -3   9   31.89    6.96
  -8  -3   7 1278.93   31.60
  -8   3   7 1310.41   35.30
  -8  -3   7 1299.19   20.92
  -8   3   7 1295.68   25.61
  -8  -3   5  547.52   19.39
  -8   3   5  583.11   21.98
   8   3  -5  571.90   17.56
  -8  -3   5  551.24   14.08
  -8   3   5  558.64   16.47
   8   3  -3   25.17    5.35
  -8  -3   3   21.68    3.67
  -8   3   3   20.99    4.17
  -8  -3   3   17.94    4.17
  -8   3   3   28.07    5.41
  -8   3   3   15.67    3.14
  -8  -3   1  937.36   22.78
   8  -3  -1  960.12   24.99
  -8  -3   1  847.32   18.53
  -8   3   1  879.85   20.56
   8   3  -1  886.15   24.62
  -8  -3  -1  228.06   11.08
   8  -3   1  232.92   14.22
  -8  -3  -1  249.53   11.11
  -8   3  -1  210.76   10.58
   8   3   1  247.61   14.39
   8  -3   3  180.80   13.84
  -8  -3  -3  195.85   11.05
  -8   3  -3  161.81    9.88
   8   3   3  186.10   13.69
   8  -3   5  222.38   16.19
  -8  -3  -5  228.58   13.09
  -8   3  -5  202.42   11.67
   8   3   5  230.46   16.18
  -8   4   8   29.07    5.25
  -8  -4   8   25.54    6.04
  -8  -4   6  508.84   19.38
   8   4  -6  471.51   16.35
  -8  -4   6  478.62   12.76
  -8   4   6  505.23   16.38
  -8  -4   4    0.58    2.27
  -8   4   4    0.19    3.01
  -8  -4   4    7.26    4.26
   8   4  -4    9.30    4.38
  -8  -4   2 1588.64   30.66
  -8   4   2 1634.18   26.28
  -8  -4   2 1541.22   24.15
   8   4  -2 1627.71   32.41
  -8   4   2 1605.42   28.51
  -8  -4   0  623.65   19.16
  -8   4   0  610.23   19.18
  -8  -4   0  606.27   16.34
   8   4   0  582.32   20.65
  -8   4   0  611.16   17.87
  -8  -4  -2  940.35   22.76
  -8   4  -2  890.89   22.01
   8   4   2  954.89   28.07
  -8   4  -4  121.00    9.06
   8   4   4  127.40   11.90
  -8  -5   7  150.13   11.56
  -8   5   7  167.79   10.56
  -8  -5   5    7.73    2.81
  -8   5   5   15.24    4.20
  -8  -5   5    4.24    4.45
   8   5  -5    5.55    4.14
  -8  -5   3   20.50    3.52
  -8   5   3   20.79    4.13
  -8  -5   3   13.09    4.48
  -8   5   3   14.30    3.29
   8   5  -3   24.18    5.42
  -8  -5   1  375.55   15.82
  -8   5   1  387.76   13.89
  -8  -5   1  376.80   12.68
   8   5  -1  383.15   16.68
  -8   5   1  377.91   14.33
  -8  -5  -1  122.87    9.36
  -8   5  -1  127.53    9.55
  -8  -5  -1  124.29    8.37
   8   5   1   97.63    9.62
  -8   5  -1  123.51    8.84
  -8   5  -3   29.58    5.30
   8   5   3   20.19    6.19
  -8  -5  -3   13.36    4.46
  -8   5  -3   22.67    5.68
   8   6  -6  453.64   17.49
  -8   6   6  428.82   16.59
  -8  -6   4  556.07   19.94
   8   6  -4  523.66   19.02
  -8  -6   4  544.80   13.73
  -8   6   4  560.24   18.27
  -8  -6   2  164.50   11.26
   8   6  -2  170.58   11.66
  -8   6   2  164.03    8.63
  -8  -6   2  140.74    7.66
  -8   6   2  142.37    9.52
  -8  -6   0  287.78   14.26
  -8   6   0  242.44   11.87
  -8  -6   0  255.71   10.95
   8   6   0  255.01   14.71
  -8   6   0  252.13   12.30
   8   6   2   31.68    6.84
  -8   6  -2   31.40    5.66
  -8  -6  -2   44.92    6.74
  -8   6  -2   28.72    5.55
  -8   7   5    5.15    4.39
  -8  -7   5   -1.35    3.81
   8   7  -5   -0.71    4.57
  -8   7   3   33.16    5.68
  -8  -7   3   44.78    7.21
  -8  -7   3   35.38    4.42
   8   7  -3   32.75    6.41
  -8  -7   1    2.28    2.81
  -8   7   1    0.12    3.45
  -8  -7   1    2.88    4.10
  -8   7   1    0.76    3.08
   8   7  -1    1.54    4.55
  -8  -7  -1    6.27    3.69
  -8  -7  -1    5.50    4.50
  -8   7  -1   10.94    4.56
   8   7   1   14.11    5.88
  -9   0   9    3.21    3.54
  -9   0   9    7.91    7.30
  -9   0   7    3.30    3.20
  -9   0   7   -1.82    5.73
  -9   0   5    4.15    2.92
  -9   0   5    3.15    5.15
  -9   0   3   -3.15    3.38
   9   0  -3    2.36    4.62
  -9   0   3    4.13    5.03
  -9   0   1    4.23    3.26
   9   0  -1    3.57    4.73
  -9   0   1    3.27    4.18
  -9   0  -1    5.54    3.75
   9   0   1   -1.43    4.97
  -9   0  -3    2.49    3.93
   9   0   3   -1.83    5.59
  -9  -1   8  325.25   19.26
  -9   1   8  309.11   19.59
  -9  -1   8  289.65   11.94
  -9   1   8  287.59   12.54
  -9  -1   6  268.69   16.43
  -9   1   6  292.98   18.42
  -9  -1   6  278.74   11.38
  -9   1   6  268.85   11.80
  -9  -1   4    3.57    2.78
  -9   1   4    4.60    3.36
  -9  -1   4    5.20    5.06
  -9   1   4    4.43    5.55
   9   1  -4    7.10    5.14
   9  -1  -2   12.56    5.09
  -9  -1   2   18.09    4.14
  -9   1   2   14.67    4.12
  -9  -1   2   13.88    4.79
  -9   1   2   21.82    6.01
   9   1  -2   14.70    6.03
   9   1   0  455.98   20.79
   9  -1   0  428.09   19.53
  -9  -1   0  470.95   15.78
  -9   1   0  441.10   15.64
   9   1   2  131.15   12.93
   9  -1   2  132.40   12.40
  -9  -1  -2  101.07    8.29
  -9   1  -2  119.74    9.06
  -9  -2   7   10.28    3.47
  -9   2   7   13.40    4.04
  -9  -2   7   12.84    6.23
  -9   2   7   18.03    7.81
  -9  -2   5  209.05   13.61
  -9   2   5  210.76   14.87
  -9  -2   5  184.46    9.49
  -9   2   5  205.04   10.75
  -9  -2   3  208.27   12.65
  -9   2   3  225.54   13.80
   9  -2  -3  232.12   11.99
  -9  -2   3  231.75   10.49
  -9   2   3  231.07   11.41
   9   2  -3  237.13   14.26
  -9  -2   1    5.77    3.71
  -9   2   1    3.86    3.80
  -9  -2   1   -0.99    3.99
   9   2  -1   11.47    5.89
   9  -2  -1   -1.43    4.45
   9  -2   1  130.38   11.72
  -9  -2  -1  122.28    8.73
  -9   2  -1  128.85    9.21
   9   2   1  149.51   13.42
   9  -2   3  182.14   14.39
  -9  -2  -3  209.31   12.23
  -9   2  -3  189.59   11.57
   9   2   3  170.66   14.65
  -9   3   8    6.92    4.26
  -9  -3   8    9.59    5.67
  -9  -3   6    4.39    3.26
  -9   3   6    6.22    3.48
  -9  -3   6   13.28    5.61
  -9   3   6    9.13    6.03
  -9  -3   4  124.36   10.58
  -9  -3   4  127.31    7.84
  -9   3   4  125.79    8.79
   9   3  -4  137.87   10.91
  -9  -3   2  397.94   16.84
  -9  -3   2  422.83   14.20
   9  -3  -2  373.56   15.76
  -9   3   2  396.83   15.07
   9   3  -2  412.23   18.87
  -9  -3   0   11.47    3.91
  -9   3   0    3.81    3.69
   9   3   0    3.63    5.37
  -9  -3   0    8.22    4.57
   9  -3   0   16.91    6.04
  -9  -3  -2   -0.84    3.67
  -9   3  -2    4.59    3.98
   9   3   2    1.22    5.39
   9  -3   2   -5.52    6.73
  -9  -4   7  408.82   19.51
  -9   4   7  397.59   15.92
  -9  -4   5  871.30   26.68
   9   4  -5  814.21   24.06
  -9  -4   5  818.83   18.69
  -9   4   5  902.93   22.99
   9   4  -3   16.32    5.36
  -9  -4   3   21.31    4.10
  -9   4   3   15.85    4.40
  -9  -4   3   13.64    5.07
  -9  -4   1  665.38   21.92
  -9   4   1  703.43   20.17
  -9  -4   1  685.98   18.39
  -9   4   1  664.77   20.03
   9   4  -1  686.62   24.60
  -9   4  -1 1018.05   27.86
  -9  -4  -1  989.89   23.89
  -9   4  -1 1000.48   24.86
   9   4   1  995.84   30.98
  -9  -5   4  915.42   26.90
   9   5  -4  922.63   26.82
  -9  -5   4  897.71   19.45
  -9   5   4  912.54   23.85
  -9  -5   2 1070.12   28.74
  -9   5   2 1043.01   22.41
  -9  -5   2  964.93   20.61
   9   5  -2 1014.51   29.09
  -9   5   2 1059.62   25.50
  -9  -5   0  127.40   10.40
  -9   5   0  150.73   10.35
  -9  -5   0  130.72    8.74
   9   5   0  168.17   13.03
  -9   5   0  160.03   10.60
 -10   0   4 1623.57   40.68
 -10   0   4 1718.39   31.35
  10   0  -2  312.79   17.11
 -10   0   2  276.55   13.00
 -10  -1   5 1314.03   37.45
 -10   1   5 1301.43   37.66
 -10  -1   5 1312.45   26.62
 -10   1   5 1345.41   27.99
  10   1  -3   60.56    8.93
 -10  -1   3   61.27    9.25
 -10  -1   3   67.38    6.97
 -10   1   3   56.05    6.73
  10   1  -1  280.73   18.18
  10  -1  -1  277.83   16.45
 -10  -1   1  282.46   13.41
 -10   1   1  275.66   13.50
 -10  -2   4   14.45    4.45
 -10   2   4   13.00    4.68
 -10  -2   4   10.20    5.95
 -10   2   4   22.03    7.49
 -10  -2   2 1944.76   39.87
  10  -2  -2 1876.72   38.43
 -10  -2   2 1988.91   33.29
 -10   2   2 2077.73   36.43
  10   2  -2 1853.15   43.47


TITL CdCuSeOCl in I2/a
REM I2/a (#15 in standard setting)
CELL 0.71073   7.826412   9.632125  10.818245  90.0000 102.3517  90.0000
ZERR    3.00   0.000227   0.000276   0.000426   0.0000   0.0033   0.0000
LATT  2
SYMM -x+1/2, y,-z
SFAC C H N O
UNIT 33.00 30.00 3.00 3.00
TREF
HKLF 4
END
_computing_structure_solution     'SHELXT 2014/4 (Sheldrick, 2014)'
;
_shelx_hkl_checksum              99715
_olex2_submission_special_instructions 'No special instructions were received'
_oxdiff_exptl_absorpt_empirical_details
;
Empirical correction (ABSPACK) includes:
- Absorption correction using spherical harmonics
- Frame scaling
- Detector area scaling
;
_oxdiff_exptl_absorpt_empirical_full_max 2.575
_oxdiff_exptl_absorpt_empirical_full_min 0.622
loop_
_space_group_symop_operation_xyz
'x, y, z'
'-x, y, -z+1/2'
'x+1/2, y+1/2, z'
'-x+1/2, y+1/2, -z+1/2'
'-x, -y, -z'
'x, -y, z-1/2'
'-x+1/2, -y+1/2, -z'
'x+1/2, -y+1/2, z-1/2'
loop_
_atom_site_label
_atom_site_type_symbol
_atom_site_fract_x
_atom_site_fract_y
_atom_site_fract_z
_atom_site_U_iso_or_equiv
_atom_site_adp_type
_atom_site_occupancy
_atom_site_site_symmetry_order
_atom_site_calc_flag
_atom_site_refinement_flags_posn
_atom_site_refinement_flags_adp
_atom_site_refinement_flags_occupancy
_atom_site_disorder_assembly
_atom_site_disorder_group
Cd1 Cd 0.0000 -0.03201(3) 0.2500 0.01293(11) Uani 1 2 d S T P . .
Se1 Se -0.33709(3) -0.03944(3) -0.02895(4) 0.00662(10) Uani 1 1 d . . . . .
Cu1 Cu -0.27765(4) 0.25128(4) 0.17565(5) 0.00929(12) Uani 1 1 d . . . . .
Cl1 Cl 0.03050(8) 0.17672(8) 0.05646(11) 0.01353(18) Uani 1 1 d . . . . .
O1 O -0.2723(2) 0.1240(2) -0.0184(3) 0.0123(5) Uani 1 1 d . . . . .
O2 O -0.2056(2) -0.1160(2) 0.1501(3) 0.0110(5) Uani 1 1 d . . . . .
O3 O -0.3439(2) -0.0984(2) -0.2341(3) 0.0134(5) Uani 1 1 d . . . . .
loop_
_atom_site_aniso_label
_atom_site_aniso_U_11
_atom_site_aniso_U_22
_atom_site_aniso_U_33
_atom_site_aniso_U_23
_atom_site_aniso_U_13
_atom_site_aniso_U_12
Cd1 0.0148(2) 0.01456(19) 0.01163(19) 0.000 0.00795(15) 0.000
Se1 0.00870(18) 0.00596(16) 0.00610(17) -0.00036(10) 0.00419(13) -0.00060(10)
Cu1 0.0170(2) 0.0060(2) 0.0083(2) -0.00125(13) 0.00868(18) -0.00138(15)
Cl1 0.0140(4) 0.0154(4) 0.0115(4) -0.0002(3) 0.0062(3) -0.0015(3)
O1 0.0213(14) 0.0086(11) 0.0108(11) -0.0022(8) 0.0107(10) -0.0039(9)
O2 0.0129(12) 0.0102(11) 0.0096(11) 0.0042(8) 0.0051(10) 0.0018(9)
O3 0.0229(14) 0.0103(11) 0.0073(11) -0.0021(9) 0.0074(10) 0.0020(10)
loop_
_atom_type_symbol
_atom_type_description
_atom_type_scat_dispersion_real
_atom_type_scat_dispersion_imag
_atom_type_scat_source
Cd Cd -0.8080 1.2020 'International Tables Vol C Tables 4.2.6.8 and 6.1.1.4'
Cl Cl 0.1480 0.1590 'International Tables Vol C Tables 4.2.6.8 and 6.1.1.4'
Cu Cu 0.3200 1.2650 'International Tables Vol C Tables 4.2.6.8 and 6.1.1.4'
O O 0.0110 0.0060 'International Tables Vol C Tables 4.2.6.8 and 6.1.1.4'
Se Se -0.0930 2.2260 'International Tables Vol C Tables 4.2.6.8 and 6.1.1.4'
loop_
_geom_angle_atom_site_label_1
_geom_angle_atom_site_label_2
_geom_angle_atom_site_label_3
_geom_angle
_geom_angle_site_symmetry_1
_geom_angle_site_symmetry_3
_geom_angle_publ_flag
Cu1 Cd1 Cu1 109.700(15) 4_445 3_545 ?
Cl1 Cd1 Cu1 49.937(19) 5 3_545 ?
Cl1 Cd1 Cu1 49.937(19) 6_556 4_445 ?
Cl1 Cd1 Cu1 92.377(19) . 3_545 ?
Cl1 Cd1 Cu1 92.17(2) 6_556 3_545 ?
Cl1 Cd1 Cu1 146.601(19) . 4_445 ?
Cl1 Cd1 Cu1 146.60(2) 2 3_545 ?
Cl1 Cd1 Cu1 92.377(19) 2 4_445 ?
Cl1 Cd1 Cu1 92.17(2) 5 4_445 ?
Cl1 Cd1 Cl1 157.18(3) 2 5 ?
Cl1 Cd1 Cl1 116.52(4) 5 6_556 ?
Cl1 Cd1 Cl1 83.05(3) 2 6_556 ?
Cl1 Cd1 Cl1 83.05(3) . 5 ?
Cl1 Cd1 Cl1 80.88(4) . 2 ?
Cl1 Cd1 Cl1 157.18(3) . 6_556 ?
O2 Cd1 Cu1 29.10(6) 2 3_545 ?
O2 Cd1 Cu1 29.10(6) . 4_445 ?
O2 Cd1 Cu1 118.45(6) 2 4_445 ?
O2 Cd1 Cu1 118.45(6) . 3_545 ?
O2 Cd1 Cl1 80.31(6) . 5 ?
O2 Cd1 Cl1 118.11(6) . . ?
O2 Cd1 Cl1 93.11(6) . 2 ?
O2 Cd1 Cl1 78.77(6) 2 5 ?
O2 Cd1 Cl1 118.11(6) 2 2 ?
O2 Cd1 Cl1 93.11(6) 2 . ?
O2 Cd1 Cl1 78.77(6) . 6_556 ?
O2 Cd1 Cl1 80.31(6) 2 6_556 ?
O2 Cd1 O2 139.62(11) . 2 ?
Cu1 Se1 Cu1 102.555(9) . 4_445 ?
O1 Se1 Cu1 34.68(7) . . ?
O1 Se1 Cu1 122.05(8) . 4_445 ?
O2 Se1 Cu1 31.96(8) . 4_445 ?
O2 Se1 Cu1 93.53(8) . . ?
O2 Se1 O1 97.63(11) . . ?
O3 Se1 Cu1 133.87(8) . . ?
O3 Se1 Cu1 115.57(8) . 4_445 ?
O3 Se1 O1 100.17(11) . . ?
O3 Se1 O2 105.04(11) . . ?
Se1 Cu1 Cd1 125.876(14) . 3_455 ?
Se1 Cu1 Cd1 63.073(9) 4_455 3_455 ?
Se1 Cu1 Se1 156.215(15) . 4_455 ?
Cu1 Cu1 Cd1 128.024(19) 7_455 3_455 ?
Cu1 Cu1 Se1 68.414(14) 7_455 . ?
Cu1 Cu1 Se1 126.37(2) 7_455 4_455 ?
Cl1 Cu1 Cd1 128.32(2) 2 3_455 ?
Cl1 Cu1 Cd1 46.563(17) 7_455 3_455 ?
Cl1 Cu1 Se1 93.67(2) 2 . ?
Cl1 Cu1 Se1 68.368(19) 2 4_455 ?
Cl1 Cu1 Se1 88.20(2) 7_455 . ?
Cl1 Cu1 Se1 108.02(2) 7_455 4_455 ?
Cl1 Cu1 Cu1 94.59(2) 2 7_455 ?
Cl1 Cu1 Cu1 91.90(2) 7_455 7_455 ?
Cl1 Cu1 Cl1 173.49(4) 7_455 2 ?
O1 Cu1 Cd1 140.03(7) . 3_455 ?
O1 Cu1 Cd1 101.60(7) 7_455 3_455 ?
O1 Cu1 Se1 155.42(7) . 4_455 ?
O1 Cu1 Se1 91.36(6) 7_455 4_455 ?
O1 Cu1 Se1 30.05(7) . . ?
O1 Cu1 Se1 106.46(6) 7_455 . ?
O1 Cu1 Cu1 38.74(7) . 7_455 ?
O1 Cu1 Cu1 38.23(6) 7_455 7_455 ?
O1 Cu1 Cl1 96.03(8) 7_455 2 ?
O1 Cu1 Cl1 93.59(8) . 7_455 ?
O1 Cu1 Cl1 91.13(8) . 2 ?
O1 Cu1 Cl1 89.40(8) 7_455 7_455 ?
O1 Cu1 O1 76.97(10) . 7_455 ?
O2 Cu1 Cd1 35.86(7) 4_455 3_455 ?
O2 Cu1 Se1 150.60(7) 4_455 . ?
O2 Cu1 Se1 27.76(7) 4_455 4_455 ?
O2 Cu1 Cu1 139.24(7) 4_455 7_455 ?
O2 Cu1 Cl1 82.12(7) 4_455 7_455 ?
O2 Cu1 Cl1 93.28(7) 4_455 2 ?
O2 Cu1 O1 175.38(10) 4_455 . ?
O2 Cu1 O1 101.16(10) 4_455 7_455 ?
O2 Cu1 O3 92.99(10) 4_455 6_556 ?
O3 Cu1 Cd1 85.89(8) 6_556 3_455 ?
O3 Cu1 Se1 104.33(7) 6_556 4_455 ?
O3 Cu1 Se1 58.51(7) 6_556 . ?
O3 Cu1 Cu1 126.92(7) 6_556 7_455 ?
O3 Cu1 Cl1 85.82(8) 6_556 7_455 ?
O3 Cu1 Cl1 89.84(8) 6_556 2 ?
O3 Cu1 O1 164.31(9) 6_556 7_455 ?
O3 Cu1 O1 88.41(9) 6_556 . ?
Cd1 Cl1 Cd1 96.95(3) . 5 ?
Cd1 Cl1 Cu1 117.91(3) 5 2 ?
Cd1 Cl1 Cu1 98.14(3) . 2 ?
Cd1 Cl1 Cu1 99.71(3) . 7_455 ?
Cd1 Cl1 Cu1 83.50(2) 5 7_455 ?
Cu1 Cl1 Cu1 150.05(3) 7_455 2 ?
Se1 O1 Cu1 115.27(12) . . ?
Se1 O1 Cu1 140.14(13) . 7_455 ?
Cu1 O1 Cu1 103.03(10) . 7_455 ?
Se1 O2 Cd1 122.98(12) . . ?
Se1 O2 Cu1 120.28(13) . 4_445 ?
Cu1 O2 Cd1 115.04(11) 4_445 . ?
Se1 O3 Cu1 139.20(14) . 6 ?
loop_
_geom_bond_atom_site_label_1
_geom_bond_atom_site_label_2
_geom_bond_distance
_geom_bond_site_symmetry_2
_geom_bond_publ_flag
Cd1 Cu1 3.6257(5) 4_445 ?
Cd1 Cu1 3.6257(4) 3_545 ?
Cd1 Cl1 2.6497(8) 6_556 ?
Cd1 Cl1 2.6416(8) 2 ?
Cd1 Cl1 2.6415(8) . ?
Cd1 Cl1 2.6497(8) 5 ?
Cd1 O2 2.344(2) 2 ?
Cd1 O2 2.344(2) . ?
Se1 Cu1 3.1398(5) . ?
Se1 Cu1 3.1751(5) 4_445 ?
Se1 O1 1.739(2) . ?
Se1 O2 1.713(2) . ?
Se1 O3 1.669(2) . ?
Cu1 Cd1 3.6257(5) 3_455 ?
Cu1 Se1 3.1751(5) 4_455 ?
Cu1 Cu1 3.1098(7) 7_455 ?
Cu1 Cl1 2.8065(9) 2 ?
Cu1 Cl1 2.7928(9) 7_455 ?
Cu1 O1 1.975(2) . ?
Cu1 O1 1.997(2) 7_455 ?
Cu1 O2 1.946(2) 4_455 ?
Cu1 O3 1.951(2) 6_556 ?
Cl1 Cd1 2.6498(8) 5 ?
Cl1 Cu1 2.7928(9) 7_455 ?
Cl1 Cu1 2.8065(9) 2 ?
O1 Cu1 1.997(2) 7_455 ?
O2 Cu1 1.946(2) 4_445 ?
O3 Cu1 1.951(2) 6 ?
