#------------------------------------------------------------------------------
#$Date: 2021-11-06 20:52:35 +0200 (Sat, 06 Nov 2021) $
#$Revision: 270376 $
#$URL: file:///home/coder/svn-repositories/cod/cif/7/12/89/7128956.cif $
#------------------------------------------------------------------------------
#
# This file is available in the Crystallography Open Database (COD),
# http://www.crystallography.net/
#
# All data on this site have been placed in the public domain by the
# contributors.
#
data_7128956
loop_
_publ_author_name
'Wu, Pingfan'
'Li, Jincheng'
'Xiao, Zicheng'
'Zhao, Yanchao'
'Wang, Yu'
'Xiao, Bowen'
'Huang, Bo'
_publ_section_title
;
 Ir-based electrocatalysts promoted by TME-substituted
 polyoxovanadate-derived vanadium carbide for efficient hydrogen evolution
 and oxygen evolution.
;
_journal_issue                   80
_journal_name_full
'Chemical communications (Cambridge, England)'
_journal_page_first              10395
_journal_page_last               10398
_journal_paper_doi               10.1039/d1cc03559b
_journal_volume                  57
_journal_year                    2021
_chemical_formula_moiety         'C10 H18 Na2 O25 V6, 2(H2 O)'
_chemical_formula_sum            'C10 H22 Na2 O27 V6'
_chemical_formula_weight         925.89
_space_group_crystal_system      triclinic
_space_group_IT_number           2
_space_group_name_Hall           '-P 1'
_space_group_name_H-M_alt        'P -1'
_atom_sites_solution_hydrogens   mixed
_atom_sites_solution_primary     iterative
_audit_creation_date             2021-05-18
_audit_creation_method
;
Olex2 1.2
(compiled 2018.05.29 svn.r3508 for OlexSys, GUI svn.r5506)
;
_audit_update_record
;
2021-06-29 deposited with the CCDC.	2021-09-13 downloaded from the CCDC.
;
_cell_angle_alpha                105.368(5)
_cell_angle_beta                 101.641(6)
_cell_angle_gamma                94.300(6)
_cell_formula_units_Z            1
_cell_length_a                   8.4801(13)
_cell_length_b                   8.4744(13)
_cell_length_c                   10.9285(17)
_cell_measurement_reflns_used    7283
_cell_measurement_temperature    193(2)
_cell_measurement_theta_max      60.683
_cell_measurement_theta_min      6.202
_cell_volume                     734.8(2)
_computing_cell_refinement       'SAINT V8.40A (Bruker, 2016)'
_computing_data_collection       'SAINT V8.40A (Bruker, 2016)'
_computing_data_reduction        'SAINT V8.40A (Bruker, 2016)'
_computing_molecular_graphics    'Olex2 (Dolomanov et al., 2009)'
_computing_publication_material  'Olex2 (Dolomanov et al., 2009)'
_computing_structure_refinement  'XL (Sheldrick, 2008)'
_computing_structure_solution    'olex2.solve (Bourhis et al., 2015)'
_diffrn_ambient_temperature      193.0
_diffrn_measured_fraction_theta_full 0.995
_diffrn_measured_fraction_theta_max 0.981
_diffrn_measurement_device_type  'Bruker smart apex 2'
_diffrn_measurement_method       '\w scans'
_diffrn_radiation_type           GaK\a
_diffrn_radiation_wavelength     1.34138
_diffrn_reflns_av_R_equivalents  0.0609
_diffrn_reflns_av_unetI/netI     0.0557
_diffrn_reflns_Laue_measured_fraction_full 0.995
_diffrn_reflns_Laue_measured_fraction_max 0.981
_diffrn_reflns_limit_h_max       10
_diffrn_reflns_limit_h_min       -10
_diffrn_reflns_limit_k_max       11
_diffrn_reflns_limit_k_min       -10
_diffrn_reflns_limit_l_max       14
_diffrn_reflns_limit_l_min       -14
_diffrn_reflns_number            10169
_diffrn_reflns_point_group_measured_fraction_full 0.995
_diffrn_reflns_point_group_measured_fraction_max 0.981
_diffrn_reflns_theta_full        53.594
_diffrn_reflns_theta_max         60.813
_diffrn_reflns_theta_min         6.202
_exptl_absorpt_coefficient_mu    11.062
_exptl_absorpt_correction_T_max  0.7519
_exptl_absorpt_correction_T_min  0.5261
_exptl_absorpt_correction_type   multi-scan
_exptl_absorpt_process_details
;
SADABS-2016/2 (Bruker,2016/2) was used for absorption correction.
wR2(int) was 0.1630 before and 0.0850 after correction.
The Ratio of minimum to maximum transmission is 0.6997.
The \l/2 correction factor is Not present.
;
_exptl_crystal_colour            orange
_exptl_crystal_density_diffrn    2.092
_exptl_crystal_description       block
_exptl_crystal_F_000             458
_exptl_crystal_size_max          0.25
_exptl_crystal_size_mid          0.20
_exptl_crystal_size_min          0.12
_refine_diff_density_max         1.596
_refine_diff_density_min         -0.867
_refine_diff_density_rms         0.133
_refine_ls_extinction_method     none
_refine_ls_goodness_of_fit_ref   1.122
_refine_ls_hydrogen_treatment    constr
_refine_ls_matrix_type           full
_refine_ls_number_parameters     209
_refine_ls_number_reflns         3314
_refine_ls_number_restraints     0
_refine_ls_restrained_S_all      1.122
_refine_ls_R_factor_all          0.0537
_refine_ls_R_factor_gt           0.0502
_refine_ls_shift/su_max          0.001
_refine_ls_shift/su_mean         0.000
_refine_ls_structure_factor_coef Fsqd
_refine_ls_weighting_details
'w=1/[\s^2^(Fo^2^)+(0.0832P)^2^+0.8228P] where P=(Fo^2^+2Fc^2^)/3'
_refine_ls_weighting_scheme      calc
_refine_ls_wR_factor_gt          0.1449
_refine_ls_wR_factor_ref         0.1486
_reflns_Friedel_coverage         0.000
_reflns_number_gt                2973
_reflns_number_total             3314
_reflns_threshold_expression     'I > 2\s(I)'
_cod_data_source_file            d1cc03559b2.cif
_cod_data_source_block           20210512chen_czpz0108_0m
_cod_depositor_comments          'Adding full bibliography for 7128956.cif.'
_cod_database_code               7128956
_shelx_shelxl_version_number     2014/7
_shelx_space_group_comment
;
The symmetry employed for this shelxl refinement is uniquely defined
by the following loop, which should always be used as a source of
symmetry information in preference to the above space-group names.
They are only intended as comments.
;
_olex2_refinement_description
;
1. Fixed Uiso
 At 1.2 times of:
  All C(H,H) groups
 At 1.5 times of:
  All C(H,H,H) groups, All O(H,H) groups
2.a Free rotating group:
 O1(H1A,H1B)
2.b Secondary CH2 refined with riding coordinates:
 C16(H16A,H16B), C19(H19A,H19B), C26(H26A,H26B)
2.c Idealised Me refined as rotating group:
 C5(H5A,H5B,H5C)
;
_shelx_res_file
;
    20210512chen_czpz0108_0m.res created by SHELXL-2014/7

TITL
CELL 1.34138 8.4801 8.4744 10.9285 105.3678 101.6406 94.3001
ZERR 1 0.0013 0.0013 0.0017 0.0052 0.0057 0.0055
LATT 1
SFAC C H Na O V
DISP C 0.0148 0.007 57.7277
DISP H -0 0 0.6481
DISP Na 0.1116 0.0924 728.563
DISP O 0.0412 0.025 193.8859
DISP V 0.2866 1.7327 12333.2986
UNIT 10 22 2 27 6

L.S. 4 0 0
PLAN  20
TEMP -80.15
fmap 2 53
acta
REM <olex2.extras>
REM <HklSrc "%.\\20210512chen_CZPZ0108_0m.hkl">
REM </olex2.extras>

WGHT    0.083200    0.822800
FVAR       0.68858
V1    5    0.538905    1.146206   -0.138250    11.00000    0.02488    0.02073 =
         0.01916    0.00713    0.00624    0.00080
V2    5    0.593228    0.793431   -0.131517    11.00000    0.02756    0.01941 =
         0.01734    0.00142    0.00560    0.00331
V3    5    0.747888    1.122262    0.113652    11.00000    0.02196    0.01900 =
         0.02133    0.00362    0.00163   -0.00206
O5    4    0.731809    1.221880   -0.012478    11.00000    0.02121    0.02218 =
         0.02888    0.00902    0.00556   -0.00068
O6    4    0.549100    1.257565   -0.234685    11.00000    0.03471    0.02965 =
         0.02625    0.01282    0.00960    0.00352
O7    4    0.568498    0.700948    0.012756    11.00000    0.02300    0.01741 =
         0.02157    0.00494    0.00503    0.00063
O8    4    0.798343    0.918751   -0.001813    11.00000    0.02091    0.01976 =
         0.02363    0.00499    0.00550    0.00096
O10   4    0.690483    0.963548    0.216776    11.00000    0.02521    0.02235 =
         0.01822    0.00461    0.00161    0.00143
O11   4    0.378609    0.738423   -0.205141    11.00000    0.02808    0.02176 =
         0.02108   -0.00105    0.00269    0.00064
O12   4    0.612128    0.958014   -0.215241    11.00000    0.03256    0.02625 =
         0.02125    0.00765    0.00962    0.00554
O13   4    0.671441    0.647946   -0.215116    11.00000    0.03654    0.02340 =
         0.02524    0.00088    0.00989    0.00514
O14   4    0.928617    1.190810    0.201572    11.00000    0.02380    0.03091 =
         0.03002    0.00580   -0.00040   -0.00263
O15   4    0.500000    1.000000    0.000000    10.50000    0.02501    0.01679 =
         0.01633    0.00250    0.00597    0.00083
C16   1    0.811402    0.864508    0.256610    11.00000    0.03156    0.02491 =
         0.02211    0.00621    0.00325    0.00606
AFIX  23
H16A  2    0.772207    0.805301    0.313924    11.00000   -1.20000
H16B  2    0.912620    0.938141    0.307827    11.00000   -1.20000
AFIX   0
C19   1    0.914622    0.825921    0.052136    11.00000    0.02572    0.02341 =
         0.02811    0.00674    0.00530    0.00366
AFIX  23
H19A  2    1.014981    0.901413    0.102696    11.00000   -1.20000
H19B  2    0.943084    0.742848   -0.019764    11.00000   -1.20000
AFIX   0
C26   1    0.696121    0.617940    0.065083    11.00000    0.02736    0.01905 =
         0.02774    0.00640    0.00576    0.00325
AFIX  23
H26A  2    0.722536    0.533699   -0.007184    11.00000   -1.20000
H26B  2    0.657728    0.560426    0.123718    11.00000   -1.20000
AFIX   0
C2    1    0.849199    0.738498    0.140686    11.00000    0.02723    0.02482 =
         0.02597    0.00799    0.00498    0.00550
C5    1    0.980330    0.641658    0.193135    11.00000    0.03639    0.03593 =
         0.03480    0.01197    0.00349    0.01107
AFIX 137
H5A   2    1.081143    0.717090    0.237287    11.00000   -1.50000
H5B   2    1.000183    0.555136    0.120472    11.00000   -1.50000
H5C   2    0.943183    0.591070    0.255052    11.00000   -1.50000
AFIX   0
NA1   3    0.561799    1.357102   -0.417490    11.00000    0.07752    0.04822 =
         0.03981    0.02479    0.02878    0.02378
O2    4    0.660588    1.496477   -0.561067    11.00000    0.05877    0.03391 =
         0.02617    0.00266    0.00413   -0.00712
O3    4    0.720493    1.162138   -0.514225    11.00000    0.05810    0.04038 =
         0.03339    0.00204    0.01138    0.00562

AFIX   6
O1    4    0.958681    1.710121   -0.466469    11.00000    0.05733    0.06495 =
         0.03656    0.00471   -0.00176   -0.00382
H1A   2    1.031463    1.730004   -0.393700    11.00000   -1.50000
H1B   2    0.882599    1.768278   -0.445918    11.00000   -1.50000
AFIX   0

O0AA  4    0.680624    0.873308   -0.452091    11.00000    0.08224    0.04402 =
         0.03704    0.00593    0.02682    0.00389
HKLF 4

REM
REM R1 =  0.0502 for    2973 Fo > 4sig(Fo)  and  0.0537 for all    3314 data
REM    209 parameters refined using      0 restraints

END

WGHT      0.0832      0.8228

REM Highest difference peak  1.596,  deepest hole -0.867,  1-sigma level  0.133
Q1    1   0.6639  1.4073 -0.3778  11.00000  0.05    1.60
Q2    1   0.7929  0.8558 -0.4016  11.00000  0.05    1.36
Q3    1   0.6373  1.0992 -0.5044  11.00000  0.05    0.69
Q4    1   0.7619  1.5533 -0.5234  11.00000  0.05    0.62
Q5    1   0.6642  0.5529  0.1555  11.00000  0.05    0.61
Q6    1   0.6667  0.8954 -0.3753  11.00000  0.05    0.57
Q7    1   0.6965  1.1360 -0.6007  11.00000  0.05    0.56
Q8    1   0.7361  1.1875  0.0349  11.00000  0.05    0.54
Q9    1   0.5731  0.7483 -0.0462  11.00000  0.05    0.52
Q10   1   0.6212  1.5599 -0.5280  11.00000  0.05    0.51
Q11   1   0.6618  1.4238 -0.6364  11.00000  0.05    0.50
Q12   1   0.9350  0.9530  0.3464  11.00000  0.05    0.49
Q13   1   0.8274  1.2639  0.1606  11.00000  0.05    0.48
Q14   1   0.6959  1.3995 -0.6272  11.00000  0.05    0.48
Q15   1   0.6232  1.2819 -0.0826  11.00000  0.05    0.47
Q16   1   0.4486  1.0198  0.0629  11.00000  0.05    0.44
Q17   1   0.6636  0.9575 -0.0646  11.00000  0.05    0.42
Q18   1   0.5404  1.1952 -0.1962  11.00000  0.05    0.41
Q19   1   0.4908  0.6993  0.0837  11.00000  0.05    0.41
Q20   1   0.7762  1.1008 -0.0010  11.00000  0.05    0.41
;
_shelx_res_checksum              39735
_shelx_hkl_file
;
  -2   0   0 0.20281 1.52479   1
   2   0   0 1.39989 3.51571   5
   2   0   0 0.09956 1.38393   1
  -3   0   0 460.949 41.9730   1
   3   0   0 488.870 39.8899   2
   3   0   0 562.612 44.6771   5
  -4   0   0 227.485 20.4638   2
  -4   0   0 266.731 20.4266   7
   4   0   0 211.685 23.1285   1
   4   0   0 299.179 21.2424   2
   4   0   0 272.910 27.2257   5
  -5   0   0 22.8367 2.79784   2
  -5   0   0 15.4588 2.57146   7
   5   0   0 25.2506 7.20475   1
   5   0   0 16.0896 3.36358   2
   5   0   0 19.9666 8.79172   5
   5   0   0 30.0018 7.49978   1
  -6   0   0 618.699 50.1279   7
  -6   0   0 577.869 49.4958   4
  -6   0   0 631.996 50.3151   2
   6   0   0 710.197 51.6379   2
   6   0   0 621.285 60.8037   5
  -7   0   0 83.3012 8.69879   7
  -7   0   0 108.759 8.99353   2
   7   0   0 103.137 10.9870   2
   7   0   0 77.0353 19.6765   5
  -8   0   0 9.48189 6.66710   6
   8   0   0 31.3951 17.5903   5
   8   0   0 23.8508 5.45681   2
   9   0   0 16.0609 20.0184   5
  10   0   0 38.8901 6.88702   2
  10  -1   0 156.622 15.0967   2
  -9   1   0 468.766 38.1726   6
  -9   1   0 349.147 32.3448   7
   8  -1   0 327.551 44.6478   5
  -8   1   0 294.347 26.3214   7
  -8   1   0 348.636 30.3857   6
   7  -1   0 10.4264 12.6542   5
   7  -1   0 8.35298 3.65291   2
  -7   1   0 8.29030 2.42253   7
  -7   1   0 7.97514 5.37830   6
   6  -1   0 82.8892 17.7342   5
   6  -1   0 74.0679 8.29260   2
  -6   1   0 83.2510 7.28911   7
  -6   1   0 75.9963 9.75443   6
  -6   1   0 72.0251 6.24125   4
   5  -1   0 1246.07 99.4028   1
   5  -1   0 1235.44 103.958   5
   5  -1   0 1152.44 96.0685   2
  -5   1   0 1334.97 95.5472   7
  -5   1   0 1086.93 95.2645   2
  -5   1   0 1224.98 94.9112   4
   4  -1   0 516.993 50.2762   5
   4  -1   0 641.165 47.4528   1
   4  -1   0 488.175 44.5766   2
  -4   1   0 545.529 43.8549   3
  -4   1   0 592.559 44.3077   7
  -4   1   0 564.490 43.8381   4
   3  -1   0 12.3131 3.09959   1
   3  -1   0 5.89312 5.06165   5
   3  -1   0 8.28543 1.74783   2
  -3   1   0 7.04824 0.92050   3
  -3   1   0 5.02622 1.28983   7
   2  -1   0 186.942 19.7426   5
   2  -1   0 201.305 17.2679   1
  -2   1   0 224.356 17.1683   6
   1  -1   0 259.383 21.3213   1
   1  -1   0 289.382 21.2941   1
  -1   1   0 253.117 21.4989   6
  -1  -1   0 448.403 36.5578   1
   1   1   0 452.925 37.1288   5
  -2  -1   0 562.041 50.2988   1
   2   1   0 680.288 50.8016   1
   2   1   0 606.519 51.6347   5
  -3  -1   0 1904.35 132.651   1
  -3  -1   0 1384.93 128.960   2
   3   1   0 1493.98 131.688   1
   3   1   0 1625.06 129.367   2
   3   1   0 1841.74 134.162   5
  -4  -1   0 240.812 20.0897   2
   4   1   0 235.494 23.8719   1
   4   1   0 262.101 20.6558   2
  -5  -1   0 1076.80 81.7708   2
  -5  -1   0 944.081 81.1899   7
   5   1   0 1137.61 87.5350   1
   5   1   0 913.721 88.7725   5
   5   1   0 1085.29 82.4296   2
  -6  -1   0 1377.45 107.571   2
  -6  -1   0 1212.37 106.862   7
   6   1   0 1395.36 117.694   5
   6   1   0 1469.99 108.579   2
  -7  -1   0 5.81284 2.39843   2
   7   1   0 -3.2360 9.37954   5
   7   1   0 10.2014 4.21878   2
  -8  -1   0 79.9295 8.00416   2
   8   1   0 64.7787 18.1743   5
   9   1   0 326.295 28.5970   2
  10   1   0 203.087 18.4677   2
  10  -2   0 60.1203 7.62159   2
   9  -2   0 247.232 45.1634   5
  -9   2   0 212.175 26.0702   6
  -9   2   0 165.083 15.9543   7
   8  -2   0 45.9627 19.6154   5
  -8   2   0 66.5380 11.6665   6
  -8   2   0 67.7919 7.35460   7
   7  -2   0 265.126 22.6484   2
   7  -2   0 248.948 36.7421   5
  -7   2   0 258.955 21.6851   7
  -7   2   0 251.252 24.6023   6
   6  -2   0 2097.80 169.822   5
   6  -2   0 1914.97 158.885   2
  -6   2   0 1975.86 157.502   4
  -6   2   0 2027.78 158.338   7
  -6   2   0 2063.26 160.729   6
   5  -2   0 1934.50 172.496   2
   5  -2   0 2056.13 174.629   1
   5  -2   0 2202.51 180.894   5
  -5   2   0 2324.57 171.627   4
  -5   2   0 2308.71 172.285   7
  -5   2   0 2345.24 174.281   6
  -5   2   0 2187.78 171.625   3
   4  -2   0 125.338 17.7370   5
   4  -2   0 124.171 12.1908   1
   4  -2   0 140.505 12.3660   1
  -4   2   0 117.432 10.2827   7
  -4   2   0 116.105 9.71820   3
  -4   2   0 114.157 11.7379   6
  -4   2   0 118.065 9.73868   4
   3  -2   0 1164.60 83.4722   1
   3  -2   0 1013.67 83.3335   1
   3  -2   0 975.938 86.9110   5
  -3   2   0 1037.95 81.9866   4
  -3   2   0 1138.48 83.6064   6
  -3   2   0 989.338 81.9300   3
  -3   2   0 1007.94 82.3520   7
   2  -2   0 1191.76 93.1065   1
   2  -2   0 1234.94 93.1547   1
  -2   2   0 1124.65 93.7487   6
  -1   2   0 58.0615 6.03837   6
   0   2   0 4427.13 346.766   5
  -1  -2   0 1294.29 99.9203   1
   1   2   0 1215.82 99.9914   5
  -2  -2   0 1064.89 86.2321   1
  -2  -2   0 920.732 83.8288   2
   2   2   0 1068.30 86.6810   1
   2   2   0 1121.12 83.6878   4
   2   2   0 1175.03 87.3142   5
  -3  -2   0 183.127 15.8290   2
   3   2   0 196.534 15.4435   4
   3   2   0 182.566 16.1435   2
   3   2   0 222.047 21.1517   5
  -4  -2   0 392.220 31.0675   2
   4   2   0 362.439 35.7750   1
   4   2   0 419.188 37.7604   5
   4   2   0 370.847 31.3694   2
  -5  -2   0 384.211 33.9923   2
   5   2   0 467.273 42.8487   5
   5   2   0 411.018 41.2509   1
   5   2   0 448.613 34.6948   2
   5   2   0 399.944 41.0373   1
  -6  -2   0 6.45002 2.48534   2
   6   2   0 2.43373 8.29885   5
   6   2   0 3.81557 2.99890   2
  -7  -2   0 83.4121 8.27989   2
   7   2   0 68.6928 9.04022   2
   7   2   0 56.1976 18.0976   5
  -8  -2   0 8.28613 3.05613   2
   8   2   0 4.27468 3.61204   2
   8   2   0 -6.0185 13.5403   5
   9   2   0 523.181 43.5243   2
  10   2   0 5.90933 2.71271   2
  10   2   0 3.70653 1.18394   3
  10  -3   0 8.15047 2.58449   2
 -10   3   0 4.79885 2.47135   7
   9  -3   0 21.1068 4.20266   2
  -9   3   0 12.9806 3.65566   7
   8  -3   0 89.4537 26.7633   5
   8  -3   0 82.3732 9.14757   2
  -8   3   0 85.1902 8.90614   7
  -8   3   0 80.6647 13.7522   6
   7  -3   0 154.511 14.3225   2
   7  -3   0 148.747 31.0496   5
  -7   3   0 166.299 14.0971   7
  -7   3   0 144.856 17.2495   6
   6  -3   0 707.017 58.2593   2
   6  -3   0 693.347 69.5328   5
  -6   3   0 700.910 57.1315   4
  -6   3   0 761.266 60.9615   6
  -6   3   0 775.902 58.1517   7
  -6   3   0 716.990 57.1779   3
   5  -3   0 294.223 26.8065   1
   5  -3   0 268.773 34.6222   5
  -5   3   0 320.072 27.9107   6
  -5   3   0 323.422 24.8293   3
  -5   3   0 331.085 25.6385   7
  -5   3   0 321.948 24.8637   4
   4  -3   0 69.9811 6.50648   1
   4  -3   0 55.2582 5.65203   2
   4  -3   0 68.8541 14.6087   5
  -4   3   0 55.2223 5.80262   7
  -4   3   0 60.7291 5.12324   3
  -4   3   0 63.1338 5.19914   4
  -4   3   0 67.6430 7.94442   6
   3  -3   0 -0.4554 7.00754   5
  -3   3   0 1.26593 2.39930   6
  -3   3   0 1.85044 0.60114   3
  -3   3   0 1.20546 0.60642   4
  -3   3   0 1.56035 1.21835   7
  -2   3   0 241.263 19.1511   3
  -2   3   0 236.912 19.6189   7
  -2   3   0 242.643 19.2606   4
  -2   3   0 253.600 21.1459   6
  -1   3   0 298.619 23.1796   4
  -1   3   0 290.510 23.3947   7
  -1   3   0 290.694 23.0669   3
   0  -3   0 1766.08 133.938   1
   0  -3   0 1672.65 133.401   8
   0   3   0 1582.97 132.644   3
   0   3   0 1851.94 135.193   6
   0   3   0 1617.82 134.042   1
  -1  -3   0 36.9303 3.72986   2
  -1  -3   0 38.8559 5.56351   1
   1   3   0 45.7401 3.53667   3
   1   3   0 47.0594 6.23405   5
   1   3   0 42.9099 3.66851   4
  -2  -3   0 257.364 18.3417   2
   2   3   0 222.397 21.4292   5
   2   3   0 206.668 17.9808   4
   2   3   0 217.336 21.5329   1
   2   3   0 220.646 18.4545   2
  -3  -3   0 356.234 30.0937   2
   3   3   0 355.708 30.3407   2
   3   3   0 365.305 34.8468   1
   3   3   0 368.269 34.6764   5
   3   3   0 421.252 29.7812   4
  -4  -3   0 806.628 65.8789   2
   4   3   0 845.307 72.0792   5
   4   3   0 796.797 66.1281   2
   4   3   0 874.184 72.9884   1
  -5  -3   0 420.101 32.8090   2
   5   3   0 396.387 40.5032   5
   5   3   0 375.692 32.9189   2
  -6  -3   0 208.491 17.9262   2
   6   3   0 196.482 27.8707   5
   6   3   0 194.111 18.0706   2
  -7  -3   0 100.953 10.0648   2
   7   3   0 90.9807 10.2935   2
   7   3   0 71.8718 18.1803   5
  -8  -3   0 0.59555 2.38153   2
   8   3   0 -6.2936 12.7235   5
   8   3   0 -0.9678 2.71941   2
  -9  -3   0 74.8315 10.7577   2
   9   3   0 67.4621 7.95943   2
 -10   4   0 15.9357 2.98868   7
   9  -4   0 19.2803 3.54586   2
  -9   4   0 9.16985 3.37700   7
   8  -4   0 22.4352 21.6062   5
   8  -4   0 38.7063 5.09015   2
  -8   4   0 22.1481 9.24710   6
  -8   4   0 46.0020 5.76030   7
   7  -4   0 249.969 37.1244   5
   7  -4   0 185.446 16.3407   2
  -7   4   0 167.751 15.2134   4
  -7   4   0 223.706 21.5932   6
   6  -4   0 20.8302 15.4940   5
  -6   4   0 30.1922 3.32334   3
  -6   4   0 41.4123 5.04868   7
  -6   4   0 32.4319 3.29294   4
  -6   4   0 38.4324 8.53733   6
   5  -4   0 247.804 32.8078   5
   5  -4   0 234.917 21.6226   2
  -5   4   0 300.713 22.2418   7
  -5   4   0 288.848 25.4171   6
  -5   4   0 263.410 21.2237   4
  -5   4   0 259.951 21.1150   3
   4  -4   0 453.935 48.0651   5
   4  -4   0 429.700 39.9915   2
  -4   4   0 574.656 40.6716   7
  -4   4   0 496.192 39.7052   3
  -4   4   0 509.609 39.8658   4
  -4   4   0 565.989 43.4356   6
   3  -4   0 10.3820 10.3847   5
  -3   4   0 0.14491 1.35767   7
  -3   4   0 0.79583 0.70483   4
  -3   4   0 2.80811 2.97930   6
  -2   4   0 556.895 42.2826   6
  -2   4   0 484.223 39.7708   7
  -2   4   0 472.080 39.3317   4
  -2   4   0 492.978 39.1818   3
  -1   4   0 195.243 17.5082   7
  -1   4   0 228.016 17.0973   3
  -1   4   0 224.207 20.3060   6
  -1   4   0 218.348 17.2585   4
   0  -4   0 448.164 38.0176   2
   0  -4   0 457.315 38.5064   8
   0   4   0 468.670 38.2366   7
   0   4   0 473.303 37.9095   3
   0   4   0 481.773 39.6013   1
   0   4   0 555.154 39.7711   1
   0   4   0 496.101 38.1041   4
   0   4   0 485.678 41.3363   6
  -1  -4   0 194.723 18.7318   2
   1   4   0 223.142 18.7178   4
   1   4   0 275.430 22.1171   1
   1   4   0 226.574 18.5156   3
   1   4   0 267.367 21.4098   5
  -2  -4   0 135.132 11.3321   2
   2   4   0 125.571 10.8258   3
   2   4   0 138.123 11.1129   4
   2   4   0 142.742 15.8107   1
   2   4   0 130.436 12.3634   2
   2   4   0 139.161 14.7875   5
  -3  -4   0 302.302 23.4956   2
   3   4   0 272.247 23.4586   2
   3   4   0 291.669 23.0510   4
   3   4   0 273.920 27.7365   5
  -4  -4   0 1450.58 120.032   2
   4   4   0 1641.14 120.252   2
   4   4   0 1454.90 119.377   4
   4   4   0 1533.91 125.879   5
  -5  -4   0 5.80518 2.67086   2
   5   4   0 10.7272 8.36385   5
   5   4   0 9.75320 3.30825   2
  -6  -4   0 119.322 11.1242   2
   6   4   0 92.2808 10.4665   2
   6   4   0 93.8122 20.5562   5
  -7  -4   0 214.082 17.4706   2
   7   4   0 175.131 16.7559   2
   7   4   0 138.156 28.4533   5
  -8  -4   0 35.5030 5.85190   2
   8   4   0 33.3940 3.80275   3
   8   4   0 31.0729 5.36900   2
   9   4   0 135.512 11.1763   3
 -10   5   0 34.7765 4.49665   7
  -9   5   0 0.55250 2.37732   7
   8  -5   0 21.2217 3.43989   2
  -8   5   0 24.9280 4.55546   7
  -8   5   0 14.3052 10.8734   6
   7  -5   0 1.46454 19.1724   5
   7  -5   0 18.2079 2.97410   2
  -7   5   0 12.4336 1.83714   4
  -7   5   0 11.1091 8.01079   6
  -7   5   0 11.1112 3.15084   7
   6  -5   0 289.229 41.6160   5
   6  -5   0 309.696 25.5634   2
  -6   5   0 316.484 30.9147   6
  -6   5   0 359.617 26.6360   7
  -6   5   0 306.293 25.2620   4
  -6   5   0 302.533 25.1484   3
   5  -5   0 420.606 50.9646   5
  -5   5   0 556.483 40.4129   4
  -5   5   0 540.515 41.3671   7
  -5   5   0 475.131 40.1396   3
  -5   5   0 523.014 45.2165   6
  -4   5   0 1355.89 101.270   7
  -4   5   0 1204.57 100.184   3
  -4   5   0 1278.89 100.441   4
  -4   5   0 1280.01 104.462   6
   3  -5   0 134.373 24.1537   5
  -3   5   0 189.663 14.4983   7
  -3   5   0 167.210 17.4182   6
  -3   5   0 158.718 13.3555   3
  -3   5   0 167.908 13.6425   4
  -2   5   0 60.0120 9.39382   6
  -2   5   0 63.2374 6.38494   7
  -2   5   0 63.5285 5.75684   4
  -2   5   0 72.7489 5.50006   3
   1  -5   0 52.2236 7.09115   8
   1  -5   0 52.9189 4.75479   2
  -1   5   0 55.0155 5.51290   7
  -1   5   0 58.9368 5.08487   4
  -1   5   0 59.0737 9.32882   6
  -1   5   0 64.5253 4.80826   3
   0  -5   0 0.89189 0.66699   2
   0   5   0 -0.6816 1.13634   7
   0   5   0 0.80672 0.98244   4
   0   5   0 1.87815 2.40986   1
   0   5   0 0.58046 0.67797   3
  -1  -5   0 507.910 43.3567   2
   1   5   0 619.514 43.4107   4
   1   5   0 523.905 46.4059   1
   1   5   0 537.118 43.0435   3
  -2  -5   0 493.145 41.7051   2
   2   5   0 533.278 41.5870   4
   2   5   0 568.361 45.3897   5
   2   5   0 504.064 41.1898   3
  -3  -5   0 2.99060 1.71957   2
   3   5   0 2.92815 1.19224   3
   3   5   0 4.36146 1.72858   4
   3   5   0 2.26622 5.43855   5
  -4  -5   0 5.12851 2.35365   2
   4   5   0 6.44408 1.66251   3
   4   5   0 0.80107 1.84358   2
   4   5   0 3.97845 1.81446   4
   4   5   0 1.16169 6.54208   5
  -5  -5   0 436.300 32.5972   2
   5   5   0 395.347 30.8746   3
   5   5   0 346.427 31.6352   2
   5   5   0 364.664 39.8608   5
  -6  -5   0 42.9218 6.76104   2
   6   5   0 39.7783 5.83990   2
   6   5   0 52.7618 16.2011   5
   6   5   0 51.1859 4.79155   3
  -7  -5   0 11.5556 3.97832   2
   7   5   0 9.37637 2.17051   3
  -8  -5   0 0.27718 2.41077   2
   8   5   0 3.45720 1.49637   3
  -9   6   0 37.1768 5.09485   7
  -8   6   0 5.76252 2.88943   7
  -7   6   0 95.4816 9.04160   7
  -7   6   0 79.0083 7.02133   4
  -7   6   0 74.7000 6.96269   3
  -7   6   0 79.2435 16.4191   6
  -6   6   0 2.07981 6.90804   6
  -6   6   0 -1.6180 0.97433   3
  -6   6   0 1.59221 1.29587   4
  -6   6   0 1.12685 2.28679   7
  -5   6   0 7.00365 2.67484   7
  -5   6   0 13.4151 2.10901   4
  -5   6   0 7.97696 1.49152   3
  -5   6   0 6.28890 7.53376   6
   4  -6   0 0.57729 14.2383   5
  -4   6   0 6.37427 1.18823   3
  -4   6   0 3.44086 2.18703   7
  -4   6   0 8.54165 1.83373   4
  -4   6   0 4.32384 6.60117   6
   3  -6   0 -1.5749 15.7812   5
  -3   6   0 1.85440 1.30185   4
  -3   6   0 2.24525 2.06563   7
  -3   6   0 2.87859 6.05976   6
  -3   6   0 6.13357 1.02814   3
   2  -6   0 89.5927 12.1223   8
  -2   6   0 111.311 9.18298   4
  -2   6   0 111.932 8.77213   3
  -2   6   0 109.098 14.4315   6
  -2   6   0 112.575 9.97523   7
   1  -6   0 123.917 11.2087   2
  -1   6   0 145.321 11.1506   3
  -1   6   0 139.763 16.8650   6
  -1   6   0 139.824 12.0526   7
  -1   6   0 144.480 11.5433   4
   0  -6   0 187.605 16.0361   2
   0   6   0 213.610 15.8361   3
   0   6   0 191.417 16.1430   4
  -1  -6   0 1100.04 90.2658   2
   1   6   0 1178.62 90.2554   4
   1   6   0 1158.02 89.8555   3
  -2  -6   0 1176.02 97.5539   2
   2   6   0 1249.36 97.4204   4
   2   6   0 1280.98 96.9453   3
  -3  -6   0 5.96471 2.37947   2
   3   6   0 12.4614 2.46978   4
   3   6   0 9.15855 1.61405   3
  -4  -6   0 132.919 11.9601   2
   4   6   0 127.539 10.4933   3
   4   6   0 114.682 20.8379   5
   4   6   0 116.429 11.0604   4
  -5  -6   0 340.367 30.9484   2
   5   6   0 398.444 29.5984   3
   5   6   0 367.802 40.7333   5
  -6  -6   0 17.6513 4.41664   2
   6   6   0 22.5514 2.93901   3
  -7  -6   0 69.0640 7.84976   2
   7   6   0 58.0663 5.71396   3
  -8   7   0 19.3286 3.61952   7
  -7   7   0 221.001 18.9469   4
  -7   7   0 252.843 20.5124   7
  -6   7   0 37.5190 13.2013   6
  -6   7   0 35.2533 3.65077   3
  -6   7   0 36.9516 5.75034   7
  -6   7   0 39.6088 4.08868   4
   5  -7   0 14.7417 8.72751   8
  -5   7   0 7.08669 8.49417   6
  -5   7   0 21.6086 4.30718   7
  -5   7   0 19.9040 2.73929   4
  -5   7   0 12.8801 1.92022   3
   4  -7   0 173.930 25.8034   8
  -4   7   0 222.692 18.0368   7
  -4   7   0 218.103 16.9011   4
  -4   7   0 198.430 16.3301   3
  -4   7   0 186.305 22.9996   6
  -3   7   0 209.366 17.0720   7
  -3   7   0 184.929 15.4659   3
  -3   7   0 197.248 15.9964   4
  -3   7   0 174.214 22.1895   6
  -2   7   0 111.077 9.33169   4
  -2   7   0 112.027 8.75190   3
  -2   7   0 98.3523 15.9575   6
  -2   7   0 96.7230 10.0455   7
   1  -7   0 130.080 11.0819   2
  -1   7   0 136.960 10.8615   3
  -1   7   0 132.634 11.3779   4
   0  -7   0 11.5219 2.09583   2
   0   7   0 14.6347 2.56424   4
   0   7   0 9.00631 1.57945   3
  -1  -7   0 246.296 19.0821   2
   1   7   0 223.948 18.9404   4
   1   7   0 214.648 18.3672   3
  -2  -7   0 216.665 18.5401   2
   2   7   0 215.869 18.4143   4
   2   7   0 224.157 17.7185   3
  -3  -7   0 176.309 14.7415   2
   3   7   0 136.310 14.0940   4
   3   7   0 178.460 13.5511   3
  -4  -7   0 363.207 28.9212   2
   4   7   0 324.962 27.4921   3
  -5  -7   0 304.377 24.9212   2
   5   7   0 276.460 23.3197   3
  -6  -7   0 -0.7249 2.11850   2
   6   7   0 0.61373 1.12564   3
  -7  -7   0 84.6860 7.84047   2
   7   7   0 63.5078 6.19532   3
  -8   8   0 29.9938 4.35791   7
  -7   8   0 2.21241 2.46671   7
  -6   8   0 20.0590 2.48592   3
  -6   8   0 24.1936 2.99351   4
  -6   8   0 18.4939 3.84809   7
  -5   8   0 118.822 9.74735   3
  -5   8   0 92.3184 20.0372   6
  -5   8   0 129.540 10.3859   4
  -5   8   0 112.964 11.4061   7
  -4   8   0 692.699 49.4064   4
  -4   8   0 540.338 56.4012   6
  -4   8   0 559.615 50.0702   7
  -4   8   0 658.208 48.7577   3
  -3   8   0 189.963 14.5649   4
  -3   8   0 164.322 15.2244   7
  -3   8   0 159.632 13.7419   3
  -2   8   0 1.71599 0.98586   3
  -2   8   0 1.34763 2.38343   7
  -2   8   0 2.41836 1.89751   4
  -1   8   0 74.1988 6.56701   3
  -1   8   0 81.3037 7.42044   4
   0  -8   0 243.036 20.1327   2
   0   8   0 248.777 19.5521   3
   0   8   0 238.867 20.2305   4
  -1  -8   0 28.2060 3.74516   2
   1   8   0 20.8184 3.78059   4
   1   8   0 26.3771 3.00683   3
  -2  -8   0 309.305 26.4562   2
   2   8   0 337.944 26.3890   4
   2   8   0 312.649 25.5484   3
  -3  -8   0 43.8944 5.96918   2
   3   8   0 51.5089 5.79851   4
   3   8   0 56.9214 4.92681   3
  -4  -8   0 6.01827 2.48942   2
   4   8   0 8.44527 1.82808   3
  -5  -8   0 7.57519 2.64809   2
   5   8   0 10.5462 1.79669   3
  -6   9   0 7.47970 2.61521   7
  -6   9   0 7.63729 1.84681   4
  -5   9   0 85.1906 9.88365   7
  -5   9   0 126.784 9.44134   4
  -4   9   0 491.464 38.7318   3
  -3   9   0 87.3589 7.74556   3
  -3   9   0 103.953 8.77996   4
  -2   9   0 17.1120 1.89718   3
  -2   9   0 9.22068 2.46468   4
  -1   9   0 80.2393 7.06760   3
  -1   9   0 91.1366 8.28099   4
   0   9   0 7.07528 1.31495   3
   0   9   0 5.87520 2.56106   4
  -1  -9   0 45.9782 4.71592   2
   1   9   0 34.8415 3.79682   3
   1   9   0 37.8170 5.05508   4
  -2  -9   0 274.994 23.2844   2
   2   9   0 275.661 21.2012   3
   2   9   0 243.136 21.8279   4
  -3  -9   0 56.8389 5.92107   2
   3   9   0 48.2838 4.80719   3
  -4  -9   0 75.3781 7.14623   2
   4   9   0 65.2640 6.07135   3
  -4  10   0 32.7380 3.97173   4
  -3  10   0 194.518 16.2599   4
  -2  10   0 72.6432 6.39498   3
  -2  10   0 85.8400 7.53969   4
  -1  10   0 11.2098 1.45996   3
  -1  10   0 14.6624 2.82375   4
   0  10   0 4.89825 2.17577   4
   0  10   0 3.12399 0.92393   3
   1  10   0 49.4735 5.47854   4
   1  10   0 56.6813 4.64234   3
   2  10   0 4.00438 0.99163   3
   2  10  -1 8.58459 1.24708   3
   2  10  -1 7.05873 2.12045   4
   1  10  -1 46.6542 4.94166   4
   1  10  -1 40.8117 3.77177   3
   0  10  -1 68.3588 6.27964   4
   0  10  -1 54.8372 5.02281   3
  -1  10  -1 158.945 12.9618   3
  -1  10  -1 165.653 13.9069   4
  -2  10  -1 32.1566 4.23063   4
  -3  10  -1 94.8320 8.58552   4
  -4  10  -1 4.30491 1.75760   4
  -5  10  -1 38.1815 3.97965   4
   4   9  -1 0.17466 1.18097   3
  -4  -9   1 1.47671 1.73614   2
   3   9  -1 241.522 20.7981   3
  -3  -9   1 279.064 21.8781   2
   2   9  -1 573.423 50.3125   4
   2   9  -1 606.294 49.6733   3
  -2  -9   1 709.955 50.7033   2
   1   9  -1 141.052 13.4307   4
   1   9  -1 146.155 12.6214   3
  -1  -9   1 177.727 13.5722   2
   0   9  -1 12.1322 1.63653   3
   0   9  -1 10.8350 2.85547   4
  -1   9  -1 10.6456 2.53974   4
  -1   9  -1 10.6578 1.52243   3
  -2   9  -1 92.3776 8.19441   3
  -2   9  -1 111.051 9.25559   4
  -3   9  -1 1.76247 1.81175   4
  -3   9  -1 1.00350 0.84346   3
  -3   9  -1 1.98333 2.41647   7
  -4   9  -1 130.536 11.2791   4
  -5   9  -1 1.71585 1.51427   4
  -5   9  -1 0.42938 2.14283   7
  -6   9  -1 32.7611 5.00091   7
  -6   9  -1 40.8434 3.93904   4
   6   8  -1 12.3222 1.77461   3
  -6  -8   1 14.2224 2.96672   2
   5   8  -1 1.01465 1.23450   3
  -5  -8   1 0.50571 2.09558   2
   4   8  -1 15.2566 2.23364   3
  -4  -8   1 14.1019 3.30140   2
   3   8  -1 241.859 21.4336   4
   3   8  -1 268.738 20.8187   3
  -3  -8   1 263.538 21.8674   2
   2   8  -1 156.186 12.7856   3
   2   8  -1 157.413 13.5881   4
  -2  -8   1 153.565 13.6529   2
   1   8  -1 9.54975 1.59157   3
   1   8  -1 8.75137 2.43369   4
  -1  -8   1 9.92668 2.28737   2
   0   8  -1 159.394 12.9427   3
   0   8  -1 171.287 13.6582   4
   0  -8   1 149.834 13.3826   2
  -1   8  -1 438.489 35.5236   4
  -1   8  -1 446.119 34.9373   3
  -2   8  -1 26.5697 4.83064   7
  -2   8  -1 35.2370 4.08873   4
  -2   8  -1 31.8373 3.03092   3
  -3   8  -1 305.742 24.2694   4
  -3   8  -1 308.387 25.3615   7
  -3   8  -1 243.293 31.2407   6
  -3   8  -1 309.516 23.6282   3
  -4   8  -1 420.160 46.2535   6
  -4   8  -1 499.125 40.7829   7
  -4   8  -1 569.065 39.7029   4
  -4   8  -1 469.725 38.9936   3
  -5   8  -1 73.2376 8.91502   7
  -5   8  -1 90.1514 18.3010   6
  -5   8  -1 81.3898 6.96866   3
  -5   8  -1 88.8497 7.56848   4
  -6   8  -1 48.8176 6.72644   7
  -6   8  -1 55.7659 5.16825   4
  -7   8  -1 176.188 18.4525   7
  -7   8  -1 247.690 17.4766   4
  -8   8  -1 273.903 22.9895   7
   7   7  -1 324.615 27.1166   3
  -7  -7   1 357.989 28.5602   2
   6   7  -1 14.0455 2.43253   3
  -6  -7   1 22.2451 4.40087   2
   5   7  -1 36.0092 3.85449   3
  -5  -7   1 33.8233 5.46666   2
   4   7  -1 1.58125 1.37929   3
   4   7  -1 -0.3037 1.79133   4
  -4  -7   1 1.50152 2.31569   2
   3   7  -1 31.3160 4.54242   4
   3   7  -1 39.2603 3.73128   3
  -3  -7   1 33.0461 4.77428   2
   2   7  -1 816.596 68.1636   4
   2   7  -1 877.507 67.7009   3
  -2  -7   1 886.444 68.4342   2
   1   7  -1 1015.45 84.4454   4
   1   7  -1 1065.98 84.0594   3
  -1  -7   1 1130.03 84.6140   2
   0   7  -1 11.4300 2.30471   4
   0   7  -1 15.8033 2.04788   3
   0  -7   1 18.6587 2.37176   2
  -1   7  -1 139.999 13.1094   7
  -1   7  -1 156.699 11.8524   3
  -1   7  -1 154.475 12.3638   4
   1  -7   1 135.874 12.0051   2
  -2   7  -1 20.5926 2.99815   4
  -2   7  -1 19.1398 2.15442   3
  -2   7  -1 20.6722 8.85125   6
  -2   7  -1 22.5856 4.23904   7
  -3   7  -1 364.343 28.8713   4
  -3   7  -1 403.291 30.1763   7
  -3   7  -1 360.361 35.1381   6
  -3   7  -1 367.717 28.3592   3
   3  -7   1 295.150 32.5248   8
  -4   7  -1 3.02472 2.91705   7
  -4   7  -1 4.21352 7.37355   6
  -4   7  -1 1.05104 1.56031   4
  -4   7  -1 2.67848 0.92877   3
   4  -7   1 0.73937 6.41809   8
  -5   7  -1 -3.3085 7.43353   6
  -5   7  -1 -1.4085 2.33341   7
  -5   7  -1 -0.2504 1.55317   4
  -5   7  -1 0.63165 0.95499   3
   5  -7   1 -2.0176 6.59985   8
  -6   7  -1 88.4998 7.71951   4
  -6   7  -1 81.8317 7.31907   3
  -6   7  -1 85.6002 16.7463   6
  -6   7  -1 92.3877 9.51437   7
  -7   7  -1 377.260 29.1072   4
  -7   7  -1 348.778 30.5200   7
  -8   7  -1 45.5845 5.82976   7
   8   6  -1 75.9822 6.74660   3
  -8  -6   1 81.3258 8.41196   2
   7   6  -1 22.2260 2.80766   3
  -7  -6   1 14.8795 3.81772   2
   6   6  -1 12.4096 2.10327   3
  -6  -6   1 11.3188 3.42112   2
   5   6  -1 29.8859 14.1724   5
   5   6  -1 44.4290 4.41766   3
  -5  -6   1 42.1008 6.04106   2
   4   6  -1 165.471 15.5326   4
   4   6  -1 186.344 15.1049   3
   4   6  -1 174.048 23.6261   5
  -4  -6   1 209.059 16.4519   2
   3   6  -1 191.588 15.1758   3
   3   6  -1 196.429 15.7460   4
  -3  -6   1 174.369 15.9437   2
   2   6  -1 1864.88 136.072   3
  -2  -6   1 1609.59 136.551   2
   1   6  -1 1057.04 81.9527   4
   1   6  -1 1034.82 81.6219   3
  -1  -6   1 1029.87 82.0205   2
   0   6  -1 22.7567 3.66753   7
   0   6  -1 32.0473 3.10440   4
   0   6  -1 26.0057 2.61028   3
   0  -6   1 25.6839 2.75540   2
  -1   6  -1 10.8905 1.71357   4
  -1   6  -1 21.0241 7.46665   6
  -1   6  -1 10.6231 1.31583   3
  -1   6  -1 11.0448 2.59598   7
   1  -6   1 7.64920 1.33714   2
   1  -6   1 11.6169 4.22084   8
  -2   6  -1 1012.86 79.7304   4
  -2   6  -1 1052.37 84.5774   6
  -2   6  -1 979.146 80.5027   7
  -2   6  -1 1037.66 79.3815   3
   2  -6   1 985.588 83.2542   8
  -3   6  -1 143.095 12.9588   7
  -3   6  -1 139.690 16.8220   6
  -3   6  -1 140.999 11.8211   4
  -3   6  -1 142.764 11.4125   3
  -4   6  -1 204.945 16.6918   3
  -4   6  -1 204.221 22.2721   6
  -4   6  -1 216.908 17.1209   4
  -4   6  -1 208.660 18.2871   7
  -5   6  -1 276.033 23.1652   7
  -5   6  -1 269.742 21.8164   4
  -5   6  -1 259.746 21.4681   3
  -5   6  -1 277.125 27.7977   6
  -6   6  -1 6.92673 1.71474   4
  -6   6  -1 6.80958 3.27454   7
  -6   6  -1 4.89456 1.33076   3
  -6   6  -1 4.81205 8.01526   6
  -7   6  -1 47.8636 4.85027   4
  -7   6  -1 56.4354 13.3941   6
  -7   6  -1 58.3047 7.06821   7
  -8   6  -1 8.65147 3.23740   7
  -9   6  -1 2.07639 2.15536   7
   8   5  -1 33.2819 3.80627   3
  -8  -5   1 38.3060 5.75588   2
   7   5  -1 206.470 16.4638   3
   7   5  -1 177.986 17.4871   2
   7   5  -1 165.920 34.1860   5
  -7  -5   1 229.522 18.5577   2
   6   5  -1 103.321 22.9989   5
   6   5  -1 99.3459 10.2971   2
  -6  -5   1 107.234 10.7712   2
   5   5  -1 2.12634 8.73062   5
   5   5  -1 14.4870 3.46530   2
  -5  -5   1 14.9705 3.67264   2
   4   5  -1 264.165 23.3089   2
   4   5  -1 248.497 28.6411   5
   4   5  -1 300.108 22.9005   4
  -4  -5   1 300.548 23.5707   2
   3   5  -1 38.8267 4.73459   2
   3   5  -1 37.9357 3.61883   3
   3   5  -1 35.6581 4.01259   4
   3   5  -1 32.5853 7.73041   5
  -3  -5   1 41.8202 4.49981   2
   2   5  -1 512.544 39.6116   4
   2   5  -1 483.444 39.3077   3
   2   5  -1 503.417 42.3848   5
   2   5  -1 507.551 44.6990   1
  -2  -5   1 476.424 39.7847   2
  -2  -5   1 519.146 48.6223   1
   1   5  -1 176.847 13.5803   3
   1   5  -1 172.798 17.2917   1
   1   5  -1 178.100 13.8369   4
  -1  -5   1 148.036 14.4610   8
  -1  -5   1 176.016 17.2166   1
   0   5  -1 250.270 20.7255   1
   0   5  -1 236.928 23.3307   6
   0   5  -1 253.514 18.8339   3
   0   5  -1 225.433 19.4177   7
   0   5  -1 247.871 19.0705   4
   0  -5   1 226.101 18.9766   2
   0  -5   1 222.671 20.3219   8
  -1   5  -1 652.499 50.3166   3
  -1   5  -1 663.197 50.5623   4
  -1   5  -1 736.546 54.8152   6
  -1   5  -1 646.349 51.0682   7
   1  -5   1 541.787 50.3329   2
   1  -5   1 628.855 53.1025   8
  -2   5  -1 2550.83 197.965   7
  -2   5  -1 2797.78 201.171   6
  -2   5  -1 2560.35 197.049   3
   2  -5   1 2192.76 197.043   2
  -3   5  -1 4.01924 1.95463   7
  -3   5  -1 6.29324 1.36209   4
  -3   5  -1 3.05401 4.03899   6
  -3   5  -1 5.09213 0.87245   3
   3  -5   1 8.31306 7.96125   5
  -4   5  -1 215.507 20.6027   6
  -4   5  -1 172.080 15.9031   3
  -4   5  -1 210.779 16.2438   4
  -4   5  -1 220.318 17.3141   7
   4  -5   1 200.953 16.1907   2
   4  -5   1 181.339 25.0934   5
  -5   5  -1 145.500 11.5584   4
  -5   5  -1 149.323 12.8554   7
  -5   5  -1 163.048 17.1309   6
  -5   5  -1 140.327 11.2929   3
   5  -5   1 122.753 11.6145   2
   5  -5   1 105.298 24.8219   5
  -6   5  -1 20.7348 3.98550   7
  -6   5  -1 18.9567 2.38274   3
  -6   5  -1 20.2809 2.56194   4
  -6   5  -1 16.7481 7.95174   6
   6  -5   1 19.6080 16.5275   5
   6  -5   1 17.4711 2.85549   2
  -7   5  -1 172.205 14.4124   4
  -7   5  -1 175.764 21.2309   6
  -7   5  -1 199.477 16.2921   7
   7  -5   1 168.849 37.8218   5
   7  -5   1 165.874 14.9856   2
  -8   5  -1 197.704 19.3290   7
   8  -5   1 241.605 18.6933   2
  -9   5  -1 0.80157 2.55918   7
   9  -5   1 3.03709 1.68276   2
   9   4  -1 25.6289 3.13998   3
   9   4  -1 28.7150 4.76545   2
  -9  -4   1 28.5128 4.89736   2
   8   4  -1 250.048 20.7440   2
  -8  -4   1 218.807 20.4718   2
   7   4  -1 559.371 42.7536   2
   7   4  -1 453.443 52.7370   5
  -7  -4   1 509.074 42.4993   2
   6   4  -1 524.157 54.2699   5
   6   4  -1 573.436 45.5215   2
   5   4  -1 40.8944 11.4841   5
   5   4  -1 31.5042 5.17020   2
  -5  -4   1 28.4847 4.67797   2
   4   4  -1 13.8224 6.79172   5
   4   4  -1 1.79967 1.86244   2
   4   4  -1 3.97286 1.26747   4
  -4  -4   1 0.98133 1.71086   2
   3   4  -1 124.890 15.8940   5
   3   4  -1 129.784 11.5234   4
   3   4  -1 156.228 18.8864   1
   3   4  -1 133.656 12.1701   2
  -3  -4   1 143.314 12.0039   2
  -3  -4   1 168.618 17.6776   1
   2   4  -1 174.440 13.9276   4
   2   4  -1 156.138 14.2669   2
   2   4  -1 172.793 16.9082   5
  -2  -4   1 171.804 14.1701   2
  -2  -4   1 186.261 15.1979   8
   1   4  -1 185.581 14.9286   3
   1   4  -1 210.343 15.1503   4
   1   4  -1 192.573 18.0488   1
  -1  -4   1 185.292 15.1887   2
  -1  -4   1 193.647 16.1311   8
  -1  -4   1 159.552 17.2167   1
   0   4  -1 130.665 10.2306   3
   0   4  -1 117.391 10.6698   7
   0   4  -1 132.780 13.6761   6
   0   4  -1 126.031 10.4020   4
   0   4  -1 152.899 12.3457   1
   0  -4   1 112.477 11.8023   8
   0  -4   1 129.340 10.3576   2
  -1   4  -1 269.515 22.1934   4
  -1   4  -1 298.697 22.0540   3
  -1   4  -1 319.851 22.7000   7
  -1   4  -1 310.161 25.1942   6
  -1   4  -1 255.145 22.5202   1
   1  -4   1 234.625 24.4036   8
   1  -4   1 277.349 22.6498   1
  -2   4  -1 19.0659 1.68026   3
  -2   4  -1 25.1454 5.00524   6
  -2   4  -1 17.2676 1.94829   4
  -2   4  -1 14.4512 2.64933   7
   2  -4   1 17.1636 7.76048   5
  -3   4  -1 17.8426 1.88316   3
  -3   4  -1 23.3597 3.18847   7
  -3   4  -1 22.7831 5.20312   6
  -3   4  -1 21.4178 2.19702   4
   3  -4   1 16.9208 7.24769   5
   3  -4   1 20.8011 2.29103   2
  -4   4  -1 473.451 37.2580   7
  -4   4  -1 472.864 36.4550   4
  -4   4  -1 485.420 39.7894   6
  -4   4  -1 454.361 36.2697   3
   4  -4   1 413.263 43.1458   5
   4  -4   1 458.085 36.8172   2
  -5   4  -1 22.0994 3.75094   7
  -5   4  -1 20.2676 2.14802   3
  -5   4  -1 18.5048 2.29727   4
  -5   4  -1 24.2873 6.88300   6
   5  -4   1 21.9772 3.00532   2
   5  -4   1 12.7206 10.1941   5
  -6   4  -1 54.6981 6.52521   7
  -6   4  -1 46.9994 9.70095   6
  -6   4  -1 58.2442 4.96266   4
   6  -4   1 44.6996 16.2284   5
   6  -4   1 54.4920 5.94638   2
  -7   4  -1 577.671 50.0136   6
  -7   4  -1 519.861 44.5301   4
  -7   4  -1 606.125 46.0549   7
   7  -4   1 540.580 59.9328   5
   7  -4   1 573.602 45.7178   2
  -8   4  -1 235.167 20.7598   7
  -8   4  -1 219.830 25.6220   6
   8  -4   1 230.221 43.4203   5
   8  -4   1 251.183 20.4392   2
  -9   4  -1 4.12460 3.03466   7
 -10   4  -1 -0.0245 2.16084   7
  10  -4   1 0.39811 1.55887   2
  10   3  -1 -0.4392 2.21206   2
  10   3  -1 1.18719 1.07426   3
  -9  -3   1 27.8893 5.10875   2
   8   3  -1 15.0436 4.20975   2
   8   3  -1 13.2584 16.2505   5
  -8  -3   1 26.9816 4.58175   2
   7   3  -1 354.252 29.8707   2
   7   3  -1 297.000 40.1641   5
  -7  -3   1 364.387 29.2600   2
   6   3  -1 519.562 41.3714   2
   6   3  -1 408.393 48.7336   5
  -6  -3   1 541.049 40.8880   2
   5   3  -1 58.2609 6.86318   2
  -5  -3   1 59.1815 6.33857   2
   4   3  -1 39.5091 9.76130   5
   4   3  -1 37.0311 4.76560   2
   4   3  -1 35.5883 10.5255   1
  -4  -3   1 27.8107 8.05718   1
  -4  -3   1 39.4391 4.31633   2
  -4  -3   1 37.3874 3.75394   7
   3   3  -1 4.82491 4.30739   1
   3   3  -1 2.43860 4.19032   5
   3   3  -1 5.16317 0.99178   4
   3   3  -1 5.33135 1.95853   2
  -3  -3   1 4.00199 3.86933   1
  -3  -3   1 3.35946 1.43440   2
   2   3  -1 918.566 72.8943   1
   2   3  -1 876.621 72.0335   5
   2   3  -1 770.955 69.5386   2
   2   3  -1 827.360 69.0948   4
  -2  -3   1 989.285 72.3934   1
  -2  -3   1 892.002 70.3931   8
  -2  -3   1 901.199 69.3628   2
   1   3  -1 428.302 34.5412   5
   1   3  -1 419.944 33.0576   4
   1   3  -1 393.427 35.3770   1
  -1  -3   1 435.922 34.0561   8
   0   3  -1 1053.35 84.7354   4
   0   3  -1 1148.41 86.8055   6
   0   3  -1 1080.39 86.1780   1
   0  -3   1 991.155 85.9879   8
   0  -3   1 1140.33 86.0186   1
  -1   3  -1 41.5654 3.97432   4
  -1   3  -1 46.2944 5.94553   6
  -1   3  -1 45.3795 4.33442   7
   1  -3   1 56.1206 4.69937   1
  -2   3  -1 2394.47 168.827   6
  -2   3  -1 2070.41 167.249   7
   2  -3   1 2198.58 167.426   1
   2  -3   1 1906.45 169.478   5
   2  -3   1 2099.69 167.392   1
  -3   3  -1 167.963 13.1783   4
  -3   3  -1 171.677 13.0478   3
  -3   3  -1 157.889 13.7240   7
  -3   3  -1 169.759 15.2590   6
   3  -3   1 188.791 14.5594   1
   3  -3   1 138.913 13.4642   2
   3  -3   1 141.932 18.0494   5
   3  -3   1 172.823 14.3112   1
  -4   3  -1 1.68123 2.71698   6
  -4   3  -1 5.14424 0.80061   3
  -4   3  -1 3.45434 0.82694   4
  -4   3  -1 4.39309 1.72184   7
   4  -3   1 1.71027 3.32343   1
   4  -3   1 5.63688 6.25771   5
   4  -3   1 3.41204 1.46362   2
   4  -3   1 3.53977 2.36331   1
  -5   3  -1 301.574 22.4870   4
  -5   3  -1 299.632 23.3668   7
  -5   3  -1 288.584 22.4011   3
  -5   3  -1 300.754 25.7533   6
   5  -3   1 240.395 24.8995   1
   5  -3   1 280.730 32.1929   5
   5  -3   1 267.113 23.3383   2
  -6   3  -1 197.256 17.1455   7
  -6   3  -1 200.586 16.0391   4
  -6   3  -1 200.587 20.0274   6
   6  -3   1 202.634 17.3762   2
   6  -3   1 190.761 29.2994   5
  -7   3  -1 169.994 13.6901   7
  -7   3  -1 133.568 12.0322   4
  -7   3  -1 148.794 17.0653   6
   7  -3   1 145.405 13.7911   2
   7  -3   1 169.482 30.4594   5
  -8   3  -1 9.66078 3.31290   7
  -8   3  -1 7.38982 6.51290   6
   8  -3   1 18.7838 19.0055   5
  -9   3  -1 0.88790 2.43647   7
   9  -3   1 9.56694 3.28564   2
  10  -3   1 3.66702 2.18780   2
  10   2  -1 26.3262 4.90649   2
   9   2  -1 117.222 12.4795   2
   8   2  -1 11.2719 4.17448   2
   8   2  -1 6.12373 14.1811   5
  -8  -2   1 8.89482 2.91838   2
   7   2  -1 16.7071 4.91193   2
   7   2  -1 22.1652 12.7295   5
  -7  -2   1 13.9188 3.11869   2
   6   2  -1 275.483 32.5427   5
   6   2  -1 312.543 23.5455   2
  -6  -2   1 231.188 21.5034   7
  -6  -2   1 266.098 22.3821   2
   5   2  -1 295.862 25.5639   2
   5   2  -1 300.909 33.2039   5
  -5  -2   1 301.785 32.4848   1
  -5  -2   1 297.654 24.3628   7
  -5  -2   1 323.215 25.0345   2
   4   2  -1 402.931 37.4901   5
   4   2  -1 343.388 31.3877   2
  -4  -2   1 412.786 31.0910   2
  -4  -2   1 371.564 30.5866   7
  -4  -2   1 409.007 35.8618   1
   3   2  -1 2.37592 4.82948   5
   3   2  -1 2.17891 2.95140   1
   3   2  -1 3.41703 1.80265   2
  -3  -2   1 2.29509 1.23899   2
  -3  -2   1 3.37388 2.79638   1
   2   2  -1 98.2521 10.5536   1
   2   2  -1 99.1569 8.35180   2
  -2  -2   1 89.5391 7.87995   2
   1   2  -1 2491.88 191.050   5
   1   2  -1 2543.96 191.618   1
  -1  -2   1 2078.50 190.928   1
  -1  -2   1 2585.74 190.417   8
   0   2  -1 223.495 16.8897   1
   0  -2   1 191.644 16.7705   8
   0  -2   1 202.326 16.6471   1
   0  -2   1 177.652 16.1021   5
  -1   2  -1 316.594 26.4581   1
  -1   2  -1 368.880 26.9943   6
   1  -2   1 286.349 27.0530   5
   1  -2   1 343.149 26.4850   1
  -2   2  -1 269.428 19.0216   7
  -2   2  -1 243.436 18.6873   4
   2  -2   1 228.967 21.6669   5
   2  -2   1 203.014 19.5748   1
  -3   2  -1 388.827 31.0937   3
  -3   2  -1 430.756 31.6174   7
  -3   2  -1 460.015 32.9737   6
  -3   2  -1 378.739 31.1712   4
   3  -2   1 367.955 35.6479   5
   3  -2   1 366.204 31.6208   2
   3  -2   1 375.839 32.8080   1
   3  -2   1 403.512 33.1397   1
  -4   2  -1 248.561 19.9719   3
  -4   2  -1 268.688 22.2844   6
  -4   2  -1 252.685 20.5562   7
  -4   2  -1 251.747 20.0315   4
   4  -2   1 257.864 27.0061   5
   4  -2   1 236.491 20.7650   2
   4  -2   1 260.397 22.9376   1
  -5   2  -1 20.4241 4.98307   6
  -5   2  -1 23.8953 2.26345   4
  -5   2  -1 24.2569 3.37969   7
   5  -2   1 20.8457 6.18657   1
   5  -2   1 21.3390 3.70239   2
   5  -2   1 22.7016 9.80420   5
  -6   2  -1 0.37427 1.71738   7
  -6   2  -1 2.11190 0.80574   4
  -6   2  -1 1.39168 3.50654   6
   6  -2   1 -0.9697 9.96935   5
   6  -2   1 1.05707 2.24606   2
  -7   2  -1 9.58059 1.55741   4
  -7   2  -1 14.8933 3.25188   7
  -7   2  -1 9.50444 5.94071   6
   7  -2   1 16.8017 4.22216   2
   7  -2   1 9.01881 11.9979   5
  -8   2  -1 273.997 25.4466   6
  -8   2  -1 218.785 20.9612   7
   8  -2   1 291.373 41.5971   5
  -9   2  -1 224.202 19.2404   7
  10  -2   1 59.3185 7.17743   2
  10   1  -1 54.7950 7.77921   2
   9   1  -1 89.3004 10.6135   2
   9   1  -1 61.5385 23.0431   5
   8   1  -1 27.2658 6.19965   2
   8   1  -1 9.71276 13.8954   5
  -8  -1   1 23.3649 4.38612   2
   7   1  -1 14.4965 4.29319   2
   7   1  -1 11.8396 12.8388   5
  -7  -1   1 19.3191 3.47905   2
   6   1  -1 870.413 76.2129   5
   6   1  -1 792.515 66.4196   2
  -6  -1   1 869.875 65.2128   7
  -6  -1   1 775.232 65.4306   2
   5   1  -1 658.780 60.6970   1
   5   1  -1 793.898 65.0503   5
   5   1  -1 696.592 56.7289   2
  -5  -1   1 793.709 55.8287   7
  -5  -1   1 600.405 61.1289   1
  -5  -1   1 696.517 55.9936   2
   4   1  -1 51.3659 11.2817   5
   4   1  -1 36.6520 4.27912   2
   4   1  -1 37.1674 7.17504   1
  -4  -1   1 29.1370 3.42529   2
  -4  -1   1 29.2693 7.26608   1
   3   1  -1 303.613 29.0055   5
   3   1  -1 305.239 24.6924   2
   3   1  -1 301.846 26.9082   1
  -3  -1   1 304.894 27.0787   1
   2   1  -1 495.355 47.6018   5
   2   1  -1 645.705 47.1003   1
  -2  -1   1 618.714 46.0645   8
  -2  -1   1 516.818 46.6386   1
   1   1  -1 1182.22 85.4244   5
   1   1  -1 960.240 84.9104   1
  -1   1  -1 5.56219 1.55260   6
  -1   1  -1 9.79412 1.98265   1
   1  -1   1 10.1578 2.13868   1
   1  -1   1 6.44552 2.48478   5
   2  -1   1 274.981 21.9565   1
   2  -1   1 272.555 23.4312   5
   2  -1   1 221.463 21.3616   1
  -3   1  -1 447.274 33.8099   7
   3  -1   1 362.945 35.4185   1
   3  -1   1 445.533 36.2615   1
   3  -1   1 430.470 34.1269   2
   3  -1   1 452.405 38.5182   5
  -4   1  -1 46.0555 4.74247   7
  -4   1  -1 54.6194 4.84313   2
   4  -1   1 45.2531 10.8586   5
   4  -1   1 55.2268 7.93892   1
   4  -1   1 56.0625 8.08263   1
   4  -1   1 49.5525 5.39122   2
  -5   1  -1 32.8335 3.40213   2
  -5   1  -1 25.9567 2.60556   4
  -5   1  -1 30.7276 3.44904   7
   5  -1   1 31.0467 4.40724   2
   5  -1   1 27.2679 9.92313   5
   5  -1   1 22.5468 6.28847   1
  -6   1  -1 488.629 42.1193   4
  -6   1  -1 567.088 42.9043   7
  -6   1  -1 501.993 42.8710   2
   6  -1   1 543.739 43.9672   2
   6  -1   1 613.197 54.8327   5
  -7   1  -1 199.041 16.7793   7
  -7   1  -1 190.191 20.0591   6
  -7   1  -1 187.369 15.7583   4
   7  -1   1 218.673 18.5255   2
   7  -1   1 191.834 30.8607   5
  -8   1  -1 337.230 29.4400   6
  -8   1  -1 278.418 25.0041   7
   9  -1   1 579.449 83.1226   5
   9  -1   1 735.356 56.8290   2
  10  -1   1 70.4191 8.41049   2
  10   0  -1 0.22080 2.92374   2
   9   0  -1 30.6311 6.45887   2
   9   0  -1 12.3196 18.4474   5
  -9   0   1 22.1979 10.4194   6
  -9   0   1 14.2441 4.86428   7
   8   0  -1 3.47248 3.82359   2
   8   0  -1 0.47931 14.6668   5
  -8   0   1 0.14820 5.89968   6
  -8   0   1 1.72969 1.88733   7
   7   0  -1 229.087 32.2320   5
  -7   0   1 198.657 17.2792   7
   6   0  -1 1295.36 93.4352   2
   6   0  -1 1018.52 101.481   5
  -6   0   1 1180.53 92.0714   2
  -6   0   1 1150.05 92.0666   7
   5   0  -1 288.459 22.5089   2
   5   0  -1 220.455 28.9563   5
   5   0  -1 318.955 26.5468   1
  -5   0   1 238.033 21.4336   7
  -5   0   1 258.452 21.4764   2
   4   0  -1 553.823 44.7077   2
   4   0  -1 622.873 47.4650   1
   4   0  -1 475.210 49.7530   5
  -4   0   1 582.264 44.1323   2
  -4   0   1 541.189 44.0816   7
   3   0  -1 416.405 40.7728   1
   3   0  -1 494.095 43.8363   5
  -3   0   1 505.012 41.4764   1
  -3   0   1 515.293 38.8196   3
  -3   0   1 539.983 39.0530   7
   2   0  -1 2169.78 172.767   5
  -1   0  -1 64.1933 7.09152   1
   1   0   1 81.6053 7.34559   1
   2   0   1 2755.48 220.328   5
   2   0   1 2800.90 219.309   1
   3   0   1 4669.85 396.051   1
   3   0   1 5105.13 398.017   5
   3   0   1 5321.66 396.213   1
  -4   0  -1 2932.01 222.507   7
   4   0   1 3036.86 229.339   5
   4   0   1 2788.86 223.201   2
   4   0   1 2649.45 225.968   1
   4   0   1 2816.80 226.619   1
  -5   0  -1 2.54866 1.42896   2
  -5   0  -1 3.18714 1.13700   7
   5   0   1 3.43831 6.09175   1
   5   0   1 5.68966 7.63009   5
   5   0   1 2.06014 2.02623   2
  -6   0  -1 116.228 10.9299   2
  -6   0  -1 122.452 10.5888   7
   6   0   1 135.878 22.2783   5
   6   0   1 131.872 12.2736   2
  -7   0  -1 4.37716 1.80868   7
  -7   0  -1 3.60695 1.97995   2
  -7   0  -1 3.30358 1.26840   4
   7   0   1 8.12870 11.1545   5
   7   0   1 8.68996 4.03818   2
  -8   0  -1 59.5024 11.3828   6
   8   0   1 48.3461 18.0829   5
   8   0   1 50.8069 8.22880   2
   9   0   1 2.26062 3.71598   2
  10   0   1 6.19612 3.25511   2
  10  -1  -1 14.3072 4.47221   2
   9  -1  -1 21.4301 5.20009   2
   9  -1  -1 4.03069 18.5378   5
  -9   1   1 23.2777 3.84474   7
  -9   1   1 15.3504 9.49935   6
   8  -1  -1 9.44030 4.02026   2
   8  -1  -1 16.9154 16.9338   5
  -8   1   1 7.22591 7.07503   6
  -8   1   1 13.8761 3.21550   7
   7  -1  -1 0.38014 2.55211   2
   7  -1  -1 -0.9850 12.0911   5
  -7   1   1 -0.1930 4.07700   6
  -7   1   1 0.33771 1.67268   7
   6  -1  -1 191.996 29.9560   5
   6  -1  -1 197.961 20.4858   2
  -6   1   1 262.121 22.2185   6
  -6   1   1 282.921 19.9895   7
   5  -1  -1 476.100 41.2179   2
   5  -1  -1 496.034 49.2693   5
  -5   1   1 534.061 42.3987   6
  -5   1   1 552.178 40.7030   7
  -5   1   1 489.116 40.1373   3
   4  -1  -1 1.43205 2.53326   1
   4  -1  -1 0.13584 1.32446   2
   4  -1  -1 2.48073 6.20033   5
  -4   1   1 0.34003 2.11743   6
  -4   1   1 0.43139 0.56019   3
  -4   1   1 3.20602 2.90297   1
  -4   1   1 1.14253 1.12612   7
   3  -1  -1 20.5605 8.39453   5
   3  -1  -1 12.6486 3.31561   1
  -3   1   1 17.2779 3.71598   1
  -3   1   1 20.7036 1.66500   3
   2  -1  -1 0.24015 0.97772   1
  -2   1   1 0.82532 1.18549   1
  -2   1   1 1.13924 1.34000   6
   1  -1  -1 745.601 54.5243   1
  -1   1   1 627.593 54.4882   1
  -1   1   1 699.679 54.7210   6
   0   1   1 1728.88 136.198   5
   1   1   1 45.6164 5.26277   1
   1   1   1 38.7636 6.23522   5
   1   1   1 39.2622 5.37824   1
   2   1   1 3973.61 309.531   1
   2   1   1 3796.84 309.236   1
   2   1   1 4008.91 310.349   5
   3   1   1 9764.22 775.494   1
   3   1   1 9999.99 777.091   5
  -4  -1  -1 2944.17 249.918   2
   4   1   1 3243.79 250.344   2
   4   1   1 3304.75 256.431   5
   4   1   1 3108.67 254.223   1
   4   1   1 3351.48 254.537   1
  -5  -1  -1 66.3040 6.47516   2
   5   1   1 46.1950 12.0964   5
   5   1   1 63.5184 14.3597   1
   5   1   1 64.1480 7.17165   2
   5   1   1 58.9492 13.5272   1
  -6  -1  -1 17.5421 3.38636   2
   6   1   1 25.4877 12.0244   5
   6   1   1 13.1639 3.71192   2
  -7  -1  -1 1.00756 1.97307   2
   7   1   1 0.57751 3.17192   2
   7   1   1 -4.8171 9.55794   5
  -8  -1  -1 136.818 12.5966   2
   8   1   1 136.777 26.8365   5
   9   1   1 539.614 44.8883   2
  10   1   1 140.186 12.9275   2
  10   1   1 133.477 11.1684   3
  10  -2  -1 12.5327 3.65716   2
 -10   2   1 0.49378 2.29368   7
   9  -2  -1 3.22696 3.26521   2
   9  -2  -1 12.4668 22.6180   5
  -9   2   1 12.6080 9.96424   6
   8  -2  -1 10.3517 3.61076   2
   8  -2  -1 3.24331 18.0526   5
  -8   2   1 11.1224 7.03588   6
  -8   2   1 11.5949 3.07780   7
   7  -2  -1 541.932 60.6232   5
   7  -2  -1 611.788 47.2671   2
  -7   2   1 614.387 46.3315   7
  -7   2   1 510.980 48.6667   6
   6  -2  -1 4287.30 341.135   5
   6  -2  -1 3806.50 329.618   2
  -6   2   1 4528.30 329.213   7
  -6   2   1 4187.84 331.395   6
   5  -2  -1 2569.49 224.419   5
   5  -2  -1 2559.80 217.638   1
  -5   2   1 2901.51 217.575   6
  -5   2   1 2625.69 214.968   4
  -5   2   1 2763.00 215.048   3
  -5   2   1 3066.71 215.698   7
   4  -2  -1 691.423 70.6216   5
   4  -2  -1 788.754 65.5144   1
   4  -2  -1 783.465 65.3685   1
   4  -2  -1 755.841 64.1396   2
  -4   2   1 827.977 63.5014   4
  -4   2   1 831.355 63.5169   3
  -4   2   1 903.139 64.0498   7
  -4   2   1 879.061 65.5845   6
   3  -2  -1 417.687 31.8764   1
  -3   2   1 391.978 31.1343   7
  -3   2   1 385.110 32.2451   6
  -3   2   1 370.725 30.7292   3
  -2   2   1 2656.25 208.854   6
  -1   2   1 407.985 35.4885   1
  -1   2   1 489.824 36.8240   6
  -1   2   1 457.417 35.6036   1
   0   2   1 2253.97 161.475   6
   0   2   1 1901.88 160.832   1
   0   2   1 1975.25 160.642   1
  -1  -2  -1 1901.05 155.404   2
   1   2   1 1952.04 157.020   1
   1   2   1 2101.09 157.571   5
  -2  -2  -1 1389.18 101.851   2
   2   2   1 1338.91 105.092   1
   2   2   1 1156.82 101.484   4
   2   2   1 1141.41 101.854   2
   2   2   1 1401.96 104.658   1
   2   2   1 1355.71 105.367   5
  -3  -2  -1 342.919 29.6856   2
   3   2   1 370.479 33.9697   1
   3   2   1 405.773 30.0649   2
   3   2   1 356.895 33.1685   1
  -4  -2  -1 5.21397 2.01057   2
   4   2   1 1.46240 5.44898   1
   4   2   1 5.69331 5.18622   1
   4   2   1 5.19940 2.40969   2
   4   2   1 3.53479 6.30342   5
  -5  -2  -1 203.967 17.0288   2
   5   2   1 180.267 26.1148   1
   5   2   1 188.186 24.9371   5
   5   2   1 192.062 17.2734   2
   5   2   1 209.629 27.6888   1
  -6  -2  -1 11.5661 3.41215   2
   6   2   1 9.35230 9.97060   5
   6   2   1 6.63674 3.18456   2
  -7  -2  -1 2.03182 2.61258   2
   7   2   1 3.84637 3.21412   2
   7   2   1 7.32756 11.8178   5
  -8  -2  -1 198.213 17.8766   2
   8   2   1 222.386 18.9245   2
   8   2   1 155.798 31.6753   5
   9   2   1 216.574 19.3774   2
 -10   3   1 53.0325 6.09051   7
   9  -3  -1 21.1133 4.16099   2
   9  -3  -1 17.2133 24.2959   5
  -9   3   1 15.5409 3.72605   7
   8  -3  -1 173.408 15.3732   2
   8  -3  -1 124.926 28.8283   5
  -8   3   1 188.671 15.0092   7
  -8   3   1 133.773 18.8673   6
   7  -3  -1 4.66721 2.48742   2
   7  -3  -1 4.45437 14.3986   5
  -7   3   1 5.72065 5.65162   6
  -7   3   1 5.10980 2.41947   7
   6  -3  -1 1153.99 96.7944   2
   6  -3  -1 1155.34 108.816   5
  -6   3   1 1194.22 95.7197   4
  -6   3   1 1263.77 95.8574   3
  -6   3   1 1334.25 99.7937   6
   5  -3  -1 114.734 23.4803   5
   5  -3  -1 156.279 13.0001   1
   5  -3  -1 137.974 12.0797   2
  -5   3   1 124.964 11.2428   4
  -5   3   1 140.789 11.3166   3
  -5   3   1 142.505 14.5789   6
  -5   3   1 146.373 12.0429   7
   4  -3  -1 57.2413 4.61912   1
   4  -3  -1 44.5129 4.63450   2
   4  -3  -1 58.2282 16.9053   5
  -4   3   1 43.2738 6.83549   6
  -4   3   1 49.2377 4.88182   7
  -4   3   1 48.9430 4.13861   3
  -4   3   1 42.6835 4.12339   4
  -3   3   1 7.46924 1.04424   3
  -3   3   1 7.74671 3.11096   6
  -3   3   1 7.87020 1.20855   4
  -3   3   1 11.5069 1.87062   7
  -2   3   1 524.483 44.3728   4
  -2   3   1 554.276 44.2874   3
  -2   3   1 630.107 44.7403   7
  -2   3   1 550.411 46.2763   6
  -1   3   1 30.1820 3.40116   7
  -1   3   1 38.1101 3.26785   4
  -1   3   1 40.9044 3.13905   3
  -1   3   1 37.2177 5.85234   6
   0   3   1 85.8063 7.62505   1
   0   3   1 70.9558 7.68370   1
   0   3   1 70.5172 6.18314   4
   0   3   1 70.7422 6.00033   3
  -1  -3  -1 118.625 10.2571   2
   1   3   1 135.411 13.0672   1
   1   3   1 117.447 10.1600   4
   1   3   1 119.595 9.96272   3
   1   3   1 123.493 13.0138   5
   1   3   1 138.316 12.6519   1
  -2  -3  -1 422.924 36.3731   2
   2   3   1 484.644 39.7120   1
   2   3   1 466.990 40.0809   5
   2   3   1 426.995 36.4181   2
   2   3   1 466.319 36.1800   4
   2   3   1 480.383 40.4769   1
  -3  -3  -1 1498.08 131.543   2
   3   3   1 1687.88 135.887   1
   3   3   1 1843.47 137.071   5
   3   3   1 1548.77 131.656   2
   3   3   1 1778.76 131.223   4
   3   3   1 1694.12 137.031   1
  -4  -3  -1 1890.56 153.531   2
   4   3   1 1984.16 160.813   1
   4   3   1 1862.47 153.589   2
   4   3   1 2070.24 160.334   5
  -5  -3  -1 116.206 12.5202   2
   5   3   1 155.045 21.8965   5
   5   3   1 150.451 12.9554   2
  -6  -3  -1 42.1989 6.42755   2
   6   3   1 49.0924 6.57156   2
   6   3   1 26.9207 13.6334   5
  -7  -3  -1 18.6891 4.46189   2
   7   3   1 3.82812 10.7300   5
   7   3   1 17.6890 4.59986   2
  -8  -3  -1 22.3040 4.54823   2
   8   3   1 21.7213 4.53094   2
   9   3   1 -0.0886 2.16396   2
   9   3   1 3.26925 1.33787   3
  10  -4  -1 146.811 12.7348   2
   9  -4  -1 33.7217 4.59129   2
  -9   4   1 23.0303 4.38604   7
   8  -4  -1 21.5434 21.4053   5
   8  -4  -1 16.0560 3.37026   2
  -8   4   1 15.1713 3.77844   7
  -8   4   1 11.6827 8.86361   6
   7  -4  -1 35.8050 19.7064   5
   7  -4  -1 29.1684 4.16331   2
  -7   4   1 19.2848 7.88563   6
  -7   4   1 27.2126 3.20921   3
  -7   4   1 34.5120 4.99872   7
   6  -4  -1 6.43242 12.5942   5
   6  -4  -1 19.0534 3.04162   2
  -6   4   1 17.4881 2.40856   3
  -6   4   1 19.5622 2.20492   4
  -6   4   1 17.6608 6.51850   6
  -6   4   1 22.2785 3.53558   7
   5  -4  -1 520.560 47.5708   2
   5  -4  -1 559.617 58.9328   5
  -5   4   1 571.736 47.1863   3
  -5   4   1 648.438 47.2919   4
  -5   4   1 701.522 51.6990   6
  -4   4   1 1326.66 109.759   3
  -4   4   1 1310.07 109.871   4
  -4   4   1 1437.83 113.164   6
  -4   4   1 1539.11 110.543   7
  -3   4   1 148.036 15.4422   6
  -3   4   1 148.639 12.6728   4
  -3   4   1 157.291 12.5432   3
  -3   4   1 172.844 13.2662   7
  -2   4   1 644.833 49.0844   7
  -2   4   1 617.770 48.5474   3
  -2   4   1 576.747 48.6898   4
  -2   4   1 639.080 51.6475   6
   1  -4  -1 2.11256 2.40286   8
  -1   4   1 3.15108 0.78947   3
  -1   4   1 2.21843 3.62013   6
  -1   4   1 2.16051 0.94380   4
  -1   4   1 1.04818 1.02598   7
   0  -4  -1 6.45880 1.18442   2
   0   4   1 7.07476 1.35181   4
   0   4   1 4.55923 0.89409   3
   0   4   1 10.3834 2.90396   1
   0   4   1 9.81355 2.72813   1
  -1  -4  -1 136.517 11.5644   2
   1   4   1 136.749 11.2124   3
   1   4   1 130.705 11.4902   4
   1   4   1 150.660 14.8759   5
   1   4   1 157.798 14.6241   1
   1   4   1 131.700 14.4240   1
  -2  -4  -1 0.78690 1.29450   2
   2   4   1 0.03883 4.48800   1
   2   4   1 0.59624 0.79779   3
   2   4   1 1.23232 3.60287   5
   2   4   1 1.63225 1.32531   4
  -3  -4  -1 612.097 44.1599   2
   3   4   1 531.401 43.1418   3
   3   4   1 560.197 49.0294   5
   3   4   1 538.615 43.5584   4
   3   4   1 498.635 43.7154   2
  -4  -4  -1 102.711 10.3381   2
   4   4   1 114.945 9.13571   3
   4   4   1 104.110 10.0768   2
   4   4   1 118.379 17.3187   5
  -5  -4  -1 33.8002 5.77090   2
   5   4   1 27.0689 10.5358   5
   5   4   1 32.0049 5.05888   2
  -6  -4  -1 48.5756 6.87927   2
   6   4   1 38.9215 5.84227   2
   6   4   1 33.2674 13.6330   5
   6   4   1 37.1548 4.37167   3
  -7  -4  -1 159.158 15.1898   2
   7   4   1 143.119 28.7832   5
   7   4   1 156.412 14.3957   2
   7   4   1 157.033 13.0394   3
  -8  -4  -1 36.5685 5.81078   2
   8   4   1 28.0358 5.17660   2
   8   4   1 45.5923 3.92987   3
   9   4   1 64.5928 5.61799   3
 -10   5   1 15.4763 2.94187   7
  -9   5   1 2.93976 2.35440   7
   8  -5  -1 2.67995 26.9585   5
  -8   5   1 4.47745 10.6640   6
  -8   5   1 0.26148 2.36425   7
   7  -5  -1 63.0951 24.0648   5
  -7   5   1 93.6968 8.11284   3
  -7   5   1 104.358 9.70311   7
  -7   5   1 89.0136 15.7141   6
   6  -5  -1 38.8012 17.4728   5
  -6   5   1 45.5377 5.74196   7
  -6   5   1 44.7975 4.22614   3
  -6   5   1 34.5790 9.42446   6
  -6   5   1 44.2907 4.17214   4
   5  -5  -1 105.595 21.6497   5
  -5   5   1 89.1821 7.84074   4
  -5   5   1 86.5610 12.9415   6
  -5   5   1 95.9480 8.94588   7
  -5   5   1 91.1748 7.69856   3
  -4   5   1 1023.08 81.5902   4
  -4   5   1 1007.36 85.6155   6
  -4   5   1 1075.40 82.2828   7
  -4   5   1 1042.66 81.3867   3
  -3   5   1 504.082 43.6751   6
  -3   5   1 479.514 39.7819   4
  -3   5   1 530.688 40.3938   7
  -3   5   1 498.335 39.5625   3
  -2   5   1 924.688 69.6200   7
  -2   5   1 923.586 73.2630   6
  -2   5   1 820.250 68.8967   3
  -2   5   1 854.563 69.1477   4
   1  -5  -1 771.934 71.2456   2
  -1   5   1 925.850 75.7827   6
  -1   5   1 903.594 71.7114   7
  -1   5   1 995.212 71.2243   3
  -1   5   1 948.972 71.4778   4
   0   5   1 4.94126 3.02043   1
   0   5   1 3.80742 0.93196   3
   0   5   1 2.21221 1.14443   4
   1   5   1 153.281 17.2722   1
   1   5   1 169.905 13.5510   4
   1   5   1 162.376 13.1071   3
  -2  -5  -1 22.4528 3.40220   2
   2   5   1 34.6353 8.09072   5
   2   5   1 26.3050 3.53928   4
   2   5   1 23.1361 2.64907   3
  -3  -5  -1 484.871 35.3416   2
   3   5   1 408.927 39.9657   5
   3   5   1 425.707 34.1696   3
   3   5   1 399.741 34.6883   4
  -4  -5  -1 167.689 15.1213   2
   4   5   1 164.430 13.6610   3
   4   5   1 168.226 22.0501   5
  -5  -5  -1 309.681 26.5797   2
   5   5   1 290.671 34.6715   5
   5   5   1 318.511 24.8717   3
  -6  -5  -1 2.06179 3.08233   2
   6   5   1 0.67774 12.9085   5
   6   5   1 -1.0074 1.45367   3
  -7  -5  -1 92.1301 10.5541   2
   7   5   1 103.193 8.51798   3
  -8  -5  -1 8.88141 3.03717   2
   8   5   1 10.3201 1.60357   3
  -9   6   1 47.7374 5.69286   7
  -8   6   1 22.6762 4.13516   7
  -7   6   1 21.3319 4.23807   7
  -7   6   1 4.67525 9.08336   6
  -7   6   1 20.1360 2.62252   3
  -6   6   1 17.5307 8.90193   6
  -6   6   1 12.2463 1.94653   3
  -6   6   1 17.2064 2.30187   4
  -6   6   1 13.2313 3.17714   7
   5  -6  -1 2.94213 17.8775   5
  -5   6   1 15.0595 3.44806   7
  -5   6   1 9.04962 1.62229   3
  -5   6   1 9.39331 7.67944   6
   4  -6  -1 9.75455 18.1195   5
  -4   6   1 10.9125 2.81396   7
  -4   6   1 10.9602 1.93950   4
  -4   6   1 13.6440 7.09434   6
  -4   6   1 7.83801 1.42699   3
  -3   6   1 160.427 13.1067   3
  -3   6   1 163.602 14.1703   7
  -3   6   1 166.950 13.5173   4
  -3   6   1 157.774 18.5580   6
  -2   6   1 593.328 56.2018   6
  -2   6   1 667.100 51.1308   3
  -2   6   1 680.179 51.5230   4
  -2   6   1 648.595 51.9597   7
   1  -6  -1 1068.44 85.5252   2
  -1   6   1 1187.65 85.3404   3
  -1   6   1 921.913 85.8072   7
  -1   6   1 1173.67 85.7350   4
   0  -6  -1 140.112 13.0839   2
   0   6   1 171.340 13.2965   4
   0   6   1 165.142 12.8225   3
  -1  -6  -1 149.674 12.9744   2
   1   6   1 158.807 12.4252   3
   1   6   1 147.057 12.9771   4
  -2  -6  -1 262.297 21.3956   2
   2   6   1 247.503 20.4972   3
   2   6   1 256.370 21.1804   4
  -3  -6  -1 16.5764 3.38331   2
   3   6   1 14.2678 2.08018   3
   3   6   1 6.98783 2.52277   4
  -4  -6  -1 508.141 42.4333   2
   4   6   1 525.449 41.0401   3
  -5  -6  -1 548.221 41.2274   2
   5   6   1 489.374 39.3492   3
   5   6   1 422.972 50.2234   5
  -6  -6  -1 14.8021 3.98621   2
   6   6   1 13.5980 2.14882   3
  -7  -6  -1 0.62109 2.53516   2
   7   6   1 0.38049 1.06805   3
  -8   7   1 3.64103 2.35988   7
  -7   7   1 3.55023 1.29367   3
  -7   7   1 4.89970 2.77297   7
  -6   7   1 74.0923 6.62069   4
  -6   7   1 68.5599 7.85585   7
  -6   7   1 73.0550 6.31700   3
  -5   7   1 0.49695 8.92708   6
  -5   7   1 0.93761 2.15865   7
  -5   7   1 -0.0678 1.35190   4
  -5   7   1 0.52136 1.07913   3
  -4   7   1 350.317 38.6155   6
  -4   7   1 407.607 32.6029   4
  -4   7   1 404.572 32.1176   3
  -4   7   1 445.272 33.5135   7
  -3   7   1 98.9528 9.15204   7
  -3   7   1 94.2143 8.32334   4
  -3   7   1 84.6376 15.0822   6
  -3   7   1 86.5705 7.65942   3
  -2   7   1 1.77275 1.61014   4
  -2   7   1 0.45137 1.91416   7
  -2   7   1 3.97636 1.05239   3
   1  -7  -1 59.3548 6.36869   2
  -1   7   1 75.7330 6.21265   3
  -1   7   1 88.8710 7.06841   4
   0  -7  -1 13.2176 2.50099   2
   0   7   1 13.9154 2.63880   4
   0   7   1 12.2959 1.84083   3
  -1  -7  -1 83.1647 7.13948   2
   1   7   1 64.6329 6.19437   3
   1   7   1 59.5505 7.01599   4
  -2  -7  -1 2.41185 2.05226   2
   2   7   1 4.19524 1.36275   3
   2   7   1 10.6068 2.83569   4
   3   7   1 32.7959 5.02514   4
   3   7   1 43.0573 4.13695   3
  -4  -7  -1 161.625 14.2153   2
   4   7   1 142.914 12.6080   3
  -5  -7  -1 383.348 31.6108   2
   5   7   1 370.486 30.0784   3
  -6  -7  -1 44.6953 5.94685   2
   6   7   1 37.3390 3.96595   3
  -7   8   1 62.6680 5.32425   3
  -7   8   1 58.4974 6.72777   7
  -6   8   1 76.6944 6.30896   3
  -6   8   1 75.3760 6.78915   4
  -6   8   1 66.3316 7.77308   7
  -5   8   1 106.769 9.00690   3
  -5   8   1 89.8587 10.2613   7
  -5   8   1 129.578 9.76376   4
  -4   8   1 561.191 52.6253   7
  -4   8   1 651.686 51.6000   3
  -4   8   1 754.071 52.3273   4
  -3   8   1 108.549 10.9437   7
  -3   8   1 127.621 9.81351   3
  -2   8   1 19.6801 2.32904   3
  -2   8   1 15.6182 2.92289   4
  -1   8   1 329.037 25.7470   3
  -1   8   1 317.384 26.4798   4
   0  -8  -1 313.136 25.0787   2
   0   8   1 295.021 24.3428   3
   0   8   1 306.781 25.1631   4
  -1  -8  -1 2.33902 1.72390   2
   1   8   1 0.63284 1.34402   3
   1   8   1 -0.9885 2.05080   4
  -2  -8  -1 132.026 10.6399   2
   2   8   1 102.559 9.33142   3
   2   8   1 94.8110 10.1261   4
  -3  -8  -1 2.01777 2.18120   2
   3   8   1 0.61732 1.32805   3
  -4  -8  -1 2.57136 2.27858   2
   4   8   1 6.08432 1.63235   3
  -5  -8  -1 23.7432 4.20723   2
   5   8   1 21.8287 2.67679   3
  -6   9   1 6.72000 2.64846   7
  -5   9   1 70.9111 6.25734   3
  -5   9   1 79.0414 7.00570   4
  -4   9   1 265.941 21.0120   4
  -4   9   1 244.544 20.2517   3
  -3   9   1 0.35512 2.04568   4
  -3   9   1 0.67791 0.92035   3
  -2   9   1 53.7329 4.74347   3
  -2   9   1 53.1452 5.93008   4
  -1   9   1 240.182 19.7276   4
  -1   9   1 229.913 18.7601   3
   0   9   1 260.759 21.2354   3
   0   9   1 272.059 22.1822   4
  -1  -9  -1 0.45768 1.70295   2
   1   9   1 1.81038 2.09946   4
   1   9   1 -0.4553 0.93754   3
  -2  -9  -1 0.52635 1.64847   2
   2   9   1 -0.2164 1.76210   4
   2   9   1 0.29253 1.07620   3
  -3  -9  -1 24.2958 3.69314   2
   3   9   1 20.6645 2.62047   3
  -4  10   1 20.3472 3.07862   4
  -3  10   1 65.5541 6.13727   4
  -3  10   1 58.2358 5.14107   3
  -2  10   1 -0.9537 1.50342   4
  -2  10   1 -0.2826 0.77251   3
  -1  10   1 105.897 8.10522   3
  -1  10   1 89.3303 8.89950   4
   0  10   1 1.18796 0.84907   3
   0  10   1 0.43786 1.51243   4
   1  10   1 49.2382 4.26617   3
  -3 -10   2 12.1095 2.43893   2
   2  10  -2 46.2195 4.93983   4
   2  10  -2 49.7080 4.20686   3
   1  10  -2 8.31600 1.23510   3
   1  10  -2 5.21791 2.24610   4
   0  10  -2 320.252 26.1174   4
  -1  10  -2 129.065 11.2909   4
  -2  10  -2 14.0485 2.47702   4
  -3  10  -2 0.43432 1.44071   4
  -4  10  -2 21.6516 3.01226   4
  -5  10  -2 35.1862 3.71702   4
   5   9  -2 50.7258 4.61188   3
  -5  -9   2 51.4504 5.67197   2
   4   9  -2 41.5061 4.12255   3
  -4  -9   2 46.1116 5.40934   2
   3   9  -2 84.7934 7.43801   3
   3   9  -2 81.8689 8.14200   4
  -3  -9   2 97.0836 8.64180   2
   2   9  -2 93.6777 8.60044   3
   2   9  -2 116.553 9.58891   4
  -2  -9   2 103.289 9.53269   2
   1   9  -2 57.6586 5.43377   3
   1   9  -2 62.5537 6.50502   4
  -1  -9   2 69.9293 6.39264   2
   0   9  -2 46.1273 4.08159   3
   0   9  -2 46.6561 5.15553   4
   0  -9   2 45.8975 4.80246   2
  -1   9  -2 11.6342 2.67053   4
  -1   9  -2 11.0762 1.49499   3
  -2   9  -2 156.933 13.6159   4
  -2   9  -2 161.546 12.9015   3
  -3   9  -2 43.6034 4.73606   4
  -3   9  -2 36.7694 5.67500   7
  -4   9  -2 21.3799 3.11779   4
  -5   9  -2 19.1434 4.17128   7
  -5   9  -2 27.8237 3.23616   4
  -6   9  -2 52.6541 7.11860   7
  -6   9  -2 71.7311 5.86875   4
   6   8  -2 23.0015 2.60258   3
  -6  -8   2 19.4697 3.71891   2
   5   8  -2 201.163 15.9936   3
  -5  -8   2 191.740 17.2006   2
   4   8  -2 0.80514 1.18213   3
   4   8  -2 -0.1001 1.71742   4
  -4  -8   2 1.03680 1.94680   2
   3   8  -2 158.683 14.1985   4
   3   8  -2 165.811 13.5412   3
  -3  -8   2 170.710 14.6059   2
   2   8  -2 7.83129 2.45735   4
   2   8  -2 5.77602 1.44162   3
  -2  -8   2 10.5674 2.31654   2
   1   8  -2 1.58470 1.06137   3
   1   8  -2 1.82353 1.75897   4
  -1  -8   2 0.79275 1.30598   2
   0   8  -2 535.046 41.8734   4
   0   8  -2 525.854 41.2956   3
   0  -8   2 511.326 41.7412   2
  -1   8  -2 991.436 71.8215   4
  -1   8  -2 934.019 71.1701   3
  -1   8  -2 790.950 72.4246   7
   1  -8   2 908.831 71.5049   2
  -2   8  -2 424.054 38.9296   7
  -2   8  -2 520.046 38.0630   4
  -2   8  -2 475.478 37.3535   3
  -3   8  -2 93.1732 17.6661   6
  -3   8  -2 108.309 8.82472   3
  -3   8  -2 107.007 11.0222   7
  -3   8  -2 114.215 9.67267   4
  -4   8  -2 5.52215 2.10421   4
  -4   8  -2 6.80143 9.35678   6
  -4   8  -2 1.64320 3.20670   7
  -5   8  -2 5.03564 1.78716   4
  -5   8  -2 5.19192 3.26761   7
  -5   8  -2 -1.2277 8.75627   6
   5  -8   2 2.22735 7.57756   8
  -6   8  -2 35.7903 3.75141   4
  -6   8  -2 27.8045 5.18901   7
  -7   8  -2 258.252 20.7741   4
  -8   8  -2 105.756 10.0138   7
   7   7  -2 407.336 32.0704   3
  -7  -7   2 399.272 33.3942   2
   6   7  -2 58.0165 5.88544   3
  -6  -7   2 73.1605 7.73481   2
   5   7  -2 2.38463 1.55947   3
  -5  -7   2 1.25310 2.31799   2
   4   7  -2 181.947 16.4096   4
  -4  -7   2 208.598 17.1758   2
   3   7  -2 128.934 10.6739   3
   3   7  -2 108.663 11.1535   4
  -3  -7   2 148.786 11.7930   2
   2   7  -2 90.4677 7.65228   3
  -2  -7   2 90.9315 8.37234   2
   1   7  -2 35.4036 3.87748   4
   1   7  -2 35.9904 3.28025   3
  -1  -7   2 30.9615 3.74444   2
   0   7  -2 31.3778 3.52978   4
   0   7  -2 28.1549 2.87902   3
  -1   7  -2 78.9639 13.9273   6
  -1   7  -2 81.6295 6.70786   4
  -1   7  -2 71.7393 7.94821   7
  -1   7  -2 76.3427 6.11669   3
   1  -7   2 65.4273 6.29084   2
  -2   7  -2 448.918 33.3143   4
  -2   7  -2 409.806 34.4299   7
  -2   7  -2 377.748 38.8434   6
  -2   7  -2 443.269 32.7691   3
   2  -7   2 380.369 36.8659   8
  -3   7  -2 6.97223 1.86032   4
  -3   7  -2 7.86215 1.21330   3
  -3   7  -2 16.0869 7.25762   6
  -3   7  -2 16.7863 3.98890   7
   3  -7   2 12.1244 6.23113   8
  -4   7  -2 51.8774 5.01879   3
  -4   7  -2 53.4850 11.7100   6
  -4   7  -2 67.7216 7.83141   7
  -4   7  -2 64.6276 5.79492   4
   4  -7   2 60.6948 12.5586   8
  -5   7  -2 0.86167 1.62465   4
  -5   7  -2 0.83521 2.91953   7
  -5   7  -2 -1.1409 8.81274   6
   5  -7   2 0.81855 6.48545   8
  -6   7  -2 284.299 23.9848   7
  -6   7  -2 276.808 22.2421   4
  -6   7  -2 251.940 30.2509   6
  -7   7  -2 228.712 20.6813   7
  -7   7  -2 240.846 19.0991   4
  -8   7  -2 29.9502 5.00705   7
   8   6  -2 64.0681 5.49273   3
  -8  -6   2 55.7341 6.92355   2
   7   6  -2 106.494 9.14681   3
  -7  -6   2 106.527 10.8541   2
   6   6  -2 61.9529 6.13766   3
  -6  -6   2 71.2344 7.93317   2
   5   6  -2 116.073 24.2976   5
   5   6  -2 117.313 9.56776   3
  -5  -6   2 105.325 10.8505   2
   4   6  -2 725.808 53.6002   3
   4   6  -2 670.652 59.3783   5
   4   6  -2 640.244 53.8979   4
  -4  -6   2 677.872 54.5537   2
   3   6  -2 10.8131 2.25427   4
   3   6  -2 17.6507 2.12113   3
   2   6  -2 162.567 13.1174   4
   2   6  -2 160.338 12.7553   3
  -2  -6   2 150.946 13.3174   2
   1   6  -2 243.509 18.5383   4
   1   6  -2 232.219 18.2022   3
  -1  -6   2 220.175 20.4840   8
  -1  -6   2 218.272 18.5598   2
   0   6  -2 420.379 36.0698   1
   0   6  -2 388.899 34.7342   7
   0   6  -2 417.146 34.1369   4
   0   6  -2 472.725 33.8807   3
   0  -6   2 433.235 36.1995   8
   0  -6   2 442.731 34.1449   2
  -1   6  -2 2972.14 232.144   6
  -1   6  -2 2992.31 226.858   3
  -1   6  -2 2868.24 227.971   7
   1  -6   2 3036.73 230.577   8
   1  -6   2 2647.76 226.997   2
  -2   6  -2 4589.26 350.832   3
  -2   6  -2 4491.32 352.157   7
  -2   6  -2 4707.95 356.000   6
   2  -6   2 4037.93 350.935   2
   2  -6   2 4635.19 355.955   8
  -3   6  -2 333.360 25.8106   3
  -3   6  -2 334.443 27.4345   7
  -3   6  -2 348.495 31.2574   6
  -3   6  -2 357.144 26.2760   4
   3  -6   2 309.542 25.9190   2
   3  -6   2 277.569 31.2570   8
  -4   6  -2 229.401 18.5990   3
  -4   6  -2 278.863 20.7405   7
  -4   6  -2 231.877 24.2081   6
  -4   6  -2 247.796 19.0417   4
   4  -6   2 197.054 18.7953   2
  -5   6  -2 24.3701 4.68064   7
  -5   6  -2 22.5491 2.85268   4
  -5   6  -2 23.2279 8.21418   6
  -5   6  -2 18.3008 2.22947   3
   5  -6   2 16.4628 2.21878   2
  -6   6  -2 31.2711 5.11482   7
  -6   6  -2 25.4978 2.97231   4
  -6   6  -2 12.9509 8.62813   6
   6  -6   2 18.0127 2.59546   2
  -7   6  -2 0.64042 1.17531   4
  -7   6  -2 0.72181 2.75901   7
  -7   6  -2 -5.6980 9.76748   6
   7  -6   2 0.56178 1.34207   2
  -8   6  -2 34.8149 5.55923   7
  -9   6  -2 23.3227 4.04006   7
   9   5  -2 1.27342 1.18164   3
   8   5  -2 81.9602 9.04317   2
   8   5  -2 86.3653 7.60006   3
  -8  -5   2 88.4980 9.23301   2
   7   5  -2 261.901 37.8656   5
   7   5  -2 265.918 23.2602   2
  -7  -5   2 276.733 23.4995   2
   6   5  -2 26.0092 12.9063   5
   6   5  -2 47.4196 6.32642   2
  -6  -5   2 48.1126 6.43546   2
   5   5  -2 7.06986 8.92326   5
   5   5  -2 6.69318 2.70472   2
  -5  -5   2 1.35877 2.04066   2
   4   5  -2 16.0346 2.43041   4
   4   5  -2 25.0331 8.58049   5
   4   5  -2 17.0937 3.38051   2
  -4  -5   2 11.2526 2.82389   2
   3   5  -2 144.797 11.6526   4
   3   5  -2 126.464 12.0801   2
   3   5  -2 146.153 16.1167   5
  -3  -5   2 146.135 12.1399   2
   2   5  -2 92.1428 7.95608   3
   2   5  -2 112.677 11.0673   5
   2   5  -2 100.562 8.23368   4
  -2  -5   2 94.0572 8.43711   2
  -2  -5   2 93.1872 12.6915   1
  -2  -5   2 96.5834 10.0230   8
   1   5  -2 15.8773 1.64750   3
   1   5  -2 17.3258 5.23862   1
   1   5  -2 14.8977 1.92854   4
  -1  -5   2 12.3763 4.51192   1
  -1  -5   2 14.7026 3.49191   8
  -1  -5   2 14.7937 1.99424   2
   0   5  -2 43.3996 8.59367   6
   0   5  -2 62.0644 7.21247   1
   0   5  -2 48.2094 4.51574   4
   0   5  -2 60.5811 4.28990   3
   0   5  -2 40.5895 5.06596   7
   0  -5   2 37.5529 6.78417   8
   0  -5   2 54.4167 4.49174   2
  -1   5  -2 1036.33 77.3584   3
  -1   5  -2 1016.87 78.2374   7
  -1   5  -2 1026.28 77.6092   4
  -1   5  -2 848.594 78.2763   1
  -1   5  -2 1087.68 81.5272   6
   1  -5   2 868.308 77.4761   2
   1  -5   2 1075.17 81.4161   8
   1  -5   2 967.108 78.5710   1
  -2   5  -2 1317.47 99.5887   4
  -2   5  -2 1177.93 99.2821   3
  -2   5  -2 1364.87 100.425   7
  -2   5  -2 1354.92 103.183   6
   2  -5   2 1144.15 99.4545   2
  -3   5  -2 100.765 9.24732   7
  -3   5  -2 107.406 8.15156   4
  -3   5  -2 113.067 12.2600   6
  -3   5  -2 94.6847 7.73910   3
   3  -5   2 81.5725 7.96706   2
   3  -5   2 90.7674 13.2327   5
  -4   5  -2 13.6535 5.56550   6
  -4   5  -2 12.3520 1.53802   3
  -4   5  -2 8.91024 2.66318   7
  -4   5  -2 15.2363 2.09334   4
   4  -5   2 19.1063 9.05958   5
   4  -5   2 13.2164 2.11857   2
  -5   5  -2 183.044 19.1805   6
  -5   5  -2 172.034 13.6412   4
  -5   5  -2 160.141 13.3436   3
  -5   5  -2 164.617 14.9699   7
   5  -5   2 141.623 25.0871   5
  -6   5  -2 33.9012 5.55668   7
  -6   5  -2 34.1646 3.38553   4
  -6   5  -2 35.4761 10.2185   6
   6  -5   2 23.9376 3.72752   2
   6  -5   2 43.4054 17.2083   5
  -7   5  -2 295.441 24.7509   4
  -7   5  -2 315.631 26.4922   7
  -7   5  -2 262.834 30.5783   6
   7  -5   2 346.921 25.6163   2
  -8   5  -2 90.7090 10.9979   7
   8  -5   2 126.393 10.2696   2
  -9   5  -2 2.22601 2.31159   7
   9  -5   2 1.85532 1.53480   2
   9   4  -2 18.2629 3.99429   2
  -9  -4   2 12.8914 3.18856   2
   8   4  -2 20.7800 18.5233   5
   8   4  -2 31.4914 5.64023   2
  -8  -4   2 26.3584 4.90870   2
   7   4  -2 518.090 54.2980   5
  -7  -4   2 522.325 42.8044   2
   6   4  -2 372.595 30.9223   2
   6   4  -2 341.145 39.5240   5
  -6  -4   2 372.735 30.5159   2
   5   4  -2 117.787 19.4884   5
   5   4  -2 127.422 11.8214   2
  -5  -4   2 122.002 11.3072   2
   4   4  -2 1247.70 102.951   4
   4   4  -2 1348.46 104.022   2
   4   4  -2 1220.88 108.452   5
  -4  -4   2 1245.36 102.886   7
  -4  -4   2 1491.99 103.747   2
   3   4  -2 341.549 28.6275   2
   3   4  -2 359.510 32.1603   5
   3   4  -2 356.577 27.8898   4
  -3  -4   2 392.483 33.3249   1
  -3  -4   2 293.936 28.1954   2
  -3  -4   2 377.566 30.1836   8
   2   4  -2 47.3793 7.26854   5
   2   4  -2 40.9666 8.24499   1
   2   4  -2 40.5115 4.58899   2
   2   4  -2 43.7003 4.00807   4
  -2  -4   2 49.1206 4.38384   2
  -2  -4   2 45.6168 5.86577   8
  -2  -4   2 54.2456 7.99836   1
   1   4  -2 706.894 56.1009   3
   1   4  -2 674.166 59.2361   1
   1   4  -2 730.620 56.2705   4
  -1  -4   2 714.606 58.8089   1
  -1  -4   2 674.732 56.3578   2
  -1  -4   2 796.007 58.1736   8
   0   4  -2 179.930 16.4514   6
   0   4  -2 155.626 13.8174   7
   0   4  -2 174.807 13.2703   3
   0   4  -2 162.353 13.4262   4
   0   4  -2 161.821 15.3584   1
   0  -4   2 176.987 15.3760   1
   0  -4   2 165.747 13.4705   2
   0  -4   2 168.155 15.7678   8
  -1   4  -2 180.998 13.7344   4
  -1   4  -2 184.735 13.5369   3
   1  -4   2 159.074 13.7090   2
   1  -4   2 171.428 16.9345   8
   1  -4   2 159.416 14.8605   1
  -2   4  -2 285.910 23.4355   3
  -2   4  -2 319.920 23.6768   4
  -2   4  -2 301.457 24.6423   1
  -2   4  -2 348.729 26.5546   6
  -2   4  -2 303.651 24.2622   7
   2  -4   2 258.738 23.7040   2
   2  -4   2 267.172 25.1433   5
   2  -4   2 312.928 24.7358   1
  -3   4  -2 27.9724 3.59792   7
  -3   4  -2 24.4464 2.25326   3
  -3   4  -2 28.2708 2.61665   4
  -3   4  -2 31.8197 6.34159   6
   3  -4   2 22.5452 4.03714   1
   3  -4   2 34.0911 7.76801   5
   3  -4   2 22.5724 2.81001   2
   3  -4   2 28.3890 4.59366   1
  -4   4  -2 1.07073 0.84502   4
  -4   4  -2 0.98992 0.58848   3
  -4   4  -2 0.33323 1.51753   7
  -4   4  -2 2.23240 3.41837   6
   4  -4   2 3.10939 7.00483   5
   4  -4   2 2.23792 1.31764   2
   4  -4   2 1.22409 2.58537   1
  -5   4  -2 376.208 30.4519   7
  -5   4  -2 370.319 29.3362   4
  -5   4  -2 385.175 33.3722   6
   5  -4   2 352.132 30.0394   2
   5  -4   2 364.756 38.2942   5
  -6   4  -2 50.9078 4.65276   4
  -6   4  -2 51.3067 6.43064   7
  -6   4  -2 57.9817 10.2145   6
   6  -4   2 47.8903 5.78665   2
   6  -4   2 35.7425 14.2638   5
  -7   4  -2 139.999 11.5525   4
  -7   4  -2 134.209 17.1704   6
  -7   4  -2 143.731 13.4059   7
   7  -4   2 104.129 23.9472   5
   7  -4   2 151.109 12.9622   2
  -8   4  -2 19.5527 4.25542   7
  -8   4  -2 5.89748 8.34775   6
   8  -4   2 16.5642 21.5166   5
   8  -4   2 29.7457 4.52434   2
   9  -4   2 55.5650 6.22797   2
  10  -4   2 96.5457 8.78956   2
  10   3  -2 75.9333 8.22741   2
   9   3  -2 8.98655 3.72824   2
  -9  -3   2 12.9381 4.72309   2
   8   3  -2 18.6969 5.11553   2
   8   3  -2 11.6090 14.9640   5
  -8  -3   2 13.0553 3.25363   2
   7   3  -2 278.855 22.2656   2
   7   3  -2 230.775 33.3666   5
  -7  -3   2 221.653 20.8925   2
   6   3  -2 34.1171 5.56138   2
   6   3  -2 10.8147 9.66557   5
  -6  -3   2 28.0831 4.47163   2
   5   3  -2 2.22976 2.15848   2
   5   3  -2 1.72780 6.92761   5
   5   3  -2 6.64343 11.2783   1
  -5  -3   2 3.85658 1.88331   2
  -5  -3   2 3.60093 1.24084   7
  -5  -3   2 6.61861 13.5549   1
   4   3  -2 2061.99 166.322   4
   4   3  -2 1940.60 167.293   2
   4   3  -2 2139.78 172.808   5
   4   3  -2 2169.94 173.115   1
  -4  -3   2 2167.92 166.431   7
  -4  -3   2 2032.92 171.857   1
  -4  -3   2 2363.05 167.023   2
   3   3  -2 2143.53 167.358   4
   3   3  -2 2321.54 172.802   1
   3   3  -2 2123.53 168.178   2
  -3  -3   2 1973.22 167.705   2
  -3  -3   2 2143.10 169.554   8
   2   3  -2 901.539 64.4942   1
   2   3  -2 726.147 62.7082   5
   2   3  -2 721.688 60.0621   4
   2   3  -2 735.777 60.6606   2
  -2  -3   2 745.185 60.3258   2
  -2  -3   2 775.572 61.7389   8
   1   3  -2 525.796 38.7580   4
   1   3  -2 512.690 39.7824   5
  -1  -3   2 463.951 38.8550   2
  -1  -3   2 435.357 40.6282   1
  -1  -3   2 526.607 40.3740   8
   0   3  -2 539.372 40.4227   4
   0   3  -2 540.892 42.2443   1
   0   3  -2 479.052 40.6839   7
   0   3  -2 556.962 42.3149   6
   0  -3   2 504.274 42.3401   8
   0  -3   2 470.166 41.9231   1
  -1   3  -2 458.249 34.3062   7
  -1   3  -2 445.497 35.2765   1
  -1   3  -2 368.495 35.3217   6
  -1   3  -2 438.004 33.9383   4
   1  -3   2 443.311 35.3246   1
  -2   3  -2 122.621 10.9041   1
  -2   3  -2 123.721 9.92842   7
  -2   3  -2 110.756 9.39970   4
  -2   3  -2 125.919 11.3150   6
   2  -3   2 109.047 12.0449   5
   2  -3   2 117.738 10.8441   1
   2  -3   2 109.827 9.68170   2
  -3   3  -2 801.347 65.3645   3
  -3   3  -2 911.305 66.1316   7
  -3   3  -2 826.716 65.5293   4
  -3   3  -2 932.261 67.7680   6
   3  -3   2 836.227 67.4268   1
   3  -3   2 700.680 65.9097   2
   3  -3   2 801.246 69.4116   5
   3  -3   2 879.083 67.5018   1
  -4   3  -2 79.0157 9.33766   6
  -4   3  -2 73.5695 6.42823   3
  -4   3  -2 79.9043 6.61405   4
  -4   3  -2 84.8221 7.48971   7
   4  -3   2 83.4467 9.37775   1
   4  -3   2 73.7322 13.9700   5
  -5   3  -2 31.9403 6.56721   6
  -5   3  -2 27.8697 4.15179   7
  -5   3  -2 33.1927 3.06674   4
   5  -3   2 30.1918 4.35330   2
   5  -3   2 39.4741 12.0470   5
  -6   3  -2 372.080 32.7633   6
  -6   3  -2 356.880 29.7826   7
  -6   3  -2 352.074 28.7027   4
   6  -3   2 322.927 39.4566   5
   6  -3   2 390.172 30.2338   2
  -7   3  -2 80.7399 9.62068   7
  -7   3  -2 92.3190 13.1677   6
  -7   3  -2 103.881 8.27837   4
   7  -3   2 118.527 10.5827   2
   7  -3   2 80.7020 19.9686   5
  -8   3  -2 9.23877 3.23289   7
  -8   3  -2 9.82800 6.88242   6
   8  -3   2 21.6014 20.1762   5
   8  -3   2 13.2209 3.80758   2
  -9   3  -2 4.03883 2.69946   7
   9  -3   2 19.7158 4.10504   2
  10  -3   2 79.2967 7.90279   2
  10   2  -2 2.00884 2.91008   2
   9   2  -2 8.12064 3.90960   2
   8   2  -2 432.177 35.8999   2
  -8  -2   2 405.015 34.1799   2
   7   2  -2 114.808 11.1385   2
   7   2  -2 109.043 23.3546   5
  -7  -2   2 106.149 9.55495   2
  -7  -2   2 81.5822 8.63621   7
   6   2  -2 100.906 10.5981   2
   6   2  -2 123.492 21.8769   5
  -6  -2   2 106.917 9.06326   7
  -6  -2   2 97.5330 9.49133   2
   5   2  -2 85.1430 15.5315   1
   5   2  -2 97.0503 17.9366   5
   5   2  -2 87.6350 9.11738   2
  -5  -2   2 77.2587 15.3198   1
  -5  -2   2 96.0749 8.32073   2
  -5  -2   2 94.5249 7.88391   7
   4   2  -2 193.759 19.2308   1
   4   2  -2 165.983 20.3544   5
   4   2  -2 160.081 14.3657   2
  -4  -2   2 169.168 13.4061   7
  -4  -2   2 156.389 13.7178   2
  -4  -2   2 154.720 17.9517   1
   3   2  -2 105.976 9.75373   2
   3   2  -2 88.1006 13.7042   5
  -3  -2   2 119.070 9.27874   2
  -3  -2   2 114.895 12.6565   1
   2   2  -2 111.608 9.52037   2
   2   2  -2 117.416 12.7958   5
   2   2  -2 112.525 11.8756   1
  -2  -2   2 106.447 9.03651   2
  -2  -2   2 105.378 11.3306   1
   1   2  -2 587.024 47.0246   5
   1   2  -2 615.111 47.7719   1
  -1  -2   2 519.936 47.1290   1
  -1  -2   2 595.952 46.7078   8
   0   2  -2 83.2721 7.01538   6
   0  -2   2 62.3744 7.15728   1
   0  -2   2 72.7869 7.56226   8
  -1   2  -2 171.903 16.4373   1
  -1   2  -2 222.543 16.2957   6
   1  -2   2 194.572 16.6328   1
   1  -2   2 180.511 16.0934   5
  -2   2  -2 1681.85 126.437   7
  -2   2  -2 1594.27 127.837   1
  -2   2  -2 1689.14 127.356   6
  -2   2  -2 1505.78 126.126   4
   2  -2   2 1666.50 128.767   5
   2  -2   2 1794.91 128.259   1
   2  -2   2 1363.23 126.455   2
  -3   2  -2 460.813 34.1539   7
  -3   2  -2 428.913 33.7361   4
  -3   2  -2 446.329 35.4594   6
   3  -2   2 434.119 36.3772   1
   3  -2   2 427.406 38.2010   5
   3  -2   2 444.407 36.1455   1
   3  -2   2 361.027 34.2255   2
  -4   2  -2 169.505 15.6018   6
  -4   2  -2 172.279 13.8224   7
  -4   2  -2 164.644 13.2540   4
   4  -2   2 143.347 16.4687   1
   4  -2   2 168.065 20.1622   5
   4  -2   2 168.891 14.2228   2
   4  -2   2 171.704 16.7207   1
  -5   2  -2 554.825 47.4831   6
  -5   2  -2 589.745 45.4130   7
  -5   2  -2 536.312 44.7065   4
   5  -2   2 610.787 46.0662   2
   5  -2   2 543.260 52.9388   5
  -6   2  -2 215.897 17.3277   7
  -6   2  -2 201.337 20.1023   6
  -6   2  -2 181.641 16.3122   4
   6  -2   2 185.518 27.6072   5
   6  -2   2 230.686 18.3344   2
  -7   2  -2 2.23492 2.31364   7
  -7   2  -2 5.57668 1.21482   4
  -7   2  -2 4.46264 5.69131   6
   7  -2   2 12.7530 3.89776   2
   7  -2   2 -3.9745 11.9880   5
  -8   2  -2 64.5206 7.59311   7
  -8   2  -2 84.3004 13.3546   6
   8  -2   2 106.226 25.0326   5
   9  -2   2 167.365 15.7882   2
  10  -2   2 26.5390 4.91254   2
  10   1  -2 13.8407 4.13015   2
   9   1  -2 31.7710 21.3643   5
  -9  -1   2 14.0200 12.3664   6
   8   1  -2 350.201 44.6386   5
   8   1  -2 359.042 28.7286   2
  -8  -1   2 318.191 30.0512   6
  -8  -1   2 287.601 26.2400   7
   7   1  -2 17.0473 4.51565   2
   7   1  -2 16.8658 13.8875   5
  -7  -1   2 18.3047 3.12553   2
  -7  -1   2 16.0296 2.74791   7
   6   1  -2 1051.36 93.5194   2
   6   1  -2 1086.51 102.365   5
  -6  -1   2 1244.97 92.5123   7
  -6  -1   2 1286.11 92.6850   2
   5   1  -2 281.107 32.4855   5
   5   1  -2 273.606 29.3273   1
   5   1  -2 340.029 25.5151   2
  -5  -1   2 295.736 24.4124   2
  -5  -1   2 308.519 24.3072   7
   4   1  -2 335.994 26.3270   2
   4   1  -2 309.650 32.0722   5
  -4  -1   2 308.132 29.4625   1
  -4  -1   2 350.221 25.4738   7
  -4  -1   2 289.310 25.5243   2
   3   1  -2 70.9356 11.6941   5
   3   1  -2 48.2246 7.73954   1
   3   1  -2 66.1036 6.00455   2
  -3  -1   2 61.4114 8.21844   1
  -3  -1   2 61.6488 5.30309   2
   2   1  -2 2811.63 203.633   1
  -2  -1   2 2336.37 202.231   8
  -1  -1   2 234.702 19.8522   1
  -1  -1   2 244.884 19.2953   8
  -1  -1   2 215.131 18.5282   6
   0   1  -2 26.8835 2.73467   6
   0   1  -2 23.9707 3.67743   1
   0  -1   2 31.0826 3.92419   1
   0  -1   2 30.9944 3.92709   8
  -1   1  -2 25.9453 4.03554   1
   1  -1   2 29.7345 4.19788   1
   1  -1   2 24.3834 4.50463   5
   2  -1   2 93.7496 8.69735   2
   2  -1   2 111.226 10.7671   1
   2  -1   2 107.141 11.6851   5
  -3   1  -2 38.7666 3.22499   7
  -3   1  -2 30.2147 3.41989   2
   3  -1   2 30.6599 3.74488   2
   3  -1   2 40.3541 8.48165   5
   3  -1   2 26.5259 5.35716   1
   3  -1   2 25.0801 5.69336   1
  -4   1  -2 266.604 23.3330   7
  -4   1  -2 308.787 23.6461   2
   4  -1   2 301.585 26.9697   1
   4  -1   2 271.410 29.4240   5
   4  -1   2 302.883 24.0865   2
  -5   1  -2 407.360 37.7313   2
  -5   1  -2 535.884 37.7840   7
   5  -1   2 447.007 38.4929   2
   5  -1   2 514.042 46.4611   5
  -6   1  -2 209.166 18.5493   2
  -6   1  -2 219.410 17.8667   4
  -6   1  -2 225.460 18.5500   7
   6  -1   2 223.228 19.7820   2
   6  -1   2 275.618 30.9059   5
  -7   1  -2 74.2140 6.19444   4
  -7   1  -2 76.4692 11.5636   6
  -7   1  -2 63.0723 7.02816   7
   7  -1   2 68.7877 17.7586   5
   7  -1   2 83.3610 9.32939   2
  -8   1  -2 34.0617 8.61387   6
   8  -1   2 44.0200 18.4119   5
   8  -1   2 45.3468 7.55629   2
   9  -1   2 58.6733 8.11668   2
  10  -1   2 19.1279 4.01922   2
  10   0  -2 3.41143 3.54084   2
   9   0  -2 24.7174 18.0032   5
  -9   0   2 29.0057 4.11460   7
  -9   0   2 12.7505 9.27706   6
   8   0  -2 3.00389 3.40922   2
   8   0  -2 7.39521 14.9689   5
  -8   0   2 2.15192 1.97625   7
  -8   0   2 -2.3200 5.33976   6
   7   0  -2 197.929 18.4540   2
   7   0  -2 160.916 31.0888   5
  -7   0   2 190.296 19.4651   6
  -7   0   2 219.465 16.9825   7
   6   0  -2 129.424 22.8729   5
   6   0  -2 155.560 13.1990   2
  -6   0   2 129.577 11.5024   2
  -6   0   2 132.780 11.7023   7
   5   0  -2 118.246 11.1539   2
   5   0  -2 111.134 14.5337   1
   5   0  -2 122.991 19.4759   5
  -5   0   2 121.015 10.0842   2
  -5   0   2 132.098 15.4609   1
  -5   0   2 119.983 10.1982   7
   4   0  -2 65.0407 6.36517   2
   4   0  -2 72.6173 15.0758   5
   4   0  -2 44.6105 8.07047   1
  -4   0   2 53.8017 8.65734   1
  -4   0   2 70.5739 5.56324   7
  -4   0   2 65.4551 5.15478   3
   3   0  -2 1382.45 123.154   2
   3   0  -2 1548.56 125.046   1
  -3   0   2 1528.39 122.550   3
  -3   0   2 1761.01 124.713   8
  -3   0   2 1619.28 122.750   7
   1   0  -2 343.633 33.0120   1
  -1   0   2 446.285 33.4899   1
  -1   0   2 434.514 32.2072   6
  -1   0   2 408.693 32.8137   8
   0   0  -2 312.802 23.7453   1
   0   0   2 252.068 23.3876   5
   1   0   2 653.152 53.4415   1
   1   0   2 663.283 53.6040   5
  -2   0  -2 255.754 20.9592   2
   2   0   2 284.939 21.0571   2
   2   0   2 271.832 24.2286   5
   2   0   2 252.898 23.1717   1
   2   0   2 231.582 22.9382   1
  -3   0  -2 1872.29 171.568   2
   3   0   2 2361.64 175.190   1
   3   0   2 2416.15 175.084   1
   3   0   2 2110.03 175.995   5
  -4   0  -2 2614.83 201.649   2
  -4   0  -2 2410.52 201.065   7
   4   0   2 2594.23 201.940   2
   4   0   2 2486.10 205.386   1
   4   0   2 2752.97 208.211   5
  -5   0  -2 7.82350 1.58560   7
   5   0   2 14.1962 3.41713   2
   5   0   2 11.7342 8.09382   5
  -6   0  -2 2.94897 1.50449   7
  -6   0  -2 2.92037 1.86193   2
   6   0   2 -0.2739 8.10081   5
   6   0   2 3.75894 2.76196   2
  -7   0  -2 45.7048 4.18989   4
  -7   0  -2 39.5287 5.53683   2
   7   0   2 48.5152 16.8045   5
   7   0   2 62.9069 7.83628   2
  -8   0  -2 3.22661 7.22831   6
   8   0   2 8.67512 4.45172   2
   8   0   2 7.20462 15.2627   5
   9   0   2 54.2786 7.79400   2
  10   0   2 -0.8600 2.15204   2
  10  -1  -2 50.2218 7.31230   2
   9  -1  -2 6.04011 20.6925   5
   9  -1  -2 9.81453 4.06497   2
  -9   1   2 9.71500 2.94267   7
  -9   1   2 0.52415 8.54152   6
   8  -1  -2 112.924 26.2817   5
   8  -1  -2 153.125 14.8313   2
  -8   1   2 135.190 16.5926   6
  -8   1   2 156.233 13.1438   7
   7  -1  -2 123.926 25.3770   5
   7  -1  -2 117.611 11.2733   2
  -7   1   2 109.330 9.75562   7
  -7   1   2 80.9743 12.0489   6
   6  -1  -2 802.898 67.2888   2
   6  -1  -2 749.583 77.1954   5
  -6   1   2 902.602 68.5608   6
  -6   1   2 872.857 66.4318   7
   5  -1  -2 202.338 27.0523   5
  -5   1   2 214.254 16.8148   7
  -5   1   2 206.232 18.3816   6
  -5   1   2 194.524 16.2985   3
   4  -1  -2 20.1039 4.73812   1
   4  -1  -2 16.5681 2.94769   2
   4  -1  -2 14.4548 10.8442   5
  -4   1   2 14.9799 2.25079   7
  -4   1   2 16.4793 3.58310   6
  -4   1   2 14.7707 1.68327   3
  -4   1   2 14.2434 3.85836   1
   3  -1  -2 2988.40 219.853   1
  -3   1   2 2743.90 219.832   1
  -3   1   2 2630.41 218.838   6
  -2   1   2 0.43824 1.28638   1
  -2   1   2 6.03323 1.66235   6
  -2   1   2 2.71089 0.51747   3
   1  -1  -2 103.819 10.4500   1
  -1   1   2 127.466 10.5401   6
  -1   1   2 113.083 10.5179   1
  -1   1   2 134.654 10.3064   8
   0   1   2 448.544 37.0779   5
   0   1   2 451.746 36.6758   1
  -1  -1  -2 1891.61 157.420   2
   1   1   2 2124.30 159.179   1
  -2  -1  -2 326.920 26.3019   2
   2   1   2 326.181 28.8101   1
   3   1   2 6606.40 519.869   1
   3   1   2 7354.67 521.604   5
   3   1   2 5842.60 519.109   1
  -4  -1  -2 2308.11 191.154   2
   4   1   2 2663.33 198.334   5
   4   1   2 2267.72 195.632   1
   4   1   2 2510.92 196.410   1
  -5  -1  -2 870.508 72.2835   2
   5   1   2 921.844 72.6836   2
   5   1   2 934.300 80.7378   5
  -6  -1  -2 675.745 58.3060   2
   6   1   2 725.582 58.9229   2
   6   1   2 797.434 69.3820   5
  -7  -1  -2 372.649 33.7150   2
   7   1   2 466.583 35.0360   2
   7   1   2 379.137 45.9254   5
  -8  -1  -2 -0.7609 2.57210   2
   8   1   2 4.51835 3.49541   2
   8   1   2 -7.6793 15.3790   5
   9   1   2 158.942 15.0916   2
  10  -2  -2 10.0281 3.30025   2
 -10   2   2 6.09593 2.46560   7
  -9   2   2 191.104 24.4404   6
  -9   2   2 235.389 18.9559   7
   8  -2  -2 637.100 77.4065   5
   8  -2  -2 854.568 61.5429   2
  -8   2   2 815.352 60.2843   7
  -8   2   2 643.389 63.0812   6
   7  -2  -2 6.05578 3.05271   2
   7  -2  -2 10.6030 15.2299   5
  -7   2   2 -1.2443 4.16951   6
  -7   2   2 0.87619 1.92455   7
   6  -2  -2 1149.18 96.8493   2
   6  -2  -2 1062.32 107.883   5
  -6   2   2 1262.33 95.6530   3
  -6   2   2 1206.87 98.5035   6
  -6   2   2 1376.29 96.3654   7
   5  -2  -2 443.682 38.6101   2
   5  -2  -2 459.330 49.1240   5
  -5   2   2 531.301 40.3545   6
  -5   2   2 476.131 38.2056   7
   4  -2  -2 48.0663 6.16203   1
   4  -2  -2 41.7602 4.92659   2
  -4   2   2 53.4832 4.22979   3
  -4   2   2 63.3601 6.73804   6
  -4   2   2 46.6944 6.29127   1
   3  -2  -2 490.377 43.7793   1
  -3   2   2 486.574 43.9448   1
  -3   2   2 528.085 42.8801   3
  -3   2   2 629.188 43.2966   7
  -3   2   2 604.802 44.6484   6
   1  -2  -2 1949.72 156.007   1
  -1   2   2 1937.56 155.850   1
  -1   2   2 1995.19 154.938   3
  -1   2   2 2047.28 156.690   6
   0   2   2 8.76534 1.44869   4
   0   2   2 11.7740 1.15013   3
  -1  -2  -2 589.989 49.9808   2
   1   2   2 604.947 49.7642   4
   1   2   2 580.737 49.5663   3
   1   2   2 711.141 52.3239   1
   1   2   2 688.428 52.8868   5
  -2  -2  -2 130.812 10.5198   2
   2   2   2 117.683 10.4069   2
   2   2   2 117.501 14.2741   5
   2   2   2 123.934 10.0643   4
   2   2   2 122.580 13.2535   1
   2   2   2 115.347 13.8592   1
  -3  -2  -2 1007.34 87.5322   2
   3   2   2 1137.67 92.9159   5
   3   2   2 1206.63 91.9488   1
   3   2   2 1089.96 87.6207   2
  -4  -2  -2 486.849 37.3061   2
   4   2   2 474.043 43.0452   1
   4   2   2 432.763 43.5854   1
   4   2   2 393.266 37.0564   2
   4   2   2 518.298 44.7981   5
  -5  -2  -2 1.29471 2.52496   2
   5   2   2 2.10994 2.45470   2
   5   2   2 3.47624 7.61201   5
  -6  -2  -2 360.712 31.5278   2
   6   2   2 379.768 31.7189   2
   6   2   2 393.960 42.0251   5
  -7  -2  -2 360.931 30.6356   2
   7   2   2 342.472 42.0309   5
   7   2   2 372.717 30.9285   2
  -8  -2  -2 -0.1179 2.40117   2
   8   2   2 0.41844 2.88203   2
   8   2   2 -1.8743 12.5949   5
   9   2   2 21.6317 4.10712   2
   9   2   2 25.9701 2.82825   3
  10  -3  -2 56.8767 6.32052   2
 -10   3   2 45.6757 5.76385   7
   9  -3  -2 3.86292 2.62034   2
   9  -3  -2 -7.4676 23.7971   5
  -9   3   2 0.82469 2.40760   7
   8  -3  -2 235.947 17.8843   2
   8  -3  -2 130.267 31.9277   5
  -8   3   2 175.523 21.5123   6
  -8   3   2 190.174 17.0396   7
   7  -3  -2 164.517 16.0102   2
   7  -3  -2 167.239 34.4536   5
  -7   3   2 177.033 14.8431   3
  -7   3   2 206.948 15.9077   7
  -7   3   2 182.189 19.6518   6
   6  -3  -2 98.0571 23.1077   5
   6  -3  -2 99.9510 9.38883   2
  -6   3   2 90.0605 8.28886   3
  -6   3   2 109.235 9.23699   7
  -6   3   2 99.0904 12.5063   6
   5  -3  -2 1.91238 2.77711   1
   5  -3  -2 -3.4024 11.2401   5
   5  -3  -2 2.01245 1.44793   2
  -5   3   2 5.12706 4.07428   6
  -5   3   2 1.04788 0.91696   3
  -5   3   2 3.40629 0.77369   4
  -5   3   2 4.25253 1.67942   7
   4  -3  -2 255.805 22.1679   2
  -4   3   2 314.901 22.2753   7
  -4   3   2 268.112 24.2202   6
  -4   3   2 272.852 21.6364   3
  -4   3   2 256.287 21.6331   4
  -3   3   2 7314.52 573.711   6
  -1   3   2 796.253 61.5504   3
  -1   3   2 762.825 62.5528   1
  -1   3   2 769.528 61.7042   4
  -1   3   2 799.301 64.2762   6
  -1   3   2 824.676 61.7994   7
  -1   3   2 761.636 62.3495   1
   0  -3  -2 41.4234 4.15409   2
   0   3   2 47.0076 5.69138   1
   0   3   2 48.9508 4.21117   4
   0   3   2 47.2958 3.89343   3
   0   3   2 47.6133 6.23667   1
  -1  -3  -2 63.1737 5.88680   2
   1   3   2 61.0135 8.89008   1
   1   3   2 69.4562 9.40812   5
   1   3   2 63.7176 5.38126   3
   1   3   2 61.8643 5.73813   4
   1   3   2 75.4778 8.60641   1
  -2  -3  -2 41.2864 4.82282   2
   2   3   2 49.0006 4.16743   3
   2   3   2 61.3410 9.84128   5
   2   3   2 47.7993 4.68220   2
   2   3   2 50.7894 8.46929   1
   2   3   2 49.2902 4.59172   4
   2   3   2 43.6304 9.60186   1
   3   3   2 1281.74 97.9971   3
   3   3   2 1121.29 98.6407   2
   3   3   2 1361.57 104.786   5
  -4  -3  -2 1045.01 84.3296   2
   4   3   2 1037.91 84.1091   2
   4   3   2 1097.79 91.3509   5
  -5  -3  -2 296.735 27.1557   2
   5   3   2 339.862 27.0754   2
   5   3   2 326.026 35.9763   5
  -6  -3  -2 35.6495 6.25750   2
   6   3   2 32.0481 5.43183   2
   6   3   2 11.1235 10.5532   5
  -7  -3  -2 177.312 15.9200   2
   7   3   2 167.196 15.3715   2
   7   3   2 167.259 13.7040   3
   7   3   2 116.682 27.8488   5
  -8  -3  -2 126.647 12.3200   2
   8   3   2 123.017 11.9331   2
   8   3   2 127.276 10.5333   3
   9   3   2 1.03482 3.42717   2
   9   3   2 1.43046 1.02585   3
  10  -4  -2 137.457 12.0315   2
   9  -4  -2 59.5258 6.53183   2
  -9   4   2 57.9768 6.73245   7
   8  -4  -2 165.533 15.8490   2
   8  -4  -2 210.455 39.0657   5
  -8   4   2 211.655 16.2916   7
  -8   4   2 157.096 21.9439   6
   7  -4  -2 226.991 43.5283   5
   7  -4  -2 287.382 24.8091   2
  -7   4   2 303.455 29.6026   6
  -7   4   2 295.926 24.0582   3
  -7   4   2 338.231 25.1770   7
   6  -4  -2 63.9926 6.46897   2
   6  -4  -2 54.6132 19.3343   5
  -6   4   2 63.3118 11.0529   6
  -6   4   2 63.3548 5.63331   4
  -6   4   2 70.5736 5.94806   3
  -6   4   2 74.0361 7.00007   7
   5  -4  -2 660.135 65.5300   5
   5  -4  -2 560.486 52.0632   2
  -5   4   2 750.505 52.5558   7
  -5   4   2 623.104 51.6951   3
  -5   4   2 710.991 55.9593   6
  -5   4   2 652.039 51.7191   4
  -4   4   2 116.376 10.3007   3
  -4   4   2 120.370 10.3884   4
  -4   4   2 125.838 13.9180   6
  -4   4   2 149.884 11.1515   7
  -3   4   2 326.874 24.2236   3
  -3   4   2 289.282 24.3332   4
  -3   4   2 306.072 24.7364   7
  -3   4   2 301.922 27.4311   6
  -2   4   2 4.22774 1.08064   4
  -2   4   2 3.84758 3.67013   6
  -2   4   2 5.22747 1.33425   7
  -2   4   2 1.68724 0.72384   3
   1  -4  -2 1192.51 103.413   2
  -1   4   2 1394.65 103.281   3
  -1   4   2 1360.33 107.086   6
  -1   4   2 1313.66 103.566   7
  -1   4   2 1455.48 103.553   4
  -1   4   2 1302.34 103.909   1
  -1   4   2 1221.26 103.750   1
   0  -4  -2 12.1033 1.81795   2
   0   4   2 14.1890 2.13417   4
   0   4   2 13.0931 1.61303   3
   0   4   2 14.9313 3.95988   1
  -1  -4  -2 174.801 16.3714   2
   1   4   2 204.202 15.9600   3
   1   4   2 230.691 16.4795   4
   1   4   2 190.475 19.9332   1
  -2  -4  -2 174.301 15.8211   2
   2   4   2 161.916 21.1976   1
   2   4   2 195.848 15.1423   3
   2   4   2 202.212 15.6912   4
   2   4   2 206.491 20.9200   5
  -3  -4  -2 695.837 57.2125   2
   3   4   2 692.115 62.5350   5
   3   4   2 644.446 56.6087   2
   3   4   2 785.009 56.2431   3
   3   4   2 749.152 56.7473   4
  -4  -4  -2 10.4707 3.46556   2
   4   4   2 13.8360 2.00629   3
   4   4   2 17.7932 9.24199   5
   4   4   2 13.7156 2.86712   2
  -5  -4  -2 1.41979 2.92172   2
   5   4   2 4.67063 1.74970   3
   5   4   2 0.62619 8.54901   5
   5   4   2 2.79415 2.25264   2
  -6  -4  -2 124.470 12.4095   2
   6   4   2 110.560 11.0377   2
   6   4   2 106.571 24.2623   5
   6   4   2 115.361 9.86601   3
  -7  -4  -2 325.487 28.0347   2
   7   4   2 329.042 25.8965   3
   7   4   2 314.164 26.8776   2
  -8  -4  -2 88.9965 9.78142   2
   8   4   2 95.1147 7.90445   3
 -10   5   2 -0.8801 1.73128   7
  -9   5   2 6.39926 2.47251   7
   8  -5  -2 270.020 56.7563   5
  -8   5   2 354.676 28.3268   7
   7  -5  -2 99.9860 29.6620   5
  -7   5   2 118.538 9.67773   3
  -7   5   2 115.018 10.9492   7
  -7   5   2 105.869 16.8894   6
   6  -5  -2 14.0128 17.9910   5
  -6   5   2 27.5286 8.41267   6
  -6   5   2 39.5146 3.69592   3
  -6   5   2 32.7082 3.43700   4
  -6   5   2 38.6783 5.06418   7
   5  -5  -2 20.1980 17.8428   5
  -5   5   2 30.7884 2.81292   3
  -5   5   2 23.5150 2.78806   4
  -5   5   2 11.3933 6.48699   6
  -5   5   2 23.1881 3.96637   7
  -4   5   2 170.913 14.0818   7
  -4   5   2 156.088 13.3986   4
  -4   5   2 151.135 17.8190   6
  -4   5   2 172.211 13.2302   3
  -3   5   2 2.76371 0.93915   3
  -3   5   2 0.70208 4.25806   6
  -3   5   2 2.11342 1.57528   7
  -3   5   2 1.86502 1.18242   4
  -2   5   2 1377.69 108.001   4
  -2   5   2 1377.17 107.711   3
  -2   5   2 1328.98 112.093   6
  -2   5   2 1412.85 108.273   7
   1  -5  -2 988.054 82.0789   2
  -1   5   2 1065.34 81.8508   3
  -1   5   2 1002.64 82.2236   7
  -1   5   2 1120.53 82.2203   4
   0  -5  -2 215.798 18.6745   2
   0   5   2 225.995 18.3137   3
   0   5   2 248.146 18.8118   4
  -1  -5  -2 77.3620 6.85829   2
   1   5   2 70.0427 6.17792   3
   1   5   2 67.7666 6.87008   4
  -2  -5  -2 104.338 10.2951   2
   2   5   2 121.927 9.49715   3
   2   5   2 115.396 10.2256   4
  -3  -5  -2 2.25875 2.18107   2
   3   5   2 6.53740 6.87460   5
   3   5   2 2.40090 1.27040   3
   3   5   2 3.63627 2.06311   4
  -4  -5  -2 476.888 40.2312   2
   4   5   2 467.013 47.0523   5
   4   5   2 511.951 38.7478   3
  -5  -5  -2 301.429 24.0318   2
   5   5   2 233.470 32.4530   5
   5   5   2 260.260 21.8060   3
  -6  -5  -2 96.5103 9.99046   2
   6   5   2 63.5004 18.9054   5
   6   5   2 76.4708 7.29928   3
  -7  -5  -2 187.009 17.1038   2
   7   5   2 184.412 15.1545   3
  -9   6   2 7.82812 2.61544   7
  -8   6   2 45.5002 5.82373   7
  -7   6   2 0.12259 2.37379   7
  -7   6   2 0.23457 10.5141   6
  -7   6   2 0.30155 1.11336   3
   6  -6  -2 32.2477 24.1310   5
  -6   6   2 22.9004 10.8865   6
  -6   6   2 13.1910 2.16168   3
  -6   6   2 24.3393 4.06640   7
  -6   6   2 19.3002 2.56952   4
   5  -6  -2 206.527 37.2735   5
  -5   6   2 208.423 25.1466   6
  -5   6   2 239.484 19.2393   4
  -5   6   2 242.582 20.1229   7
  -5   6   2 250.094 18.9789   3
   4  -6  -2 61.9322 26.4022   5
  -4   6   2 91.6181 14.6031   6
  -4   6   2 103.808 8.62262   3
  -4   6   2 110.040 9.05449   4
  -4   6   2 108.255 9.75987   7
  -3   6   2 2.05635 1.70757   7
  -3   6   2 3.06091 1.43135   4
  -3   6   2 5.07418 1.22070   3
  -3   6   2 2.68999 6.21808   6
  -2   6   2 229.459 18.4545   4
  -2   6   2 205.066 18.6434   7
  -2   6   2 240.693 18.0289   3
   1  -6  -2 147.827 11.6145   2
  -1   6   2 120.312 11.8499   7
  -1   6   2 130.407 11.7206   4
  -1   6   2 148.848 11.2454   3
   0  -6  -2 131.330 11.4862   2
   0   6   2 134.465 10.9829   3
   0   6   2 134.480 11.6329   4
  -1  -6  -2 152.834 14.3617   2
   1   6   2 187.392 14.5494   4
   1   6   2 166.329 13.6861   3
  -2  -6  -2 616.138 52.3905   2
   2   6   2 653.080 51.4590   3
   2   6   2 686.708 52.2758   4
  -3  -6  -2 77.4343 8.24469   2
   3   6   2 78.4006 6.74232   3
   3   6   2 67.4173 7.66177   4
  -4  -6  -2 242.146 21.5991   2
   4   6   2 250.361 20.0084   3
  -5  -6  -2 64.2771 8.35341   2
   5   6   2 71.1721 6.31175   3
  -6  -6  -2 1.44331 2.71407   2
   6   6   2 -0.3211 1.09882   3
  -7  -6  -2 17.1475 3.68296   2
   7   6   2 13.5942 1.95798   3
  -8   7   2 28.8983 4.39856   7
  -7   7   2 140.756 13.0706   7
  -7   7   2 144.253 11.7019   3
  -6   7   2 212.084 31.0911   6
  -6   7   2 239.243 19.0002   3
  -6   7   2 244.029 19.3031   4
  -6   7   2 232.816 20.2446   7
  -5   7   2 10.5812 9.55760   6
  -5   7   2 11.7347 3.25477   7
  -5   7   2 15.9286 1.92207   3
  -5   7   2 11.1900 2.27116   4
  -4   7   2 23.7271 3.32722   4
  -4   7   2 22.8658 11.3364   6
  -4   7   2 22.7443 2.55307   3
  -4   7   2 16.3226 3.30083   7
  -3   7   2 123.196 9.90525   3
  -3   7   2 116.190 10.8951   7
  -2   7   2 158.077 12.6306   3
  -2   7   2 174.164 13.4529   4
  -2   7   2 135.414 13.3446   7
   1  -7  -2 215.678 20.5058   2
  -1   7   2 280.695 20.9756   4
  -1   7   2 263.937 20.1703   3
   0  -7  -2 22.5037 3.49553   2
   0   7   2 29.3169 3.10877   3
   0   7   2 33.1468 4.34356   4
  -1  -7  -2 324.290 26.3196   2
   1   7   2 303.725 26.1503   4
   1   7   2 321.331 25.3867   3
   2   7   2 278.165 21.9304   3
   2   7   2 264.898 22.7961   4
  -3  -7  -2 1.51087 2.18855   2
   3   7   2 0.67308 1.26218   3
  -4  -7  -2 178.322 15.1294   2
   4   7   2 146.947 13.3299   3
  -5  -7  -2 135.784 12.4569   2
   5   7   2 122.663 10.7228   3
  -6  -7  -2 9.61869 2.84665   2
   6   7   2 4.25635 1.17189   3
  -7   8   2 237.190 17.5415   3
  -7   8   2 198.562 18.5690   7
  -6   8   2 150.138 12.6562   3
  -6   8   2 162.551 13.1254   4
  -5   8   2 1.24083 2.33467   7
  -5   8   2 4.04001 1.98854   4
  -5   8   2 4.64498 1.20587   3
  -4   8   2 4.45100 2.70079   7
  -4   8   2 9.25053 1.54882   3
  -4   8   2 5.89283 2.33318   4
  -3   8   2 109.461 10.0940   4
  -3   8   2 111.278 9.17257   3
  -2   8   2 43.8613 4.20613   3
  -2   8   2 46.6093 5.51521   4
  -1   8   2 693.832 53.8760   4
  -1   8   2 653.408 53.0321   3
   0  -8  -2 332.007 25.3271   2
   0   8   2 310.975 24.4269   3
   0   8   2 270.106 25.2395   4
  -1  -8  -2 3.77187 2.01382   2
   1   8   2 3.82265 1.60320   3
   1   8   2 5.42552 2.58497   4
  -2  -8  -2 16.4038 3.41885   2
   2   8   2 12.1349 2.07328   3
   2   8   2 9.61924 2.60573   4
  -3  -8  -2 128.245 11.6982   2
   3   8   2 119.848 10.3760   3
  -4  -8  -2 -1.3145 1.84053   2
   4   8   2 1.03721 1.35872   3
  -5   9   2 26.9185 3.40521   4
  -5   9   2 22.6434 2.50442   3
  -4   9   2 7.58858 1.30900   3
  -4   9   2 10.1531 2.45650   4
  -3   9   2 25.6715 3.95651   4
  -3   9   2 23.5590 2.57581   3
  -2   9   2 44.5403 5.74258   4
  -2   9   2 55.3944 4.60304   3
  -1   9   2 332.007 28.1890   4
  -1   9   2 356.429 27.3776   3
   0   9   2 87.1188 8.49417   4
   0   9   2 89.6128 7.46727   3
   1   9   2 8.47023 2.52391   4
   1   9   2 6.88820 1.40470   3
  -2  -9  -2 160.063 12.8895   2
   2   9   2 131.742 11.8130   3
   3   9   2 108.348 8.93869   3
  -3  10   2 8.87757 1.95712   4
  -2  10   2 11.8676 2.49467   4
  -2  10   2 10.1230 1.34651   3
  -1  10   2 82.9065 6.50507   3
  -1  10   2 72.3199 7.29043   4
  -1  11  -3 116.032 10.0490   4
  -3 -10   3 8.04971 2.05608   2
   2  10  -3 34.0310 4.59903   4
  -2 -10   3 47.1132 4.66758   2
   1  10  -3 15.3196 2.73167   4
  -1 -10   3 13.2605 2.40896   2
  -1  10  -3 74.4123 7.13413   4
  -2  10  -3 0.84866 1.50523   4
  -3  10  -3 80.8733 7.49109   4
  -4  10  -3 31.1739 3.65295   4
  -5  10  -3 1.10256 1.15721   4
   5   9  -3 296.199 25.2687   3
  -5  -9   3 342.339 26.4117   2
   4   9  -3 171.103 15.4211   3
  -4  -9   3 214.780 16.6675   2
   3   9  -3 7.46830 2.21370   4
   3   9  -3 5.17291 1.40361   3
  -3  -9   3 7.68009 2.28291   2
   2   9  -3 1.50925 1.97115   4
   2   9  -3 1.02345 1.09067   3
  -2  -9   3 0.99584 1.49935   2
   1   9  -3 28.2010 4.06550   4
   1   9  -3 28.6775 2.94979   3
  -1  -9   3 34.8525 3.86832   2
   0   9  -3 10.9475 1.47185   3
   0   9  -3 10.3974 2.58891   4
   0  -9   3 11.5151 2.15455   2
  -1   9  -3 152.209 13.0070   4
  -2   9  -3 140.633 12.1314   4
  -3   9  -3 23.6815 3.43617   4
  -4   9  -3 6.14525 1.90893   4
  -4   9  -3 7.56257 3.51819   7
  -5   9  -3 9.87165 1.96288   4
  -5   9  -3 9.58025 3.50145   7
  -6   9  -3 1.96959 1.26609   4
  -6   9  -3 1.61615 2.23349   7
   6   8  -3 125.789 10.3593   3
  -6  -8   3 124.957 11.7077   2
   5   8  -3 309.585 25.1810   3
  -5  -8   3 320.925 26.4188   2
   4   8  -3 1.86603 1.73361   4
   4   8  -3 -0.4230 1.09427   3
  -4  -8   3 1.96159 2.15614   2
   3   8  -3 11.8862 1.87937   3
   3   8  -3 12.3363 2.69648   4
  -3  -8   3 12.8842 2.74395   2
   2   8  -3 148.441 11.9451   3
   2   8  -3 144.717 12.5435   4
  -2  -8   3 145.542 12.7588   2
   1   8  -3 56.6794 4.90031   3
   1   8  -3 52.6140 5.55593   4
  -1  -8   3 57.2891 5.61914   2
   0   8  -3 280.842 21.3880   4
   0   8  -3 261.441 20.7121   3
   0  -8   3 242.814 21.1842   2
  -1   8  -3 581.998 43.8898   3
  -1   8  -3 572.467 44.5256   4
   1  -8   3 521.621 44.2395   2
  -2   8  -3 234.122 22.5041   7
  -2   8  -3 256.603 29.4698   6
  -2   8  -3 280.148 21.2616   4
  -3   8  -3 53.7090 13.1358   6
  -3   8  -3 76.1200 8.88220   7
  -3   8  -3 75.2058 6.95524   4
   3  -8   3 74.8709 13.2967   8
  -4   8  -3 57.1408 5.46504   4
  -4   8  -3 54.5687 7.29398   7
  -4   8  -3 64.1702 14.7310   6
   4  -8   3 34.5914 9.92383   8
  -5   8  -3 101.039 10.6149   7
  -5   8  -3 61.0047 16.6429   6
  -5   8  -3 107.769 8.65895   4
   5  -8   3 85.4925 15.6013   8
  -6   8  -3 10.4291 3.47306   7
  -6   8  -3 11.5174 2.05208   4
   6  -8   3 -0.1920 6.77110   8
  -7   8  -3 38.4564 3.78452   4
   7   7  -3 92.4238 8.32620   3
  -7  -7   3 105.224 9.98050   2
   6   7  -3 81.0922 6.99497   3
  -6  -7   3 76.0845 8.50571   2
   5   7  -3 7.56087 1.68125   3
  -5  -7   3 2.79481 2.50025   2
   4   7  -3 414.739 30.0395   3
   4   7  -3 325.533 30.3196   4
  -4  -7   3 390.654 31.0917   2
   3   7  -3 85.6850 7.03667   3
   3   7  -3 68.5061 7.47844   4
  -3  -7   3 91.6661 8.09560   2
   2   7  -3 6.84956 1.70666   4
   2   7  -3 6.94683 1.30753   3
  -2  -7   3 4.96506 1.74881   2
   1   7  -3 0.81292 1.25622   4
   1   7  -3 0.17611 0.73701   3
  -1  -7   3 1.09363 1.13293   2
   0   7  -3 260.500 20.8486   4
   0   7  -3 246.808 20.3732   3
   0  -7   3 267.317 20.8502   2
   0  -7   3 252.799 23.5191   8
  -1   7  -3 13.9871 3.70344   7
  -1   7  -3 14.2984 2.28433   4
  -1   7  -3 11.0956 1.45628   3
  -1   7  -3 13.9741 8.64872   6
   1  -7   3 13.0941 1.88634   2
   1  -7   3 13.3598 5.68960   8
  -2   7  -3 231.044 17.9512   4
  -2   7  -3 208.567 23.9676   6
  -2   7  -3 225.991 17.3322   3
  -2   7  -3 194.397 19.2035   7
   2  -7   3 233.054 17.6366   2
   2  -7   3 200.461 22.6598   8
  -3   7  -3 371.043 30.6343   4
  -3   7  -3 358.326 36.1710   6
  -3   7  -3 403.235 32.3356   7
   3  -7   3 393.757 37.0784   8
  -4   7  -3 692.140 53.2256   7
  -4   7  -3 648.411 51.3335   4
  -4   7  -3 680.092 57.7815   6
   4  -7   3 566.405 57.7147   8
  -5   7  -3 310.608 32.0123   6
  -5   7  -3 300.683 26.5298   7
  -5   7  -3 342.818 24.8932   4
   5  -7   3 255.999 31.9306   8
  -6   7  -3 2.12623 3.44966   7
  -6   7  -3 -0.8859 9.46603   6
   6  -7   3 4.71708 7.44603   8
  -7   7  -3 4.94397 1.41207   4
  -7   7  -3 4.74902 2.88916   7
   7  -7   3 -1.0062 8.36110   8
  -8   7  -3 1.89666 2.34023   7
   8   6  -3 4.95425 1.45061   3
  -8  -6   3 6.37520 2.58415   2
   7   6  -3 3.11880 1.66677   3
  -7  -6   3 4.54043 2.68781   2
   6   6  -3 73.1333 6.11956   3
  -6  -6   3 56.7749 7.44603   2
   5   6  -3 1054.91 78.3821   3
  -5  -6   3 936.452 79.4090   2
   4   6  -3 1552.38 140.294   4
   4   6  -3 2038.66 140.174   3
  -4  -6   3 1774.95 141.027   2
   3   6  -3 64.7460 5.22445   3
   3   6  -3 49.4179 5.44907   4
  -3  -6   3 64.8309 6.17315   2
   2   6  -3 23.8194 2.79013   4
   2   6  -3 23.7004 2.40060   3
  -2  -6   3 21.4685 3.09742   2
  -2  -6   3 25.1836 5.26671   8
   1   6  -3 359.012 28.0755   4
   1   6  -3 335.803 27.7408   3
  -1  -6   3 389.329 30.7691   8
  -1  -6   3 327.477 28.1661   2
   0   6  -3 635.576 57.2422   7
   0   6  -3 745.887 56.2732   3
   0   6  -3 756.859 59.3827   1
   0   6  -3 750.210 56.6130   4
   0  -6   3 721.296 56.6103   2
   0  -6   3 690.157 59.6156   8
  -1   6  -3 693.705 53.9854   7
  -1   6  -3 653.601 52.9614   4
  -1   6  -3 677.339 52.5975   3
  -1   6  -3 744.045 58.2936   6
   1  -6   3 596.293 56.7607   8
  -2   6  -3 1977.59 158.469   7
  -2   6  -3 1910.87 156.961   3
  -2   6  -3 2048.13 157.396   4
  -2   6  -3 2271.62 162.485   6
   2  -6   3 1882.58 157.255   2
   2  -6   3 1976.89 162.872   8
  -3   6  -3 245.471 21.6495   7
  -3   6  -3 274.004 25.4488   6
  -3   6  -3 269.578 20.2842   4
   3  -6   3 201.149 25.8629   8
   3  -6   3 253.573 20.1166   2
  -4   6  -3 85.4831 7.48834   4
  -4   6  -3 74.5380 9.03252   7
  -4   6  -3 80.8342 12.7131   6
   4  -6   3 89.6227 7.34105   2
  -5   6  -3 292.120 29.4557   6
  -5   6  -3 299.027 23.4331   4
  -5   6  -3 304.002 25.2458   7
   5  -6   3 270.050 23.3879   2
  -6   6  -3 190.119 24.2998   6
  -6   6  -3 228.090 17.8279   4
  -6   6  -3 193.757 19.4941   7
   6  -6   3 238.262 18.0592   2
  -7   6  -3 6.87710 3.30777   7
  -7   6  -3 1.08445 10.1778   6
  -7   6  -3 8.07869 1.67395   4
   7  -6   3 13.0089 2.41062   2
  -8   6  -3 5.06378 2.21226   4
  -8   6  -3 6.83853 3.16147   7
   8  -6   3 0.33706 8.27953   8
   8  -6   3 5.58842 1.60858   2
   9   5  -3 182.263 15.3740   3
  -9  -5   3 199.272 18.0025   2
   8   5  -3 -0.6851 2.77618   2
  -8  -5   3 2.76119 2.41301   2
   7   5  -3 80.0255 21.6006   5
   7   5  -3 90.9831 9.96995   2
  -7  -5   3 96.8443 9.81233   2
   6   5  -3 6.09114 3.22883   2
   6   5  -3 -5.5100 11.9571   5
  -6  -5   3 6.27524 2.75285   2
   5   5  -3 5.15587 2.59753   2
   5   5  -3 -2.8042 8.87268   5
  -5  -5   3 7.37196 2.52089   2
   4   5  -3 3.84817 2.17293   2
   4   5  -3 2.06316 6.89337   5
   4   5  -3 1.88724 1.08183   4
  -4  -5   3 1.65324 1.73234   2
   3   5  -3 1.04556 1.55245   2
   3   5  -3 2.12177 0.92128   4
   3   5  -3 0.48653 4.83697   5
  -3  -5   3 1.12968 2.77536   8
  -3  -5   3 2.38571 1.54954   2
   2   5  -3 16.7304 1.94990   3
   2   5  -3 17.4797 2.98326   2
   2   5  -3 15.6206 7.24488   1
   2   5  -3 29.2498 5.32277   5
   2   5  -3 20.4720 2.22259   4
  -2  -5   3 28.4560 5.28629   8
  -2  -5   3 15.8668 2.55723   2
   1   5  -3 426.417 35.7638   4
   1   5  -3 440.229 35.5536   3
   1   5  -3 480.616 39.6821   1
  -1  -5   3 475.310 38.4727   8
  -1  -5   3 452.469 35.9526   2
  -1  -5   3 445.414 39.0668   1
   0   5  -3 22.2637 5.84058   1
   0   5  -3 28.9019 2.41333   3
   0   5  -3 36.8525 7.31119   6
   0   5  -3 30.9054 3.75976   7
   0  -5   3 23.7160 2.73344   2
   0  -5   3 25.9646 5.54135   1
   0  -5   3 33.8679 6.25211   8
  -1   5  -3 1813.46 133.392   4
  -1   5  -3 1587.73 134.989   1
  -1   5  -3 1943.18 134.227   7
  -1   5  -3 1736.36 133.085   3
  -1   5  -3 1615.86 136.622   6
   1  -5   3 1615.78 133.398   2
   1  -5   3 1752.67 137.752   8
   1  -5   3 1553.24 135.042   1
  -2   5  -3 828.522 71.0812   1
  -2   5  -3 882.654 69.7523   4
  -2   5  -3 987.251 73.5160   6
  -2   5  -3 958.640 70.7236   7
  -2   5  -3 869.976 69.4246   3
   2  -5   3 901.059 69.8255   2
   2  -5   3 829.323 74.8593   8
   2  -5   3 848.974 71.1695   1
  -3   5  -3 85.3903 10.6768   6
  -3   5  -3 75.3332 6.05725   3
  -3   5  -3 77.2802 6.48055   4
  -3   5  -3 85.1217 7.88814   7
   3  -5   3 66.8716 8.59967   1
   3  -5   3 68.0933 6.50381   2
  -4   5  -3 790.666 63.3141   6
  -4   5  -3 750.276 59.0494   4
  -4   5  -3 743.963 60.2451   7
   4  -5   3 717.008 59.3343   2
  -5   5  -3 2422.25 180.858   4
  -5   5  -3 2088.57 184.959   6
  -5   5  -3 2363.88 182.257   7
   5  -5   3 2345.70 181.334   2
  -6   5  -3 432.094 35.2215   7
  -6   5  -3 428.401 39.1984   6
  -6   5  -3 424.375 33.5187   4
   6  -5   3 401.650 34.1056   2
  -7   5  -3 58.0177 5.44551   4
  -7   5  -3 51.1560 7.63476   7
  -7   5  -3 45.7749 11.7971   6
   7  -5   3 69.4294 6.47706   2
  -8   5  -3 33.2384 3.40505   4
  -8   5  -3 30.2200 5.21395   7
  -9   5  -3 1.11849 2.12268   7
   9  -5   3 0.88109 1.36368   2
   9   4  -3 181.451 15.5153   2
  -9  -4   3 152.630 14.6015   2
   8   4  -3 -11.002 16.6294   5
   8   4  -3 2.63154 3.16818   2
  -8  -4   3 3.50920 2.56194   2
   7   4  -3 67.4202 17.6338   5
   7   4  -3 93.9045 10.1806   2
  -7  -4   3 95.0197 9.46385   2
   6   4  -3 -1.0526 10.0320   5
   6   4  -3 0.83955 2.59919   2
  -6  -4   3 0.07513 1.88152   2
   5   4  -3 590.789 54.4426   5
   5   4  -3 588.989 47.5477   2
  -5  -4   3 602.630 46.9936   2
  -5  -4   3 555.270 46.1904   7
   4   4  -3 5339.57 427.949   4
   4   4  -3 5613.30 429.143   2
   4   4  -3 5445.53 433.704   5
  -4  -4   3 5501.79 431.195   8
   3   4  -3 1058.61 94.8576   1
   3   4  -3 1248.65 90.0726   2
   3   4  -3 1116.75 89.0458   4
   3   4  -3 992.928 92.4589   5
  -3  -4   3 1251.46 91.9504   8
   2   4  -3 173.983 14.7683   4
   2   4  -3 182.937 16.9972   5
   2   4  -3 187.168 15.4941   2
  -2  -4   3 191.253 15.1301   2
  -2  -4   3 188.754 17.1110   8
   1   4  -3 247.733 18.3774   4
   1   4  -3 240.794 21.8488   1
   1   4  -3 220.433 18.1793   3
  -1  -4   3 230.831 20.7517   8
  -1  -4   3 208.879 18.5005   2
  -1  -4   3 240.023 21.3104   1
   0   4  -3 178.032 14.7497   4
   0   4  -3 179.991 15.2835   7
   0   4  -3 205.588 17.6415   6
   0   4  -3 192.255 17.3846   1
   0  -4   3 208.052 17.9822   8
   0  -4   3 172.279 16.9907   1
   0  -4   3 170.169 14.8845   2
  -1   4  -3 5.48059 1.77722   7
  -1   4  -3 3.34811 2.77307   6
  -1   4  -3 3.30882 2.21093   1
   1  -4   3 1.68301 0.81401   2
   1  -4   3 2.19663 2.16799   1
   1  -4   3 2.03851 3.06105   8
  -2   4  -3 137.253 13.4923   6
  -2   4  -3 137.069 11.6190   7
  -2   4  -3 144.659 13.0400   1
  -2   4  -3 129.792 10.8646   4
   2  -4   3 128.653 12.9669   1
   2  -4   3 129.918 11.1103   2
  -3   4  -3 358.030 27.6739   4
  -3   4  -3 384.542 28.5750   7
  -3   4  -3 324.523 30.1932   6
   3  -4   3 384.635 30.0192   1
   3  -4   3 307.319 30.6895   5
   3  -4   3 327.202 28.0535   2
  -4   4  -3 39.3252 7.07806   6
  -4   4  -3 36.0165 3.31351   4
   4  -4   3 28.2877 3.90541   2
   4  -4   3 31.8278 9.02878   5
  -5   4  -3 915.218 85.2317   7
  -5   4  -3 1169.88 88.5458   6
  -5   4  -3 1077.69 84.3374   4
   5  -4   3 1120.29 92.2903   5
   5  -4   3 1098.53 85.2208   2
  -6   4  -3 25.0040 7.84737   6
  -6   4  -3 20.1188 4.09470   7
  -6   4  -3 17.0328 2.39778   4
   6  -4   3 17.8093 3.51885   2
   6  -4   3 15.8665 13.2020   5
  -7   4  -3 18.4271 8.00672   6
  -7   4  -3 20.6191 4.61318   7
  -7   4  -3 22.9317 2.75054   4
   7  -4   3 22.6191 16.0580   5
   7  -4   3 28.0523 4.68510   2
  -8   4  -3 2.57659 1.16750   4
  -8   4  -3 2.44893 2.67780   7
   8  -4   3 3.44675 2.29452   2
  -9   4  -3 -0.2630 2.23422   7
   9  -4   3 1.28068 1.88464   2
  10   3  -3 20.4351 4.26786   2
   9   3  -3 8.71196 4.03978   2
   8   3  -3 10.2777 4.28012   2
   8   3  -3 5.15506 14.5777   5
  -8  -3   3 6.63233 2.55938   2
   7   3  -3 8.15465 12.0326   5
   7   3  -3 7.23661 3.54001   2
  -7  -3   3 4.95818 2.44080   2
  -7  -3   3 3.84665 1.64437   7
   6   3  -3 102.746 21.5098   5
   6   3  -3 98.8260 11.0044   2
  -6  -3   3 108.328 9.45950   7
  -6  -3   3 119.392 10.2512   2
   5   3  -3 269.010 31.1495   5
   5   3  -3 320.805 33.2157   1
   5   3  -3 259.089 23.1872   2
  -5  -3   3 289.072 21.9977   7
  -5  -3   3 263.539 22.4464   2
  -5  -3   3 240.775 30.3495   1
   4   3  -3 1956.71 155.918   5
   4   3  -3 1792.03 150.318   2
  -4  -3   3 1794.14 149.758   2
  -4  -3   3 2094.51 152.778   8
   3   3  -3 367.927 35.4119   5
   3   3  -3 386.628 31.6842   2
   3   3  -3 435.218 36.4509   1
  -3  -3   3 368.870 31.1279   2
  -3  -3   3 373.188 34.8002   1
  -3  -3   3 412.124 33.3428   8
   2   3  -3 254.134 21.7444   2
   2   3  -3 254.480 21.0018   4
   2   3  -3 278.693 24.3664   5
  -2  -3   3 280.904 21.3403   2
  -2  -3   3 263.505 23.0437   8
   1   3  -3 1024.68 84.8630   5
   1   3  -3 1136.42 87.1154   1
   1   3  -3 1123.97 83.9892   4
  -1  -3   3 1081.14 86.6988   1
  -1  -3   3 933.242 84.1412   2
  -1  -3   3 1141.77 86.1578   8
   0   3  -3 1321.22 111.147   7
   0   3  -3 1427.59 113.126   1
   0  -3   3 1611.05 113.369   1
   0  -3   3 1495.98 113.366   8
   0  -3   3 1232.13 110.927   2
  -1   3  -3 8.17521 2.76031   1
  -1   3  -3 19.3909 3.88347   6
  -1   3  -3 11.3297 1.88247   7
  -1   3  -3 10.1114 1.31133   4
   1  -3   3 12.4620 4.02886   8
   1  -3   3 7.08140 2.70355   1
   1  -3   3 9.57625 1.56925   2
  -2   3  -3 307.309 27.2276   6
  -2   3  -3 336.428 27.8977   1
  -2   3  -3 312.198 25.5818   4
  -2   3  -3 323.876 26.0650   7
   2  -3   3 313.179 27.6013   5
   2  -3   3 349.612 28.0253   1
  -3   3  -3 34.6163 3.28586   4
  -3   3  -3 44.9245 4.18497   7
  -3   3  -3 34.4548 5.42688   6
   3  -3   3 39.4186 8.39951   5
   3  -3   3 26.2978 5.81652   1
   3  -3   3 37.5518 4.03199   2
  -4   3  -3 62.9441 8.31893   6
  -4   3  -3 65.1709 5.47654   4
  -4   3  -3 67.6177 6.35552   7
   4  -3   3 57.5334 12.6313   5
   4  -3   3 57.8371 6.37116   2
   4  -3   3 65.9871 9.40087   1
  -5   3  -3 3.83621 1.09388   4
  -5   3  -3 1.77573 3.91843   6
  -5   3  -3 1.97032 1.82892   7
   5  -3   3 4.56917 8.00261   5
   5  -3   3 3.33127 2.29637   2
  -6   3  -3 200.961 16.3837   4
  -6   3  -3 201.367 20.6189   6
  -6   3  -3 199.103 17.5712   7
   6  -3   3 206.165 17.9975   2
   6  -3   3 211.206 28.9789   5
  -7   3  -3 3.63193 2.72664   7
  -7   3  -3 5.52236 1.35855   4
  -7   3  -3 4.48880 6.40384   6
   7  -3   3 4.51351 2.91324   2
   7  -3   3 4.93580 12.6261   5
  -8   3  -3 74.9409 13.7662   6
  -8   3  -3 62.1702 7.60895   7
  -8   3  -3 66.5730 5.96999   4
   8  -3   3 36.0288 20.2771   5
   8  -3   3 87.0288 8.55453   2
   9  -3   3 14.4915 3.41562   2
  10   2  -3 68.8076 8.67577   2
   9   2  -3 197.717 43.1085   5
   9   2  -3 255.999 22.5927   2
   8   2  -3 140.415 30.7591   5
   8   2  -3 136.332 12.9640   2
  -8  -2   3 103.202 10.4121   2
  -8  -2   3 108.691 10.1465   7
   7   2  -3 8.49247 3.86016   2
   7   2  -3 -4.0995 11.3451   5
  -7  -2   3 6.21772 1.99794   7
  -7  -2   3 10.4692 2.64734   2
   6   2  -3 244.360 20.9122   2
   6   2  -3 218.521 30.5217   5
  -6  -2   3 208.321 19.2614   7
  -6  -2   3 264.536 19.7808   2
   5   2  -3 76.0513 8.49778   2
   5   2  -3 109.345 16.1583   1
   5   2  -3 74.0513 16.4342   5
  -5  -2   3 74.8099 7.20494   7
  -5  -2   3 92.2578 7.64715   2
   4   2  -3 42.7847 11.5000   5
   4   2  -3 36.8695 8.61608   1
   4   2  -3 38.4001 4.72302   2
  -4  -2   3 30.6351 3.76730   2
  -4  -2   3 40.5163 6.53456   8
  -4  -2   3 45.4188 8.75919   1
   3   2  -3 37.0871 4.42114   2
   3   2  -3 36.7011 9.39355   5
  -3  -2   3 28.0336 5.15497   8
  -3  -2   3 34.2038 6.91080   1
  -3  -2   3 36.7666 3.47141   2
   2   2  -3 375.835 35.5304   1
   2   2  -3 409.344 33.1633   2
  -2  -2   3 444.984 32.6976   2
  -2  -2   3 374.662 35.0877   1
  -2  -2   3 452.833 34.3790   8
   1   2  -3 3199.62 252.471   1
  -1   2  -3 111.335 9.78403   6
  -1   2  -3 109.732 10.9777   1
  -1   2  -3 106.811 9.14421   7
   1  -2   3 104.390 10.2191   5
   1  -2   3 115.251 11.1072   1
  -2   2  -3 709.380 57.1407   7
  -2   2  -3 690.779 57.9936   6
   2  -2   3 770.671 57.3130   2
   2  -2   3 725.043 59.5213   1
  -3   2  -3 84.3031 7.37968   7
  -3   2  -3 81.1555 8.74353   6
  -3   2  -3 81.7420 7.36031   2
   3  -2   3 77.4871 11.4889   5
   3  -2   3 97.8368 10.7243   1
   3  -2   3 81.7558 7.70533   2
  -4   2  -3 41.9008 5.98312   6
  -4   2  -3 27.6780 3.38596   2
   4  -2   3 43.4240 9.58218   5
   4  -2   3 27.9739 4.14433   2
   4  -2   3 22.0194 5.90704   1
  -5   2  -3 1213.47 88.3645   7
  -5   2  -3 1121.91 87.6393   4
  -5   2  -3 1073.67 90.4579   6
   5  -2   3 1170.08 96.2220   5
   5  -2   3 1011.23 88.7670   2
  -6   2  -3 36.3653 3.81521   4
  -6   2  -3 44.2094 5.09371   7
  -6   2  -3 44.5607 8.75090   6
   6  -2   3 42.5892 6.21533   2
   6  -2   3 46.1771 14.2060   5
  -7   2  -3 20.4844 2.59754   4
  -7   2  -3 24.6436 8.00917   6
  -7   2  -3 20.9961 3.77623   7
   7  -2   3 28.9632 16.1445   5
   7  -2   3 33.9282 5.94894   2
  -8   2  -3 5.84549 1.33218   4
  -8   2  -3 3.86484 7.77076   6
   8  -2   3 4.48810 16.7608   5
   8  -2   3 14.4634 4.49151   2
   9  -2   3 21.1185 4.24175   2
  10  -2   3 25.3458 4.37254   2
  10   1  -3 218.219 20.1052   2
   9   1  -3 235.881 40.8540   5
  -9  -1   3 204.393 17.8016   7
  -9  -1   3 217.163 26.5190   6
   8   1  -3 298.821 42.6334   5
   8   1  -3 345.048 26.4992   2
  -8  -1   3 275.436 27.4071   6
  -8  -1   3 256.136 23.8215   7
   7   1  -3 24.4580 5.16441   2
   7   1  -3 27.2520 15.5317   5
  -7  -1   3 26.7513 3.65912   7
  -7  -1   3 19.0501 3.24166   2
   6   1  -3 75.4286 7.92593   2
   6   1  -3 87.0523 19.6249   5
  -6  -1   3 57.2521 5.98413   7
  -6  -1   3 60.1115 5.98700   2
   5   1  -3 299.776 34.4794   5
   5   1  -3 270.503 30.6268   1
  -5  -1   3 342.327 25.9138   2
  -5  -1   3 309.555 25.7876   7
  -5  -1   3 383.076 32.3773   1
   4   1  -3 755.692 64.4602   2
   4   1  -3 804.340 67.7202   1
  -4  -1   3 830.144 66.3467   8
  -4  -1   3 857.244 63.6912   7
  -4  -1   3 797.312 63.7598   2
   3   1  -3 36.0004 4.29969   2
   3   1  -3 24.7626 9.21047   5
  -3  -1   3 37.7970 3.08336   3
  -3  -1   3 40.6838 5.49307   8
  -3  -1   3 33.6632 3.38300   2
   2   1  -3 1252.40 100.804   1
   2   1  -3 1321.93 98.9299   2
  -2  -1   3 1370.72 99.8881   8
  -2  -1   3 1081.18 98.3271   2
   1   1  -3 1552.08 110.988   1
  -1  -1   3 1324.88 109.980   8
  -1  -1   3 1293.53 110.811   1
   0  -1   3 223.481 19.1301   8
   0  -1   3 219.320 19.5679   1
  -1   1  -3 777.554 58.8928   1
   1  -1   3 751.902 58.2376   5
   1  -1   3 645.563 56.4894   2
   1  -1   3 700.674 58.6234   1
  -2   1  -3 2.89116 2.87392   1
  -2   1  -3 3.20849 1.12273   7
  -2   1  -3 4.19468 1.56895   2
   2  -1   3 3.24756 1.42966   2
   2  -1   3 2.95923 3.55926   5
   2  -1   3 3.52000 2.86595   1
  -3   1  -3 39.9434 3.66272   7
  -3   1  -3 39.1173 4.05092   2
   3  -1   3 38.5428 4.33773   2
   3  -1   3 32.9490 6.85670   1
   3  -1   3 32.7123 7.60554   5
   3  -1   3 25.7430 6.62138   1
  -4   1  -3 69.3003 6.38229   7
  -4   1  -3 83.2358 6.90191   2
   4  -1   3 65.9048 11.1609   1
   4  -1   3 72.7311 13.1838   5
   4  -1   3 57.8408 11.3233   1
   4  -1   3 70.3732 7.22102   2
  -5   1  -3 1913.98 168.185   2
  -5   1  -3 2082.39 167.956   7
   5  -1   3 2221.52 168.964   2
   5  -1   3 2371.52 176.977   5
  -6   1  -3 15.6924 2.94360   2
  -6   1  -3 14.9608 2.62450   7
   6  -1   3 10.5393 9.61272   5
   6  -1   3 22.1007 4.55270   2
  -7   1  -3 107.927 8.93842   4
  -7   1  -3 94.7917 13.8903   6
   7  -1   3 129.459 12.0187   2
   7  -1   3 75.0857 19.2807   5
  -8   1  -3 21.0729 9.10549   6
   8  -1   3 37.3619 6.70713   2
   8  -1   3 18.5106 17.9975   5
   9  -1   3 87.3172 9.76104   2
  10   0  -3 51.2574 7.86959   2
   9   0  -3 24.7431 24.1441   5
   9   0  -3 45.8387 7.48815   2
  -9   0   3 32.5408 4.57013   7
  -9   0   3 12.1255 10.0697   6
   8   0  -3 2.26789 16.5004   5
   8   0  -3 1.40163 3.19943   2
  -8   0   3 -2.1424 6.51406   6
  -8   0   3 1.49511 2.18285   7
   7   0  -3 22.3202 13.9782   5
   7   0  -3 33.6136 6.20709   2
  -7   0   3 30.4284 7.01555   6
  -7   0   3 32.7109 4.26914   7
   6   0  -3 120.543 23.1461   5
   6   0  -3 96.7988 10.8622   2
  -6   0   3 102.330 9.40580   2
  -6   0   3 126.871 12.0042   6
  -6   0   3 120.632 9.80264   7
   5   0  -3 0.63391 8.71393   5
   5   0  -3 2.84288 2.23691   2
  -5   0   3 0.99785 2.36452   6
  -5   0   3 2.25297 1.27313   7
  -5   0   3 3.71953 1.12931   2
  -5   0   3 3.12694 0.91783   3
   4   0  -3 158.196 14.4340   2
   4   0  -3 150.317 16.7105   1
   4   0  -3 195.131 23.4129   5
  -4   0   3 182.036 17.4162   1
  -4   0   3 157.736 14.5874   6
  -4   0   3 180.422 13.3934   3
  -4   0   3 187.478 13.7268   7
  -4   0   3 149.996 13.5295   2
   3   0  -3 159.930 14.1922   2
  -3   0   3 173.563 15.4288   8
  -3   0   3 170.890 14.1544   6
  -3   0   3 171.909 13.5736   7
  -3   0   3 172.573 13.3397   3
  -3   0   3 159.419 16.0795   1
   2   0  -3 544.645 45.4387   1
   2   0  -3 533.365 44.1497   2
  -2   0   3 589.792 45.0031   8
  -2   0   3 574.942 43.9147   6
  -2   0   3 531.245 45.7199   1
   1   0  -3 489.250 43.1012   6
  -1   0   3 565.377 44.9957   1
  -1   0   3 596.099 44.2387   8
  -1   0  -3 1241.45 106.737   2
  -1   0  -3 1434.22 109.178   1
   1   0   3 1404.96 106.562   2
   1   0   3 1213.50 107.748   8
   1   0   3 1477.13 109.098   1
   1   0   3 1381.51 108.742   5
  -2   0  -3 80.0252 10.1217   1
  -2   0  -3 82.9041 7.31068   2
   2   0   3 74.0749 7.00637   2
  -3   0  -3 2638.12 223.517   2
   3   0   3 2854.99 223.581   2
   3   0   3 2812.92 228.131   5
   3   0   3 3067.38 227.622   1
   3   0   3 2878.87 227.389   1
  -4   0  -3 417.906 31.7626   2
   4   0   3 414.457 37.4135   1
   4   0   3 359.980 36.2247   1
   4   0   3 359.257 31.7348   2
   4   0   3 394.746 38.2203   5
  -5   0  -3 51.6567 6.21170   2
   5   0   3 64.3522 7.05073   2
  -6   0  -3 41.4451 5.46275   2
   6   0   3 43.3695 14.2750   5
   6   0   3 43.0041 6.64344   2
  -7   0  -3 270.100 22.4630   2
  -7   0  -3 242.805 21.1147   4
   7   0   3 318.799 37.8096   5
  -8   0  -3 16.8281 9.70867   6
   8   0   3 21.9956 5.12390   2
   8   0   3 19.4852 16.6569   5
   9   0   3 56.6380 5.76033   3
   9   0   3 76.6717 8.43085   2
  10  -1  -3 6.19985 3.78015   2
 -10   1   3 2.40587 2.17521   7
   9  -1  -3 24.8394 5.45448   2
   9  -1  -3 17.8123 22.1724   5
  -9   1   3 13.8374 10.6460   6
  -9   1   3 19.3321 3.58873   7
   8  -1  -3 699.243 80.1523   5
   8  -1  -3 904.415 64.8476   2
  -8   1   3 692.062 65.6922   6
  -8   1   3 819.155 62.9939   7
   7  -1  -3 142.075 13.8624   2
   7  -1  -3 136.541 29.8683   5
  -7   1   3 142.282 12.4782   7
  -7   1   3 141.025 15.1747   6
   6  -1  -3 20.5452 13.4295   5
   6  -1  -3 29.4945 4.95447   2
  -6   1   3 27.1570 2.97908   3
  -6   1   3 28.8968 3.71598   7
  -6   1   3 32.7864 6.34521   6
   5  -1  -3 4.83832 10.6220   5
   5  -1  -3 5.99421 2.41586   2
  -5   1   3 3.60916 1.43188   7
  -5   1   3 3.90101 0.93506   3
  -5   1   3 5.42438 2.86084   6
   4  -1  -3 278.510 24.9610   1
   4  -1  -3 242.161 23.0367   2
  -4   1   3 292.283 25.3380   1
  -4   1   3 288.797 22.2092   3
  -4   1   3 296.564 22.5692   7
  -4   1   3 286.697 23.7093   6
   3  -1  -3 20.2035 4.06311   1
   3  -1  -3 20.7567 3.12655   2
  -3   1   3 24.2861 2.10769   3
  -3   1   3 24.3010 3.56164   6
  -3   1   3 24.1431 4.51424   1
  -3   1   3 23.6023 2.50908   7
   2  -1  -3 123.144 11.9011   1
  -2   1   3 138.626 11.7805   8
  -2   1   3 124.350 11.3380   6
  -2   1   3 131.916 10.4856   7
   1  -1  -3 1224.99 96.5746   1
  -1   1   3 1346.22 95.8047   8
  -1   1   3 1111.03 96.3638   1
  -1   1   3 1164.38 94.7636   3
   0  -1  -3 862.598 67.2379   1
   0  -1  -3 819.294 65.2857   2
   0   1   3 892.382 65.6138   8
   0   1   3 848.820 64.9113   4
   0   1   3 711.696 66.4569   1
  -1  -1  -3 20.3616 3.11337   2
  -1  -1  -3 23.3681 5.27524   1
   1   1   3 31.3957 6.14937   5
   1   1   3 24.5473 2.18768   3
   1   1   3 25.8921 2.72877   2
   1   1   3 24.3287 3.82132   8
   1   1   3 34.5910 5.29913   1
  -2  -1  -3 482.000 40.8701   2
   2   1   3 555.982 44.1349   1
   2   1   3 542.626 44.9075   5
   2   1   3 505.288 40.6849   2
   2   1   3 473.939 44.2011   1
  -3  -1  -3 139.662 12.4500   2
   3   1   3 142.471 16.5673   1
   3   1   3 148.956 17.9009   5
   3   1   3 133.574 12.2642   2
   3   1   3 149.045 17.3776   1
  -4  -1  -3 96.5340 9.23497   2
   4   1   3 75.4973 15.8418   1
   4   1   3 131.567 17.6956   5
   4   1   3 88.2511 15.8840   1
   4   1   3 93.5761 9.19070   2
  -5  -1  -3 191.390 17.2698   2
   5   1   3 217.946 26.7687   5
   5   1   3 191.699 17.3600   2
  -6  -1  -3 1066.69 91.1426   2
   6   1   3 1172.76 101.664   5
   6   1   3 1195.89 91.5901   2
  -7  -1  -3 914.396 73.7570   2
   7   1   3 859.017 84.7661   5
   7   1   3 966.157 74.3346   2
  -8  -1  -3 117.225 11.5304   2
   8   1   3 114.171 9.55638   3
   8   1   3 118.286 11.9263   2
   8   1   3 78.4435 24.2684   5
   9   1   3 14.8078 3.67572   2
   9   1   3 8.73939 1.63054   3
  10  -2  -3 1.25135 2.52187   2
 -10   2   3 0.63296 2.07773   7
   9  -2  -3 85.5726 9.22912   2
   9  -2  -3 86.5156 31.6197   5
  -9   2   3 72.1694 8.01139   7
  -9   2   3 62.4700 16.6315   6
   8  -2  -3 348.918 52.8264   5
  -8   2   3 378.857 35.7711   6
  -8   2   3 405.780 31.7802   7
   7  -2  -3 79.1532 8.99436   2
   7  -2  -3 60.7162 19.9843   5
  -7   2   3 80.7215 11.6905   6
  -7   2   3 89.7662 8.17842   7
  -7   2   3 83.0524 7.24275   3
   6  -2  -3 134.011 29.7107   5
   6  -2  -3 156.800 13.9360   2
  -6   2   3 161.082 13.1614   7
  -6   2   3 145.841 12.4515   3
  -6   2   3 151.044 15.7435   6
   5  -2  -3 621.327 55.7345   2
  -5   2   3 701.006 57.2463   6
  -5   2   3 749.320 54.8260   3
  -5   2   3 714.787 55.2879   7
   4  -2  -3 60.3984 6.08727   2
   4  -2  -3 61.1969 7.14472   1
  -4   2   3 66.0165 7.63386   1
  -4   2   3 63.0310 5.17898   3
  -4   2   3 65.1926 7.39868   6
  -4   2   3 56.6784 5.61503   7
   3  -2  -3 2085.32 173.760   2
   3  -2  -3 2295.24 174.580   1
  -3   2   3 2101.68 174.645   1
  -3   2   3 2241.49 173.469   7
  -3   2   3 2048.54 173.179   4
  -3   2   3 2522.64 175.127   6
   1  -2  -3 408.714 32.6060   2
  -1   2   3 402.073 33.7615   1
  -1   2   3 395.698 32.3666   4
  -1   2   3 435.039 32.2142   3
  -1   2   3 407.226 34.2943   6
   0  -2  -3 88.1933 7.05094   2
   0  -2  -3 65.3845 8.69216   1
   0   2   3 74.5888 8.48171   1
   0   2   3 77.5090 6.38834   3
   0   2   3 86.3804 6.71597   4
   1   2   3 15.5026 2.30669   4
   1   2   3 30.2640 6.25225   1
   1   2   3 24.9732 5.18315   1
   1   2   3 19.4550 1.90704   3
   1   2   3 18.6263 2.27433   2
   1   2   3 25.4234 6.33085   5
   2   2   3 579.046 45.0070   2
   2   2   3 547.543 49.3252   1
   2   2   3 592.614 45.5452   8
   2   2   3 613.899 44.4511   3
   2   2   3 484.049 47.9560   1
  -3  -2  -3 31.8072 4.41810   2
   3   2   3 31.6744 8.63538   5
   3   2   3 20.6354 6.60879   1
   3   2   3 27.1819 3.91587   2
   3   2   3 31.9338 2.90473   3
   3   2   3 40.8981 10.1259   1
  -4  -2  -3 190.687 17.8275   2
   4   2   3 230.855 25.7777   5
   4   2   3 206.371 17.6678   2
  -5  -2  -3 138.216 13.5687   2
   5   2   3 145.906 13.3743   2
   5   2   3 147.134 22.6250   5
  -6  -2  -3 426.577 35.2720   2
   6   2   3 424.208 34.9506   2
   6   2   3 394.441 44.8052   5
  -7  -2  -3 344.871 28.6607   2
   7   2   3 321.354 40.4700   5
   7   2   3 314.231 28.3034   2
   7   2   3 346.019 26.6926   3
  -8  -2  -3 60.5072 8.04814   2
   8   2   3 82.4018 8.47116   2
   8   2   3 73.0740 6.33226   3
   9   2   3 119.427 10.3460   2
   9   2   3 95.4799 9.26128   3
  10  -3  -3 -0.2483 1.83669   2
 -10   3   3 0.76689 2.08950   7
   9  -3  -3 88.2160 36.2944   5
   9  -3  -3 101.400 9.63054   2
  -9   3   3 81.6944 9.02607   7
   8  -3  -3 31.0771 5.00787   2
   8  -3  -3 25.2904 22.7285   5
  -8   3   3 9.68327 8.63318   6
  -8   3   3 21.1842 4.01000   7
   7  -3  -3 13.5351 15.6651   5
   7  -3  -3 4.81758 2.54248   2
  -7   3   3 8.93779 2.56025   7
  -7   3   3 5.63302 6.98869   6
  -7   3   3 4.92268 1.55767   3
   6  -3  -3 217.471 18.9494   2
   6  -3  -3 201.431 35.4214   5
  -6   3   3 223.841 18.6080   7
  -6   3   3 236.476 17.9531   3
  -6   3   3 213.987 21.6969   6
   5  -3  -3 640.262 53.1763   2
   5  -3  -3 540.591 64.9136   5
  -5   3   3 735.866 52.9960   7
  -5   3   3 638.431 52.2396   4
  -5   3   3 689.358 52.3559   3
  -5   3   3 704.738 55.6410   6
   4  -3  -3 8.73196 2.05334   2
  -4   3   3 7.58328 3.67070   6
  -4   3   3 8.46627 1.26939   4
  -4   3   3 6.96453 1.18553   3
   3  -3  -3 1989.71 160.267   2
  -3   3   3 2182.99 160.157   7
  -3   3   3 2078.07 162.289   6
  -3   3   3 1919.60 159.817   4
   2  -3  -3 2813.92 241.259   2
  -2   3   3 3097.71 241.287   7
  -2   3   3 3268.77 243.855   6
  -2   3   3 3157.81 241.959   1
   1  -3  -3 904.942 75.5697   2
  -1   3   3 955.482 77.0973   1
  -1   3   3 1090.88 75.4827   7
  -1   3   3 929.666 75.2214   3
  -1   3   3 862.115 76.5557   1
  -1   3   3 1018.51 75.5090   4
   0  -3  -3 1348.35 92.5035   2
   0   3   3 1077.61 94.5542   1
   0   3   3 1053.36 93.9485   1
   0   3   3 1210.94 91.9011   3
   1   3   3 3707.26 293.807   1
  -2  -3  -3 589.938 50.8395   2
   2   3   3 592.680 50.3983   2
   2   3   3 679.277 56.2651   1
   2   3   3 668.250 50.0464   3
   2   3   3 657.161 50.4882   4
  -3  -3  -3 86.7827 8.76813   2
   3   3   3 97.4748 15.6218   5
   3   3   3 100.041 7.45696   3
   3   3   3 75.4816 8.00102   2
  -4  -3  -3 8.36171 3.33503   2
   4   3   3 8.64312 2.80973   2
   4   3   3 14.3301 9.15883   5
   4   3   3 12.1795 1.83206   3
  -5  -3  -3 83.6415 9.94830   2
   5   3   3 85.1404 9.09716   2
   5   3   3 90.1767 19.5795   5
   5   3   3 97.7420 7.81784   3
  -6  -3  -3 46.7687 7.04270   2
   6   3   3 21.1848 13.5124   5
   6   3   3 35.6715 4.00136   3
   6   3   3 37.1889 5.73384   2
  -7  -3  -3 257.869 20.7763   2
   7   3   3 214.411 19.5554   2
   7   3   3 214.144 18.2397   3
   7   3   3 211.968 33.4641   5
  -8  -3  -3 94.1105 9.87279   2
   8   3   3 91.6507 9.11450   2
   8   3   3 92.0790 7.83604   3
 -10   4   3 0.69272 1.82003   7
   9  -4  -3 16.6628 3.32595   2
  -9   4   3 19.5457 3.53619   7
   8  -4  -3 448.738 36.6785   2
   8  -4  -3 415.408 60.6549   5
  -8   4   3 405.652 42.2742   6
  -8   4   3 429.883 35.7997   3
  -8   4   3 514.947 36.9501   7
   7  -4  -3 402.326 56.4628   5
   7  -4  -3 440.754 37.7217   2
  -7   4   3 489.791 37.0511   3
  -7   4   3 461.971 42.4886   6
  -7   4   3 497.168 37.9593   7
   6  -4  -3 51.1365 21.6453   5
   6  -4  -3 45.4728 5.60693   2
  -6   4   3 63.6676 6.11468   7
  -6   4   3 67.7173 11.1847   6
  -6   4   3 54.3139 5.08509   3
   5  -4  -3 13.0229 18.8787   5
   5  -4  -3 3.06471 1.58690   2
  -5   4   3 5.26837 1.86079   7
  -5   4   3 2.90950 1.07796   3
  -5   4   3 -2.8263 4.04593   6
  -5   4   3 1.75962 0.88197   4
   4  -4  -3 273.734 24.8120   2
  -4   4   3 306.683 28.0986   6
  -4   4   3 298.911 24.4532   4
  -4   4   3 343.491 25.0459   7
  -4   4   3 314.569 24.3593   3
   3  -4  -3 572.719 47.2182   2
  -3   4   3 583.658 50.2952   6
  -3   4   3 576.925 46.9446   4
  -3   4   3 629.772 46.7779   3
  -3   4   3 609.442 47.2596   7
  -2   4   3 113.347 12.8312   6
  -2   4   3 113.025 8.96334   7
  -2   4   3 98.4413 8.79969   4
  -2   4   3 100.122 8.52410   3
   1  -4  -3 93.2612 7.90260   2
  -1   4   3 85.8909 7.48420   3
  -1   4   3 96.1571 9.35673   1
   0   4   3 336.966 29.3156   1
   0   4   3 332.642 26.6021   4
   0   4   3 322.252 26.1433   3
  -1  -4  -3 1546.50 113.158   2
   1   4   3 1320.07 116.466   1
   1   4   3 1455.24 112.879   4
   1   4   3 1410.09 112.355   3
   2   4   3 64.6439 6.14403   3
   2   4   3 72.3273 13.0585   5
   2   4   3 81.5049 7.04494   4
  -3  -4  -3 102.681 11.2573   2
   3   4   3 135.977 18.7503   5
   3   4   3 117.336 11.0763   2
   3   4   3 136.149 10.1257   3
  -4  -4  -3 198.705 16.9307   2
   4   4   3 195.649 14.9734   3
   4   4   3 190.463 25.3141   5
   4   4   3 156.105 15.4387   2
  -5  -4  -3 0.06628 3.07209   2
   5   4   3 2.13231 2.20608   2
   5   4   3 -0.4301 10.7731   5
   5   4   3 3.06156 1.43900   3
  -6  -4  -3 230.605 19.6734   2
   6   4   3 224.793 17.1273   3
   6   4   3 197.050 17.9275   2
   6   4   3 151.923 30.9793   5
  -7  -4  -3 678.354 55.1453   2
   7   4   3 667.618 53.1242   3
  -8  -4  -3 39.7659 5.87238   2
   8   4   3 36.7022 3.58299   3
  -9   5   3 94.4270 9.15251   7
  -8   5   3 657.719 52.3536   7
  -8   5   3 641.324 51.3433   3
   7  -5  -3 213.634 48.0699   5
  -7   5   3 257.059 30.4537   6
  -7   5   3 321.993 23.9187   3
  -7   5   3 319.046 24.9488   7
   6  -5  -3 219.490 44.5169   5
  -6   5   3 328.763 24.9345   7
  -6   5   3 297.085 30.1320   6
  -6   5   3 292.238 23.8728   3
   5  -5  -3 100.356 27.3312   5
  -5   5   3 163.068 13.2953   7
  -5   5   3 138.279 12.3774   4
  -5   5   3 138.410 17.8075   6
  -5   5   3 169.939 12.3293   3
  -4   5   3 287.236 22.8623   7
  -4   5   3 271.970 22.3261   4
  -4   5   3 293.309 22.1085   3
  -4   5   3 247.583 26.5789   6
  -3   5   3 30.8357 3.27580   4
  -3   5   3 27.4331 2.81702   3
  -3   5   3 26.1890 3.60094   7
  -3   5   3 27.8272 8.00074   6
   2  -5  -3 1011.10 89.0037   2
  -2   5   3 1184.30 88.7732   3
  -2   5   3 1146.48 89.2221   7
  -2   5   3 1188.96 89.1766   4
   1  -5  -3 436.334 36.0594   2
  -1   5   3 422.653 35.8869   7
  -1   5   3 484.744 36.1557   4
  -1   5   3 463.674 35.6433   3
   0  -5  -3 74.6500 7.72162   2
   0   5   3 98.0665 8.06250   4
   0   5   3 88.8915 7.27243   3
  -1  -5  -3 238.286 21.7294   2
   1   5   3 269.029 21.7538   4
   1   5   3 281.533 21.0613   3
  -2  -5  -3 387.482 37.4192   2
   2   5   3 493.237 37.3972   4
   2   5   3 505.160 36.6195   3
  -3  -5  -3 37.5791 5.67378   2
   3   5   3 37.0253 3.92138   3
  -4  -5  -3 150.313 13.8273   2
   4   5   3 117.972 22.1947   5
   4   5   3 138.270 11.7150   3
  -5  -5  -3 1.55172 2.99374   2
   5   5   3 7.62224 13.7101   5
   5   5   3 0.15105 1.23441   3
  -6  -5  -3 95.9136 10.3648   2
   6   5   3 87.1541 7.87250   3
  -7  -5  -3 12.0813 3.94636   2
   7   5   3 15.6880 2.02180   3
  -9   6   3 5.02663 2.33154   7
  -8   6   3 5.93545 1.49365   3
  -8   6   3 5.77906 2.84366   7
  -7   6   3 42.0707 5.47295   7
  -7   6   3 36.9928 3.95189   3
   6  -6  -3 25.4060 24.2857   5
  -6   6   3 32.9474 3.97597   4
  -6   6   3 33.1379 11.6326   6
  -6   6   3 37.7023 3.83658   3
  -6   6   3 44.9346 5.37321   7
   5  -6  -3 63.3048 26.7806   5
  -5   6   3 61.7513 6.14572   4
  -5   6   3 65.6053 6.94313   7
  -5   6   3 69.5945 5.83422   3
  -5   6   3 69.9183 13.8371   6
  -4   6   3 33.6598 4.14012   4
  -4   6   3 36.9219 10.4807   6
  -4   6   3 35.2246 3.61088   3
  -4   6   3 41.4303 4.78817   7
  -3   6   3 -0.6831 1.49530   4
  -3   6   3 -0.0458 1.50222   7
  -3   6   3 0.73501 1.03122   3
  -2   6   3 39.7789 4.63021   7
  -2   6   3 45.0033 4.82458   4
  -2   6   3 41.4719 3.93568   3
   1  -6  -3 34.9579 4.41225   2
  -1   6   3 53.3288 4.12033   3
   0  -6  -3 6.81481 2.03977   2
   0   6   3 2.79534 2.09311   4
   0   6   3 1.56790 1.10033   3
  -1  -6  -3 806.556 65.7893   2
   1   6   3 836.418 64.8663   3
   1   6   3 826.081 65.6137   4
  -2  -6  -3 1113.29 85.7625   2
   2   6   3 1120.44 84.5144   3
   2   6   3 986.493 85.2301   4
  -3  -6  -3 28.9294 5.32568   2
   3   6   3 30.4418 3.59414   3
  -4  -6  -3 0.27886 2.62447   2
   4   6   3 1.85106 1.69054   3
  -5  -6  -3 2.28186 2.84794   2
   5   6   3 0.79883 1.35571   3
  -6  -6  -3 7.38528 3.13349   2
   6   6   3 7.13624 1.47842   3
  -8   7   3 50.7892 5.89005   7
  -7   7   3 221.194 19.4532   7
  -7   7   3 234.358 18.3509   3
  -6   7   3 248.106 20.2350   7
  -6   7   3 226.648 19.0110   3
  -5   7   3 1.09673 1.15779   3
  -5   7   3 -0.6609 1.65107   4
  -5   7   3 -7.6084 11.1365   6
  -5   7   3 -0.2238 1.98597   7
  -4   7   3 -0.0942 1.81001   7
  -4   7   3 -0.7112 1.88285   4
  -4   7   3 0.47666 1.25116   3
  -3   7   3 24.0864 4.29099   7
  -3   7   3 34.5316 3.31909   3
  -3   7   3 36.3782 4.38123   4
  -2   7   3 153.607 13.7659   4
  -2   7   3 163.083 12.9560   3
   1  -7  -3 67.9045 6.77785   2
  -1   7   3 74.8339 6.28088   3
  -1   7   3 69.8800 7.26719   4
   0  -7  -3 1.77115 1.78048   2
   0   7   3 5.46680 2.42218   4
   0   7   3 3.49973 1.42119   3
  -1  -7  -3 91.4529 8.45016   2
   1   7   3 69.7113 8.09578   4
   1   7   3 78.9260 7.15047   3
  -2  -7  -3 13.8645 3.35390   2
   2   7   3 6.63604 1.98145   3
  -3  -7  -3 0.33722 2.25413   2
   3   7   3 0.26939 1.41698   3
  -4  -7  -3 85.1635 8.63654   2
   4   7   3 71.4952 6.88251   3
  -5  -7  -3 128.258 11.8497   2
   5   7   3 120.546 10.3045   3
  -7   8   3 34.1341 2.94210   3
  -7   8   3 23.7401 4.00433   7
  -6   8   3 70.9969 8.46209   7
  -6   8   3 104.408 7.52054   3
  -5   8   3 69.0027 8.23354   7
  -5   8   3 96.5471 7.95902   4
  -5   8   3 91.1932 7.27675   3
  -4   8   3 313.078 24.4734   3
  -4   8   3 301.003 25.1339   4
  -3   8   3 318.896 25.2573   3
  -3   8   3 315.258 26.0308   4
  -2   8   3 -1.6118 2.06301   4
  -2   8   3 0.14391 1.21635   3
  -1   8   3 65.6177 5.60615   3
  -1   8   3 58.2235 6.82206   4
   0  -8  -3 2.68784 1.88345   2
   0   8   3 0.78173 1.97725   4
   0   8   3 1.54904 1.34468   3
  -1  -8  -3 1.56571 1.84975   2
   1   8   3 1.23299 2.03301   4
   1   8   3 1.60270 1.43755   3
  -2  -8  -3 248.606 20.2216   2
   2   8   3 222.845 18.9571   3
  -3  -8  -3 164.648 14.0762   2
   3   8   3 147.820 12.7514   3
  -4  -8  -3 2.41699 2.02170   2
   4   8   3 -1.3156 1.09490   3
  -5   9   3 3.37707 1.05122   3
  -4   9   3 105.174 10.2421   4
  -4   9   3 129.725 9.68001   3
  -3   9   3 68.9356 5.68806   3
  -3   9   3 62.3018 6.60164   4
  -2   9   3 -0.7077 2.00815   4
  -2   9   3 0.69659 0.99447   3
  -1   9   3 43.2793 5.37717   4
  -1   9   3 50.8893 4.35759   3
   0   9   3 1.84733 1.05786   3
   0   9   3 1.44809 1.95590   4
   1   9   3 55.7865 4.92146   3
   2   9   3 266.508 21.2141   3
   0  11  -4 20.4581 2.92680   4
  -1  11  -4 0.27607 1.44145   4
  -3 -10   4 1.40623 1.42225   2
  -2 -10   4 11.9817 2.34271   2
   1  10  -4 23.1006 3.59591   4
  -1 -10   4 30.7673 3.57854   2
   0  10  -4 12.3162 2.46838   4
  -1  10  -4 28.4863 3.72653   4
  -2  10  -4 40.6888 4.59971   4
  -3  10  -4 275.725 22.4545   4
  -4  10  -4 124.594 10.5840   4
  -5  10  -4 59.7214 5.45148   4
   5   9  -4 140.920 13.0124   3
  -5  -9   4 185.532 14.3103   2
   4   9  -4 51.3037 4.59679   3
   3   9  -4 90.8893 8.07264   3
  -3  -9   4 105.012 9.20408   2
   2   9  -4 425.380 37.3605   3
  -2  -9   4 515.215 38.0786   2
   1   9  -4 124.535 10.9244   4
  -1  -9   4 126.069 10.9512   2
   0   9  -4 2.83698 1.83397   4
   0  -9   4 2.12038 1.34877   2
  -1   9  -4 192.224 16.3617   4
   1  -9   4 199.034 16.1160   2
  -2   9  -4 2.15707 1.91562   4
  -3   9  -4 38.7105 6.37021   7
  -3   9  -4 46.6603 4.86137   4
  -4   9  -4 3.05705 1.83153   4
  -4   9  -4 4.96559 3.45670   7
  -5   9  -4 2.11704 1.53091   4
  -5   9  -4 0.68599 2.91535   7
  -6   9  -4 12.1480 3.24330   7
  -6   9  -4 16.7605 2.18516   4
   6   8  -4 270.596 22.8015   3
  -6  -8   4 302.650 24.1578   2
   5   8  -4 145.291 12.6298   3
  -5  -8   4 165.596 14.0808   2
   4   8  -4 14.1783 1.89393   3
   4   8  -4 9.06395 2.29634   4
  -4  -8   4 10.3185 2.77447   2
   3   8  -4 38.1048 4.40316   4
   3   8  -4 36.2281 3.59171   3
  -3  -8   4 36.2157 4.75961   2
   2   8  -4 373.322 29.5979   4
   2   8  -4 347.903 29.0172   3
  -2  -8   4 379.551 29.9105   2
   1   8  -4 200.422 17.2110   4
   1   8  -4 202.400 16.6312   3
  -1  -8   4 222.785 17.4244   2
   0   8  -4 111.846 9.77749   4
   0  -8   4 111.850 9.68553   2
  -1   8  -4 21.1375 3.04508   4
   1  -8   4 12.9338 6.62579   8
   1  -8   4 16.4657 2.41827   2
  -2   8  -4 62.8469 15.3785   6
  -2   8  -4 60.1293 5.55735   4
  -2   8  -4 49.7113 7.49320   7
   2  -8   4 49.0241 4.83442   2
   2  -8   4 51.3652 11.4943   8
  -3   8  -4 101.242 19.9501   6
  -3   8  -4 153.509 12.0343   4
  -3   8  -4 132.786 13.8035   7
   3  -8   4 142.730 18.3164   8
  -4   8  -4 338.657 24.6113   4
  -4   8  -4 292.714 26.3913   7
  -4   8  -4 282.292 32.4831   6
   4  -8   4 273.253 30.6702   8
  -5   8  -4 153.690 12.0493   4
  -5   8  -4 141.627 14.0265   7
   5  -8   4 115.369 18.5635   8
  -6   8  -4 1.56249 1.30604   4
  -6   8  -4 1.99155 2.94038   7
   6  -8   4 0.15652 6.90158   8
  -7   8  -4 3.74014 1.24545   4
  -7   8  -4 1.57416 2.57273   7
   7   7  -4 35.9917 3.62399   3
  -7  -7   4 32.7758 5.24221   2
   6   7  -4 79.4803 6.68250   3
  -6  -7   4 70.3975 8.22880   2
   5   7  -4 98.4190 8.54978   3
  -5  -7   4 102.388 9.97815   2
   4   7  -4 305.000 24.1718   3
  -4  -7   4 300.020 25.2485   2
   3   7  -4 0.48099 1.26814   4
   3   7  -4 0.20813 0.96027   3
  -3  -7   4 1.71666 1.86236   2
   2   7  -4 31.1816 3.09568   3
   2   7  -4 32.6709 3.67709   4
  -2  -7   4 25.7922 6.79073   8
  -2  -7   4 37.0066 4.13041   2
   1   7  -4 8.86234 1.17817   3
   1   7  -4 6.47825 1.63864   4
  -1  -7   4 2.47970 4.05569   8
  -1  -7   4 7.71615 1.79164   2
   0   7  -4 101.841 7.71408   3
   0   7  -4 97.3022 8.33004   4
   0  -7   4 86.1671 8.23364   2
   0  -7   4 95.5254 12.3884   8
  -1   7  -4 181.095 13.5344   4
  -1   7  -4 155.894 20.3654   6
  -1   7  -4 144.783 14.8153   7
   1  -7   4 178.501 18.7074   8
   1  -7   4 148.496 13.2720   2
  -2   7  -4 60.7593 12.6970   6
  -2   7  -4 66.5782 6.19302   4
  -2   7  -4 54.1001 7.88176   7
   2  -7   4 68.2228 12.0776   8
   2  -7   4 70.6847 5.93863   2
  -3   7  -4 317.892 27.6640   7
  -3   7  -4 314.862 25.8244   4
  -3   7  -4 318.327 32.1423   6
   3  -7   4 338.251 33.1842   8
   3  -7   4 314.204 25.6148   2
  -4   7  -4 252.276 19.1911   4
  -4   7  -4 237.157 21.1474   7
  -4   7  -4 216.046 25.7334   6
   4  -7   4 263.458 27.9276   8
   4  -7   4 207.559 18.8332   2
  -5   7  -4 76.4093 6.77149   4
  -5   7  -4 85.2288 9.43319   7
  -5   7  -4 46.5259 12.5315   6
   5  -7   4 71.3708 6.45172   2
   5  -7   4 68.3285 15.3843   8
  -6   7  -4 5.70726 3.65061   7
  -6   7  -4 6.65183 1.73555   4
   6  -7   4 7.12349 1.64956   2
   6  -7   4 13.3668 9.78665   8
  -7   7  -4 194.149 14.1581   4
  -7   7  -4 147.468 15.5636   7
   7  -7   4 160.374 22.9337   8
   8   6  -4 48.6995 4.39366   3
  -8  -6   4 39.9522 5.66031   2
   7   6  -4 68.2122 6.02859   3
  -7  -6   4 60.7212 7.53646   2
   6   6  -4 34.0633 6.72853   2
   6   6  -4 38.4767 4.18567   3
  -6  -6   4 44.8456 5.86947   2
   5   6  -4 364.112 33.5018   2
   5   6  -4 399.977 32.3339   3
  -5  -6   4 457.014 33.6990   2
   4   6  -4 179.715 13.4282   3
   4   6  -4 142.234 13.4961   4
  -4  -6   4 173.758 14.5122   2
   3   6  -4 79.5007 6.72773   3
   3   6  -4 77.9511 6.99486   4
  -3  -6   4 84.4412 10.7555   8
   2   6  -4 260.986 18.8612   4
   2   6  -4 222.040 18.4668   3
  -2  -6   4 239.562 21.9989   8
  -2  -6   4 210.038 19.0915   2
   1   6  -4 1161.69 89.4088   3
   1   6  -4 1069.76 89.6933   4
  -1  -6   4 1227.34 93.4046   8
  -1  -6   4 1113.01 89.9309   2
   0   6  -4 215.337 17.1338   4
   0   6  -4 217.850 16.7329   3
   0   6  -4 186.834 17.9745   7
   0  -6   4 205.435 17.2092   2
   0  -6   4 235.556 21.7557   8
  -1   6  -4 41.2912 5.27676   7
  -1   6  -4 33.9652 3.58503   4
   1  -6   4 37.8840 8.54803   8
   1  -6   4 34.0667 3.53422   2
  -2   6  -4 2.56497 2.51172   7
  -2   6  -4 1.36640 5.61833   6
  -2   6  -4 2.81485 1.37651   4
   2  -6   4 4.69417 1.25903   2
   2  -6   4 2.88830 4.55971   8
  -3   6  -4 218.056 22.4868   6
  -3   6  -4 225.142 19.1449   7
  -3   6  -4 226.005 17.4734   4
   3  -6   4 186.028 17.3772   2
   3  -6   4 229.958 25.7497   8
  -4   6  -4 11.4116 2.02836   4
  -4   6  -4 6.41432 6.44724   6
  -4   6  -4 5.86435 3.41990   7
   4  -6   4 11.8833 2.04517   2
   4  -6   4 5.90442 6.37258   8
  -5   6  -4 437.854 41.7610   6
  -5   6  -4 462.663 37.8814   7
  -5   6  -4 491.330 36.0594   4
   5  -6   4 456.873 36.1843   2
   5  -6   4 384.670 44.3198   8
  -6   6  -4 71.1529 8.93494   7
  -6   6  -4 72.7811 6.77327   4
  -6   6  -4 81.1181 15.9137   6
   6  -6   4 85.9581 16.6151   8
  -7   6  -4 68.0190 6.19871   4
  -7   6  -4 66.1304 8.23776   7
   7  -6   4 63.4672 15.7212   8
   7  -6   4 71.6693 6.56851   2
  -8   6  -4 12.4825 3.43334   7
  -8   6  -4 15.1095 2.25315   4
   8  -6   4 16.8799 10.7330   8
   8  -6   4 21.1920 2.78227   2
   9   5  -4 107.388 12.1137   2
  -9  -5   4 107.675 10.7057   2
   8   5  -4 0.91232 2.63063   2
  -8  -5   4 0.38111 2.06343   2
   7   5  -4 10.6901 18.9275   5
   7   5  -4 2.28507 2.97492   2
  -7  -5   4 1.44071 2.50973   2
   6   5  -4 50.6046 16.2316   5
   6   5  -4 56.0343 7.09261   2
  -6  -5   4 54.8048 6.64319   2
   5   5  -4 6.82347 9.69485   5
  -5  -5   4 5.94066 1.56727   7
  -5  -5   4 11.1359 3.02749   2
   4   5  -4 28.0916 2.76823   4
   4   5  -4 18.9599 3.76768   2
   4   5  -4 27.4484 9.05069   5
  -4  -5   4 35.4080 7.42566   8
  -4  -5   4 21.8823 3.77551   2
   3   5  -4 87.0468 7.97325   4
   3   5  -4 96.8645 9.04358   2
   3   5  -4 103.305 12.7702   5
  -3  -5   4 98.4894 8.67663   2
  -3  -5   4 101.102 11.4862   8
   2   5  -4 1198.75 95.0763   3
   2   5  -4 1051.76 95.7503   2
   2   5  -4 1312.11 95.3325   4
  -2  -5   4 1207.40 98.3447   8
  -2  -5   4 1301.43 95.7192   2
   1   5  -4 1677.23 127.234   3
   1   5  -4 1454.97 127.429   4
   1   5  -4 1456.23 131.311   1
  -1  -5   4 1633.67 131.268   1
  -1  -5   4 1846.05 131.266   8
  -1  -5   4 1696.39 127.756   2
   0   5  -4 150.580 13.2279   7
   0   5  -4 160.888 16.1956   6
   0   5  -4 149.411 16.0095   1
   0   5  -4 153.621 12.0978   3
   0  -5   4 158.856 16.4763   8
   0  -5   4 154.842 12.6102   2
   0  -5   4 142.986 15.6855   1
  -1   5  -4 22.2984 2.50001   4
  -1   5  -4 30.5957 6.77699   6
  -1   5  -4 22.2855 3.57580   7
   1  -5   4 19.2658 2.50137   2
   1  -5   4 36.9075 8.54124   8
  -2   5  -4 797.625 60.0896   7
  -2   5  -4 718.792 61.5766   1
  -2   5  -4 880.017 59.1360   4
   2  -5   4 671.668 59.1868   2
   2  -5   4 745.148 65.1726   8
   2  -5   4 684.678 61.6198   1
  -3   5  -4 0.34774 1.05545   4
  -3   5  -4 0.05636 4.29004   6
  -3   5  -4 -1.0461 2.02467   7
   3  -5   4 -1.5819 4.97272   8
   3  -5   4 0.73978 0.99633   2
  -4   5  -4 1044.29 82.8044   6
  -4   5  -4 1050.92 79.9267   7
  -4   5  -4 1021.41 78.5284   4
   4  -5   4 883.868 78.8627   2
  -5   5  -4 2992.93 229.924   7
  -5   5  -4 2848.97 228.398   4
  -5   5  -4 2913.16 233.044   6
   5  -5   4 2913.93 229.026   2
  -6   5  -4 336.058 30.9524   7
  -6   5  -4 377.283 29.4063   4
   6  -5   4 383.924 30.2057   2
  -7   5  -4 56.9648 13.9971   6
  -7   5  -4 72.8283 8.99904   7
  -7   5  -4 78.8409 6.90110   4
   7  -5   4 86.9632 7.91515   2
  -8   5  -4 44.7892 6.13372   7
  -8   5  -4 44.0615 4.13642   4
   8  -5   4 35.0619 12.7126   8
   9  -5   4 118.940 10.2978   2
   9   4  -4 192.191 17.4506   2
  -9  -4   4 186.530 16.4590   2
   8   4  -4 172.626 17.0082   2
  -8  -4   4 188.563 16.1763   2
   7   4  -4 222.645 35.4202   5
   7   4  -4 269.796 23.0832   2
  -7  -4   4 261.619 22.1122   2
   6   4  -4 855.960 79.7982   5
   6   4  -4 1005.45 71.5833   2
  -6  -4   4 788.303 69.6785   7
   5   4  -4 386.242 34.2915   2
   5   4  -4 399.176 41.1407   5
  -5  -4   4 405.218 33.6670   2
  -5  -4   4 457.288 33.1647   7
   4   4  -4 1249.34 108.849   2
   4   4  -4 1386.57 113.887   5
  -4  -4   4 1405.31 111.500   8
  -4  -4   4 1456.92 108.439   2
   3   4  -4 277.182 20.8662   4
   3   4  -4 247.522 27.5498   1
   3   4  -4 270.488 21.9840   2
   3   4  -4 263.731 25.7058   5
  -3  -4   4 279.328 24.1733   8
  -3  -4   4 271.248 26.6499   1
  -3  -4   4 229.393 21.3054   2
   2   4  -4 16.8768 3.11389   2
   2   4  -4 32.4579 7.93077   1
   2   4  -4 18.4901 2.07443   4
   2   4  -4 21.7148 4.80309   5
  -2  -4   4 26.9851 6.44922   1
  -2  -4   4 20.2264 4.97592   8
  -2  -4   4 22.6211 2.68685   2
   1   4  -4 232.248 20.1937   2
   1   4  -4 263.339 23.9343   1
   1   4  -4 253.569 19.5956   4
   1   4  -4 238.130 19.3955   3
  -1  -4   4 236.464 19.8741   2
  -1  -4   4 292.284 23.0373   8
  -1  -4   4 219.211 22.7934   1
   0   4  -4 2179.91 161.314   6
   0   4  -4 1845.75 159.384   7
   0  -4   4 2118.04 162.185   1
   0  -4   4 1949.74 162.168   8
   0  -4   4 2062.34 159.163   2
  -1   4  -4 291.089 25.0120   7
  -1   4  -4 286.195 26.6798   6
  -1   4  -4 280.077 24.3738   4
  -1   4  -4 339.931 27.5784   1
   1  -4   4 339.648 27.7972   1
   1  -4   4 317.287 28.7809   8
  -2   4  -4 16.1869 2.93020   7
  -2   4  -4 20.0361 4.96510   1
  -2   4  -4 21.5971 5.02950   6
  -2   4  -4 17.1614 2.03230   4
   2  -4   4 11.4293 2.20803   2
   2  -4   4 26.2209 5.66392   1
  -3   4  -4 2.04551 3.42169   6
  -3   4  -4 3.29447 1.11466   4
  -3   4  -4 3.85029 2.05068   7
   3  -4   4 5.21923 1.77539   2
   3  -4   4 2.72063 4.95741   5
   3  -4   4 4.05035 4.02638   1
  -4   4  -4 491.328 43.4411   6
  -4   4  -4 542.939 40.2598   4
  -4   4  -4 570.102 41.4146   7
   4  -4   4 506.300 45.3687   5
   4  -4   4 431.740 40.8341   2
  -5   4  -4 193.401 15.9830   7
  -5   4  -4 189.342 18.9299   6
  -5   4  -4 179.996 14.4668   4
   5  -4   4 156.190 15.3694   2
   5  -4   4 168.279 24.2163   5
  -6   4  -4 0.36053 1.17589   4
  -6   4  -4 1.96471 2.86651   7
  -6   4  -4 1.08254 6.01760   6
   6  -4   4 2.09709 2.16036   2
   6  -4   4 -6.5026 12.2774   5
  -7   4  -4 83.8398 14.9363   6
  -7   4  -4 106.484 8.71375   4
  -7   4  -4 87.8920 10.3025   7
   7  -4   4 115.976 10.3482   2
  -8   4  -4 259.110 19.7351   4
  -8   4  -4 227.309 21.1590   7
   9  -4   4 51.9812 5.78457   2
  10   3  -4 12.8004 3.70928   2
   9   3  -4 0.99777 3.55620   2
   8   3  -4 0.58284 3.02177   2
   8   3  -4 5.93361 15.4576   5
  -8  -3   4 0.81699 1.87497   2
   7   3  -4 68.8785 18.4123   5
   7   3  -4 82.0356 9.72717   2
  -7  -3   4 81.8173 7.67199   7
  -7  -3   4 83.1538 8.25261   2
   6   3  -4 323.608 26.7531   2
   6   3  -4 316.448 37.3130   5
  -6  -3   4 295.066 25.0313   7
  -6  -3   4 308.000 25.5067   2
   5   3  -4 17.4777 10.2407   5
   5   3  -4 2.79708 9.61559   1
   5   3  -4 11.1809 3.26958   2
  -5  -3   4 4.37249 11.4548   1
  -5  -3   4 7.12529 1.98272   2
   4   3  -4 601.764 51.8302   1
   4   3  -4 520.436 51.0414   5
   4   3  -4 567.511 45.5792   2
  -4  -3   4 567.777 44.8206   2
  -4  -3   4 552.010 47.6696   8
   3   3  -4 147.303 18.1562   1
   3   3  -4 170.944 19.1623   5
   3   3  -4 145.201 13.9527   2
  -3  -3   4 163.712 13.4023   2
  -3  -3   4 180.397 18.2139   1
  -3  -3   4 167.999 15.7793   8
   2   3  -4 2710.25 200.411   4
   2   3  -4 2420.40 203.503   5
   2   3  -4 2554.21 201.279   2
   0   3  -4 4313.14 319.271   1
   0   3  -4 3840.40 316.599   2
   0   3  -4 4059.27 317.406   6
   0   3  -4 4067.25 316.824   5
   0  -3   4 3939.54 318.832   8
  -1   3  -4 179.782 17.1837   6
  -1   3  -4 213.932 16.3065   7
  -1   3  -4 217.018 15.7023   4
   1  -3   4 180.700 18.3529   1
   1  -3   4 179.132 15.9496   2
   1  -3   4 207.571 19.4235   8
  -2   3  -4 8.07554 1.88888   7
  -2   3  -4 1.79355 3.09578   1
  -2   3  -4 4.04068 2.65189   6
  -2   3  -4 4.19158 0.96231   4
   2  -3   4 1.25330 2.50258   1
   2  -3   4 4.01088 1.53742   2
   2  -3   4 5.81157 3.37244   5
  -3   3  -4 19.4071 2.91527   7
  -3   3  -4 16.8062 4.14763   6
  -3   3  -4 19.9864 2.18486   4
   3  -3   4 16.9806 4.95844   1
   3  -3   4 23.5650 6.20180   5
   3  -3   4 15.5205 2.92931   2
  -4   3  -4 2.27103 3.35029   6
  -4   3  -4 1.80754 0.99210   4
  -4   3  -4 1.16315 1.59804   7
   4  -3   4 0.55219 1.65582   2
   4  -3   4 -1.1597 5.34768   5
  -5   3  -4 368.774 30.6108   4
  -5   3  -4 365.675 33.9197   6
  -5   3  -4 399.173 31.6056   7
   5  -3   4 391.051 31.8996   2
   5  -3   4 409.520 39.2011   5
  -6   3  -4 230.920 23.8026   6
  -6   3  -4 242.323 19.5780   4
  -6   3  -4 260.183 20.8537   7
   6  -3   4 227.228 31.1615   5
  -7   3  -4 0.46917 2.09230   7
  -7   3  -4 3.83428 6.86384   6
  -7   3  -4 1.18310 1.16869   4
   7  -3   4 -0.3710 2.30363   2
   7  -3   4 7.39087 14.1840   5
  -8   3  -4 58.5634 5.43476   4
   8  -3   4 67.8667 7.64653   2
   9  -3   4 4.10988 2.57576   2
   9  -3   4 -3.3163 14.6506   8
  10   2  -4 233.788 21.1792   2
   9   2  -4 127.648 39.6895   5
  -9  -2   4 175.218 15.5642   7
   8   2  -4 88.8088 24.4968   5
   8   2  -4 166.369 14.6385   2
  -8  -2   4 146.146 12.0179   2
  -8  -2   4 124.932 11.8324   7
  -8  -2   4 107.792 16.9913   6
   7   2  -4 25.5578 15.4039   5
   7   2  -4 28.1502 5.63996   2
  -7  -2   4 26.5175 3.80057   2
  -7  -2   4 21.3573 3.58012   7
   6   2  -4 66.4989 17.4433   5
   6   2  -4 47.9524 6.81977   2
  -6  -2   4 57.1474 5.13410   7
  -6  -2   4 40.4922 5.02432   2
   5   2  -4 72.3337 15.7472   1
   5   2  -4 71.7534 8.06948   2
   5   2  -4 75.6099 17.0810   5
  -5  -2   4 65.8985 6.84808   2
  -5  -2   4 89.7099 6.82931   7
   4   2  -4 101.310 13.6329   1
   4   2  -4 78.4538 8.33037   2
   4   2  -4 82.2434 15.5309   5
  -4  -2   4 82.5310 9.95572   8
  -4  -2   4 73.1162 11.8141   1
  -4  -2   4 87.2113 7.37099   2
   3   2  -4 112.221 14.3208   1
   3   2  -4 118.854 16.8189   5
  -3  -2   4 135.528 10.6068   2
  -3  -2   4 134.131 14.5454   1
   2   2  -4 990.204 71.1222   1
   2   2  -4 800.797 67.9023   2
  -2  -2   4 802.051 67.3074   2
  -2  -2   4 930.130 71.0720   1
  -2  -2   4 770.580 68.9611   8
   1   2  -4 1850.99 133.923   1
   1   2  -4 1566.58 131.225   2
  -1  -2   4 1541.08 132.435   8
  -1  -2   4 1718.44 130.772   2
   0   2  -4 12.0590 2.25825   6
   0   2  -4 6.53556 2.82247   1
   0  -2   4 7.33124 2.84230   1
   0  -2   4 9.63449 1.59654   2
  -1   2  -4 136.625 12.8758   2
  -1   2  -4 153.500 12.6630   7
  -1   2  -4 165.562 15.4639   1
   1  -2   4 155.304 15.2610   8
  -2   2  -4 92.5652 12.2606   1
  -2   2  -4 126.410 10.7738   6
  -2   2  -4 124.636 9.70897   7
   2  -2   4 105.951 12.7195   1
   2  -2   4 99.3965 9.61991   2
   2  -2   4 128.392 12.6806   5
  -3   2  -4 834.012 66.7493   6
  -3   2  -4 871.187 65.3810   7
  -3   2  -4 717.626 65.3156   2
   3  -2   4 816.218 69.2681   5
   3  -2   4 783.999 65.5582   2
   3  -2   4 944.068 70.1995   1
  -4   2  -4 204.651 20.4288   6
  -4   2  -4 213.163 18.6064   7
  -4   2  -4 217.632 18.6875   2
   4  -2   4 261.554 19.3717   2
   4  -2   4 234.420 24.8468   5
  -5   2  -4 255.361 24.3469   2
  -5   2  -4 294.222 23.8563   4
  -5   2  -4 327.591 27.4034   6
  -5   2  -4 303.702 24.5726   7
   5  -2   4 296.665 25.2446   2
   5  -2   4 348.079 33.4905   5
  -6   2  -4 16.7038 6.33517   6
  -6   2  -4 11.9887 2.77073   7
  -6   2  -4 11.5920 1.84565   4
   6  -2   4 13.5282 3.68642   2
   6  -2   4 14.0320 11.3203   5
  -7   2  -4 2.15892 1.22688   4
  -7   2  -4 -2.8294 6.06064   6
  -7   2  -4 0.77636 1.93201   7
   7  -2   4 -3.5789 11.8756   5
   7  -2   4 1.11487 2.92749   2
  -8   2  -4 33.7646 3.37905   4
   8  -2   4 28.5274 22.6685   5
   9  -2   4 168.651 15.5148   2
  10   1  -4 73.9242 9.50095   2
   9   1  -4 122.235 30.5879   5
  -9  -1   4 167.716 13.9587   7
   8   1  -4 275.301 22.6627   2
   8   1  -4 216.700 39.6892   5
  -8  -1   4 234.408 20.2098   7
  -8  -1   4 221.342 24.3041   6
   7   1  -4 88.8390 21.9553   5
   7   1  -4 83.4356 10.0527   2
  -7  -1   4 89.6612 8.19936   7
  -7  -1   4 91.0050 11.4493   6
  -7  -1   4 82.8017 7.86546   2
   6   1  -4 323.852 41.1750   5
   6   1  -4 374.818 31.4310   2
  -6  -1   4 316.965 29.7629   2
  -6  -1   4 400.117 31.9388   6
  -6  -1   4 425.206 30.0681   7
   5   1  -4 132.995 13.0307   2
   5   1  -4 179.947 23.8643   5
  -5  -1   4 164.477 11.9149   7
  -5  -1   4 119.917 11.7239   2
   4   1  -4 90.6770 8.74230   2
   4   1  -4 89.9998 16.9688   5
  -4  -1   4 103.692 12.7836   1
  -4  -1   4 81.8833 7.58850   2
  -4  -1   4 91.1004 7.31240   3
   3   1  -4 145.903 12.0621   2
  -3  -1   4 132.658 11.0342   2
  -3  -1   4 131.124 10.7353   3
  -3  -1   4 155.040 15.0442   1
  -3  -1   4 116.648 12.7553   8
   2   1  -4 19.9490 3.15464   2
   2   1  -4 13.5494 3.71919   1
  -2  -1   4 14.5174 1.35197   3
  -2  -1   4 13.6547 1.75129   2
  -2  -1   4 22.8495 4.97514   1
  -2  -1   4 9.88545 2.77967   8
   1   1  -4 111.008 9.64978   2
   1   1  -4 90.9680 10.9779   1
  -1  -1   4 108.701 8.84362   2
  -1  -1   4 129.316 11.9975   1
  -1  -1   4 101.487 10.3826   8
   0   1  -4 825.493 78.4990   1
   0   1  -4 892.686 76.3508   6
   0  -1   4 1090.66 78.3832   8
   0  -1   4 1001.45 79.1188   1
   0  -1   4 1048.86 76.3370   2
  -1   1  -4 153.599 11.5585   2
   1  -1   4 117.698 10.9953   2
   1  -1   4 131.689 13.3248   8
   1  -1   4 132.859 13.9875   1
  -2   1  -4 30.0397 3.81281   2
  -2   1  -4 32.3153 7.04019   1
  -2   1  -4 30.4863 3.29161   7
   2  -1   4 32.6537 6.69329   5
   2  -1   4 26.1643 3.39346   2
  -3   1  -4 707.021 55.2589   2
  -3   1  -4 674.185 54.7776   7
   3  -1   4 625.722 59.0037   1
   3  -1   4 662.686 59.3829   1
   3  -1   4 716.071 55.2302   2
   3  -1   4 774.899 60.1360   5
  -4   1  -4 17.3678 3.24884   2
  -4   1  -4 20.3554 2.73708   7
   4  -1   4 21.9484 7.74882   5
   4  -1   4 4.67845 7.21798   1
   4  -1   4 16.0549 3.21732   2
  -5   1  -4 248.378 22.3159   7
  -5   1  -4 253.026 22.8012   2
   5  -1   4 326.874 32.4174   5
   5  -1   4 300.323 23.5639   2
  -6   1  -4 141.198 13.0808   2
  -6   1  -4 133.376 16.1130   6
   6  -1   4 161.634 14.2091   2
   6  -1   4 154.121 25.3348   5
  -7   1  -4 39.0172 9.46813   6
  -7   1  -4 52.8557 4.77441   4
   7  -1   4 66.5183 7.95609   2
   7  -1   4 27.9838 13.4988   5
  -8   1  -4 250.088 20.9323   4
   8  -1   4 340.744 54.7726   5
   9  -1   4 249.561 21.7629   2
 -10   0   4 39.4630 4.83331   7
   9   0  -4 1.77179 3.36539   2
   9   0  -4 10.4370 23.2677   5
  -9   0   4 2.40296 2.17138   7
   8   0  -4 30.9129 20.9750   5
   8   0  -4 49.3283 7.69790   2
  -8   0   4 50.1967 5.77810   7
  -8   0   4 38.7171 9.70332   6
   7   0  -4 138.916 30.1783   5
   7   0  -4 188.616 16.5989   2
  -7   0   4 166.806 14.5697   7
  -7   0   4 165.972 17.3069   6
   6   0  -4 907.182 83.2182   5
  -6   0   4 861.322 69.5992   7
  -6   0   4 878.646 71.3343   6
   5   0  -4 668.507 68.6632   5
   5   0  -4 703.669 59.4113   2
  -5   0   4 748.578 58.1966   2
  -5   0   4 732.830 58.3740   7
  -5   0   4 801.321 58.0372   3
  -5   0   4 751.465 59.6327   6
   4   0  -4 132.777 13.3371   2
   4   0  -4 172.334 16.4123   1
  -4   0   4 134.888 12.3137   2
  -4   0   4 157.212 12.1943   3
  -4   0   4 149.055 14.9594   8
  -4   0   4 154.189 16.4038   1
  -4   0   4 163.099 12.5241   7
  -4   0   4 161.584 13.4026   6
   3   0  -4 26.2032 3.93071   2
   3   0  -4 26.9301 5.54772   1
  -3   0   4 30.7189 2.59389   3
  -3   0   4 27.5123 5.92368   1
  -3   0   4 32.6300 3.58287   6
  -3   0   4 37.2553 5.09908   8
  -3   0   4 26.5653 2.75012   2
   2   0  -4 0.59675 1.59177   2
   2   0  -4 0.02582 1.87221   1
  -2   0   4 0.79098 1.66881   8
  -2   0   4 -0.4744 1.97324   1
  -2   0   4 -0.1741 0.32804   3
   1   0  -4 102.262 9.24364   6
  -1   0   4 111.640 9.36776   2
  -1   0   4 119.906 11.7615   1
  -1   0   4 128.945 10.8475   8
   0   0  -4 37.3321 4.21719   2
   0   0  -4 37.0380 5.95287   1
   0   0   4 41.7092 5.07820   8
   0   0   4 35.2142 5.80220   1
   0   0   4 36.6734 3.43609   2
  -1   0  -4 1166.55 96.2536   1
   1   0   4 1142.38 94.7161   8
   1   0   4 1114.01 92.9301   2
   1   0   4 1331.23 96.4133   1
   1   0   4 1165.21 95.6745   5
  -2   0  -4 659.122 53.0524   2
   2   0   4 697.998 56.7000   1
   2   0   4 593.735 51.9937   3
   2   0   4 698.359 52.7402   2
   2   0   4 678.627 56.5509   5
  -3   0  -4 554.042 46.9688   2
   3   0   4 586.905 51.5475   1
   3   0   4 584.063 46.7950   2
   3   0   4 616.953 52.1154   1
   3   0   4 584.552 51.8917   5
  -4   0  -4 340.470 26.6094   2
   4   0   4 270.810 32.9836   1
   4   0   4 330.642 26.5014   2
  -5   0  -4 24.5566 4.55240   2
   5   0   4 25.2215 4.64035   2
   5   0   4 21.9860 10.7639   5
  -6   0  -4 100.732 9.93273   2
   6   0   4 109.984 21.2464   5
   6   0   4 93.1079 10.3480   2
  -7   0  -4 53.8160 6.74245   2
   7   0   4 59.6360 7.94914   2
   7   0   4 55.8861 5.09255   3
   7   0   4 46.4492 16.9171   5
  -8   0  -4 101.316 8.53545   4
   8   0   4 103.208 8.83702   3
   9   0   4 3.61922 2.68540   2
 -10   1   4 156.060 13.6116   7
   9  -1  -4 16.0882 4.87331   2
   9  -1  -4 19.3957 25.0571   5
   8  -1  -4 520.960 65.3143   5
  -8   1   4 524.996 49.0027   6
  -8   1   4 617.973 45.5872   7
   7  -1  -4 57.8307 7.80313   2
   7  -1  -4 33.9688 17.9056   5
  -7   1   4 52.6413 9.99095   6
  -7   1   4 63.4172 6.22982   7
   6  -1  -4 3.89599 2.84699   2
   6  -1  -4 2.22574 14.9703   5
  -6   1   4 13.1208 2.34661   7
  -6   1   4 10.6404 1.64981   3
  -6   1   4 10.4749 4.63560   6
   5  -1  -4 177.395 30.4630   5
   5  -1  -4 183.002 17.2847   2
  -5   1   4 203.095 15.9705   3
  -5   1   4 200.917 16.4091   7
  -5   1   4 217.137 18.2090   6
   4  -1  -4 733.506 58.4231   1
   4  -1  -4 624.651 56.2950   2
  -4   1   4 699.812 56.7551   6
  -4   1   4 690.012 58.7609   1
  -4   1   4 755.022 55.3181   3
  -4   1   4 721.262 55.6403   7
   3  -1  -4 97.1532 8.74361   2
   3  -1  -4 106.683 10.3822   1
  -3   1   4 96.1929 10.6197   1
  -3   1   4 89.6663 9.62977   8
  -3   1   4 84.1908 7.80831   7
  -3   1   4 99.8658 7.57382   3
  -3   1   4 83.9364 8.82316   6
   2  -1  -4 23.0547 4.36002   1
   2  -1  -4 27.6895 3.70142   2
  -2   1   4 22.0372 3.99320   6
  -2   1   4 25.6488 2.27640   3
  -2   1   4 26.4084 3.92713   8
  -2   1   4 19.9724 4.63874   1
  -2   1   4 28.0187 2.60111   4
  -2   1   4 26.3437 2.57027   7
   1  -1  -4 224.332 16.9041   2
   1  -1  -4 212.136 18.7500   1
  -1   1   4 188.128 18.3726   1
  -1   1   4 205.980 17.3465   8
  -1   1   4 189.892 16.0937   3
   0  -1  -4 164.250 15.3630   1
   0  -1  -4 127.203 12.6442   2
   0   1   4 174.439 13.3057   8
   0   1   4 137.021 14.5308   1
   0   1   4 155.716 11.9231   3
   0   1   4 144.037 12.1198   2
  -1  -1  -4 304.550 23.9947   2
   1   1   4 275.800 22.9284   3
   1   1   4 266.576 23.3154   2
   1   1   4 332.020 27.4631   5
  -2  -1  -4 503.429 41.0108   2
   2   1   4 435.304 41.9818   8
   2   1   4 510.774 39.8707   3
   2   1   4 507.265 44.4795   1
   2   1   4 613.120 45.9946   5
   2   1   4 498.728 40.5124   2
  -3  -1  -4 1149.51 97.0177   2
   3   1   4 1204.57 95.8037   3
   3   1   4 1220.25 102.669   1
   3   1   4 1201.07 96.6845   2
   3   1   4 1349.46 102.474   1
   4   1   4 521.801 61.2182   1
   4   1   4 666.838 56.3852   5
   4   1   4 627.999 48.2977   2
   4   1   4 569.698 47.0066   3
  -5  -1  -4 234.679 19.5458   2
   5   1   4 201.678 27.9338   5
   5   1   4 232.923 19.2789   2
   5   1   4 200.662 17.5440   3
  -6  -1  -4 407.174 34.3503   2
   6   1   4 406.710 32.5048   3
   6   1   4 387.332 44.2642   5
   6   1   4 427.469 34.3808   2
  -7  -1  -4 570.038 47.5914   2
   7   1   4 565.367 59.5935   5
   7   1   4 596.045 47.7963   2
   7   1   4 586.571 45.9306   3
   8   1   4 18.8090 4.24709   2
   8   1   4 14.1234 2.00326   3
   9   1   4 116.164 10.9166   2
  10  -2  -4 57.5171 6.78788   2
 -10   2   4 42.1380 5.47434   7
   9  -2  -4 27.7675 5.37155   2
   9  -2  -4 8.10359 26.5229   5
  -9   2   4 38.4926 4.93763   7
   8  -2  -4 312.809 25.1363   2
   8  -2  -4 252.102 47.0594   5
  -8   2   4 275.457 23.7540   7
  -8   2   4 271.135 28.9241   6
   7  -2  -4 174.663 37.4028   5
   7  -2  -4 252.080 19.7199   2
  -7   2   4 201.484 21.8743   6
  -7   2   4 200.136 18.2434   7
  -7   2   4 222.368 17.6359   3
   6  -2  -4 384.613 31.4791   2
   6  -2  -4 312.405 46.1497   5
  -6   2   4 360.252 29.9610   3
  -6   2   4 361.627 33.0948   6
  -6   2   4 425.247 30.6585   7
   5  -2  -4 1289.22 114.446   2
  -5   2   4 1513.02 113.422   3
  -5   2   4 1519.90 113.904   7
  -5   2   4 1464.34 115.868   6
   4  -2  -4 912.814 78.0809   2
  -4   2   4 1023.17 79.3120   6
  -4   2   4 1011.84 77.5564   7
  -4   2   4 973.591 77.1870   4
  -4   2   4 997.923 77.1371   3
   3  -2  -4 736.696 56.6767   2
   3  -2  -4 706.141 57.7093   1
  -3   2   4 719.154 58.0097   1
  -3   2   4 600.527 55.8004   4
  -3   2   4 717.203 56.0668   7
  -3   2   4 740.021 55.7529   3
  -3   2   4 759.159 57.8830   6
   2  -2  -4 359.129 30.8711   2
   2  -2  -4 378.501 32.4013   1
  -2   2   4 366.358 30.5129   4
  -2   2   4 412.997 30.6030   7
  -2   2   4 419.201 32.7481   6
  -2   2   4 386.304 32.5870   1
  -2   2   4 379.634 30.3228   3
   1  -2  -4 149.607 13.4514   1
   1  -2  -4 152.017 11.3295   2
  -1   2   4 116.366 11.4679   8
  -1   2   4 142.731 12.9724   1
  -1   2   4 121.636 10.8166   4
  -1   2   4 119.067 10.6633   7
  -1   2   4 131.350 10.5463   3
   0  -2  -4 228.865 21.8109   1
   0   2   4 229.059 19.0981   8
   0   2   4 220.816 18.4751   3
   0   2   4 237.620 18.8415   4
   0   2   4 255.340 21.5000   1
  -1  -2  -4 631.572 54.0249   2
   1   2   4 648.598 57.7000   1
   1   2   4 681.952 53.6438   8
   1   2   4 713.275 57.1502   1
   1   2   4 758.104 53.1825   3
   1   2   4 630.308 53.4194   2
  -2  -2  -4 111.409 10.9825   2
   2   2   4 123.255 16.1889   5
   2   2   4 110.467 16.3694   1
   2   2   4 127.152 9.78279   3
   2   2   4 117.071 10.3736   2
   2   2   4 136.594 15.5653   1
  -3  -2  -4 125.893 11.7296   2
   3   2   4 121.635 10.0925   3
   3   2   4 120.862 12.6059   8
   3   2   4 132.647 18.4621   5
   3   2   4 123.650 11.0351   2
  -4  -2  -4 39.8978 6.19277   2
   4   2   4 52.0558 4.18500   3
   4   2   4 41.1465 12.0333   5
   4   2   4 38.4602 5.41628   2
  -5  -2  -4 15.9452 4.30016   2
   5   2   4 22.1988 4.19865   2
   5   2   4 21.0514 2.65301   3
   5   2   4 32.6766 13.7252   5
  -6  -2  -4 67.7735 8.92602   2
   6   2   4 71.7857 8.39968   2
   6   2   4 87.3449 20.0369   5
   6   2   4 76.6366 6.50656   3
  -7  -2  -4 60.2510 7.71797   2
   7   2   4 57.1195 19.3481   5
   7   2   4 55.2895 5.07423   3
   7   2   4 49.8048 6.96964   2
  -8  -2  -4 116.651 11.4014   2
   8   2   4 118.098 11.0129   2
   8   2   4 113.294 9.58119   3
  10  -3  -4 23.9582 4.11489   2
 -10   3   4 17.2936 3.13409   7
   9  -3  -4 67.1423 7.66869   2
  -9   3   4 71.2489 7.41070   7
   8  -3  -4 0.24168 21.1133   5
   8  -3  -4 7.56254 2.82713   2
  -8   3   4 7.92662 10.9892   6
  -8   3   4 4.80817 2.45206   7
   7  -3  -4 25.3477 18.8973   5
   7  -3  -4 14.4507 3.52772   2
  -7   3   4 13.5411 2.85408   7
  -7   3   4 18.2749 8.82505   6
  -7   3   4 7.80272 1.70334   3
   6  -3  -4 18.6215 18.2601   5
   6  -3  -4 35.2502 4.74615   2
  -6   3   4 36.1290 3.68612   3
  -6   3   4 36.2320 4.48001   7
  -6   3   4 28.0932 7.40894   6
   5  -3  -4 418.669 32.1594   2
  -5   3   4 346.284 30.9658   3
  -5   3   4 396.530 34.4371   6
  -5   3   4 406.126 31.6268   7
   4  -3  -4 365.004 28.6703   2
  -4   3   4 323.233 30.4925   6
  -4   3   4 330.614 27.7665   4
  -4   3   4 358.358 28.2081   7
  -4   3   4 368.701 27.7064   3
   3  -3  -4 88.9306 8.08624   2
  -3   3   4 85.3049 10.5780   6
  -3   3   4 100.642 7.25549   3
  -3   3   4 83.2250 7.61749   7
  -3   3   4 80.4489 7.38712   4
  -2   3   4 4.89094 3.97399   6
  -2   3   4 0.54633 1.01205   4
  -2   3   4 2.71683 0.74818   3
  -2   3   4 0.39142 0.81610   7
   1  -3  -4 14.6124 2.34494   2
  -1   3   4 9.73188 4.08745   1
  -1   3   4 19.9554 1.74439   3
   0  -3  -4 683.559 62.3659   2
   0   3   4 794.431 62.2053   4
   0   3   4 858.686 61.7852   3
   0   3   4 813.095 65.5687   1
   1   3   4 3936.26 312.623   1
  -2  -3  -4 359.280 30.2879   2
   2   3   4 403.487 29.1420   3
   2   3   4 340.447 29.4067   2
  -3  -3  -4 2.48995 2.56807   2
   3   3   4 2.20391 1.68077   2
   3   3   4 4.10319 1.18763   3
   3   3   4 4.04902 7.80457   5
  -4  -3  -4 320.086 30.4477   2
   4   3   4 354.755 29.6438   2
   4   3   4 404.786 28.8058   3
  -5  -3  -4 154.959 15.3558   2
   5   3   4 162.906 12.9414   3
   5   3   4 170.178 26.5904   5
   5   3   4 147.529 14.0385   2
  -6  -3  -4 0.89523 3.53640   2
   6   3   4 1.00350 2.47153   2
   6   3   4 0.46048 1.25547   3
   6   3   4 6.60694 13.4950   5
  -7  -3  -4 156.057 14.7460   2
   7   3   4 149.992 13.4708   2
   7   3   4 144.552 12.2823   3
  -8  -3  -4 -3.8399 2.56136   2
   8   3   4 3.31126 1.17599   3
 -10   4   4 78.8642 7.64697   7
   9  -4  -4 23.7596 4.55980   2
  -9   4   4 31.3487 4.46864   7
   8  -4  -4 272.077 23.2322   2
   8  -4  -4 261.603 51.4520   5
  -8   4   4 297.561 23.3815   7
  -8   4   4 275.038 22.3963   3
  -8   4   4 258.250 31.6780   6
   7  -4  -4 18.9518 18.9211   5
   7  -4  -4 32.3419 4.51795   2
  -7   4   4 35.1664 3.74612   3
  -7   4   4 30.4251 9.91782   6
   6  -4  -4 7.94168 18.7428   5
   6  -4  -4 34.6516 4.27873   2
  -6   4   4 31.3970 3.51844   3
  -6   4   4 34.9627 4.62159   7
  -6   4   4 27.9036 8.75064   6
   5  -4  -4 18.1014 2.95712   2
  -5   4   4 18.7010 7.03230   6
  -5   4   4 13.4068 1.95654   4
  -5   4   4 10.5170 1.75390   3
  -5   4   4 16.4670 2.80128   7
   4  -4  -4 606.061 51.6957   2
  -4   4   4 607.293 51.1436   4
  -4   4   4 673.742 55.1614   6
  -4   4   4 667.279 50.9914   3
  -4   4   4 690.065 51.6255   7
   3  -4  -4 11.0187 2.44401   2
  -3   4   4 15.3997 2.31634   4
  -3   4   4 14.8206 1.77115   3
  -3   4   4 14.0999 2.40029   7
  -3   4   4 10.1428 5.22110   6
   2  -4  -4 490.926 42.7471   2
  -2   4   4 547.165 42.3165   3
  -2   4   4 551.172 42.6616   7
  -2   4   4 562.243 42.7445   4
   1  -4  -4 287.226 22.9825   2
  -1   4   4 245.884 24.7513   1
  -1   4   4 316.004 22.9639   4
  -1   4   4 305.152 22.3909   3
  -1   4   4 256.520 22.4925   7
   0  -4  -4 404.981 34.8689   2
   0   4   4 436.612 34.1763   3
   0   4   4 456.991 34.7917   4
  -1  -4  -4 3796.34 287.664   2
   1   4   4 3727.09 286.653   3
   1   4   4 3471.35 287.217   4
  -2  -4  -4 847.208 69.7369   2
   2   4   4 894.859 68.5637   3
  -3  -4  -4 111.285 10.9714   2
   3   4   4 102.674 19.0716   5
   3   4   4 107.301 9.16998   3
  -4  -4  -4 430.576 36.3540   2
   4   4   4 434.219 45.1596   5
   4   4   4 431.970 34.3953   3
  -5  -4  -4 65.1024 8.69452   2
   5   4   4 60.9817 5.91069   3
   5   4   4 76.6847 19.6818   5
  -6  -4  -4 42.5098 7.11815   2
   6   4   4 37.8076 4.06652   3
  -7  -4  -4 29.9548 5.76710   2
   7   4   4 28.9205 3.08665   3
  -9   5   4 62.6271 6.62803   7
  -8   5   4 382.719 32.1196   3
  -8   5   4 424.847 33.1595   7
   7  -5  -4 32.3240 24.0437   5
  -7   5   4 23.8974 3.11033   3
  -7   5   4 27.0946 4.31427   7
  -7   5   4 8.22303 11.7825   6
   6  -5  -4 30.9819 23.7820   5
  -6   5   4 40.1780 11.6881   6
  -6   5   4 54.0012 5.11251   3
  -6   5   4 61.7959 6.31066   7
  -5   5   4 348.516 34.9440   6
  -5   5   4 406.795 30.3784   7
  -5   5   4 373.018 29.4446   3
  -5   5   4 349.554 29.6186   4
  -4   5   4 1573.87 124.729   7
  -4   5   4 1647.12 124.420   4
  -4   5   4 1417.84 128.698   6
  -4   5   4 1681.12 124.102   3
   3  -5  -4 255.178 22.5123   2
  -3   5   4 295.775 22.3893   4
  -3   5   4 273.784 22.4224   7
  -3   5   4 275.183 21.8715   3
   2  -5  -4 112.735 10.5834   2
  -2   5   4 135.408 10.8489   4
  -2   5   4 120.144 10.5118   7
  -2   5   4 130.219 10.1597   3
   1  -5  -4 121.565 10.9153   2
  -1   5   4 127.616 11.0378   4
  -1   5   4 127.688 10.3072   3
   0  -5  -4 2.95506 1.72163   2
   0   5   4 1.49070 1.20361   3
   0   5   4 2.80519 2.00498   4
  -1  -5  -4 260.545 22.4872   2
   1   5   4 269.652 22.2563   4
   1   5   4 270.299 21.4449   3
  -2  -5  -4 331.709 28.1917   2
   2   5   4 339.142 26.8574   3
  -3  -5  -4 7.16468 3.36462   2
   3   5   4 10.9932 2.03624   3
  -4  -5  -4 37.5969 6.56627   2
   4   5   4 44.1570 4.39095   3
  -5  -5  -4 5.55970 3.26863   2
   5   5   4 6.16601 1.76158   3
  -6  -5  -4 112.459 11.1749   2
   6   5   4 95.9467 8.66396   3
  -9   6   4 64.4346 6.57798   7
  -8   6   4 9.98425 2.77316   7
  -8   6   4 10.3428 1.83920   3
  -7   6   4 58.7176 6.37028   7
  -7   6   4 51.3463 5.08951   3
   6  -6  -4 -24.805 26.5478   5
  -6   6   4 3.33845 13.3792   6
  -6   6   4 0.84094 2.10637   7
  -6   6   4 2.62197 1.24731   3
   5  -6  -4 570.973 76.6595   5
  -5   6   4 757.325 52.7717   3
  -5   6   4 731.157 53.7220   7
  -5   6   4 559.107 58.9330   6
  -5   6   4 646.892 53.0180   4
  -4   6   4 291.066 22.5110   3
  -4   6   4 284.121 23.0068   4
  -4   6   4 269.087 23.2291   7
  -3   6   4 10.0400 2.36682   4
  -3   6   4 13.3403 1.75461   3
  -3   6   4 7.59602 2.09775   7
   2  -6  -4 7.60950 1.86408   2
  -2   6   4 4.11342 2.12437   4
  -2   6   4 5.66601 1.45425   3
   1  -6  -4 173.770 15.0928   2
  -1   6   4 185.339 14.3988   3
  -1   6   4 169.955 15.1509   4
   0  -6  -4 -1.3563 1.49408   2
   0   6   4 0.72410 1.35531   3
   0   6   4 -0.8284 2.07589   4
  -1  -6  -4 650.259 50.3412   2
   1   6   4 579.692 49.8528   4
   1   6   4 629.226 49.0779   3
  -2  -6  -4 429.445 33.7750   2
   2   6   4 378.551 32.1749   3
  -3  -6  -4 110.905 10.6102   2
   3   6   4 89.6531 8.63653   3
  -4  -6  -4 219.523 20.8942   2
   4   6   4 253.622 19.2666   3
  -5  -6  -4 195.082 16.2225   2
   5   6   4 154.839 14.0779   3
  -6  -6  -4 34.5542 5.14799   2
   6   6   4 35.7194 3.40207   3
  -8   7   4 1.16490 0.93547   3
  -8   7   4 -0.4821 1.72760   7
  -7   7   4 38.6881 5.12790   7
  -7   7   4 41.4871 3.88584   3
  -6   7   4 176.183 13.6807   3
  -6   7   4 158.205 14.6469   7
  -5   7   4 5.33820 2.24597   7
  -5   7   4 6.77648 1.45536   3
  -5   7   4 5.18245 1.90393   4
  -4   7   4 292.229 23.4825   4
  -4   7   4 295.875 22.8613   3
  -4   7   4 269.473 23.5977   7
  -3   7   4 161.700 12.9325   3
  -3   7   4 154.052 13.6800   4
  -2   7   4 17.0452 3.13983   4
   1  -7  -4 59.8566 6.17342   2
  -1   7   4 47.5998 6.39432   4
  -1   7   4 63.6727 5.36950   3
   0  -7  -4 -0.4753 1.71686   2
   0   7   4 0.25056 1.43356   3
   0   7   4 0.97680 2.18167   4
  -1  -7  -4 71.3257 7.56252   2
   1   7   4 66.3397 6.28720   3
  -2  -7  -4 159.887 14.0518   2
   2   7   4 142.076 12.5035   3
  -3  -7  -4 29.3632 5.27249   2
   3   7   4 34.4967 3.63985   3
  -4  -7  -4 96.1366 9.06291   2
   4   7   4 75.1819 7.24909   3
  -6   8   4 10.6213 1.47295   3
  -6   8   4 2.17474 2.98505   7
  -5   8   4 88.4485 6.98197   3
  -5   8   4 74.6947 7.48314   4
  -4   8   4 363.117 28.7288   3
  -4   8   4 360.722 29.3596   4
  -3   8   4 432.206 31.9489   3
  -3   8   4 371.425 32.5719   4
  -2   8   4 7.60156 1.56448   3
  -2   8   4 7.89984 2.53300   4
  -1   8   4 6.24188 2.57534   4
  -1   8   4 5.68556 1.56134   3
   0  -8  -4 41.5355 6.13478   2
   0   8   4 55.9658 4.67048   3
  -1  -8  -4 2.93697 1.96225   2
   1   8   4 1.90528 1.22026   3
  -2  -8  -4 252.751 18.7182   2
   2   8   4 183.178 17.3414   3
  -3  -8  -4 99.2022 8.70479   2
   3   8   4 78.9500 7.37938   3
  -4   9   4 51.7170 4.50629   3
  -3   9   4 28.5015 2.80440   3
  -2   9   4 40.5407 3.71264   3
  -1   9   4 49.1520 4.34965   3
   0   9   4 123.692 10.0816   3
  -3 -10   5 52.6085 5.42608   2
   2  10  -5 116.014 11.7453   4
  -2 -10   5 160.597 12.0836   2
   1  10  -5 39.0555 4.55867   4
  -1 -10   5 48.0206 4.69565   2
   0  10  -5 42.7130 4.41603   4
   0 -10   5 36.2285 4.08197   2
  -1  10  -5 78.1309 7.22935   4
  -2  10  -5 0.41461 1.46016   4
  -3  10  -5 21.3685 3.13186   4
  -4  10  -5 20.5172 2.82953   4
  -5  -9   5 29.4299 4.20260   2
  -4  -9   5 3.90265 1.90444   2
   3   9  -5 59.7130 5.98176   4
   2   9  -5 217.563 17.7117   4
  -2  -9   5 210.367 17.9361   2
   1   9  -5 72.6392 7.29527   4
  -1  -9   5 85.6513 7.50646   2
   0   9  -5 14.2943 2.60004   4
   0  -9   5 10.1604 2.01547   2
  -1   9  -5 50.7774 5.14180   4
   1  -9   5 45.9607 4.66097   2
  -2   9  -5 124.732 10.7612   4
   2  -9   5 121.059 10.3526   2
  -3   9  -5 1.52199 1.74193   4
  -4   9  -5 8.95352 2.23174   4
  -4   9  -5 2.62356 3.43944   7
  -5   9  -5 8.27851 3.46140   7
  -5   9  -5 12.6582 2.11190   4
  -6   9  -5 78.0849 6.78057   4
   6   8  -5 67.1651 5.90456   3
  -6  -8   5 69.8083 7.40842   2
   5   8  -5 11.0677 1.66293   3
  -5  -8   5 9.53113 2.60292   2
   4   8  -5 14.9240 1.96612   3
  -4  -8   5 15.6673 3.05823   2
   3   8  -5 64.5504 5.80780   3
   3   8  -5 57.9073 6.41779   4
  -3  -8   5 83.0196 7.23071   2
   2   8  -5 745.184 59.4830   4
  -2  -8   5 756.362 59.8658   2
   1   8  -5 276.479 22.2143   4
  -1  -8   5 269.393 22.4030   2
   0   8  -5 86.1262 7.13066   4
   0  -8   5 66.3844 6.87769   2
   0  -8   5 78.5349 12.2646   8
  -1   8  -5 414.342 31.1750   4
   1  -8   5 381.522 36.0249   8
   1  -8   5 364.712 30.9905   2
  -2   8  -5 125.562 13.9119   7
  -2   8  -5 142.135 22.6152   6
  -2   8  -5 149.773 12.0762   4
   2  -8   5 136.323 11.7417   2
   2  -8   5 147.238 18.3364   8
  -3   8  -5 7.37619 4.36133   7
  -3   8  -5 13.5769 2.51462   4
  -3   8  -5 2.12412 12.5027   6
   3  -8   5 12.2770 2.05570   2
   3  -8   5 9.61830 7.34181   8
  -4   8  -5 140.012 11.4934   4
  -4   8  -5 108.996 22.4086   6
  -4   8  -5 114.154 13.3913   7
   4  -8   5 104.307 17.8685   8
   4  -8   5 153.309 11.1846   2
  -5   8  -5 94.0832 7.68340   4
  -5   8  -5 70.1000 9.49209   7
   5  -8   5 76.7230 15.1890   8
  -6   8  -5 21.4105 4.81238   7
  -6   8  -5 28.8056 3.16111   4
   6  -8   5 17.8938 9.28356   8
  -7   8  -5 69.6388 6.05606   4
   7   7  -5 225.849 17.8639   3
  -7  -7   5 217.347 19.2173   2
   6   7  -5 153.881 12.3338   3
  -6  -7   5 145.415 13.7493   2
   5   7  -5 20.6789 2.43373   3
  -5  -7   5 16.6264 3.64076   2
   4   7  -5 8.23666 1.46787   3
  -4  -7   5 3.53325 2.19906   2
   3   7  -5 90.0466 7.91632   4
   3   7  -5 93.5411 7.49886   3
  -3  -7   5 86.9809 12.4947   8
  -3  -7   5 87.2208 8.58977   2
   2   7  -5 156.448 13.2420   4
   2   7  -5 148.064 12.7657   3
  -2  -7   5 174.209 13.8049   2
  -2  -7   5 160.472 17.4930   8
   1   7  -5 8.23851 1.79285   4
  -1  -7   5 7.24928 5.46158   8
  -1  -7   5 5.30891 1.73033   2
   0   7  -5 184.022 14.3545   4
   0  -7   5 174.377 14.4514   2
   0  -7   5 153.953 18.8550   8
  -1   7  -5 132.548 12.9823   7
  -1   7  -5 154.235 11.4458   4
  -1   7  -5 132.239 18.8149   6
   1  -7   5 144.549 17.3867   8
   1  -7   5 114.020 11.2441   2
  -2   7  -5 -2.2182 7.59728   6
  -2   7  -5 1.04465 1.51369   4
  -2   7  -5 1.91552 3.00916   7
   2  -7   5 1.27843 1.06389   2
   2  -7   5 4.02831 5.70250   8
  -3   7  -5 48.1079 4.94314   4
  -3   7  -5 44.2341 7.13207   7
  -3   7  -5 44.6238 11.4820   6
   3  -7   5 52.6050 12.3932   8
   3  -7   5 46.3442 4.62045   2
  -4   7  -5 98.4469 17.3976   6
  -4   7  -5 116.560 9.59863   4
  -4   7  -5 90.4830 11.6650   7
   4  -7   5 99.7883 17.6069   8
   4  -7   5 116.407 9.48034   2
  -5   7  -5 0.59185 3.57236   7
  -5   7  -5 1.48880 1.49850   4
  -5   7  -5 9.49739 11.8430   6
   5  -7   5 3.37354 1.35011   2
   5  -7   5 1.92837 7.61951   8
  -6   7  -5 98.4888 12.4132   7
  -6   7  -5 127.837 10.6068   4
   6  -7   5 109.560 19.4022   8
   6  -7   5 140.792 10.6932   2
  -7   7  -5 184.318 15.2363   4
   7  -7   5 191.704 24.0205   8
   8   6  -5 154.170 12.4732   3
  -8  -6   5 149.248 13.7322   2
   7   6  -5 405.834 32.0139   3
  -7  -6   5 398.083 33.3820   2
   6   6  -5 17.3484 4.17515   2
  -6  -6   5 18.5330 3.78940   2
   5   6  -5 101.319 9.99538   2
  -5  -6   5 117.391 9.90261   2
  -5  -6   5 81.5737 8.46769   7
   4   6  -5 2.51386 2.37569   2
   4   6  -5 2.85012 1.21913   3
  -4  -6   5 0.24036 1.88343   2
  -4  -6   5 0.82829 4.75942   8
   3   6  -5 37.7892 3.46081   3
   3   6  -5 35.1909 3.72090   4
  -3  -6   5 33.7522 8.03951   8
  -3  -6   5 43.3246 4.75636   2
   2   6  -5 145.803 12.7616   3
   2   6  -5 146.817 13.0977   4
  -2  -6   5 169.062 17.3484   8
  -2  -6   5 184.060 13.7827   2
   1   6  -5 765.061 61.0692   4
  -1  -6   5 776.590 65.3788   8
  -1  -6   5 782.308 61.4060   2
   0   6  -5 478.487 39.5345   4
   0  -6   5 550.086 39.8959   2
   0  -6   5 461.871 44.2049   8
  -1   6  -5 183.405 16.2094   7
  -1   6  -5 186.277 20.2164   6
  -1   6  -5 193.179 14.9417   4
   1  -6   5 165.135 15.0346   2
   1  -6   5 189.818 21.0055   8
  -2   6  -5 37.6769 4.11508   4
  -2   6  -5 42.7966 10.0533   6
  -2   6  -5 39.8225 5.92255   7
   2  -6   5 39.5637 10.1857   8
   2  -6   5 41.9985 4.19747   2
  -3   6  -5 117.473 9.48765   4
  -3   6  -5 111.822 15.1589   6
  -3   6  -5 115.871 11.2501   7
   3  -6   5 93.3457 17.0753   8
   3  -6   5 104.028 9.52474   2
  -4   6  -5 59.4651 12.6844   6
  -4   6  -5 65.0687 5.84041   4
  -4   6  -5 62.4781 7.83060   7
   4  -6   5 59.8795 14.8531   8
   4  -6   5 56.3599 5.86869   2
  -5   6  -5 216.460 17.9213   4
  -5   6  -5 210.740 19.9029   7
  -5   6  -5 191.069 24.2374   6
   5  -6   5 253.710 18.3787   2
   5  -6   5 190.027 27.3608   8
  -6   6  -5 -1.5293 9.27692   6
  -6   6  -5 4.64376 3.53396   7
  -6   6  -5 2.64229 1.36621   4
   6  -6   5 4.42072 1.77588   2
   6  -6   5 -0.4786 8.32372   8
  -7   6  -5 56.4183 7.85134   7
  -7   6  -5 57.7302 5.75302   4
   7  -6   5 71.1039 6.26451   2
   7  -6   5 74.0006 16.9692   8
  -8   6  -5 -0.1545 2.18083   7
  -8   6  -5 1.36144 1.06895   4
   9   5  -5 21.6588 4.59776   2
   8   5  -5 34.5998 6.05127   2
  -8  -5   5 35.4240 5.14174   2
   7   5  -5 8.69840 3.56222   2
  -7  -5   5 15.5861 3.36377   2
   6   5  -5 128.679 12.2547   2
   6   5  -5 98.6341 21.6516   5
  -6  -5   5 124.058 11.4775   2
  -6  -5   5 118.486 10.4639   7
   5   5  -5 6.51634 3.14026   2
   5   5  -5 11.8674 11.7069   5
  -5  -5   5 4.06031 2.16655   2
   4   5  -5 96.2037 9.63419   2
  -4  -5   5 96.5934 12.5978   8
  -4  -5   5 95.8345 9.00344   2
   3   5  -5 43.4551 3.99974   4
   3   5  -5 48.9676 5.53767   2
  -3  -5   5 38.9179 7.75587   8
   2   5  -5 427.453 32.6797   4
   2   5  -5 388.300 33.4138   2
   2   5  -5 416.508 32.4157   3
  -2  -5   5 415.500 33.1345   2
   1   5  -5 837.844 78.0152   2
   1   5  -5 889.437 82.8595   1
   1   5  -5 1133.98 77.6869   4
  -1  -5   5 968.436 77.9849   2
  -1  -5   5 1113.36 82.1381   8
   0   5  -5 36.4295 3.23157   4
   0   5  -5 37.4988 7.49754   6
   0  -5   5 26.7913 3.46103   2
   0  -5   5 42.8787 7.76736   8
   0  -5   5 21.3114 9.61051   1
  -1   5  -5 1045.17 79.7716   7
  -1   5  -5 1082.19 78.8299   4
  -1   5  -5 871.709 81.7263   6
   1  -5   5 1118.28 85.0253   8
   1  -5   5 901.381 79.0463   2
  -2   5  -5 603.766 45.8384   4
  -2   5  -5 606.307 49.6240   6
  -2   5  -5 582.874 46.8955   7
   2  -5   5 544.111 52.2558   8
   2  -5   5 558.700 46.1477   2
  -3   5  -5 286.810 25.7868   7
  -3   5  -5 347.572 24.7000   4
  -3   5  -5 340.770 29.0213   6
   3  -5   5 287.510 25.0142   2
   3  -5   5 267.562 31.9228   8
  -4   5  -5 64.1812 7.62528   7
  -4   5  -5 63.1417 5.81324   4
  -4   5  -5 58.7588 10.9693   6
   4  -5   5 53.9264 13.5543   8
   4  -5   5 66.2051 6.48363   2
  -5   5  -5 63.2176 13.3182   6
  -5   5  -5 97.4628 7.97907   4
  -5   5  -5 93.1108 10.1083   7
   5  -5   5 102.057 8.84149   2
   5  -5   5 62.4867 16.3033   8
  -6   5  -5 -1.1442 2.94237   7
  -6   5  -5 1.15095 1.37173   4
  -6   5  -5 6.89829 8.02797   6
   6  -5   5 3.15099 8.57595   8
   6  -5   5 -0.5012 1.73494   2
  -7   5  -5 56.5571 7.65763   7
  -7   5  -5 70.2544 5.93059   4
   7  -5   5 60.6839 15.1906   8
  -8   5  -5 145.465 12.3411   4
   8  -5   5 171.430 24.0176   8
   9   4  -5 -0.4433 2.91363   2
   8   4  -5 5.79675 3.39788   2
   8   4  -5 -0.3103 22.3898   5
  -8  -4   5 2.92704 2.13801   2
   7   4  -5 335.943 41.9432   5
   7   4  -5 306.366 27.4854   2
  -7  -4   5 328.333 26.4752   2
  -7  -4   5 305.180 25.7662   7
   6   4  -5 1053.39 96.9480   5
   6   4  -5 1181.32 88.5114   2
  -6  -4   5 1050.15 86.7479   7
  -6  -4   5 1107.23 87.3464   2
   5   4  -5 71.4095 8.02041   2
   5   4  -5 63.9607 15.6278   5
  -5  -4   5 68.1657 6.85221   2
  -5  -4   5 61.0967 10.5603   8
   4   4  -5 60.0281 13.1138   5
   4   4  -5 45.6388 6.07865   2
  -4  -4   5 45.9968 8.44870   8
  -4  -4   5 54.4067 5.38800   2
   3   4  -5 145.398 20.3050   1
   3   4  -5 160.702 13.7091   2
   3   4  -5 162.676 18.8168   5
   3   4  -5 145.044 12.2656   4
  -3  -4   5 170.706 13.0359   2
  -3  -4   5 125.190 18.5209   1
   2   4  -5 12.0213 2.75105   2
   2   4  -5 8.43833 1.23061   4
   2   4  -5 9.64387 4.94022   5
   2   4  -5 6.10025 5.67043   1
  -2  -4   5 11.9974 5.98443   1
  -2  -4   5 10.6292 3.85379   8
  -2  -4   5 8.89772 1.85637   2
   1   4  -5 843.223 69.7100   4
   1   4  -5 891.700 70.5751   2
   1   4  -5 938.730 74.8434   1
  -1  -4   5 886.109 70.1280   2
   0   4  -5 1068.88 82.7629   4
   0   4  -5 970.442 83.3658   2
   0   4  -5 1060.39 86.9876   1
   0   4  -5 1078.50 84.8089   6
   0  -4   5 1173.98 87.1837   8
   0  -4   5 1063.13 83.1502   2
   0  -4   5 976.086 86.7286   1
  -1   4  -5 293.451 30.3270   6
  -1   4  -5 354.737 29.0625   7
   1  -4   5 393.955 33.4894   8
   1  -4   5 386.099 28.7718   2
  -2   4  -5 1278.19 92.2702   4
  -2   4  -5 1315.18 93.1656   7
  -2   4  -5 1033.67 95.7866   1
   2  -4   5 1048.04 92.6149   2
   2  -4   5 1056.98 95.8427   1
   2  -4   5 1328.29 98.9449   8
  -3   4  -5 39.4053 7.11136   6
  -3   4  -5 39.2251 3.66501   4
  -3   4  -5 44.8656 5.13434   7
   3  -4   5 21.2315 8.16305   8
   3  -4   5 34.1170 4.33163   2
   3  -4   5 36.5965 7.97720   5
  -4   4  -5 162.983 12.9441   4
  -4   4  -5 171.132 14.2384   7
  -4   4  -5 128.577 16.0732   6
   4  -4   5 152.502 19.4774   5
   4  -4   5 160.723 13.9433   2
  -5   4  -5 11.2117 2.00496   4
  -5   4  -5 7.38060 5.71862   6
  -5   4  -5 13.7835 3.44909   7
   5  -4   5 4.46070 10.5972   5
   5  -4   5 20.0683 3.77648   2
  -6   4  -5 3.77436 2.84207   7
  -6   4  -5 2.06535 6.38577   6
  -6   4  -5 0.76747 1.33661   4
   6  -4   5 1.38478 2.33952   2
  -7   4  -5 186.103 22.2799   6
  -7   4  -5 180.310 16.6420   7
   7  -4   5 194.917 27.0562   8
  -8   4  -5 261.137 19.9886   4
   8  -4   5 218.445 30.8767   8
   9  -4   5 281.832 23.2581   2
  10   3  -5 0.52037 2.84587   2
   9   3  -5 -0.3117 3.00793   2
   8   3  -5 64.9863 8.65038   2
   8   3  -5 44.4752 22.3664   5
  -8  -3   5 55.3271 6.03355   7
  -8  -3   5 60.3133 6.37214   2
   7   3  -5 622.268 73.5295   5
   7   3  -5 882.200 63.4636   2
  -7  -3   5 689.349 61.1544   7
  -7  -3   5 849.718 61.7116   2
   6   3  -5 389.070 49.2747   5
   6   3  -5 524.120 40.4611   2
  -6  -3   5 548.584 39.0778   2
  -6  -3   5 434.766 38.5110   7
   5   3  -5 106.758 10.9313   2
   5   3  -5 88.8094 19.8826   5
  -5  -3   5 103.166 13.4047   8
  -5  -3   5 118.911 9.82761   2
   4   3  -5 260.192 27.1397   1
   4   3  -5 234.768 20.4489   2
   4   3  -5 190.710 26.4165   5
  -4  -3   5 264.473 19.5722   2
  -4  -3   5 237.831 22.6056   8
  -4  -3   5 214.639 26.0022   1
   3   3  -5 1545.36 131.413   5
   3   3  -5 1610.07 127.190   2
  -3  -3   5 1491.87 126.347   2
  -3  -3   5 1736.45 129.365   8
  -3  -3   5 1664.19 131.529   1
   2   3  -5 199.161 21.2027   1
   2   3  -5 190.715 17.1654   2
   2   3  -5 217.770 21.8811   5
   2   3  -5 213.641 16.0765   4
  -2  -3   5 185.092 20.8409   1
  -2  -3   5 206.559 16.5230   2
   1   3  -5 4934.05 425.700   1
  -1  -3   5 5861.34 426.456   1
   0   3  -5 4388.39 310.761   1
   0   3  -5 3768.06 307.401   6
   0  -3   5 3602.38 310.131   1
  -1   3  -5 1226.55 98.0084   2
  -1   3  -5 1215.38 97.2260   4
  -1   3  -5 1192.17 97.8139   7
  -1   3  -5 1334.85 101.510   1
  -1   3  -5 1104.91 98.6425   6
   1  -3   5 1274.81 101.265   1
   1  -3   5 1345.46 101.634   8
  -2   3  -5 499.003 48.2056   1
  -2   3  -5 587.400 44.9685   7
  -2   3  -5 548.627 45.0236   2
  -2   3  -5 589.559 44.2944   4
   2  -3   5 561.555 44.8337   2
   2  -3   5 667.479 47.8679   5
   2  -3   5 562.845 49.2838   8
   2  -3   5 475.367 48.2452   1
  -3   3  -5 1380.41 111.450   6
  -3   3  -5 1476.59 109.228   4
  -3   3  -5 1184.94 109.758   2
  -3   3  -5 1452.68 114.522   1
  -3   3  -5 1368.56 109.874   7
   3  -3   5 1500.92 113.722   5
  -4   3  -5 292.262 25.2173   7
  -4   3  -5 286.516 27.1953   6
  -4   3  -5 304.267 24.4321   4
   4  -3   5 312.347 31.0734   5
   4  -3   5 331.686 25.6336   2
  -5   3  -5 133.911 10.8717   4
  -5   3  -5 135.384 11.9465   7
  -5   3  -5 126.870 14.7152   6
   5  -3   5 118.001 12.1747   2
   5  -3   5 139.572 21.1758   5
  -6   3  -5 7.29853 6.55832   6
  -6   3  -5 10.3236 3.08327   7
  -6   3  -5 9.92135 1.79257   4
   6  -3   5 19.5302 4.35724   2
   6  -3   5 4.38126 12.0526   5
  -7   3  -5 18.9366 8.58492   6
  -7   3  -5 19.1151 3.77734   7
  -7   3  -5 26.9862 3.00079   4
   7  -3   5 29.4369 5.38460   2
   7  -3   5 26.1945 18.7710   5
  -8   3  -5 35.5438 3.52051   4
   8  -3   5 12.6897 11.8515   8
   8  -3   5 43.7827 5.97633   2
   9  -3   5 60.7801 6.65938   2
  10   2  -5 21.9905 5.14828   2
   9   2  -5 82.7305 10.5367   2
  -9  -2   5 86.9345 8.22742   7
   8   2  -5 -11.079 18.6117   5
   8   2  -5 1.08393 3.21106   2
  -8  -2   5 0.41836 1.76385   7
   7   2  -5 12.3725 4.22753   2
   7   2  -5 8.71924 14.5478   5
  -7  -2   5 17.9210 7.42293   6
  -7  -2   5 12.2048 2.56840   2
  -7  -2   5 19.9893 3.28965   7
   6   2  -5 633.771 50.5269   2
   6   2  -5 489.849 59.4909   5
  -6  -2   5 592.936 48.7800   7
  -6  -2   5 676.887 48.9904   2
  -6  -2   5 630.331 50.5096   6
   5   2  -5 408.390 43.8092   5
   5   2  -5 414.869 35.0340   2
  -5  -2   5 418.025 33.6095   7
  -5  -2   5 432.024 37.6049   8
  -5  -2   5 425.745 33.7554   2
   4   2  -5 -1.8347 5.44389   1
   4   2  -5 2.70395 2.33594   2
   4   2  -5 -1.0750 8.34547   5
  -4  -2   5 0.39250 2.52260   8
  -4  -2   5 1.59102 1.14581   2
  -4  -2   5 3.32099 5.45621   1
   3   2  -5 479.855 40.1801   2
   3   2  -5 526.608 44.0669   1
  -3  -2   5 434.926 39.1601   6
  -3  -2   5 539.991 39.3303   2
  -3  -2   5 498.847 41.7358   8
   2   2  -5 98.2630 12.0464   1
   2   2  -5 83.9173 8.94033   2
  -2  -2   5 110.130 8.27099   2
  -2  -2   5 89.6150 12.2365   1
   1   2  -5 4544.80 315.878   1
  -1  -2   5 3427.60 315.087   1
   0   2  -5 118.641 10.8346   6
   0   2  -5 141.173 14.2463   1
   0   2  -5 134.623 11.4447   2
   0  -2   5 105.646 12.7078   8
   0  -2   5 144.540 14.4746   1
   0  -2   5 125.355 10.5666   2
  -1   2  -5 36.0521 4.38449   6
  -1   2  -5 31.6240 7.04334   1
  -1   2  -5 39.1962 4.49983   2
  -1   2  -5 32.4985 3.79566   7
   1  -2   5 23.9077 5.94482   8
   1  -2   5 31.8134 3.49927   2
   1  -2   5 36.4077 7.29114   1
  -2   2  -5 380.173 38.2055   1
  -2   2  -5 505.885 34.5745   7
   2  -2   5 396.051 34.3734   2
  -3   2  -5 2048.73 158.279   6
  -3   2  -5 1740.30 161.253   1
   3  -2   5 2113.42 157.088   2
   3  -2   5 2073.18 161.235   5
  -4   2  -5 83.0501 9.41279   6
  -4   2  -5 65.8718 6.64583   7
   4  -2   5 74.1685 13.8200   5
   4  -2   5 58.2647 7.11501   2
  -5   2  -5 11.1862 2.67291   7
  -5   2  -5 7.84032 5.15297   6
   5  -2   5 13.8883 3.40576   2
   5  -2   5 14.2586 9.72177   5
  -6   2  -5 9.10287 6.32375   6
  -6   2  -5 1.74576 1.27615   4
  -6   2  -5 1.99353 1.80144   7
   6  -2   5 2.20892 2.83070   2
   6  -2   5 -0.0425 10.7306   5
  -7   2  -5 37.0698 3.81826   4
  -7   2  -5 15.9481 8.60733   6
   7  -2   5 28.5149 16.4145   5
   7  -2   5 52.1902 6.76743   2
  -8   2  -5 107.261 8.64649   4
   8  -2   5 82.2655 20.7409   8
   9  -2   5 262.716 22.3207   2
  10   1  -5 5.46798 3.92419   2
 -10  -1   5 1.52443 1.96504   7
   9   1  -5 15.2125 22.7542   5
  -9  -1   5 23.0469 3.93056   7
   8   1  -5 19.8430 5.46434   2
   8   1  -5 7.92835 19.3536   5
  -8  -1   5 12.9513 2.80753   7
   7   1  -5 741.914 57.6621   2
   7   1  -5 677.081 71.9591   5
  -7  -1   5 688.812 55.6271   7
  -7  -1   5 675.521 57.6678   6
   6   1  -5 1946.55 168.618   5
  -6  -1   5 2118.16 155.739   7
  -6  -1   5 1804.00 155.472   2
  -6  -1   5 2054.90 157.097   6
   5   1  -5 830.418 85.1130   5
   5   1  -5 971.419 76.5889   2
  -5  -1   5 906.898 75.0712   2
  -5  -1   5 997.871 75.1803   7
  -5  -1   5 914.248 75.9342   6
  -5  -1   5 1076.69 79.2183   8
   4   1  -5 98.8567 13.8397   1
   4   1  -5 102.457 10.5637   2
  -4  -1   5 116.490 8.96516   3
  -4  -1   5 105.483 9.24354   2
  -4  -1   5 111.317 9.74064   6
  -4  -1   5 130.965 12.5014   8
  -4  -1   5 107.829 14.3857   1
   3   1  -5 40.5123 5.25763   2
  -3  -1   5 43.3024 4.01744   2
  -3  -1   5 55.0616 9.37394   1
  -3  -1   5 42.8468 3.66255   3
   2   1  -5 14.6935 3.08426   2
   2   1  -5 10.6547 3.95626   1
  -2  -1   5 14.4307 3.54725   8
  -2  -1   5 8.59292 1.61464   2
  -2  -1   5 12.3353 1.17387   3
  -2  -1   5 18.7766 5.49424   1
   1   1  -5 393.542 32.5822   1
   1   1  -5 414.814 30.2904   2
  -1  -1   5 380.179 31.2077   8
  -1  -1   5 327.579 32.3715   1
  -1  -1   5 326.200 29.1243   2
   0   1  -5 602.783 53.7772   1
   0   1  -5 682.461 50.6085   6
   0  -1   5 722.837 53.0480   8
   0  -1   5 596.924 53.8570   1
   0  -1   5 592.767 50.4529   2
  -1   1  -5 451.937 35.9822   1
  -1   1  -5 416.254 31.9581   2
   1  -1   5 411.893 31.3935   2
   1  -1   5 327.166 33.5810   8
   1  -1   5 326.470 33.8449   5
   1  -1   5 424.032 35.7535   1
  -2   1  -5 167.146 18.2485   1
  -2   1  -5 165.318 13.5438   2
   2  -1   5 148.696 12.9939   2
   2  -1   5 143.281 16.6635   5
   2  -1   5 142.373 17.3343   1
  -3   1  -5 146.127 12.7601   7
  -3   1  -5 158.480 13.5389   2
   3  -1   5 173.514 18.8995   5
   3  -1   5 147.904 13.1960   2
   3  -1   5 146.825 12.0371   3
  -4   1  -5 170.787 14.6127   2
   4  -1   5 160.840 21.0626   5
   4  -1   5 160.238 13.0612   3
  -5   1  -5 0.01847 1.95070   2
   5  -1   5 1.79646 2.33851   2
   5  -1   5 2.17954 0.89332   3
   5  -1   5 -9.1099 7.02003   5
  -6   1  -5 164.960 14.6798   2
  -6   1  -5 143.558 17.9920   6
   6  -1   5 164.962 15.3537   2
   6  -1   5 198.382 27.6516   5
  -7   1  -5 -0.1191 7.66578   6
  -7   1  -5 1.08149 1.25421   4
   7  -1   5 -0.6194 9.47848   8
   7  -1   5 1.81554 2.97055   2
   7  -1   5 3.63156 13.0125   5
  -8   1  -5 126.550 10.0271   4
   8  -1   5 95.5690 23.0965   8
   9  -1   5 33.3726 4.99156   2
 -10   0   5 59.2297 6.16233   7
   9   0  -5 104.201 33.6765   5
   9   0  -5 143.478 13.7988   2
  -9   0   5 115.743 11.3904   7
   8   0  -5 54.9942 8.41953   2
   8   0  -5 43.5228 21.7979   5
  -8   0   5 58.0527 6.30673   7
   7   0  -5 140.925 14.6348   2
  -7   0   5 151.281 12.8976   7
  -7   0   5 148.346 16.2944   6
   6   0  -5 368.953 32.9419   2
   6   0  -5 347.845 46.7391   5
  -6   0   5 415.776 33.3747   6
  -6   0   5 408.254 31.0500   3
  -6   0   5 388.231 31.5190   7
   5   0  -5 14.1991 3.46688   2
   5   0  -5 11.3316 13.4599   5
  -5   0   5 13.9369 2.40861   7
  -5   0   5 11.9590 1.61562   3
  -5   0   5 12.2217 3.75775   6
  -5   0   5 13.4506 1.93228   2
   4   0  -5 2.03767 2.11385   2
  -4   0   5 1.25359 0.82184   2
  -4   0   5 3.42171 1.25520   7
  -4   0   5 4.42890 0.87268   3
  -4   0   5 1.47602 2.15404   6
  -4   0   5 2.68858 2.58869   8
   3   0  -5 294.496 26.8369   2
  -3   0   5 336.498 29.8816   1
  -3   0   5 341.666 25.5848   3
   2   0  -5 1208.87 91.8387   1
   2   0  -5 1147.13 89.6860   2
  -2   0   5 1154.64 88.6142   2
  -2   0   5 1015.35 91.7713   1
  -2   0   5 1088.05 90.3546   8
  -2   0   5 1161.34 88.3882   3
   1   0  -5 281.620 23.0211   1
  -1   0   5 213.369 19.1630   3
  -1   0   5 227.263 21.0293   8
  -1   0   5 232.614 19.4470   2
  -1   0   5 279.934 22.9804   1
   0   0  -5 263.872 27.8968   1
   0   0   5 316.343 24.4600   3
   0   0   5 312.315 24.8131   2
   0   0   5 348.518 26.8794   8
  -1   0  -5 5.06528 3.84336   1
  -1   0  -5 10.1320 2.62478   2
   1   0   5 12.4743 4.87415   1
   1   0   5 7.86307 0.94892   3
   1   0   5 9.01158 3.45591   8
   1   0   5 8.92049 1.75403   2
   1   0   5 10.2478 4.58150   5
  -2   0  -5 40.9018 10.5626   1
  -2   0  -5 40.9618 5.53930   2
   2   0   5 45.1642 3.81115   3
   2   0   5 43.5010 4.79448   2
   2   0   5 56.1093 8.03480   8
   2   0   5 56.3665 10.0974   1
  -3   0  -5 711.547 57.1191   2
   3   0   5 739.220 55.6002   3
   3   0   5 624.774 62.8813   1
   3   0   5 750.301 60.4410   8
  -4   0  -5 662.092 55.5975   2
   4   0   5 710.615 54.0112   3
   4   0   5 599.195 58.9311   8
   4   0   5 770.858 55.4947   2
  -5   0  -5 8.01798 3.14018   2
   5   0   5 3.00410 6.37249   8
   5   0   5 7.01613 9.20354   5
   5   0   5 3.24820 0.95199   3
   5   0   5 5.83816 2.81372   2
  -6   0  -5 47.9919 6.57924   2
   6   0   5 59.8193 7.41126   2
   6   0   5 47.6735 14.5576   5
   6   0   5 51.6092 4.60868   3
  -7   0  -5 6.17475 9.79725   6
  -7   0  -5 4.41978 2.77159   2
  -7   0  -5 3.71790 1.46446   4
   7   0   5 2.81322 3.30666   2
   7   0   5 -7.5378 13.5420   5
   7   0   5 -1.2035 11.1011   8
  -8   0  -5 77.2337 6.64203   4
 -10   1   5 291.877 24.1256   7
   9  -1  -5 15.3280 27.0875   5
   8  -1  -5 54.0500 7.86182   2
   8  -1  -5 39.2411 25.3124   5
  -8   1   5 45.1730 5.83096   7
   7  -1  -5 27.6909 5.68559   2
   7  -1  -5 26.3954 19.3898   5
  -7   1   5 24.7922 8.19325   6
  -7   1   5 28.6035 4.14929   7
  -7   1   5 26.9304 3.28315   3
   6  -1  -5 88.1899 9.86124   2
   6  -1  -5 113.216 27.9225   5
  -6   1   5 89.0040 7.86027   3
  -6   1   5 98.3979 8.50082   7
  -6   1   5 88.6045 11.2545   6
   5  -1  -5 129.173 13.0165   2
  -5   1   5 141.350 11.4700   3
  -5   1   5 152.438 12.0194   7
  -5   1   5 136.982 13.5983   6
   4  -1  -5 0.79300 1.97504   2
  -4   1   5 3.64310 2.91298   6
  -4   1   5 3.78604 1.35717   7
  -4   1   5 2.20907 0.89944   3
   3  -1  -5 1900.71 147.462   2
   3  -1  -5 1837.62 149.154   1
  -3   1   5 1885.85 146.464   7
  -3   1   5 1773.91 147.409   6
  -3   1   5 1903.33 146.180   3
  -3   1   5 1909.44 148.549   8
   2  -1  -5 5.97411 2.59743   1
   2  -1  -5 6.96218 2.40414   2
  -2   1   5 1.89529 1.75007   8
  -2   1   5 3.45363 1.01443   7
  -2   1   5 3.30979 0.72083   3
  -2   1   5 8.94773 3.42995   1
   1  -1  -5 29.2564 6.01848   1
   1  -1  -5 31.4670 3.98170   2
  -1   1   5 31.4476 2.93182   2
  -1   1   5 34.8099 6.11497   1
   0  -1  -5 24.7439 6.03699   1
   0  -1  -5 18.7468 3.30725   2
   0   1   5 20.0364 1.75567   3
   0   1   5 16.9227 2.07722   2
   0   1   5 15.1594 3.38645   8
  -1  -1  -5 74.3540 11.4857   1
  -1  -1  -5 70.1880 7.39594   2
   1   1   5 69.0808 6.44043   2
   1   1   5 55.0364 10.0666   1
   1   1   5 76.8198 8.09487   8
   1   1   5 79.8261 5.99914   3
   1   1   5 94.4665 11.8568   5
  -2  -1  -5 58.8848 7.18378   2
   2   1   5 54.0226 12.1316   1
   2   1   5 71.7511 14.0420   1
   2   1   5 63.2296 5.57746   3
   2   1   5 77.7447 8.83503   8
   2   1   5 74.6520 6.52158   2
   2   1   5 77.8727 12.4981   5
  -3  -1  -5 1321.73 103.146   2
   3   1   5 1324.12 102.448   2
   3   1   5 1303.16 105.036   8
   3   1   5 1233.43 101.436   3
  -4  -1  -5 607.765 50.7997   2
   4   1   5 621.694 48.9421   3
   4   1   5 651.935 50.2771   2
   4   1   5 598.476 58.1809   5
  -5  -1  -5 96.4140 9.69661   2
   5   1   5 80.6259 8.85161   2
   5   1   5 59.3363 15.0940   5
   5   1   5 78.9086 6.86948   3
  -6  -1  -5 30.2264 5.90803   2
   6   1   5 42.5014 6.05608   2
   6   1   5 29.2538 13.8004   5
   6   1   5 32.6495 3.39515   3
  -7  -1  -5 10.3680 3.63714   2
   7   1   5 12.3246 1.82244   3
   7   1   5 11.8340 3.46744   2
   7   1   5 13.6338 15.6831   5
   8   1   5 1.98422 2.31711   2
 -10   2   5 28.1193 4.06003   7
   9  -2  -5 39.7125 6.05007   2
  -9   2   5 27.3626 4.56631   7
   8  -2  -5 58.7000 7.48379   2
   8  -2  -5 36.6246 25.2568   5
  -8   2   5 47.1286 5.97709   7
   7  -2  -5 198.256 43.8928   5
   7  -2  -5 291.318 23.5105   2
  -7   2   5 271.355 22.2038   7
  -7   2   5 275.344 21.5424   3
  -7   2   5 236.235 26.0417   6
   6  -2  -5 61.7162 7.67457   2
   6  -2  -5 79.3868 26.0544   5
  -6   2   5 71.2481 6.71310   7
  -6   2   5 62.2759 10.5418   6
  -6   2   5 65.4773 5.99914   3
   5  -2  -5 1326.04 106.485   2
  -5   2   5 1336.07 107.520   6
  -5   2   5 1395.25 105.606   7
  -5   2   5 1300.95 105.065   3
   4  -2  -5 1047.28 87.6136   2
  -4   2   5 1077.55 86.8316   7
  -4   2   5 1142.87 86.4242   3
  -4   2   5 1141.06 88.7708   6
   3  -2  -5 26.3386 3.93727   2
  -3   2   5 33.3724 6.16806   6
  -3   2   5 26.6595 2.61870   3
  -3   2   5 27.0488 2.89465   4
   2  -2  -5 1070.93 94.5151   2
  -2   2   5 1146.41 94.0734   4
  -2   2   5 1254.04 95.6290   8
  -2   2   5 1276.13 93.8233   3
  -2   2   5 1241.59 94.1000   7
   1  -2  -5 1112.01 90.9467   2
  -1   2   5 1078.84 90.2525   7
  -1   2   5 1215.52 90.1158   3
  -1   2   5 1196.33 91.4330   8
   0  -2  -5 5.80149 2.13665   2
   0   2   5 6.28929 0.94202   3
   0   2   5 6.23405 1.14096   2
  -1  -2  -5 48.6241 6.04146   2
   1   2   5 54.4107 4.63601   3
   1   2   5 55.9271 4.99883   2
   1   2   5 66.1658 12.1496   1
  -2  -2  -5 16.8479 3.73793   2
   2   2   5 14.7545 1.75833   3
   2   2   5 12.8300 2.33279   2
   2   2   5 15.2427 7.54585   5
  -3  -2  -5 190.044 15.8398   2
   3   2   5 146.330 14.4931   2
   3   2   5 183.271 23.3021   5
   3   2   5 172.322 13.7044   3
  -4  -2  -5 68.8051 9.29871   2
   4   2   5 79.8416 8.47102   2
   4   2   5 104.639 19.0799   5
   4   2   5 93.5605 7.16740   3
  -5  -2  -5 24.9474 5.56281   2
   5   2   5 31.8982 13.7280   5
   5   2   5 25.4855 2.91592   3
   5   2   5 25.3196 4.76305   2
  -6  -2  -5 3.32327 3.60259   2
   6   2   5 4.12859 1.26928   3
   6   2   5 14.2152 14.1385   5
   6   2   5 5.94144 2.86226   2
  -7  -2  -5 70.6788 8.72608   2
   7   2   5 68.2363 6.38336   3
   7   2   5 84.9125 8.07085   2
   8   2   5 24.9810 4.22233   2
  10  -3  -5 92.0491 9.05078   2
 -10   3   5 94.6318 8.75205   7
   9  -3  -5 6.88889 2.92897   2
  -9   3   5 6.54960 2.31610   7
   8  -3  -5 15.9777 26.1549   5
   8  -3  -5 28.2162 4.90508   2
  -8   3   5 32.1710 4.51435   7
  -8   3   5 25.7796 3.41964   3
   7  -3  -5 2.35464 22.8745   5
   7  -3  -5 10.9297 3.13378   2
  -7   3   5 6.76971 9.01656   6
  -7   3   5 7.99662 1.81824   3
  -7   3   5 3.90912 2.22765   7
   6  -3  -5 4.14524 19.7697   5
   6  -3  -5 4.83226 2.44101   2
  -6   3   5 3.20598 6.52199   6
  -6   3   5 4.61914 2.09021   7
  -6   3   5 7.27445 1.79184   3
   5  -3  -5 405.609 31.6517   2
  -5   3   5 365.576 33.8409   6
  -5   3   5 370.501 30.8551   7
   4  -3  -5 38.5187 4.76418   2
  -4   3   5 37.2469 4.15453   7
  -4   3   5 47.3069 8.48677   6
  -4   3   5 37.9821 3.50733   3
  -4   3   5 32.0027 3.63001   4
   3  -3  -5 700.351 56.2693   2
  -3   3   5 673.730 55.4849   4
  -3   3   5 653.005 55.5695   7
  -3   3   5 783.415 55.2365   3
   2  -3  -5 1107.97 99.7209   2
  -2   3   5 1344.02 99.5435   4
  -2   3   5 1301.95 99.0987   3
  -2   3   5 1306.83 99.4225   7
   1  -3  -5 938.500 79.7274   2
  -1   3   5 1034.56 79.1365   7
  -1   3   5 1021.93 79.4570   4
  -1   3   5 1033.05 78.9696   3
   0  -3  -5 818.382 57.6462   2
   0   3   5 649.332 56.4282   3
   0   3   5 691.511 56.9836   4
  -1  -3  -5 1609.41 127.865   2
   1   3   5 1624.59 126.662   3
  -2  -3  -5 25.2770 4.51661   2
   2   3   5 24.4751 2.52219   3
   2   3   5 17.4805 2.70535   2
  -3  -3  -5 395.035 30.3260   2
   3   3   5 399.896 39.2388   5
   3   3   5 333.931 28.2084   3
   3   3   5 319.180 28.6843   2
  -4  -3  -5 648.152 52.8733   2
   4   3   5 605.696 51.3740   2
   4   3   5 729.834 63.1034   5
   4   3   5 617.577 50.6762   3
  -5  -3  -5 236.274 22.1687   2
   5   3   5 239.080 20.5587   2
   5   3   5 246.909 19.6526   3
   5   3   5 262.332 33.8425   5
  -6  -3  -5 15.1954 4.62861   2
   6   3   5 12.0907 1.86153   3
   6   3   5 10.5317 2.81395   2
  -7  -3  -5 27.7866 5.31168   2
   7   3   5 26.7878 2.93106   3
 -10   4   5 222.090 18.5408   7
  -9   4   5 1.07695 2.15721   7
   8  -4  -5 29.8067 4.38176   2
   8  -4  -5 13.7680 25.4727   5
  -8   4   5 20.7760 2.89109   3
  -8   4   5 23.7144 4.14061   7
   7  -4  -5 44.3084 5.57972   2
   7  -4  -5 -1.3693 23.8731   5
  -7   4   5 48.1979 4.65924   3
  -7   4   5 36.8966 13.6127   6
  -7   4   5 49.1331 5.61135   7
   6  -4  -5 10.2512 2.79413   2
   6  -4  -5 10.9346 25.6769   5
  -6   4   5 10.5136 1.93070   3
  -6   4   5 7.83278 8.92015   6
  -6   4   5 7.81214 2.44805   7
   5  -4  -5 161.073 15.7186   2
  -5   4   5 188.744 20.6181   6
  -5   4   5 186.011 14.8383   3
  -5   4   5 200.021 15.7225   7
   4  -4  -5 263.137 23.8340   2
  -4   4   5 323.663 23.6272   7
  -4   4   5 285.450 23.1781   4
  -4   4   5 269.229 27.6066   6
  -4   4   5 289.432 22.8888   3
   3  -4  -5 41.7786 4.76018   2
  -3   4   5 39.2364 3.60240   3
  -3   4   5 35.0713 4.06769   7
  -3   4   5 37.8477 4.14297   4
   2  -4  -5 143.029 12.2311   2
  -2   4   5 140.171 12.0759   4
  -2   4   5 148.593 11.4923   3
  -2   4   5 135.302 11.7699   7
   1  -4  -5 16.3261 2.86895   2
  -1   4   5 10.4896 1.57022   3
  -1   4   5 14.8791 2.72139   4
   0  -4  -5 196.853 16.3365   2
   0   4   5 179.936 15.9275   4
  -1  -4  -5 365.003 31.3654   2
   1   4   5 393.343 30.1647   3
  -2  -4  -5 137.062 14.2417   2
   2   4   5 172.010 12.8184   3
  -3  -4  -5 295.849 26.3008   2
   3   4   5 312.456 24.4596   3
  -4  -4  -5 970.795 75.9442   2
   4   4   5 904.211 73.7464   3
  -5  -4  -5 359.591 30.4116   2
   5   4   5 341.645 27.9447   3
  -6  -4  -5 1.15382 3.06564   2
   6   4   5 1.74666 1.19690   3
  -7  -4  -5 42.6553 6.05755   2
  -9   5   5 1.26721 1.80315   7
  -8   5   5 20.5736 3.70738   7
  -8   5   5 20.5240 2.67968   3
   7  -5  -5 29.6203 29.0739   5
  -7   5   5 89.3678 8.42033   7
  -7   5   5 82.6408 7.34009   3
   6  -5  -5 -1.6185 24.0788   5
  -6   5   5 17.7052 13.6461   6
  -6   5   5 8.63186 1.67624   3
  -5   5   5 727.762 69.9515   6
  -5   5   5 772.387 64.5125   4
  -5   5   5 882.119 65.1864   7
  -5   5   5 872.830 64.3540   3
  -4   5   5 365.634 29.1455   7
  -4   5   5 383.222 28.4920   3
  -4   5   5 326.364 28.8111   4
   3  -5  -5 9.75547 2.49932   2
  -3   5   5 10.4064 1.64568   3
  -3   5   5 10.2969 2.37967   4
  -3   5   5 6.89196 1.81238   7
  -2   5   5 190.800 16.0376   3
  -2   5   5 209.499 16.8256   4
   1  -5  -5 670.663 57.3350   2
  -1   5   5 734.577 56.5242   3
  -1   5   5 748.828 57.2818   4
   0  -5  -5 98.5424 11.0211   2
   0   5   5 136.065 10.1813   3
   0   5   5 133.442 11.2375   4
  -1  -5  -5 174.299 15.0203   2
   1   5   5 155.368 13.5134   3
  -2  -5  -5 33.7727 5.59650   2
   2   5   5 30.9369 3.71678   3
  -3  -5  -5 3.08644 2.87571   2
   3   5   5 0.59906 1.30443   3
  -4  -5  -5 252.784 20.7818   2
   4   5   5 205.056 18.3416   3
  -5  -5  -5 -0.9172 2.66956   2
   5   5   5 1.35889 1.26096   3
  -6  -5  -5 0.96002 2.44120   2
   6   5   5 0.53345 0.96684   3
  -8   6   5 22.1504 3.66823   7
  -8   6   5 21.8799 2.61624   3
  -7   6   5 114.625 10.7694   7
  -7   6   5 119.959 9.83041   3
  -6   6   5 117.542 11.0810   7
  -6   6   5 125.424 10.1766   3
  -5   6   5 728.403 52.0671   3
  -5   6   5 683.956 52.8558   7
  -5   6   5 568.747 52.2277   4
  -4   6   5 77.5008 7.57806   7
  -4   6   5 82.0956 6.85002   3
  -4   6   5 76.5389 7.39676   4
  -3   6   5 4.26498 1.50205   3
  -3   6   5 4.27149 1.96382   4
   2  -6  -5 418.543 32.5583   2
  -2   6   5 442.485 31.8022   3
  -2   6   5 336.656 32.3231   4
   1  -6  -5 920.571 73.7189   2
  -1   6   5 927.650 72.7002   3
   0  -6  -5 132.393 13.2401   2
   0   6   5 162.021 12.2466   3
  -1  -6  -5 69.0997 7.79624   2
   1   6   5 68.2767 6.29376   3
  -2  -6  -5 41.2553 6.14360   2
   2   6   5 42.3703 4.40336   3
  -3  -6  -5 42.3674 6.07407   2
   3   6   5 33.3685 4.02846   3
  -4  -6  -5 209.206 17.1169   2
   4   6   5 165.377 15.0423   3
  -5  -6  -5 196.697 16.5671   2
   5   6   5 172.733 14.7969   3
  -7   7   5 15.9631 2.09308   3
  -7   7   5 14.8956 2.92404   7
  -6   7   5 13.7428 2.81078   7
  -5   7   5 19.1013 3.18069   7
  -4   7   5 137.044 12.5135   4
  -4   7   5 153.651 11.9650   3
  -3   7   5 38.3572 3.79266   3
  -3   7   5 34.7484 4.65719   4
  -2   7   5 2.98629 1.43613   3
  -2   7   5 -1.5974 1.72803   4
   1  -7  -5 -1.4347 1.71451   2
  -1   7   5 -0.6782 2.19569   4
  -1   7   5 2.16293 1.48392   3
   0  -7  -5 106.419 10.2660   2
   0   7   5 108.479 9.14690   3
  -1  -7  -5 24.5974 4.40303   2
   1   7   5 24.3879 3.10178   3
  -2  -7  -5 342.987 27.6765   2
   2   7   5 314.445 26.2285   3
  -3  -7  -5 17.5696 3.58303   2
   3   7   5 11.7134 1.97652   3
  -6   8   5 40.3915 3.70992   3
  -5   8   5 19.4184 2.34761   3
  -4   8   5 142.026 11.5695   3
  -3   8   5 178.535 14.4393   3
  -2   8   5 56.1089 5.06367   3
  -1   8   5 169.383 13.7632   3
   0   8   5 218.838 17.5948   3
  -1  -8  -5 1.12072 1.94453   2
   1   8   5 -0.1674 1.09227   3
   2   8   5 41.6880 3.82908   3
  -3 -10   6 29.7117 3.67685   2
   2  10  -6 89.1517 9.35331   4
  -2 -10   6 127.016 9.72424   2
   1  10  -6 5.32667 1.78084   4
  -1 -10   6 9.61076 1.99964   2
   0  10  -6 26.6049 3.22933   4
   0 -10   6 21.3139 2.92017   2
  -1  10  -6 1.78196 1.57669   4
  -2  10  -6 39.2071 4.34928   4
  -3  10  -6 -0.8967 1.22373   4
  -4  10  -6 1.10148 1.19902   4
  -5  -9   6 128.745 11.5603   2
  -4  -9   6 103.994 9.66184   2
  -3  -9   6 76.6005 7.50469   2
   2   9  -6 185.856 14.8564   4
  -2  -9   6 169.715 15.1142   2
   1   9  -6 42.2445 4.52484   4
  -1  -9   6 42.0585 4.65015   2
   0   9  -6 73.6841 6.51114   4
   0  -9   6 63.6028 6.35967   2
  -1   9  -6 525.042 42.6813   4
   1  -9   6 543.911 42.6771   2
  -2   9  -6 140.873 11.6591   4
   2  -9   6 94.5188 23.1089   8
   2  -9   6 140.999 11.4101   2
  -3   9  -6 15.2474 2.57873   4
   3  -9   6 6.39374 7.92936   8
  -4   9  -6 90.9659 8.18775   4
  -5   9  -6 2.88366 1.50048   4
  -6  -8   6 0.81586 2.06383   2
  -5  -8   6 204.701 17.7606   2
  -4  -8   6 48.8693 5.89099   2
  -3  -8   6 66.0615 6.94029   2
   2   8  -6 173.825 14.1473   4
  -2  -8   6 164.671 14.5802   2
   1   8  -6 36.5263 4.20908   4
  -1  -8   6 37.6402 8.89187   8
  -1  -8   6 39.0698 4.53287   2
   0   8  -6 15.5018 2.72758   4
   0  -8   6 17.4206 7.30428   8
  -1   8  -6 691.758 51.9889   4
   1  -8   6 654.786 51.9671   2
   1  -8   6 608.063 57.1930   8
  -2   8  -6 312.162 24.6312   4
   2  -8   6 315.302 24.5199   2
   2  -8   6 268.723 30.6623   8
  -3   8  -6 61.7669 5.86751   4
  -3   8  -6 46.7959 8.10343   7
  -3   8  -6 29.7131 17.1592   6
   3  -8   6 57.0923 5.41344   2
   3  -8   6 62.3597 13.2040   8
  -4   8  -6 3.95825 3.80955   7
  -4   8  -6 8.53998 2.06594   4
   4  -8   6 5.33562 1.39336   2
   4  -8   6 5.67527 7.46458   8
  -5   8  -6 10.3856 3.97392   7
  -5   8  -6 17.6313 2.59662   4
   5  -8   6 14.1835 2.19303   2
   5  -8   6 8.20992 7.56293   8
  -6   8  -6 3.31225 3.02552   7
  -6   8  -6 1.07375 1.20147   4
   7   7  -6 212.757 18.6549   3
  -7  -7   6 256.673 20.2114   2
   6   7  -6 41.4356 4.05684   3
  -6  -7   6 43.5994 5.78153   2
   5   7  -6 12.8614 1.84267   3
  -5  -7   6 10.4632 2.98973   2
   4   7  -6 55.7741 4.89293   3
  -4  -7   6 46.0440 10.3799   8
  -4  -7   6 60.7505 6.52790   2
   3   7  -6 89.5240 8.08866   4
  -3  -7   6 99.8826 9.06272   2
  -3  -7   6 91.2370 13.5832   8
   2   7  -6 148.452 11.9404   4
  -2  -7   6 139.082 12.5360   2
  -2  -7   6 137.861 16.7624   8
   1   7  -6 20.2550 2.76692   4
  -1  -7   6 18.8984 6.43691   8
  -1  -7   6 16.2838 3.16475   2
   0   7  -6 77.7204 7.03509   4
   0  -7   6 74.5299 7.24178   2
   0  -7   6 86.2803 13.0992   8
  -1   7  -6 422.540 45.2045   6
  -1   7  -6 548.062 39.0307   4
   1  -7   6 511.228 45.9163   8
   1  -7   6 457.626 39.0596   2
  -2   7  -6 12.3300 4.04928   7
  -2   7  -6 18.8085 11.7553   6
  -2   7  -6 9.10719 2.01933   4
   2  -7   6 11.9379 2.27305   2
   2  -7   6 13.6984 7.20991   8
  -3   7  -6 -3.4521 10.6544   6
  -3   7  -6 0.25008 3.35996   7
  -3   7  -6 1.63036 1.57257   4
   3  -7   6 0.72930 5.51361   8
   3  -7   6 4.15616 1.54246   2
  -4   7  -6 96.9202 18.5593   6
  -4   7  -6 108.242 9.50466   4
  -4   7  -6 99.4620 11.6981   7
   4  -7   6 115.836 9.56872   2
   4  -7   6 102.052 18.2940   8
  -5   7  -6 150.320 12.0517   4
   5  -7   6 143.126 12.0396   2
   5  -7   6 115.253 20.1002   8
  -6   7  -6 42.0164 4.10422   4
  -6   7  -6 35.1642 6.30045   7
   6  -7   6 27.7737 9.47821   8
  -7   7  -6 79.6419 9.23123   7
  -7   7  -6 96.3232 7.74945   4
   8   6  -6 193.533 15.3279   3
  -8  -6   6 184.409 16.4640   2
   7   6  -6 186.076 16.9196   2
   7   6  -6 191.836 15.1942   3
  -7  -6   6 180.763 16.5122   2
   6   6  -6 5.22342 3.11067   2
  -6  -6   6 4.10391 2.68147   7
  -6  -6   6 5.31270 2.53053   2
   5   6  -6 337.530 33.2845   2
  -5  -6   6 471.110 33.5402   2
   4   6  -6 1002.73 75.2464   3
   4   6  -6 955.454 76.6193   2
  -4  -6   6 913.307 80.2847   8
   3   6  -6 245.683 21.1942   3
   3   6  -6 252.738 21.4681   4
  -3  -6   6 294.879 22.4561   2
  -3  -6   6 286.383 26.7094   8
   2   6  -6 80.7327 7.33981   4
  -2  -6   6 86.7392 8.09084   2
  -2  -6   6 90.4436 12.1885   8
   1   6  -6 152.897 13.5191   4
  -1  -6   6 147.762 18.2115   8
  -1  -6   6 190.119 14.1917   2
   0   6  -6 37.1427 3.75499   4
   0  -6   6 35.6320 8.98506   8
   0  -6   6 35.7712 4.21465   2
  -1   6  -6 23.6026 8.15460   6
  -1   6  -6 20.3849 2.75675   4
   1  -6   6 24.8622 8.35370   8
   1  -6   6 17.9208 3.07440   2
  -2   6  -6 32.8595 5.84644   7
  -2   6  -6 38.0566 10.4132   6
  -2   6  -6 35.3796 4.05144   4
   2  -6   6 45.3849 4.48722   2
  -3   6  -6 364.051 36.1052   6
  -3   6  -6 370.916 32.4688   7
   3  -6   6 429.566 31.2401   2
   3  -6   6 350.782 39.2253   8
  -4   6  -6 -3.7295 7.55880   6
  -4   6  -6 4.05410 3.47157   7
  -4   6  -6 7.94564 2.02732   4
   4  -6   6 8.53310 2.22039   2
   4  -6   6 3.00511 7.00332   8
  -5   6  -6 1.57405 3.19834   7
  -5   6  -6 -0.3926 1.34507   4
  -5   6  -6 -2.1041 10.2126   6
   5  -6   6 0.40342 1.44648   2
   5  -6   6 1.11412 7.50237   8
  -6   6  -6 64.5008 5.98620   4
  -6   6  -6 60.1081 7.88128   7
   6  -6   6 44.7677 13.2500   8
   6  -6   6 70.2398 6.46499   2
  -7   6  -6 7.39402 1.51008   4
  -7   6  -6 14.1692 3.57066   7
   7  -6   6 4.69044 8.63834   8
   8  -6   6 5.48599 1.73297   2
   9   5  -6 24.6583 5.20282   2
   8   5  -6 303.970 28.0322   2
  -8  -5   6 353.462 27.5033   2
   7   5  -6 2.74328 3.19974   2
  -7  -5   6 1.03837 2.13042   2
  -7  -5   6 0.28515 1.65817   7
   6   5  -6 71.3435 8.57445   2
  -6  -5   6 76.2523 7.81010   2
  -6  -5   6 68.5950 6.87809   7
   5   5  -6 6.09459 2.89419   2
  -5  -5   6 8.33641 2.64378   2
  -5  -5   6 11.3325 6.16382   8
   4   5  -6 94.6635 9.45078   2
  -4  -5   6 96.5399 12.7270   8
  -4  -5   6 80.1745 8.42496   2
   3   5  -6 40.2246 5.52370   2
   3   5  -6 42.1839 3.91340   4
  -3  -5   6 55.0329 8.97385   8
  -3  -5   6 40.4796 4.88621   2
   2   5  -6 379.031 31.4248   4
   2   5  -6 419.891 32.5778   2
  -2  -5   6 391.121 32.0117   2
  -2  -5   6 397.777 35.8787   8
   1   5  -6 44.5976 4.07224   4
   1   5  -6 40.9500 5.08508   2
  -1  -5   6 51.8653 8.88812   8
  -1  -5   6 43.8066 4.75670   2
   0   5  -6 7.92005 4.76161   6
   0   5  -6 8.63815 1.53261   4
   0  -5   6 14.7203 2.55396   2
   0  -5   6 3.14189 4.25158   8
  -1   5  -6 1204.77 101.051   6
  -1   5  -6 1097.60 98.7984   7
  -1   5  -6 1303.50 97.9489   4
   1  -5   6 1363.00 104.705   8
   1  -5   6 1271.25 98.4241   2
  -2   5  -6 616.954 45.3382   4
  -2   5  -6 558.485 46.4224   7
  -2   5  -6 501.628 48.6203   6
   2  -5   6 641.859 45.9464   2
   2  -5   6 518.500 52.0346   8
  -3   5  -6 333.343 30.5481   7
  -3   5  -6 334.184 33.3968   6
  -3   5  -6 378.267 29.3963   4
   3  -5   6 349.641 37.7493   8
   3  -5   6 422.953 30.1549   2
  -4   5  -6 33.2089 3.70546   4
  -4   5  -6 36.2829 5.65841   7
  -4   5  -6 28.3733 8.52431   6
   4  -5   6 27.1560 10.2707   8
   4  -5   6 33.2989 4.54924   2
  -5   5  -6 107.828 11.4004   7
  -5   5  -6 124.608 17.0182   6
  -5   5  -6 110.798 9.58283   4
   5  -5   6 112.860 10.4729   2
   5  -5   6 99.5475 19.7317   8
  -6   5  -6 54.7672 13.1630   6
  -6   5  -6 77.3755 6.65337   4
  -6   5  -6 67.0063 8.36627   7
   6  -5   6 73.7393 17.3157   8
   6  -5   6 76.1105 7.63001   2
  -7   5  -6 12.7499 2.03523   4
  -7   5  -6 7.23553 3.28618   7
   7  -5   6 7.52113 9.00663   8
   7  -5   6 18.2657 3.35822   2
  -8   5  -6 171.657 13.9462   4
   9   4  -6 89.6907 10.0970   2
   8   4  -6 11.2772 4.23780   2
  -8  -4   6 5.21429 2.01218   7
  -8  -4   6 10.0407 2.72990   2
   7   4  -6 350.061 47.9031   5
   7   4  -6 433.774 33.4748   2
  -7  -4   6 398.045 31.8355   2
  -7  -4   6 351.334 31.2592   7
   6   4  -6 368.829 48.2521   5
   6   4  -6 452.820 37.5211   2
  -6  -4   6 441.060 35.7696   7
  -6  -4   6 481.689 36.3343   2
   5   4  -6 1.75875 12.8432   5
   5   4  -6 2.12464 2.95741   2
  -5  -4   6 1.39652 1.80120   2
  -5  -4   6 3.87094 4.67292   8
   4   4  -6 177.371 24.3983   5
   4   4  -6 152.316 15.2851   2
  -4  -4   6 158.494 14.3971   2
  -4  -4   6 203.178 18.8327   8
   3   4  -6 370.300 32.8806   4
   3   4  -6 425.675 34.4747   2
   3   4  -6 475.762 39.8568   5
  -3  -4   6 419.039 33.6087   2
   2   4  -6 348.795 25.4984   2
   2   4  -6 265.281 28.1351   5
   2   4  -6 356.779 32.5390   1
   2   4  -6 294.756 23.9604   4
  -2  -4   6 289.196 27.6427   8
  -2  -4   6 273.296 24.4457   2
   1   4  -6 911.156 84.4811   1
   1   4  -6 1084.13 79.1728   4
   1   4  -6 923.506 80.1135   2
  -1  -4   6 1073.81 79.7015   2
  -1  -4   6 1144.14 83.6569   8
  -1  -4   6 906.343 84.6074   1
   0   4  -6 253.480 27.6459   1
   0   4  -6 282.049 23.3341   2
   0   4  -6 295.045 22.3657   4
   0   4  -6 252.277 23.9407   6
   0  -4   6 274.184 26.6171   8
   0  -4   6 315.416 22.9538   2
  -1   4  -6 183.968 16.4240   2
  -1   4  -6 207.598 15.6573   4
  -1   4  -6 206.030 18.3723   6
  -1   4  -6 208.402 16.6651   7
  -1   4  -6 161.945 20.8133   1
   1  -4   6 164.971 16.0359   2
   1  -4   6 232.276 21.5431   8
  -2   4  -6 247.945 21.8526   7
  -2   4  -6 271.608 24.1051   6
  -2   4  -6 277.252 21.0011   4
   2  -4   6 237.503 21.4733   2
   2  -4   6 278.965 27.6737   8
  -3   4  -6 24.9421 4.66781   7
  -3   4  -6 38.1628 3.56076   4
  -3   4  -6 25.8955 6.49182   6
   3  -4   6 40.1144 4.61691   2
   3  -4   6 21.3603 8.18101   8
  -4   4  -6 150.994 17.6357   6
  -4   4  -6 175.847 13.8383   4
  -4   4  -6 171.578 15.0523   7
   4  -4   6 203.338 23.0417   5
   4  -4   6 157.225 14.7498   2
   4  -4   6 151.776 22.0235   8
  -5   4  -6 517.968 37.7064   4
  -5   4  -6 468.574 38.8768   7
  -5   4  -6 402.777 41.5292   6
   5  -4   6 456.457 47.4732   8
   5  -4   6 498.669 38.8746   2
  -6   4  -6 30.1472 5.17868   7
  -6   4  -6 15.6326 8.82943   6
  -6   4  -6 32.2934 3.66327   4
   6  -4   6 21.7744 11.6089   8
   6  -4   6 45.4975 5.56605   2
  -7   4  -6 53.2927 5.11965   4
   7  -4   6 59.2373 6.68061   2
   7  -4   6 44.0728 14.8014   8
  -8   4  -6 89.1493 7.55564   4
   8  -4   6 89.1100 25.9605   8
  10   3  -6 15.8905 4.37675   2
  -9  -3   6 32.1303 4.32244   7
   8   3  -6 63.5055 8.57217   2
   8   3  -6 36.6637 25.2388   5
  -8  -3   6 55.8674 5.93556   7
  -8  -3   6 53.2004 6.01141   2
   7   3  -6 103.335 26.1246   5
   7   3  -6 118.025 11.8303   2
  -7  -3   6 101.345 9.19473   7
  -7  -3   6 87.5616 9.09518   2
   6   3  -6 85.4074 22.5538   5
   6   3  -6 89.3892 9.96469   2
  -6  -3   6 85.2719 7.86326   7
  -6  -3   6 81.6928 8.04985   2
   5   3  -6 164.480 15.0723   2
   5   3  -6 132.099 24.9798   5
  -5  -3   6 145.901 13.4070   2
  -5  -3   6 180.552 18.2799   8
   4   3  -6 763.219 72.7076   5
   4   3  -6 749.818 72.1765   1
   4   3  -6 833.575 66.1432   2
  -4  -3   6 933.912 68.9968   8
  -4  -3   6 781.305 64.9003   2
  -4  -3   6 848.088 72.9725   1
   3   3  -6 2209.18 162.225   2
  -3  -3   6 1902.50 161.017   2
  -3  -3   6 2330.47 164.664   8
  -3  -3   6 1767.17 166.374   1
   2   3  -6 1.68909 1.98004   2
   2   3  -6 6.22196 0.88144   4
   2   3  -6 8.17902 6.29415   1
  -2  -3   6 1.87836 2.59231   8
  -2  -3   6 3.40746 1.35749   2
  -2  -3   6 6.85750 6.18974   1
   1   3  -6 45.3854 9.68147   1
   1   3  -6 45.9711 3.79175   4
   1   3  -6 52.0281 5.42016   2
  -1  -3   6 39.4242 9.84852   1
  -1  -3   6 37.9842 6.83095   8
  -1  -3   6 38.1654 4.30537   2
   0   3  -6 29.0773 4.19785   2
   0   3  -6 29.4084 4.29215   6
   0   3  -6 32.4334 2.82086   4
   0  -3   6 22.0795 3.21454   2
   0  -3   6 38.9156 6.73178   8
   0  -3   6 25.0372 7.88407   1
  -1   3  -6 18.8342 4.38959   6
  -1   3  -6 18.1232 3.43462   2
  -1   3  -6 15.7102 6.54227   1
  -1   3  -6 17.4771 2.18390   4
   1  -3   6 20.4042 5.96368   8
   1  -3   6 14.3514 6.39136   1
   1  -3   6 16.2316 2.67651   2
  -2   3  -6 1200.88 102.033   1
  -2   3  -6 1232.36 98.3051   6
  -2   3  -6 1412.30 96.2847   4
  -2   3  -6 1211.47 96.9561   7
  -2   3  -6 1155.91 97.1436   2
   2  -3   6 1129.96 101.342   8
  -3   3  -6 2568.58 195.763   7
  -3   3  -6 2724.14 197.707   6
  -3   3  -6 2443.07 195.884   2
   3  -3   6 2424.32 195.741   2
   3  -3   6 2282.84 201.164   8
  -4   3  -6 98.6494 7.94472   4
  -4   3  -6 77.7102 8.73567   7
  -4   3  -6 84.5240 11.3617   6
   4  -3   6 119.080 17.5843   5
   4  -3   6 101.140 9.33297   2
   4  -3   6 68.2914 14.5880   8
  -5   3  -6 160.150 14.8156   7
  -5   3  -6 170.485 13.9035   4
  -5   3  -6 152.402 17.9420   6
   5  -3   6 186.278 23.4796   8
   5  -3   6 186.644 15.5349   2
   5  -3   6 140.685 24.2692   5
  -6   3  -6 26.2130 9.26520   6
  -6   3  -6 42.3243 4.14753   4
  -6   3  -6 35.6469 5.15681   7
   6  -3   6 37.1466 12.9501   8
   6  -3   6 44.6253 6.16698   2
  -7   3  -6 99.3790 8.22758   4
   7  -3   6 79.4060 19.1702   8
  -8   3  -6 0.64793 1.03180   4
   8  -3   6 1.03119 2.18092   2
   8  -3   6 0.49357 12.6842   8
  10   2  -6 6.54969 3.41906   2
   9   2  -6 17.3808 5.06107   2
  -9  -2   6 13.0841 2.78346   7
   8   2  -6 101.714 11.4601   2
   8   2  -6 100.664 29.8300   5
  -8  -2   6 87.7147 8.80567   7
   7   2  -6 56.6727 8.18649   2
   7   2  -6 80.6857 25.0174   5
  -7  -2   6 41.8651 5.02453   2
   6   2  -6 317.035 44.2619   5
   6   2  -6 359.252 32.2804   2
  -6  -2   6 366.564 30.4441   2
  -6  -2   6 430.389 30.6030   7
   5   2  -6 140.031 27.2983   5
   5   2  -6 161.252 15.5647   2
  -5  -2   6 166.602 17.9011   8
  -5  -2   6 172.246 13.8629   2
   4   2  -6 233.258 19.1083   2
   4   2  -6 168.219 27.0119   5
   4   2  -6 240.111 26.3648   1
  -4  -2   6 194.037 17.4425   2
  -4  -2   6 227.127 20.9260   8
   3   2  -6 476.515 37.9196   2
  -3  -2   6 463.630 36.6248   2
  -3  -2   6 474.824 39.5146   8
  -3  -2   6 420.930 42.2744   1
   2   2  -6 255.371 24.3405   1
   2   2  -6 264.277 20.3068   2
   2   2  -6 225.611 18.5371   4
  -2  -2   6 202.592 23.5578   1
  -2  -2   6 258.604 21.8072   8
  -2  -2   6 208.965 18.9029   2
   1   2  -6 338.228 27.3146   2
   1   2  -6 346.420 30.7718   1
  -1  -2   6 350.854 29.1064   8
  -1  -2   6 283.436 26.1330   2
   0   2  -6 554.416 48.9891   6
   0   2  -6 706.233 54.3655   1
   0  -2   6 658.900 52.3782   8
   0  -2   6 625.161 49.1902   2
   0  -2   6 569.853 53.4784   1
  -1   2  -6 75.1055 13.3895   1
  -1   2  -6 101.788 9.74276   2
  -1   2  -6 110.142 9.65901   6
   1  -2   6 102.194 14.3007   1
  -2   2  -6 3811.20 307.511   6
  -2   2  -6 4241.35 307.424   2
  -2   2  -6 3662.35 311.752   1
   2  -2   6 3442.04 309.795   5
   2  -2   6 3887.93 312.468   1
   2  -2   6 4424.94 311.583   8
  -3   2  -6 4117.59 318.579   6
  -3   2  -6 3802.49 316.917   7
   3  -2   6 4219.13 322.681   8
  -4   2  -6 306.936 27.4266   7
  -4   2  -6 336.446 29.8344   6
   4  -2   6 381.618 28.2552   2
   4  -2   6 316.651 33.6721   8
  -5   2  -6 163.846 15.3449   2
  -5   2  -6 151.402 17.5859   6
   5  -2   6 193.801 15.6976   2
   5  -2   6 178.301 24.4168   5
   5  -2   6 150.372 21.5029   8
  -6   2  -6 155.303 12.3912   4
  -6   2  -6 142.784 17.3572   6
   6  -2   6 154.817 14.2331   2
   6  -2   6 124.013 20.6134   8
   6  -2   6 151.897 26.3749   5
  -7   2  -6 56.0593 5.26538   4
   7  -2   6 48.4795 14.7732   8
   7  -2   6 61.3751 7.54732   2
  -8   2  -6 55.3023 4.95484   4
 -10  -1   6 55.8456 5.85592   7
  -9  -1   6 118.500 10.8363   7
   8   1  -6 15.7067 21.0813   5
   8   1  -6 39.1527 7.35660   2
  -8  -1   6 24.3206 4.18133   7
   7   1  -6 435.442 60.6345   5
   7   1  -6 596.977 46.0692   2
  -7  -1   6 552.935 43.7922   7
   6   1  -6 881.306 71.3842   2
   6   1  -6 818.548 84.7764   5
  -6  -1   6 837.933 69.2800   2
  -6  -1   6 952.374 69.6264   7
   5   1  -6 144.745 29.5016   5
   5   1  -6 176.724 17.0045   2
  -5  -1   6 200.906 15.3636   7
  -5  -1   6 182.972 19.0774   8
   4   1  -6 111.370 10.5921   2
  -4  -1   6 98.6229 8.33186   3
  -4  -1   6 125.428 12.3689   8
  -4  -1   6 89.4129 8.61240   2
   3   1  -6 3056.25 231.946   2
   3   1  -6 2783.26 234.880   1
  -3  -1   6 2739.79 235.399   1
  -3  -1   6 3195.79 233.469   8
   2   1  -6 1758.63 131.928   1
  -2  -1   6 1441.93 127.017   3
  -2  -1   6 1633.67 129.824   8
  -2  -1   6 1676.59 132.376   1
   1   1  -6 230.963 21.7948   1
  -1  -1   6 219.957 22.0100   1
  -1  -1   6 195.736 19.4719   8
   0   1  -6 27.9683 5.10245   2
   0   1  -6 31.2849 3.38393   6
   0  -1   6 34.0938 3.31366   2
   0  -1   6 35.9301 6.06740   8
   0  -1   6 20.3611 6.08510   1
  -1   1  -6 126.231 15.8448   1
  -1   1  -6 120.571 11.0849   2
   1  -1   6 118.696 13.2406   8
   1  -1   6 139.019 15.9281   1
   1  -1   6 105.463 10.0834   2
  -2   1  -6 29.0303 4.70821   2
  -2   1  -6 25.1909 9.77140   1
   2  -1   6 47.6366 9.75252   5
   2  -1   6 29.4103 9.64786   1
   2  -1   6 32.8330 7.51437   8
   2  -1   6 28.2167 3.75577   2
  -3   1  -6 48.6174 6.12896   2
   3  -1   6 44.4227 5.46416   2
   3  -1   6 67.7335 12.5390   5
   3  -1   6 43.2262 9.56262   8
  -4   1  -6 214.255 17.5784   2
   4  -1   6 184.579 17.1150   2
   4  -1   6 188.597 24.3484   5
  -5   1  -6 132.337 13.0951   2
  -5   1  -6 132.185 16.0388   6
   5  -1   6 148.071 23.0263   5
   5  -1   6 167.303 13.5804   2
   5  -1   6 120.298 18.8948   8
  -6   1  -6 185.335 23.5889   6
   6  -1   6 277.231 21.0163   2
   6  -1   6 240.211 32.5926   5
   6  -1   6 220.917 27.1974   8
  -7   1  -6 2.31453 1.33484   4
   7  -1   6 7.62038 11.2287   8
   7  -1   6 1.54058 2.86928   2
  -8   1  -6 64.6827 6.22085   4
   8  -1   6 87.9930 8.29064   2
  10   0  -6 3.96911 3.14427   2
 -10   0   6 1.68418 1.94116   7
   9   0  -6 68.7783 8.96237   2
  -9   0   6 62.6491 6.88705   7
   8   0  -6 2.87937 21.5736   5
   8   0  -6 1.59766 3.67125   2
  -8   0   6 0.88025 1.91300   7
   7   0  -6 142.706 13.8943   2
   7   0  -6 99.7494 28.6007   5
  -7   0   6 127.452 11.5935   7
   6   0  -6 15.4666 4.12697   2
   6   0  -6 -1.0394 16.9629   5
  -6   0   6 9.63050 1.68044   3
  -6   0   6 18.7184 3.07165   7
   5   0  -6 62.7015 7.57246   2
  -5   0   6 51.5178 5.55881   7
  -5   0   6 64.6535 5.17977   3
   4   0  -6 260.949 23.7036   2
  -4   0   6 278.271 21.8998   3
  -4   0   6 283.567 22.2943   7
  -4   0   6 278.913 25.2741   8
   3   0  -6 3369.86 253.044   2
  -3   0   6 3451.41 254.293   8
  -3   0   6 2831.16 251.436   2
   2   0  -6 692.493 56.4687   1
  -2   0   6 678.000 52.0673   3
  -2   0   6 672.899 54.5565   8
  -2   0   6 665.458 52.3282   2
  -2   0   6 609.311 56.3961   1
   1   0  -6 2.93234 3.27858   1
   1   0  -6 10.3487 3.44129   2
  -1   0   6 15.8903 3.84804   8
  -1   0   6 7.62263 1.48848   2
  -1   0   6 9.56689 1.01450   3
  -1   0   6 12.3831 4.91457   1
   0   0  -6 44.1045 9.21350   1
   0   0  -6 42.1157 5.55819   2
   0   0   6 48.5020 3.81966   3
   0   0   6 42.4945 4.31742   2
   0   0   6 38.5982 8.63260   1
   0   0   6 58.4309 6.87468   8
  -1   0  -6 13.7272 3.45420   2
  -1   0  -6 13.2880 7.22442   1
   1   0   6 14.9494 2.39614   2
   1   0   6 13.7812 6.60372   1
   1   0   6 18.9147 1.60168   3
  -2   0  -6 27.9142 4.74654   2
  -2   0  -6 22.4212 8.94202   1
   2   0   6 16.2406 1.79648   3
   2   0   6 18.3810 3.02956   2
   2   0   6 20.2093 5.68350   8
   2   0   6 32.5989 10.0388   1
   2   0   6 16.6991 7.08687   5
  -3   0  -6 1183.09 93.1505   2
   3   0   6 1023.18 92.1561   2
   3   0   6 1294.06 99.5589   5
   3   0   6 1180.98 91.2320   3
   3   0   6 1165.31 96.2535   8
  -4   0  -6 44.0928 6.29190   2
   4   0   6 36.1582 3.38655   3
   4   0   6 47.8462 12.4786   5
   4   0   6 36.0784 5.34017   2
   4   0   6 36.6717 9.65693   8
  -5   0  -6 76.4193 8.37234   2
   5   0   6 58.0534 15.9454   5
   5   0   6 54.8753 13.7526   8
   5   0   6 67.1357 7.88080   2
  -6   0  -6 2.69106 2.80357   2
   6   0   6 4.92611 3.18039   2
   6   0   6 7.63878 10.1129   8
   6   0   6 1.47304 12.2604   5
  -7   0  -6 103.343 8.84792   4
  -8   0  -6 1.33442 1.25509   4
   8   0   6 2.87106 2.23528   2
  10  -1  -6 136.893 12.1010   2
 -10   1   6 104.391 10.4837   7
   9  -1  -6 5.81726 3.29355   2
  -9   1   6 -0.6851 1.93328   7
   8  -1  -6 73.3738 27.9934   5
   8  -1  -6 146.627 13.5742   2
  -8   1   6 118.637 11.3502   7
   7  -1  -6 113.921 33.5717   5
   7  -1  -6 98.9013 10.7472   2
  -7   1   6 93.9370 8.86791   7
  -7   1   6 86.2760 8.10754   3
   6  -1  -6 28.5642 5.54912   2
   6  -1  -6 28.5983 20.7670   5
  -6   1   6 18.8983 3.31160   7
  -6   1   6 19.3853 2.57336   3
   5  -1  -6 324.354 30.2046   2
  -5   1   6 391.541 28.5413   3
  -5   1   6 357.062 28.9799   7
   4  -1  -6 98.5516 10.0702   2
  -4   1   6 97.3415 11.3189   8
  -4   1   6 98.8901 8.23549   3
  -4   1   6 103.125 8.69937   7
   3  -1  -6 11.5694 3.12015   2
  -3   1   6 9.13370 1.26423   3
  -3   1   6 10.9463 3.37659   8
   2  -1  -6 15.7870 3.55520   2
  -2   1   6 9.74478 1.58204   7
  -2   1   6 8.11814 1.35765   2
  -2   1   6 13.7569 3.52730   8
  -2   1   6 10.3707 1.30404   3
   1  -1  -6 216.834 17.7390   2
  -1   1   6 187.496 16.5104   2
  -1   1   6 203.061 18.2908   8
  -1   1   6 219.171 16.3544   3
   0  -1  -6 847.957 64.0783   2
   0   1   6 843.440 62.5838   3
   0   1   6 719.644 62.8451   2
   0   1   6 784.708 64.4230   8
  -1  -1  -6 143.248 14.2933   2
   1   1   6 170.673 12.6919   3
   1   1   6 154.892 13.1749   2
   1   1   6 162.858 15.0097   8
  -2  -1  -6 106.094 11.2680   2
   2   1   6 114.719 12.5182   8
   2   1   6 128.659 17.4693   5
   2   1   6 112.130 9.28664   3
   2   1   6 119.843 10.1431   2
  -3  -1  -6 183.969 18.1720   2
   3   1   6 199.118 19.9629   8
   3   1   6 230.501 26.3221   5
   3   1   6 201.102 16.0640   3
   3   1   6 204.930 17.1624   2
  -4  -1  -6 147.323 15.5708   2
   4   1   6 161.617 14.6130   2
   4   1   6 166.106 13.2008   3
   4   1   6 203.533 26.1737   5
  -5  -1  -6 7.21403 3.77382   2
   5   1   6 8.15035 3.15551   2
   5   1   6 6.98485 1.35506   3
   5   1   6 13.2639 12.5433   5
  -6  -1  -6 368.641 32.5152   2
   6   1   6 385.012 31.8543   2
   6   1   6 407.998 45.9795   5
  -7  -1  -6 319.100 27.7237   2
   7   1   6 335.605 27.3330   2
   8   1   6 29.6598 4.12561   2
  10  -2  -6 17.3116 3.36661   2
 -10   2   6 9.60805 2.59971   7
   9  -2  -6 46.2106 6.36866   2
  -9   2   6 37.1786 5.18648   7
   8  -2  -6 224.341 20.2156   2
   8  -2  -6 209.252 44.3161   5
  -8   2   6 224.773 19.0162   7
   7  -2  -6 454.073 64.0794   5
   7  -2  -6 495.876 41.3490   2
  -7   2   6 510.289 39.5199   3
  -7   2   6 498.361 40.1635   7
   6  -2  -6 172.150 36.6360   5
   6  -2  -6 234.294 18.5253   2
  -6   2   6 189.216 16.8700   7
  -6   2   6 189.446 16.2844   3
   5  -2  -6 15.0902 3.98406   2
  -5   2   6 13.8303 2.06632   3
  -5   2   6 10.7175 6.44956   6
  -5   2   6 15.8435 2.72606   7
   4  -2  -6 3.67599 2.37491   2
  -4   2   6 1.66845 0.95786   3
  -4   2   6 2.22645 1.30640   7
   3  -2  -6 325.768 28.9523   2
  -3   2   6 376.349 28.0397   7
  -3   2   6 341.784 27.5683   3
  -2   2   6 1510.73 122.181   8
  -2   2   6 1504.80 120.214   3
  -2   2   6 1591.05 120.556   7
  -1   2   6 191.978 16.2135   8
  -1   2   6 175.204 14.4212   3
  -1   2   6 176.463 14.6270   7
   0  -2  -6 0.09131 1.89562   2
   0   2   6 -0.7562 0.80157   2
   0   2   6 0.43632 2.23752   8
   0   2   6 0.58054 0.62764   3
  -1  -2  -6 52.3430 6.09318   2
   1   2   6 44.2606 4.17800   2
   1   2   6 35.9040 3.72008   3
  -2  -2  -6 222.489 18.0398   2
   2   2   6 182.224 16.3474   2
   2   2   6 194.143 15.8174   3
  -3  -2  -6 43.2386 6.44735   2
   3   2   6 40.0463 3.74865   3
   3   2   6 36.8304 4.77069   2
   3   2   6 49.2880 13.3247   5
  -4  -2  -6 9.98706 4.10163   2
   4   2   6 18.1866 3.39549   2
   4   2   6 23.2501 2.38288   3
   4   2   6 29.9055 13.9270   5
  -5  -2  -6 -0.4952 3.41905   2
   5   2   6 2.23993 1.11307   3
   5   2   6 -6.8800 11.9432   5
   5   2   6 1.10329 2.13192   2
  -6  -2  -6 437.962 35.1101   2
   6   2   6 410.857 33.5860   2
   6   2   6 386.686 32.4727   3
  -7  -2  -6 86.9364 9.75940   2
   7   2   6 96.5416 8.77320   2
 -10   3   6 46.6328 5.08319   7
   9  -3  -6 15.3904 3.40955   2
  -9   3   6 12.6071 2.96717   7
   8  -3  -6 33.1738 5.12231   2
   8  -3  -6 32.5193 28.1789   5
  -8   3   6 24.6119 3.26316   3
  -8   3   6 19.7552 3.67285   7
   7  -3  -6 76.1604 29.4816   5
   7  -3  -6 127.306 11.4372   2
  -7   3   6 121.467 9.77567   3
  -7   3   6 100.417 10.4024   7
   6  -3  -6 82.7899 8.70966   2
   6  -3  -6 36.1310 26.3650   5
  -6   3   6 86.1713 7.21056   3
  -6   3   6 79.2802 7.95656   7
   5  -3  -6 20.0422 3.86721   2
  -5   3   6 8.67750 1.77286   3
  -5   3   6 13.5836 2.54842   7
  -5   3   6 16.1596 8.46918   6
   4  -3  -6 5.48102 2.46293   2
  -4   3   6 6.66467 1.89652   7
  -4   3   6 7.38662 1.37442   3
   3  -3  -6 556.813 46.8601   2
  -3   3   6 604.003 46.0462   7
  -3   3   6 573.657 45.5497   3
   2  -3  -6 953.884 78.5079   2
  -2   3   6 1068.64 77.5603   3
  -2   3   6 942.912 77.8328   7
   1  -3  -6 711.763 56.7394   2
  -1   3   6 703.480 55.6017   3
   0  -3  -6 53.0193 6.82162   2
   0   3   6 73.4273 5.55494   3
  -1  -3  -6 430.544 36.7733   2
   1   3   6 460.449 35.2842   3
  -2  -3  -6 402.607 34.0154   2
   2   3   6 408.138 32.1703   3
  -3  -3  -6 82.9251 9.79901   2
   3   3   6 89.9643 7.47404   3
  -4  -3  -6 214.525 18.8276   2
   4   3   6 195.879 15.9273   3
   4   3   6 182.895 17.1991   2
  -5  -3  -6 51.2319 7.85739   2
   5   3   6 49.6628 4.67906   3
  -6  -3  -6 1.49711 3.15942   2
   6   3   6 0.02704 1.02514   3
  -7  -3  -6 21.5486 4.28548   2
  -9   4   6 20.8549 3.44262   7
  -8   4   6 155.122 12.9844   7
  -8   4   6 134.223 12.0094   3
   7  -4  -6 432.263 35.2981   2
   7  -4  -6 401.302 61.2553   5
  -7   4   6 454.684 35.1692   7
  -7   4   6 413.994 34.2632   3
   6  -4  -6 149.611 13.6066   2
   6  -4  -6 87.1708 32.6076   5
  -6   4   6 149.697 12.3774   3
  -6   4   6 159.915 13.3095   7
   5  -4  -6 13.4313 3.29316   2
  -5   4   6 9.68922 1.74450   3
  -5   4   6 14.3579 2.82107   7
   4  -4  -6 54.1755 6.43485   2
  -4   4   6 60.1178 5.15520   3
  -4   4   6 56.5954 5.84997   7
   3  -4  -6 37.0374 4.72860   2
  -3   4   6 31.0288 3.11281   3
  -3   4   6 25.8878 3.58319   7
   2  -4  -6 2.13180 1.65820   2
  -2   4   6 2.71054 1.19488   7
  -2   4   6 3.86437 1.16992   3
   1  -4  -6 38.4494 4.88468   2
  -1   4   6 36.0971 3.54265   3
   0  -4  -6 3.08441 2.12160   2
   0   4   6 2.35315 1.08305   3
   1   4   6 206.644 16.7228   3
  -2  -4  -6 76.5418 8.66929   2
   2   4   6 69.5799 6.47569   3
  -3  -4  -6 203.407 18.1985   2
   3   4   6 187.050 15.8386   3
  -4  -4  -6 349.443 29.5723   2
   4   4   6 331.821 27.1318   3
  -5  -4  -6 125.019 12.1826   2
   5   4   6 103.765 9.30554   3
  -6  -4  -6 115.396 11.0245   2
   6   4   6 97.3873 8.62993   3
  -9   5   6 20.3761 3.25890   7
  -8   5   6 188.807 16.4330   3
  -8   5   6 218.302 17.3691   7
  -7   5   6 363.792 29.5917   7
  -7   5   6 356.857 28.7472   3
   6  -5  -6 7.93464 32.9698   5
  -6   5   6 6.29775 1.56148   3
  -6   5   6 4.61057 2.19299   7
  -5   5   6 211.413 16.0678   3
  -5   5   6 184.514 16.7233   7
   4  -5  -6 25.5439 4.01985   2
  -4   5   6 20.3204 3.41254   7
  -4   5   6 23.8601 2.79718   3
   3  -5  -6 22.9276 4.12151   2
  -3   5   6 22.4786 2.68882   3
  -3   5   6 20.4716 3.11298   7
  -2   5   6 283.873 22.6778   3
   1  -5  -6 555.270 46.8356   2
  -1   5   6 602.230 45.7367   3
   0  -5  -6 33.2654 5.38170   2
   0   5   6 45.3172 4.04484   3
  -1  -5  -6 0.45698 2.26109   2
   1   5   6 1.82695 1.45694   3
  -2  -5  -6 5.34847 3.14587   2
   2   5   6 7.80856 1.67712   3
  -3  -5  -6 42.5179 6.47389   2
   3   5   6 33.3197 3.93463   3
  -4  -5  -6 43.4692 6.55369   2
   4   5   6 37.4530 3.99005   3
  -5  -5  -6 3.38208 2.67993   2
   5   5   6 0.10721 0.97770   3
  -8   6   6 6.05014 2.00293   7
  -8   6   6 6.41602 1.39654   3
  -7   6   6 71.9823 7.16879   7
  -7   6   6 74.0368 6.37603   3
  -6   6   6 60.0359 5.11313   3
  -6   6   6 50.4662 5.89656   7
  -5   6   6 56.3592 6.24808   7
  -5   6   6 66.7233 5.57605   3
  -4   6   6 22.7322 2.81301   3
  -3   6   6 9.90223 1.79521   3
   2  -6  -6 242.838 21.6218   2
  -2   6   6 260.420 20.2667   3
   1  -6  -6 519.828 43.7912   2
  -1   6   6 557.656 42.6540   3
   0  -6  -6 24.8934 4.68432   2
   0   6   6 30.2877 3.30043   3
  -1  -6  -6 102.940 10.7182   2
   1   6   6 111.496 9.18099   3
  -2  -6  -6 451.802 35.6622   2
   2   6   6 402.567 33.8689   3
  -3  -6  -6 30.4712 5.34700   2
   3   6   6 31.8563 3.41438   3
  -4  -6  -6 13.3349 3.18640   2
   4   6   6 4.76918 1.23135   3
  -7   7   6 65.4493 5.61107   3
  -6   7   6 161.531 13.1152   3
  -5   7   6 12.3257 1.84000   3
  -4   7   6 113.496 9.43489   3
  -3   7   6 2.82797 1.42714   3
  -2   7   6 148.276 12.1929   3
  -1   7   6 58.9498 5.36826   3
   0  -7  -6 4.27025 2.08961   2
   0   7   6 2.67005 1.44231   3
  -1  -7  -6 66.2755 6.82212   2
   1   7   6 53.5148 5.27334   3
  -2  -7  -6 168.912 13.9954   2
   2   7   6 140.623 12.4684   3
  -4   8   6 15.5737 2.00941   3
  -3   8   6 1.82117 1.06872   3
  -2   8   6 3.30679 1.16394   3
  -1   8   6 218.028 17.4704   3
   0   8   6 204.248 16.3701   3
  -3 -10   7 5.28663 1.76692   2
  -2 -10   7 9.14494 2.05446   2
   1  10  -7 18.8859 2.64051   4
  -1 -10   7 17.4058 2.65518   2
   0  10  -7 12.2304 2.08446   4
   0 -10   7 11.5422 2.16133   2
  -1  10  -7 17.0811 2.50061   4
   1 -10   7 13.5768 2.28827   2
  -2  10  -7 4.96660 1.57677   4
  -3  10  -7 172.600 14.2521   4
  -5  -9   7 297.539 24.5972   2
  -4  -9   7 119.916 10.8372   2
  -3  -9   7 11.5926 2.48339   2
   2   9  -7 68.4557 6.17770   4
  -2  -9   7 63.2773 6.62078   2
   1   9  -7 56.0590 5.56581   4
  -1  -9   7 60.3930 5.94431   2
   0   9  -7 171.297 13.5677   4
   0  -9   7 151.355 13.6099   2
  -1   9  -7 842.119 62.9112   4
   1  -9   7 735.869 67.5213   8
   1  -9   7 797.595 62.9010   2
  -2   9  -7 183.440 14.9119   4
   2  -9   7 191.693 14.8072   2
   2  -9   7 142.742 20.7655   8
  -3   9  -7 -0.1241 1.50922   4
   3  -9   7 -0.1498 0.99965   2
   3  -9   7 -0.1046 7.73060   8
  -4   9  -7 0.73029 1.35968   4
  -5   9  -7 88.4294 7.69007   4
  -6  -8   7 -0.6553 1.69156   2
  -5  -8   7 24.8105 4.20224   2
  -4  -8   7 1.30552 1.95247   2
  -3  -8   7 -1.4442 12.1936   8
  -3  -8   7 1.13119 1.82094   2
   2   8  -7 18.5681 2.92324   4
  -2  -8   7 22.4979 3.66510   2
  -2  -8   7 20.6074 7.91559   8
   1   8  -7 107.908 10.7036   4
  -1  -8   7 123.236 16.7156   8
  -1  -8   7 146.558 11.4251   2
   0   8  -7 188.565 14.6161   4
   0  -8   7 162.733 14.7486   2
   0  -8   7 170.722 20.6256   8
  -1   8  -7 258.725 20.5207   4
   1  -8   7 245.344 26.9205   8
   1  -8   7 244.410 20.5744   2
  -2   8  -7 29.6662 3.82014   4
   2  -8   7 26.3568 8.76385   8
  -3   8  -7 34.4333 4.30971   4
   3  -8   7 36.8021 3.99297   2
   3  -8   7 38.4848 11.7198   8
  -4   8  -7 159.223 13.8443   4
   4  -8   7 170.304 13.8076   2
   4  -8   7 163.305 21.8247   8
  -5   8  -7 142.436 14.1310   4
   5  -8   7 191.779 14.2224   2
   5  -8   7 185.493 22.5802   8
  -6   8  -7 -0.0408 1.01975   4
  -7  -7   7 2.20626 2.26176   2
  -6  -7   7 67.3873 7.42473   2
  -5  -7   7 282.285 23.9024   2
  -4  -7   7 296.090 33.4732   8
  -4  -7   7 406.545 29.7122   2
   3   7  -7 7.71823 1.63238   4
  -3  -7   7 12.3040 2.96331   2
  -3  -7   7 3.29283 5.79078   8
   2   7  -7 36.7652 4.06481   4
  -2  -7   7 35.0236 9.25327   8
  -2  -7   7 43.5574 5.08890   2
   1   7  -7 138.977 12.2968   4
  -1  -7   7 128.372 17.7060   8
  -1  -7   7 167.218 13.0421   2
   0   7  -7 25.5067 3.42192   4
   0  -7   7 31.5091 9.52423   8
   0  -7   7 29.5372 3.96710   2
  -1   7  -7 77.2581 7.28217   4
   1  -7   7 63.3980 13.6796   8
   1  -7   7 89.6938 7.74565   2
  -2   7  -7 0.85479 1.59739   4
  -2   7  -7 11.9852 14.3764   6
   2  -7   7 1.43571 1.55035   2
   2  -7   7 4.70447 6.05974   8
  -3   7  -7 60.3618 5.56208   4
  -3   7  -7 43.6710 17.7216   6
   3  -7   7 57.2605 5.67523   2
   3  -7   7 34.6956 10.9385   8
  -4   7  -7 373.597 29.6815   4
  -4   7  -7 303.778 31.2874   7
   4  -7   7 370.661 39.1102   8
   4  -7   7 413.063 29.9769   2
  -5   7  -7 109.707 10.0082   4
   5  -7   7 104.275 18.9255   8
   5  -7   7 125.063 10.1984   2
   6  -7   7 5.47699 8.54436   8
  -7   7  -7 0.94666 0.93460   4
   8   6  -7 57.2276 5.20231   3
  -8  -6   7 59.2214 6.42262   2
   7   6  -7 13.0849 4.18794   2
   7   6  -7 20.4753 2.36661   3
  -7  -6   7 17.7903 3.71331   2
   6   6  -7 27.9411 3.09276   3
   6   6  -7 31.5233 5.35941   2
  -6  -6   7 33.5802 4.96656   2
  -6  -6   7 22.0302 3.61839   7
   5   6  -7 298.694 25.7674   2
   5   6  -7 294.058 23.9800   3
  -5  -6   7 309.372 25.4047   2
  -5  -6   7 305.295 30.3478   8
   4   6  -7 434.914 34.3516   2
   4   6  -7 390.473 32.7402   3
  -4  -6   7 436.037 33.9585   2
  -4  -6   7 388.315 38.3454   8
   3   6  -7 248.632 20.5554   4
   3   6  -7 268.274 21.9042   2
  -3  -6   7 251.797 26.1071   8
   2   6  -7 24.0230 2.82580   4
  -2  -6   7 23.2991 3.82432   2
  -2  -6   7 25.6063 7.96922   8
   1   6  -7 352.264 29.9533   4
  -1  -6   7 386.698 30.6343   2
  -1  -6   7 392.777 36.0227   8
   0   6  -7 49.5760 4.65170   4
   0  -6   7 52.2607 10.7743   8
   0  -6   7 44.2466 5.21376   2
  -1   6  -7 328.767 23.5250   4
  -1   6  -7 233.772 28.5573   6
   1  -6   7 285.158 23.9667   2
   1  -6   7 296.173 30.8825   8
  -2   6  -7 39.2134 4.26277   4
  -2   6  -7 42.0282 11.5074   6
   2  -6   7 39.7861 11.6846   8
   2  -6   7 38.6111 4.77060   2
  -3   6  -7 0.55868 1.56040   4
  -3   6  -7 3.04540 10.6423   6
  -3   6  -7 -0.9186 3.08631   7
   3  -6   7 2.65811 1.93562   2
   3  -6   7 1.89069 7.32547   8
  -4   6  -7 5.91786 1.82490   4
  -4   6  -7 5.17109 12.1779   6
  -4   6  -7 5.86155 3.80937   7
   4  -6   7 7.94796 9.02070   8
   4  -6   7 4.43994 2.09823   2
  -5   6  -7 69.5769 6.06609   4
  -5   6  -7 51.0092 7.83243   7
  -5   6  -7 29.5203 21.8243   6
   5  -6   7 64.8942 6.55299   2
  -6   6  -7 33.8222 3.90479   4
   6  -6   7 39.2908 4.49755   2
   6  -6   7 31.6084 12.2486   8
  -7   6  -7 8.09685 1.53941   4
   8   5  -7 254.627 22.6467   2
  -8  -5   7 260.279 21.6504   2
   7   5  -7 3.28860 2.96603   2
  -7  -5   7 1.03204 2.11584   2
  -7  -5   7 0.50577 1.62793   7
   6   5  -7 17.7754 4.59918   2
  -6  -5   7 11.0727 2.57145   7
  -6  -5   7 16.9656 3.53321   2
   5   5  -7 149.653 15.1028   2
  -5  -5   7 147.384 19.0425   8
  -5  -5   7 179.545 14.4400   2
   4   5  -7 305.359 25.3130   2
  -4  -5   7 261.283 28.4809   8
  -4  -5   7 308.673 24.4702   2
   3   5  -7 130.699 12.5270   2
   3   5  -7 127.532 10.9155   4
  -3  -5   7 130.532 15.8706   8
  -3  -5   7 138.716 11.8078   2
   2   5  -7 189.243 17.5338   2
   2   5  -7 207.712 16.2348   4
  -2  -5   7 181.540 16.8483   2
  -2  -5   7 234.761 21.7984   8
   1   5  -7 684.867 53.1338   2
   1   5  -7 618.510 51.9720   4
  -1  -5   7 676.024 52.6712   2
   0   5  -7 5.63361 2.34656   2
   0   5  -7 6.54732 1.42334   4
   0  -5   7 5.44192 4.82555   8
   0  -5   7 5.84618 2.08586   2
  -1   5  -7 312.782 31.8071   6
  -1   5  -7 362.534 28.5983   4
   1  -5   7 358.854 35.1948   8
   1  -5   7 389.380 29.3316   2
  -2   5  -7 16.3565 8.24309   6
  -2   5  -7 24.6740 2.95436   4
   2  -5   7 12.4574 6.83865   8
   2  -5   7 21.4488 3.71913   2
  -3   5  -7 194.832 24.1818   6
  -3   5  -7 194.688 19.9583   7
  -3   5  -7 238.752 18.8453   4
   3  -5   7 249.784 28.3838   8
   3  -5   7 264.866 19.7787   2
  -4   5  -7 147.553 21.3241   6
  -4   5  -7 181.095 16.0816   7
  -4   5  -7 192.245 14.5074   4
   4  -5   7 180.093 24.4455   8
   4  -5   7 155.993 15.1315   2
  -5   5  -7 455.605 46.7602   6
  -5   5  -7 486.111 42.1807   7
  -5   5  -7 577.669 40.9246   4
   5  -5   7 513.557 51.5760   8
  -6   5  -7 144.733 12.5772   4
   6  -5   7 173.003 13.6452   2
   6  -5   7 116.880 21.9130   8
  -7   5  -7 7.11290 1.51702   4
   7  -5   7 -1.0623 9.33383   8
   7  -5   7 10.5736 2.48551   2
   9   4  -7 276.354 24.2660   2
   8   4  -7 156.010 15.1423   2
  -8  -4   7 146.373 13.1771   2
   7   4  -7 8.20108 3.70743   2
   7   4  -7 -5.4300 22.4667   5
  -7  -4   7 11.8523 2.79304   2
  -7  -4   7 12.8263 2.64297   7
   6   4  -7 15.1110 4.45674   2
   6   4  -7 7.79963 20.1889   5
  -6  -4   7 26.3103 3.57242   7
  -6  -4   7 22.0202 3.84245   2
   5   4  -7 49.4536 7.12123   2
   5   4  -7 48.1149 19.0040   5
  -5  -4   7 46.2886 9.88125   8
  -5  -4   7 45.4269 5.38393   2
   4   4  -7 12.3946 3.73139   2
   4   4  -7 16.9048 14.5309   5
  -4  -4   7 17.9640 3.21564   2
  -4  -4   7 21.2579 5.87240   8
   3   4  -7 945.393 93.6472   5
   3   4  -7 1033.42 89.5350   2
  -3  -4   7 1297.37 88.8260   2
  -3  -4   7 1192.18 92.7823   8
   2   4  -7 281.721 21.3451   4
   2   4  -7 214.049 27.9185   5
   2   4  -7 271.971 22.9547   2
  -2  -4   7 271.666 25.7152   8
  -2  -4   7 277.841 22.0139   2
   1   4  -7 5.87473 2.59507   2
   1   4  -7 5.73053 1.17005   4
  -1  -4   7 6.50042 4.17511   8
  -1  -4   7 3.30245 1.59483   2
   0   4  -7 45.6450 3.89158   4
   0   4  -7 33.0116 5.05932   2
   0  -4   7 37.4383 4.50506   2
   0  -4   7 48.3937 8.62174   8
  -1   4  -7 386.453 30.4728   4
  -1   4  -7 391.878 31.5932   2
   1  -4   7 385.150 36.2171   8
   1  -4   7 368.936 31.0724   2
  -2   4  -7 0.10091 1.09080   4
  -2   4  -7 1.78476 5.63739   6
  -2   4  -7 -0.1661 2.02767   2
   2  -4   7 0.84381 1.79572   2
   2  -4   7 -0.5121 4.00176   8
  -3   4  -7 6.36154 2.83456   7
  -3   4  -7 4.61253 6.54363   6
  -3   4  -7 7.20868 1.66636   4
   3  -4   7 6.48431 2.44478   2
   3  -4   7 1.87870 5.68795   8
  -4   4  -7 426.826 32.0956   4
  -4   4  -7 367.792 33.0715   7
  -4   4  -7 368.062 36.4967   6
   4  -4   7 401.871 33.0784   2
   4  -4   7 441.459 42.0059   8
  -5   4  -7 128.775 10.5936   4
  -5   4  -7 109.501 17.6375   6
   5  -4   7 125.042 20.6196   8
   5  -4   7 122.285 11.7925   2
  -6   4  -7 19.6026 2.87647   4
   6  -4   7 7.63659 9.39460   8
   6  -4   7 22.7122 4.09079   2
  -7   4  -7 2.28673 1.24352   4
   7  -4   7 1.88116 2.33746   2
   7  -4   7 0.33108 8.68012   8
  -8   4  -7 14.5882 2.39945   4
  10   3  -7 41.9225 6.39473   2
  -9  -3   7 22.6392 3.49948   7
   8   3  -7 32.8263 28.5582   5
   7   3  -7 -1.0466 3.22085   2
   7   3  -7 2.87425 22.8951   5
  -7  -3   7 -0.2280 1.62233   2
  -7  -3   7 -0.0332 1.81004   7
   6   3  -7 2.15068 3.48893   2
   6   3  -7 -1.5260 17.2110   5
  -6  -3   7 1.26730 1.67648   7
  -6  -3   7 5.94018 2.09870   2
   5   3  -7 13.4535 4.36620   2
   5   3  -7 10.1227 15.4282   5
  -5  -3   7 9.39230 2.23415   2
  -5  -3   7 10.3770 5.02520   8
   4   3  -7 378.469 33.2002   2
  -4  -3   7 373.006 31.7261   2
  -4  -3   7 436.299 36.0771   8
   3   3  -7 1007.41 80.4824   2
   3   3  -7 1077.36 87.7871   1
  -3  -3   7 975.121 82.5076   8
  -3  -3   7 952.659 86.9993   1
  -3  -3   7 1001.30 79.1451   2
   2   3  -7 211.142 17.1464   4
   2   3  -7 205.325 18.8819   2
   2   3  -7 181.556 24.4887   1
  -2  -3   7 254.007 27.0300   1
  -2  -3   7 232.616 21.2397   8
   1   3  -7 522.563 47.0067   2
   1   3  -7 512.211 51.7505   1
   1   3  -7 630.475 45.6678   4
  -1  -3   7 636.816 46.2198   2
   0   3  -7 1450.38 110.189   1
   0   3  -7 1204.46 104.091   2
   0   3  -7 1257.92 102.802   4
   0  -3   7 1377.64 107.450   8
   0  -3   7 1441.81 110.912   1
   0  -3   7 1164.95 103.210   2
  -1   3  -7 73.6618 6.12355   4
  -1   3  -7 80.5660 7.87490   2
   1  -3   7 60.3965 6.64128   2
   1  -3   7 66.3646 10.6005   8
  -2   3  -7 826.756 67.2859   6
  -2   3  -7 765.875 61.8440   2
  -2   3  -7 806.056 60.5787   4
   2  -3   7 718.996 61.1511   2
   2  -3   7 730.071 66.2595   8
  -3   3  -7 1819.47 126.847   4
  -3   3  -7 1478.21 127.822   2
  -3   3  -7 1539.32 129.566   6
   3  -3   7 1705.66 127.704   2
   3  -3   7 1519.14 133.565   8
  -4   3  -7 9.13352 5.22259   2
  -4   3  -7 11.4949 6.67837   6
  -4   3  -7 18.1424 2.68607   4
   4  -3   7 26.0301 9.91670   8
   4  -3   7 11.5922 3.27846   2
  -5   3  -7 7.73820 7.24872   6
  -5   3  -7 3.85172 1.54433   4
   5  -3   7 2.50606 2.40765   2
   5  -3   7 7.43432 14.7271   5
   5  -3   7 -0.2881 6.36046   8
  -6   3  -7 16.6004 10.6690   6
  -6   3  -7 38.8069 4.04155   4
   6  -3   7 49.7433 6.08919   2
   6  -3   7 22.2425 10.4048   8
  -7   3  -7 13.6839 2.10530   4
   7  -3   7 13.2503 3.19451   2
   7  -3   7 9.86050 11.0098   8
  -8   3  -7 40.9927 3.85142   4
  10   2  -7 13.3851 3.82490   2
 -10  -2   7 3.27413 2.74580   7
   9   2  -7 182.586 17.0673   2
  -9  -2   7 162.205 14.6292   7
   8   2  -7 256.898 46.9934   5
   8   2  -7 258.846 23.3601   2
  -8  -2   7 242.359 20.9115   7
   7   2  -7 213.868 39.5233   5
  -7  -2   7 174.161 15.7341   2
  -7  -2   7 199.025 16.1036   7
   6   2  -7 191.691 17.4334   2
   6   2  -7 152.547 33.9691   5
  -6  -2   7 171.955 14.8593   7
  -6  -2   7 173.173 14.7566   2
   5   2  -7 16.8526 16.4211   5
   5   2  -7 19.8629 5.02590   2
  -5  -2   7 24.0044 6.88310   8
  -5  -2   7 17.7146 2.82218   2
   4   2  -7 389.142 31.6761   2
  -4  -2   7 362.064 29.7549   2
  -4  -2   7 362.221 33.3201   8
   3   2  -7 282.028 28.6566   1
   3   2  -7 268.065 22.5890   2
  -3  -2   7 251.947 20.7947   2
  -3  -2   7 290.410 33.9837   1
  -3  -2   7 216.234 23.5079   8
   2   2  -7 1.98066 6.12576   1
   2   2  -7 7.28476 1.09325   4
   2   2  -7 6.96299 3.08459   2
  -2  -2   7 5.44580 1.52667   2
  -2  -2   7 12.6984 7.98082   1
  -2  -2   7 7.64724 3.64372   8
   1   2  -7 242.791 21.6117   2
   1   2  -7 255.230 26.0788   1
   0   2  -7 651.645 53.3765   1
   0   2  -7 560.159 47.9139   2
   0  -2   7 523.322 46.6128   2
   0  -2   7 586.364 53.3767   1
   0  -2   7 630.953 50.5615   8
  -1   2  -7 240.085 22.8355   6
   1  -2   7 289.214 26.4683   8
   1  -2   7 282.418 22.2593   2
   1  -2   7 281.054 29.9990   1
  -2   2  -7 250.283 22.5285   2
  -2   2  -7 245.340 22.7164   6
   2  -2   7 256.834 26.3179   8
   2  -2   7 276.351 21.4767   2
  -3   2  -7 117.791 13.3396   6
  -3   2  -7 125.982 12.3280   2
   3  -2   7 120.916 11.1531   2
   3  -2   7 119.431 16.6629   8
  -4   2  -7 91.2415 13.5783   6
  -4   2  -7 133.677 12.2315   2
   4  -2   7 134.910 11.4256   2
   4  -2   7 123.533 21.3813   5
   4  -2   7 95.6690 16.6233   8
  -5   2  -7 392.040 29.9839   4
  -5   2  -7 345.304 34.1394   6
  -5   2  -7 351.665 31.3422   2
   5  -2   7 412.207 42.1344   5
   5  -2   7 377.884 38.3945   8
  -6   2  -7 862.357 70.5302   4
   6  -2   7 801.514 78.2916   8
   6  -2   7 1011.97 84.7770   5
   6  -2   7 929.142 71.9551   2
  -7   2  -7 96.7534 8.29623   4
   7  -2   7 94.9880 20.2806   8
  -8   2  -7 1.18040 1.31853   4
   8  -2   7 1.16417 1.91263   2
  10   1  -7 21.4734 4.66177   2
 -10  -1   7 18.5888 3.06654   7
   9   1  -7 438.764 33.0857   2
  -9  -1   7 325.376 30.4801   7
   8   1  -7 329.164 56.5775   5
   8   1  -7 460.164 35.7480   2
  -8  -1   7 387.175 33.0883   7
   7   1  -7 19.9834 22.6509   5
   7   1  -7 23.1716 6.00052   2
   6   1  -7 6.29484 18.8921   5
   6   1  -7 1.65606 3.35455   2
  -6  -1   7 2.52252 1.88196   7
   5   1  -7 102.025 11.1486   2
   5   1  -7 147.849 30.1387   5
  -5  -1   7 116.981 9.18720   7
  -5  -1   7 86.8349 8.69724   2
  -5  -1   7 103.799 13.0619   8
   4   1  -7 255.134 22.7751   2
  -4  -1   7 243.728 20.7417   2
  -4  -1   7 272.462 20.4360   3
   3   1  -7 1514.80 133.803   2
  -3  -1   7 1645.57 132.283   2
  -3  -1   7 1778.47 131.929   3
  -3  -1   7 1804.11 135.680   8
   2   1  -7 229.807 18.5710   2
  -2  -1   7 201.404 16.0625   3
  -2  -1   7 187.477 16.4868   2
   1   1  -7 47.9004 10.1261   1
   1   1  -7 50.3036 6.35638   2
  -1  -1   7 31.0499 8.70380   1
  -1  -1   7 33.0703 3.15168   3
  -1  -1   7 44.3600 3.96333   2
  -1  -1   7 35.6978 6.60759   8
   0   1  -7 29.2370 5.40147   2
   0   1  -7 25.0978 8.28251   1
   0  -1   7 23.2500 7.99190   1
   0  -1   7 27.1876 3.13794   2
  -1   1  -7 144.998 21.9040   1
  -1   1  -7 177.890 15.5433   6
   1  -1   7 203.265 23.5619   1
   1  -1   7 171.470 14.5371   2
  -2   1  -7 223.032 19.7230   6
  -2   1  -7 203.134 18.9897   2
   2  -1   7 203.429 17.9457   2
   2  -1   7 237.056 22.7132   8
  -3   1  -7 98.2718 12.0892   6
  -3   1  -7 79.3833 10.0165   2
   3  -1   7 101.208 9.41107   2
   3  -1   7 125.598 15.1650   8
  -4   1  -7 4.85430 5.93350   6
  -4   1  -7 2.56642 2.89671   2
   4  -1   7 5.25961 9.98624   5
   4  -1   7 1.51550 2.31345   2
   4  -1   7 1.40702 6.09809   8
  -5   1  -7 156.399 20.5914   6
   5  -1   7 230.609 30.0364   5
   5  -1   7 166.336 23.0167   8
   5  -1   7 203.928 16.8524   2
  -6   1  -7 437.449 36.5423   4
  -6   1  -7 431.760 38.2133   2
   6  -1   7 521.109 38.0927   2
   6  -1   7 390.787 43.7135   8
   6  -1   7 549.173 53.4191   5
  -7   1  -7 76.6661 7.29366   4
   7  -1   7 95.2455 9.07261   2
   8  -1   7 8.79593 2.48303   2
 -10   0   7 24.8885 3.54806   7
  -9   0   7 97.7480 9.26920   7
   8   0  -7 1.83625 3.37565   2
   8   0  -7 3.50165 26.0139   5
  -8   0   7 0.04049 2.03172   7
   7   0  -7 18.6202 23.4998   5
   7   0  -7 22.4849 5.49994   2
  -7   0   7 14.2752 2.99577   7
   6   0  -7 56.9853 22.3130   5
   6   0  -7 67.9205 9.00846   2
  -6   0   7 69.7884 6.14304   3
  -6   0   7 68.8619 6.85470   7
   5   0  -7 215.771 20.0846   2
  -5   0   7 245.339 17.7169   3
  -5   0   7 208.432 18.1324   7
  -5   0   7 206.087 21.8196   8
   4   0  -7 513.937 48.0857   2
  -4   0   7 567.465 46.1870   3
  -4   0   7 617.838 50.1149   8
  -4   0   7 644.671 46.7066   7
   3   0  -7 4109.84 315.075   2
  -3   0   7 3653.28 313.152   2
  -3   0   7 4256.13 316.412   8
   2   0  -7 891.029 72.5083   2
  -2   0   7 956.953 70.4458   3
  -2   0   7 982.366 73.6549   8
  -2   0   7 771.232 70.6647   2
   1   0  -7 436.930 37.1760   2
  -1   0   7 480.489 34.9603   3
  -1   0   7 415.669 35.3158   2
   0   0  -7 797.985 65.2587   2
   0   0   7 781.769 63.9658   2
   0   0   7 898.235 66.8991   8
   0   0   7 768.568 63.4533   3
  -1   0  -7 1162.29 85.1293   2
   1   0   7 1071.50 83.5949   2
   1   0   7 990.569 86.2741   8
   1   0   7 1015.63 82.9007   3
  -2   0  -7 1.11749 2.72960   2
   2   0   7 1.12816 1.47598   2
   2   0   7 3.37919 4.08847   8
  -3   0  -7 20.8566 4.94355   2
   3   0   7 33.2653 11.0290   5
   3   0   7 25.0252 4.04708   2
   3   0   7 26.8473 8.06458   8
  -4   0  -7 -0.3857 2.80764   2
   4   0   7 3.19205 7.22360   8
   4   0   7 -0.5684 2.01138   2
   4   0   7 4.71014 9.51749   5
  -5   0  -7 36.3181 6.04198   2
   5   0   7 30.6975 5.10430   2
   5   0   7 19.4579 10.4165   8
   5   0   7 23.7727 14.8556   5
   6   0   7 96.7282 28.2435   5
   6   0   7 75.0557 8.34879   2
  -7   0  -7 89.6002 8.67514   4
   7   0   7 120.819 10.0471   2
  10  -1  -7 25.2463 4.72058   2
 -10   1   7 21.5221 3.47446   7
   9  -1  -7 42.2556 6.65755   2
  -9   1   7 42.6503 5.32667   7
   8  -1  -7 528.079 41.6067   2
   8  -1  -7 449.599 65.6343   5
  -8   1   7 473.507 39.8087   7
   7  -1  -7 182.696 16.4505   2
   7  -1  -7 104.107 31.8683   5
  -7   1   7 165.147 14.4052   7
  -7   1   7 164.199 13.7083   3
   6  -1  -7 16.4618 4.31455   2
   6  -1  -7 19.6628 24.6902   5
  -6   1   7 10.9737 1.91776   3
  -6   1   7 19.8726 3.36042   7
   5  -1  -7 0.88823 2.75593   2
  -5   1   7 1.05759 1.49523   7
  -5   1   7 -0.5054 1.06175   3
   4  -1  -7 116.916 11.3570   2
  -4   1   7 110.138 9.56729   7
  -4   1   7 106.250 9.04742   3
  -4   1   7 106.481 12.4675   8
  -3   1   7 85.1756 10.8200   8
  -3   1   7 97.8582 8.50619   7
  -3   1   7 108.938 8.11234   3
   2  -1  -7 172.661 17.4744   2
  -2   1   7 216.936 18.4878   8
  -2   1   7 213.616 15.9786   7
  -2   1   7 177.642 15.5623   3
  -1   1   7 110.508 11.4076   8
  -1   1   7 111.220 9.26272   7
  -1   1   7 111.318 8.98343   3
   0  -1  -7 184.963 16.7531   2
   0   1   7 186.232 17.1352   8
   0   1   7 184.521 14.7976   3
   0   1   7 187.142 14.9853   7
  -1  -1  -7 604.945 47.9692   2
   1   1   7 593.193 45.8527   3
   1   1   7 536.223 48.0939   8
   1   1   7 599.182 46.4451   2
  -2  -1  -7 3.10170 3.09231   2
   2   1   7 3.24035 3.99522   8
   2   1   7 2.88819 0.80619   3
   2   1   7 2.67044 1.74283   2
  -3  -1  -7 34.8256 7.02314   2
   3   1   7 50.0801 4.16513   3
   3   1   7 50.4922 5.54016   2
  -4  -1  -7 227.477 21.8574   2
   4   1   7 251.025 20.5034   2
  -5  -1  -7 66.8163 8.80499   2
   5   1   7 76.6009 20.1278   5
   5   1   7 62.6106 7.14657   2
  -6  -1  -7 380.053 33.1135   2
   6   1   7 401.235 32.1420   2
  -7  -1  -7 152.719 13.5055   4
   7   1   7 179.527 14.3727   2
  10  -2  -7 3.47704 2.22920   2
 -10   2   7 1.33874 1.64239   7
   9  -2  -7 214.151 18.4822   2
  -9   2   7 197.523 17.4655   7
   8  -2  -7 417.362 34.3642   2
   8  -2  -7 316.781 59.9459   5
  -8   2   7 421.290 33.2421   7
   7  -2  -7 276.955 52.3676   5
   7  -2  -7 342.994 28.2194   2
  -7   2   7 335.751 26.1250   3
  -7   2   7 308.762 26.7296   7
   6  -2  -7 10.5358 3.74700   2
  -6   2   7 9.41376 2.36268   7
  -6   2   7 8.79172 1.73159   3
   5  -2  -7 122.405 12.5057   2
  -5   2   7 123.441 10.5127   3
  -5   2   7 132.258 11.1846   7
   4  -2  -7 88.3821 9.79279   2
  -4   2   7 92.5987 8.43020   7
  -4   2   7 98.1385 7.87802   3
   3  -2  -7 123.646 11.5116   2
  -3   2   7 105.360 9.82480   7
  -3   2   7 118.015 9.41803   3
   2  -2  -7 475.023 38.2258   2
  -2   2   7 468.207 36.2770   3
  -2   2   7 438.561 36.5983   7
  -1   2   7 484.164 34.5302   3
  -1   2   7 415.707 34.7152   7
  -1   2   7 412.756 36.2409   8
   0  -2  -7 1.27119 2.43816   2
   0   2   7 1.93365 0.80275   3
  -1  -2  -7 6.35496 3.22435   2
   1   2   7 7.06419 1.16908   3
   1   2   7 5.93632 1.52060   2
  -2  -2  -7 15.5431 4.50467   2
   2   2   7 19.0908 3.05192   2
   2   2   7 21.1775 2.23673   3
  -3  -2  -7 31.2924 6.15345   2
   3   2   7 18.1521 2.41037   3
   3   2   7 24.5281 3.68534   2
  -4  -2  -7 103.429 11.1508   2
   4   2   7 96.0739 8.83493   2
   4   2   7 81.7441 7.63899   3
  -5  -2  -7 -0.1238 3.12685   2
   5   2   7 -0.6265 2.00150   2
  -6  -2  -7 158.386 14.6593   2
   6   2   7 142.615 13.0692   2
   9  -3  -7 51.6665 5.77820   2
  -9   3   7 37.4371 5.04932   7
   8  -3  -7 5.49808 2.79627   2
  -8   3   7 5.60523 1.75551   3
  -8   3   7 1.37777 2.23586   7
   7  -3  -7 6.97547 2.78608   2
   7  -3  -7 0.58471 23.2957   5
  -7   3   7 2.36567 1.32486   3
  -7   3   7 2.17267 1.96144   7
   6  -3  -7 1.82622 2.41951   2
  -6   3   7 0.30507 1.87883   7
  -6   3   7 -0.3461 1.34404   3
   5  -3  -7 231.425 21.0166   2
  -5   3   7 242.189 19.9879   7
  -5   3   7 244.066 19.3145   3
   4  -3  -7 409.967 35.3561   2
  -4   3   7 440.769 33.7411   3
  -4   3   7 425.742 34.3439   7
   3  -3  -7 168.736 15.1939   2
  -3   3   7 169.554 13.3696   3
  -3   3   7 157.884 13.8309   7
  -2   3   7 161.426 13.4342   7
  -2   3   7 163.257 13.1176   3
   1  -3  -7 62.2344 6.73340   2
  -1   3   7 52.2358 4.88719   3
   0  -3  -7 370.885 31.4003   2
   0   3   7 379.126 29.7259   3
  -1  -3  -7 1658.62 128.694   2
   1   3   7 1578.61 126.762   3
  -2  -3  -7 359.009 30.3059   2
   2   3   7 346.747 28.0061   3
  -3  -3  -7 1.15256 3.34478   2
   3   3   7 1.57967 1.09140   3
  -4  -3  -7 6.90188 3.88606   2
   4   3   7 6.20778 1.40174   3
  -5  -3  -7 2.80895 3.45032   2
   5   3   7 0.87480 1.24609   3
  -6  -3  -7 48.2133 6.64241   2
  -9   4   7 1.43692 1.65342   7
  -8   4   7 64.7370 6.18446   3
  -8   4   7 75.2491 7.08597   7
   7  -4  -7 284.890 23.8071   2
  -7   4   7 282.035 22.7123   3
  -7   4   7 280.615 23.4564   7
   6  -4  -7 4.47070 2.46229   2
  -6   4   7 6.97309 1.78031   3
  -6   4   7 5.90284 2.08909   7
  -5   4   7 21.1281 2.49131   3
  -5   4   7 12.5007 2.60923   7
   4  -4  -7 28.5749 4.70834   2
  -4   4   7 27.9412 3.05811   3
  -4   4   7 28.0576 3.83768   7
   3  -4  -7 95.2740 9.91413   2
  -3   4   7 92.0218 8.59663   7
  -3   4   7 105.308 8.20504   3
   2  -4  -7 29.2010 5.21298   2
  -2   4   7 29.8813 3.07611   3
   1  -4  -7 57.5290 7.14791   2
  -1   4   7 72.1928 5.80088   3
   0  -4  -7 81.2697 8.68162   2
   0   4   7 75.3793 6.70798   3
  -1  -4  -7 672.966 54.0991   2
   1   4   7 651.503 52.1968   3
  -2  -4  -7 379.853 30.2549   2
   2   4   7 325.895 27.8981   3
  -3  -4  -7 13.6924 4.20771   2
   3   4   7 12.3706 1.88759   3
  -4  -4  -7 2.86878 2.86010   2
   4   4   7 4.51160 1.33641   3
  -5  -4  -7 0.19355 2.75940   2
   5   4   7 0.88700 1.23761   3
  -8   5   7 90.5730 8.44383   7
  -8   5   7 92.8389 7.76393   3
  -7   5   7 279.587 24.7973   7
  -7   5   7 325.255 24.1995   3
  -6   5   7 129.143 12.0228   7
  -6   5   7 144.320 11.3490   3
  -5   5   7 94.3794 8.24087   3
  -5   5   7 99.8748 8.96376   7
   4  -5  -7 489.968 38.8663   2
  -4   5   7 434.535 37.8735   7
  -4   5   7 496.430 37.4759   3
   3  -5  -7 95.4137 9.87010   2
  -3   5   7 97.0069 8.16074   3
   2  -5  -7 48.3130 6.36634   2
  -2   5   7 42.7980 4.30804   3
   1  -5  -7 238.773 21.1297   2
  -1   5   7 251.827 19.7335   3
   0  -5  -7 38.4360 5.61815   2
   0   5   7 32.4852 3.67159   3
  -1  -5  -7 21.7403 4.64852   2
   1   5   7 25.3774 2.95351   3
  -2  -5  -7 163.163 16.2183   2
   2   5   7 187.346 14.4110   3
  -3  -5  -7 148.822 13.6860   2
   3   5   7 132.599 11.4256   3
  -4  -5  -7 7.64076 3.19835   2
   4   5   7 3.97644 1.10855   3
  -7   6   7 5.22348 1.22921   3
  -7   6   7 4.53570 1.95344   7
  -6   6   7 45.2114 5.27610   7
  -6   6   7 52.0716 4.56223   3
  -5   6   7 70.0469 6.16444   3
  -4   6   7 356.914 28.3799   3
  -3   6   7 31.5092 3.36451   3
   2  -6  -7 250.620 22.6715   2
  -2   6   7 277.374 21.2402   3
  -1   6   7 384.591 30.5852   3
   0  -6  -7 28.7310 4.81030   2
   0   6   7 30.7699 3.26996   3
  -1  -6  -7 122.882 11.7986   2
   1   6   7 118.947 10.0419   3
  -2  -6  -7 388.538 29.4655   2
   2   6   7 312.079 27.5883   3
  -3  -6  -7 50.4031 5.86643   2
   3   6   7 41.3051 3.99134   3
  -6   7   7 177.709 14.3095   3
  -5   7   7 0.85236 1.11045   3
  -4   7   7 0.94843 0.99563   3
  -3   7   7 76.4476 6.56609   3
  -2   7   7 99.1156 8.31183   3
  -1   7   7 9.66916 1.58996   3
   0  -7  -7 2.08617 2.71381   2
   0   7   7 0.98992 1.04088   3
   1   7   7 63.8826 5.51295   3
  -2 -10   8 16.6478 2.63189   2
   1  10  -8 34.7475 4.12384   4
  -1 -10   8 42.8999 4.21613   2
   0  10  -8 0.68337 1.09915   4
   0 -10   8 0.80196 1.05345   2
  -1  10  -8 40.9992 3.88264   4
   1 -10   8 34.4484 3.74343   2
  -2  10  -8 1.80885 1.34861   4
  -4  -9   8 68.4423 6.92974   2
  -3  -9   8 147.895 12.9794   2
   2   9  -8 219.809 18.2964   4
  -2  -9   8 203.955 17.7049   2
   1   9  -8 338.509 28.2401   4
  -1  -9   8 364.635 28.6641   2
   0   9  -8 0.32639 1.24319   4
   0  -9   8 0.22731 1.33925   2
   0  -9   8 0.16057 8.52815   8
  -1   9  -8 26.0703 3.58383   4
   1  -9   8 27.0984 9.57489   8
   1  -9   8 29.6473 3.50075   2
  -2   9  -8 0.25119 1.52604   4
   2  -9   8 0.24919 1.03867   2
   2  -9   8 2.18732 7.38947   8
  -3   9  -8 6.90808 1.81674   4
   3  -9   8 4.95716 1.38782   2
  -4   9  -8 55.9832 5.27292   4
  -6  -8   8 29.4770 4.29312   2
  -5  -8   8 7.11916 2.44242   2
  -4  -8   8 5.68765 2.59626   2
  -3  -8   8 31.3218 4.47757   2
  -3  -8   8 25.4059 10.0370   8
   2   8  -8 423.268 32.5764   4
  -2  -8   8 361.202 38.1228   8
  -2  -8   8 427.208 33.3275   2
   1   8  -8 252.260 21.5906   4
  -1  -8   8 279.752 22.2176   2
   0   8  -8 1.96613 1.53463   4
   0  -8   8 -3.6511 5.90219   8
   0  -8   8 3.59349 1.94998   2
  -1   8  -8 1.43562 1.64170   4
   1  -8   8 -0.4775 5.77960   8
   1  -8   8 1.44988 1.56538   2
  -2   8  -8 1.50250 1.72196   4
   2  -8   8 1.31946 6.07595   8
   2  -8   8 0.84466 1.44329   2
  -3   8  -8 169.462 13.9873   4
   3  -8   8 174.958 22.1683   8
   3  -8   8 159.113 13.9672   2
  -4   8  -8 429.032 32.2374   4
   4  -8   8 414.073 32.2297   2
   4  -8   8 344.701 39.2619   8
  -5   8  -8 341.897 29.7399   4
   5  -8   8 401.679 29.8529   2
  -7  -7   8 39.4587 5.03371   2
  -6  -7   8 5.94326 2.38724   2
  -5  -7   8 278.987 23.6052   2
  -4  -7   8 194.054 16.5970   2
  -4  -7   8 180.224 21.5939   8
  -3  -7   8 51.2714 6.21842   2
   2   7  -8 -0.7630 1.24087   4
  -2  -7   8 1.51320 2.00189   2
  -2  -7   8 0.03910 4.86876   8
   1   7  -8 105.752 8.90056   4
  -1  -7   8 91.3991 9.49269   2
  -1  -7   8 115.117 15.9841   8
   0   7  -8 206.640 17.4083   4
   0  -7   8 168.705 23.3159   8
   0  -7   8 246.846 18.1960   2
  -1   7  -8 4.04790 1.65393   4
   1  -7   8 6.48791 6.06354   8
   1  -7   8 9.29238 2.28118   2
  -2   7  -8 71.5734 6.77843   4
   2  -7   8 62.9414 14.5496   8
   2  -7   8 76.3123 7.25402   2
  -3   7  -8 6.08848 1.91940   4
   3  -7   8 7.15326 2.21660   2
   3  -7   8 3.78611 7.88380   8
  -4   7  -8 192.391 16.1961   4
   4  -7   8 202.379 16.5316   2
   4  -7   8 185.862 25.3411   8
  -5   7  -8 6.62644 1.84553   4
   5  -7   8 5.60819 8.03034   8
   5  -7   8 10.6287 2.13434   2
  -6   7  -8 26.7085 3.22396   4
   6  -7   8 31.9367 3.39031   2
  -8  -6   8 2.35473 2.35556   2
   7   6  -8 271.949 23.6248   2
  -7  -6   8 274.610 22.9692   2
   6   6  -8 29.2568 5.58688   2
  -6  -6   8 33.0537 4.74075   2
  -6  -6   8 21.5111 3.63676   7
   5   6  -8 91.8860 10.3514   2
  -5  -6   8 94.1469 15.2103   8
  -5  -6   8 110.867 9.96864   2
   4   6  -8 133.678 13.3912   2
  -4  -6   8 160.993 13.1160   2
  -4  -6   8 126.207 17.5813   8
   3   6  -8 33.8577 6.15799   2
  -3  -6   8 47.3835 5.62921   2
  -3  -6   8 48.0765 10.4228   8
   2   6  -8 174.479 14.8542   4
  -2  -6   8 182.255 15.7793   2
  -2  -6   8 193.393 21.2627   8
   1   6  -8 599.647 48.1846   4
  -1  -6   8 553.886 53.9944   8
  -1  -6   8 664.160 49.0478   2
   0   6  -8 112.842 9.98348   4
   0  -6   8 116.167 16.7163   8
   0  -6   8 124.002 10.8640   2
  -1   6  -8 24.4469 3.04921   4
   1  -6   8 14.2498 7.07509   8
   1  -6   8 21.0512 3.85935   2
  -2   6  -8 32.6489 3.88067   4
   2  -6   8 39.8700 4.79475   2
   2  -6   8 19.7106 8.37337   8
  -3   6  -8 10.9706 2.25413   4
   3  -6   8 6.74635 2.48598   2
   3  -6   8 6.84459 7.25147   8
  -4   6  -8 19.8737 3.18116   4
   4  -6   8 13.3282 9.77610   8
   4  -6   8 23.3261 3.87445   2
  -5   6  -8 21.2978 3.20561   4
   5  -6   8 15.6526 10.8753   8
   5  -6   8 27.4353 3.98956   2
  -6   6  -8 5.46374 1.48237   4
   6  -6   8 8.45151 8.80690   8
   6  -6   8 10.8248 2.35349   2
  -7   6  -8 27.9985 2.98652   4
   8   5  -8 4.23798 3.16281   2
  -8  -5   8 3.88761 2.07190   2
  -8  -5   8 4.33366 1.98730   7
   7   5  -8 63.2140 7.96879   2
  -7  -5   8 57.0859 6.12455   2
  -7  -5   8 46.6555 5.57225   7
   6   5  -8 11.9499 4.32939   2
  -6  -5   8 20.1683 3.16555   7
  -6  -5   8 16.0800 3.46125   2
   5   5  -8 124.262 12.7669   2
  -5  -5   8 131.201 11.6205   2
  -5  -5   8 118.593 16.7948   8
   4   5  -8 0.03115 2.57596   2
  -4  -5   8 0.55965 1.97842   2
  -4  -5   8 -0.0086 4.01596   8
   3   5  -8 146.333 13.6830   2
  -3  -5   8 117.814 16.4395   8
  -3  -5   8 156.160 12.7672   2
   2   5  -8 165.081 14.4495   4
   2   5  -8 177.258 16.2011   2
  -2  -5   8 204.167 20.5577   8
   1   5  -8 1192.93 99.4517   4
   1   5  -8 1275.03 100.798   2
  -1  -5   8 1213.71 100.174   2
  -1  -5   8 1398.20 105.739   8
   0   5  -8 243.927 24.3555   2
   0   5  -8 331.339 23.5192   4
   0  -5   8 320.810 30.0132   8
   0  -5   8 277.670 24.1704   2
  -1   5  -8 204.759 16.5337   4
   1  -5   8 221.313 24.1514   8
   1  -5   8 188.639 17.2477   2
  -2   5  -8 84.2464 6.95239   4
   2  -5   8 79.2778 14.8096   8
   2  -5   8 65.0103 7.62990   2
  -3   5  -8 26.2606 3.45761   4
   3  -5   8 22.9987 9.58578   8
   3  -5   8 27.7086 4.60432   2
  -4   5  -8 19.7694 3.02113   4
   4  -5   8 15.1717 3.26072   2
   4  -5   8 16.0715 9.67678   8
  -5   5  -8 32.4997 4.03268   4
   5  -5   8 34.2986 13.0970   8
   5  -5   8 41.0911 5.17675   2
  -6   5  -8 10.6058 1.95444   4
   6  -5   8 10.9372 10.1630   8
   6  -5   8 13.6514 2.83448   2
  -7   5  -8 1.17541 0.99047   4
   7  -5   8 1.84305 1.56765   2
   9   4  -8 172.879 16.2299   2
   8   4  -8 17.4140 4.83458   2
  -8  -4   8 17.3717 2.95246   7
   7   4  -8 29.8461 6.39971   2
  -7  -4   8 26.8461 3.91255   7
  -7  -4   8 23.7153 3.89915   2
   6   4  -8 474.198 37.4198   2
   6   4  -8 393.472 64.4876   5
  -6  -4   8 419.513 35.3290   2
  -6  -4   8 451.342 35.1839   7
  -6  -4   8 407.703 40.6164   8
   5   4  -8 1027.73 82.9019   2
  -5  -4   8 944.983 85.9516   8
  -5  -4   8 1093.32 81.3649   2
   4   4  -8 206.568 18.4012   2
   4   4  -8 164.879 33.3724   5
  -4  -4   8 204.025 16.7783   2
  -4  -4   8 187.382 20.9857   8
   3   4  -8 34.0310 5.97022   2
  -3  -4   8 38.2400 4.43802   2
  -3  -4   8 32.6804 8.11909   8
   2   4  -8 13.8615 1.79182   4
   2   4  -8 12.3574 3.65284   2
  -2  -4   8 14.2865 2.66777   2
  -2  -4   8 14.5470 5.48816   8
   1   4  -8 -0.4249 0.84737   4
   1   4  -8 0.55321 2.19181   2
  -1  -4   8 -0.1824 3.53155   8
  -1  -4   8 -0.6301 1.42053   2
   0   4  -8 102.558 7.71969   4
   0   4  -8 78.6442 9.13954   2
   0  -4   8 85.2755 12.7688   8
   0  -4   8 85.0643 8.39408   2
  -1   4  -8 107.776 11.1969   2
  -1   4  -8 121.605 9.90138   4
   1  -4   8 119.727 10.7103   2
   1  -4   8 117.966 15.9016   8
  -2   4  -8 182.172 14.1957   4
  -2   4  -8 143.848 15.1614   2
   2  -4   8 188.003 21.7165   8
   2  -4   8 176.204 15.0993   2
  -3   4  -8 2.20857 1.45575   4
   3  -4   8 1.59630 5.42324   8
  -4   4  -8 214.320 16.4715   4
   4  -4   8 178.071 17.3657   2
   4  -4   8 207.216 25.5825   8
  -5   4  -8 69.8748 6.41625   4
   5  -4   8 45.4398 14.2443   8
   5  -4   8 74.8372 7.77906   2
  -6   4  -8 46.3953 4.93085   4
   6  -4   8 43.3832 13.4060   8
   6  -4   8 59.4785 6.38820   2
  -7   4  -8 86.5275 8.07985   4
   7  -4   8 107.231 9.21313   2
   9   3  -8 31.6775 6.19925   2
   8   3  -8 3.03310 3.69182   2
  -8  -3   8 3.79351 1.97819   7
   7   3  -8 304.231 26.4126   2
   7   3  -8 274.354 52.5047   5
  -7  -3   8 286.288 23.7562   2
  -7  -3   8 283.067 23.8747   7
   6   3  -8 245.397 23.4296   2
   6   3  -8 177.055 37.4700   5
  -6  -3   8 277.081 21.2537   2
  -6  -3   8 253.044 26.5471   8
  -6  -3   8 266.328 21.2157   7
   5   3  -8 195.129 37.5019   5
   5   3  -8 283.666 22.5387   2
  -5  -3   8 254.485 19.8775   2
  -5  -3   8 192.955 23.8413   8
   4   3  -8 64.6280 21.7912   5
   4   3  -8 100.965 11.3191   2
  -4  -3   8 107.589 9.27631   2
  -4  -3   8 107.172 13.5887   8
   3   3  -8 157.893 13.7729   2
  -3  -3   8 131.004 15.2063   8
  -3  -3   8 121.650 11.4613   2
   2   3  -8 97.8859 8.35252   4
   2   3  -8 108.198 10.9307   2
  -2  -3   8 94.0546 8.96726   2
  -2  -3   8 116.064 13.2277   8
   1   3  -8 966.051 74.9006   4
  -1  -3   8 939.933 75.4101   2
   0   3  -8 1338.27 105.456   2
   0   3  -8 1338.27 103.655   4
   0  -3   8 1219.28 104.113   2
   0  -3   8 1392.28 108.886   8
  -1   3  -8 717.629 57.3615   4
  -1   3  -8 704.071 59.0123   2
   1  -3   8 757.409 58.0462   2
  -2   3  -8 30.2786 5.73696   2
  -2   3  -8 38.4399 3.94008   4
   2  -3   8 34.2762 9.40318   8
  -3   3  -8 12.5529 3.74899   2
  -3   3  -8 15.3274 8.62750   6
  -3   3  -8 20.4699 2.91986   4
   3  -3   8 10.6357 3.09524   2
   3  -3   8 19.0078 8.52079   8
  -4   3  -8 236.842 17.0806   4
  -4   3  -8 162.799 22.9773   6
   4  -3   8 193.179 24.7343   8
   4  -3   8 204.805 18.0574   2
  -5   3  -8 19.2412 3.07442   4
   5  -3   8 23.3986 4.26208   2
   5  -3   8 15.2026 9.00880   8
  -6   3  -8 99.3020 8.71985   4
   6  -3   8 114.017 10.2190   2
   6  -3   8 73.4801 17.6148   8
  -7   3  -8 7.42040 1.66278   4
   7  -3   8 15.6614 3.20916   2
   9   2  -8 198.311 18.7939   2
  -9  -2   8 197.841 16.7173   7
   8   2  -8 165.045 16.5887   2
   8   2  -8 141.892 52.5935   5
  -8  -2   8 160.808 14.0920   7
   7   2  -8 4.18710 26.3370   5
   7   2  -8 8.22699 4.65904   2
  -7  -2   8 6.24483 2.37107   7
   6   2  -8 89.9727 10.8448   2
   6   2  -8 47.4175 25.1917   5
  -6  -2   8 76.7693 7.54908   2
  -6  -2   8 90.9819 7.96479   7
   5   2  -8 302.202 28.7907   2
  -5  -2   8 331.887 26.5204   2
  -5  -2   8 350.729 31.5771   8
  -5  -2   8 325.247 26.6521   7
   4   2  -8 26.1077 5.38713   2
  -4  -2   8 17.4955 5.40596   8
  -4  -2   8 29.2814 3.35748   2
   3   2  -8 55.3969 8.09258   2
  -3  -2   8 66.8048 9.60758   8
  -3  -2   8 59.7094 5.69742   2
   2   2  -8 5.33199 1.07704   4
   2   2  -8 7.41720 3.24931   2
  -2  -2   8 3.73022 1.46756   2
  -2  -2   8 3.24836 3.51597   8
   1   2  -8 757.067 59.8845   2
  -1  -2   8 715.070 57.9939   2
  -1  -2   8 724.557 61.6990   8
   0   2  -8 914.514 69.8392   2
   0  -2   8 869.530 67.9719   2
   0  -2   8 788.968 71.6341   8
   1  -2   8 69.5130 6.83468   2
  -2   2  -8 1.35282 3.09974   2
   2  -2   8 5.92684 5.53758   8
   2  -2   8 1.53720 1.97220   2
  -3   2  -8 200.141 17.3824   2
  -3   2  -8 176.706 19.2540   6
   3  -2   8 167.188 15.6666   2
  -4   2  -8 37.5483 10.5123   6
  -4   2  -8 41.4876 6.90019   2
   4  -2   8 52.9686 12.7537   8
   4  -2   8 50.4713 6.07387   2
  -5   2  -8 226.748 23.1731   2
  -5   2  -8 214.821 17.8989   4
   5  -2   8 192.500 25.5689   8
   5  -2   8 232.458 19.1519   2
  -6   2  -8 527.687 39.4289   4
   6  -2   8 451.755 46.9360   8
  -7   2  -8 86.2354 7.43629   4
  10   1  -8 1.00879 2.27767   2
 -10  -1   8 0.98865 1.49016   7
   9   1  -8 280.111 22.8737   2
  -9  -1   8 222.614 20.5271   7
   8   1  -8 101.231 35.5759   5
   8   1  -8 131.189 13.4106   2
  -8  -1   8 110.485 10.6843   7
   7   1  -8 160.050 15.4887   2
   7   1  -8 93.9703 32.8741   5
  -7  -1   8 140.040 12.6803   7
   6   1  -8 539.962 46.2275   2
  -6  -1   8 553.269 43.9496   7
   5   1  -8 913.906 75.5290   2
  -5  -1   8 959.226 77.9293   8
  -5  -1   8 996.454 73.4258   7
  -5  -1   8 839.627 72.9973   2
   4   1  -8 514.615 41.6068   2
  -4  -1   8 482.798 38.7030   3
  -4  -1   8 461.861 39.0443   2
  -4  -1   8 513.178 43.3162   8
  -3  -1   8 1198.26 92.6812   8
  -3  -1   8 1124.96 88.3568   3
  -3  -1   8 1065.65 88.7472   2
   2   1  -8 1.97084 3.11510   2
  -2  -1   8 0.85538 1.01333   2
  -2  -1   8 0.57539 0.48740   3
  -2  -1   8 1.45207 2.94006   8
   1   1  -8 36.3238 6.66096   2
  -1  -1   8 31.5256 6.73904   8
  -1  -1   8 29.9159 3.49822   2
   0   1  -8 2.25439 3.53973   2
   0  -1   8 3.41690 1.49814   2
   0  -1   8 8.58704 4.69487   8
  -1   1  -8 397.497 32.7005   2
   1  -1   8 385.373 34.4809   8
   1  -1   8 345.012 30.1653   2
  -2   1  -8 46.5301 11.9711   6
  -2   1  -8 34.4225 7.14803   2
   2  -1   8 46.6975 10.0662   8
   2  -1   8 40.8960 4.95345   2
  -3   1  -8 298.399 27.1095   6
   3  -1   8 257.733 23.7837   2
   3  -1   8 315.327 29.7974   8
  -4   1  -8 34.7639 6.78567   2
  -4   1  -8 30.0812 10.4115   6
   4  -1   8 23.9009 9.47055   8
   4  -1   8 43.5811 5.40090   2
  -5   1  -8 135.154 13.6310   2
   5  -1   8 136.056 12.2811   2
   5  -1   8 109.092 19.7580   8
  -6   1  -8 208.699 17.8327   4
   6  -1   8 228.741 18.9561   2
  -7   1  -8 7.35525 1.60569   4
   7  -1   8 15.6662 3.01870   2
 -10   0   8 41.4770 4.61421   7
   9   0  -8 6.33346 3.80570   2
  -9   0   8 1.62949 1.85500   7
   8   0  -8 10.7639 4.08617   2
   8   0  -8 17.3859 30.7288   5
  -8   0   8 12.4870 2.76138   7
   7   0  -8 25.9633 5.61632   2
   7   0  -8 38.2125 30.3605   5
  -7   0   8 32.5049 4.47510   7
   6   0  -8 697.064 53.1413   2
  -6   0   8 599.427 50.6879   7
  -6   0   8 614.034 50.1152   3
   5   0  -8 869.223 69.2615   2
  -5   0   8 875.068 66.5701   3
  -5   0   8 839.594 67.0971   7
  -5   0   8 797.529 70.9187   8
   4   0  -8 67.8368 9.00216   2
  -4   0   8 72.4343 10.2820   8
  -4   0   8 78.8377 6.94170   7
  -4   0   8 71.1172 6.24049   3
   3   0  -8 552.191 43.8256   2
  -3   0   8 473.862 41.3392   2
  -3   0   8 521.933 41.6117   7
  -3   0   8 498.570 44.6602   8
  -3   0   8 569.561 41.1704   3
   2   0  -8 106.912 11.5782   2
  -2   0   8 108.436 12.0529   8
  -2   0   8 105.197 8.48235   3
  -2   0   8 100.742 8.82696   2
   1   0  -8 118.204 12.4690   2
  -1   0   8 122.991 12.8963   8
  -1   0   8 113.638 9.31471   3
  -1   0   8 112.899 9.81704   2
   0   0  -8 1228.45 102.892   2
   0   0   8 1290.11 100.651   2
   0   0   8 1313.24 103.667   8
   1   0   8 1175.46 96.1184   2
   1   0   8 1263.62 99.4192   8
  -2   0  -8 20.4955 5.13144   2
   2   0   8 45.3467 9.16092   8
   2   0   8 33.4345 4.28851   2
  -3   0  -8 146.481 15.4057   2
   3   0   8 157.109 18.6322   8
   3   0   8 160.948 13.7817   2
  -4   0  -8 232.520 21.0281   2
  -4   0  -8 181.729 31.0271   6
   4   0   8 240.846 19.6206   2
   5   0   8 11.7609 3.03010   2
  -6   0  -8 46.9469 8.10801   2
   6   0   8 52.6792 6.00118   2
  -7   0  -8 63.5827 5.67919   4
 -10   1   8 4.34518 1.68751   7
   9  -1  -8 91.0484 9.43757   2
  -9   1   8 77.3508 8.03589   7
   8  -1  -8 104.718 11.1934   2
  -8   1   8 97.3147 9.50048   7
   7  -1  -8 -24.503 23.9547   5
   7  -1  -8 8.73188 3.86888   2
  -7   1   8 6.78455 1.81338   3
   6  -1  -8 4.80028 3.34133   2
   6  -1  -8 16.8124 26.4792   5
  -6   1   8 12.0010 2.60770   7
  -6   1   8 10.6186 2.05975   3
   5  -1  -8 78.5278 9.66802   2
  -5   1   8 85.0065 7.80484   7
  -5   1   8 79.9409 7.08194   3
   4  -1  -8 63.6962 7.91227   2
  -4   1   8 56.7050 5.68321   7
  -4   1   8 52.9626 5.04017   3
   3  -1  -8 80.6963 9.27374   2
  -3   1   8 65.4386 6.94200   7
  -3   1   8 77.3506 9.98493   8
  -3   1   8 89.9712 6.60150   3
   2  -1  -8 128.412 12.2206   2
  -2   1   8 105.651 12.1698   8
  -2   1   8 112.254 9.24223   3
  -2   1   8 112.165 9.65220   7
   1  -1  -8 142.187 14.4984   2
  -1   1   8 148.791 11.8908   7
  -1   1   8 154.575 11.5627   3
  -1   1   8 128.115 11.7748   2
  -1   1   8 144.599 14.4849   8
   0   1   8 2305.44 171.610   2
   0   1   8 2113.95 173.574   8
   0   1   8 2141.68 171.105   3
  -1  -1  -8 374.520 30.3819   2
   1   1   8 348.786 27.6741   3
   1   1   8 333.385 28.3032   2
  -2  -1  -8 -0.2175 3.30185   2
   2   1   8 1.29566 1.63967   2
  -3  -1  -8 225.730 20.7852   2
   3   1   8 220.022 18.7833   2
  -4  -1  -8 423.274 37.8540   2
   4   1   8 464.278 36.2877   2
  -5  -1  -8 2.87566 3.20503   2
   5   1   8 2.72401 2.14519   2
  -6  -1  -8 80.0166 10.7919   2
   6   1   8 94.6787 8.52240   2
   9  -2  -8 200.727 16.8152   2
  -9   2   8 174.854 15.8626   7
   8  -2  -8 185.593 15.8277   2
  -8   2   8 152.306 14.5015   7
   7  -2  -8 10.1932 27.7759   5
   7  -2  -8 32.6001 5.69032   2
  -7   2   8 30.1324 4.41712   7
  -7   2   8 27.9510 3.46810   3
   6  -2  -8 209.605 19.3421   2
  -6   2   8 215.615 17.9391   7
  -6   2   8 208.440 17.2088   3
   5  -2  -8 943.907 76.7283   2
  -5   2   8 967.712 75.2723   7
  -5   2   8 933.690 74.6326   3
   4  -2  -8 497.119 39.3803   2
  -4   2   8 470.109 37.7272   7
  -4   2   8 443.929 37.1314   3
   3  -2  -8 27.3305 5.54735   2
  -3   2   8 28.4530 2.81523   3
  -3   2   8 25.7482 3.35624   7
   2  -2  -8 32.0504 5.92351   2
  -2   2   8 26.6756 2.62413   3
  -2   2   8 22.1573 2.98563   7
  -1   2   8 16.1061 1.94479   3
   0  -2  -8 34.7327 5.70909   2
   0   2   8 26.0175 2.74347   3
  -1  -2  -8 411.032 35.7480   2
   1   2   8 433.787 33.4397   3
  -2  -2  -8 199.441 17.0587   2
   2   2   8 156.551 13.8886   3
  -3  -2  -8 60.9627 8.54736   2
   3   2   8 57.4919 5.09140   3
  -4  -2  -8 62.6788 8.75381   2
  -5  -2  -8 27.1583 5.67269   2
  -9   3   8 11.5358 2.41086   7
   8  -3  -8 33.0389 5.18571   2
  -8   3   8 32.9119 4.49531   7
   7  -3  -8 1.59525 2.27099   2
  -7   3   8 0.60005 1.82734   7
  -7   3   8 0.72497 1.20176   3
   6  -3  -8 79.6270 8.36247   2
  -6   3   8 62.1537 6.93586   7
  -6   3   8 69.0991 6.26395   3
   5  -3  -8 381.302 30.9041   2
  -5   3   8 372.941 28.8818   3
  -5   3   8 334.724 29.4403   7
   4  -3  -8 7.54602 3.14069   2
  -4   3   8 2.81767 1.16041   3
  -4   3   8 3.05561 1.59710   7
   3  -3  -8 106.248 10.7544   2
  -3   3   8 94.7817 8.90610   7
  -3   3   8 104.399 8.45956   3
   2  -3  -8 344.570 29.4839   2
  -2   3   8 343.244 27.2868   3
  -1   3   8 239.575 19.1443   3
   0  -3  -8 204.583 17.2029   2
   0   3   8 170.314 14.8588   3
  -1  -3  -8 495.198 42.1402   2
   1   3   8 516.377 39.9806   3
  -2  -3  -8 187.909 18.1278   2
   2   3   8 198.445 15.6416   3
  -3  -3  -8 69.0882 8.53433   2
   3   3   8 55.5844 5.17266   3
  -4  -3  -8 77.6911 9.53247   2
  -5  -3  -8 75.3971 8.94821   2
  -8   4   8 54.7215 5.92776   7
  -8   4   8 60.1552 5.18158   3
  -7   4   8 178.620 14.7705   3
  -7   4   8 184.144 15.4851   7
   6  -4  -8 2.02117 2.47223   2
  -6   4   8 4.00510 1.30868   3
  -6   4   8 5.63571 2.11280   7
   5  -4  -8 1.02363 2.46345   2
  -5   4   8 -0.5144 1.20134   3
  -5   4   8 1.83530 1.69085   7
   4  -4  -8 39.4936 5.78818   2
  -4   4   8 40.3270 4.56640   7
  -4   4   8 43.6580 3.99843   3
   3  -4  -8 2.94371 2.76432   2
  -3   4   8 5.15641 1.35875   3
   2  -4  -8 206.235 17.9435   2
  -2   4   8 183.728 15.6016   3
  -1   4   8 24.9506 2.81501   3
   0  -4  -8 27.4412 5.20600   2
   0   4   8 23.2894 2.73224   3
  -1  -4  -8 2.60886 2.66132   2
   1   4   8 4.26319 1.25211   3
  -2  -4  -8 36.1947 6.51813   2
   2   4   8 43.5253 3.87671   3
  -3  -4  -8 90.1904 9.58574   2
   3   4   8 75.6759 6.73098   3
  -4  -4  -8 284.424 24.6834   2
  -7   5   8 6.21399 1.92645   7
  -7   5   8 8.05194 1.36086   3
  -6   5   8 8.58770 2.05047   7
  -6   5   8 7.83277 1.45251   3
  -5   5   8 292.660 23.9450   7
  -5   5   8 285.666 23.1141   3
   4  -5  -8 387.133 32.8963   2
  -4   5   8 405.778 31.4886   3
   3  -5  -8 232.319 20.2646   2
  -3   5   8 227.849 18.4800   3
   2  -5  -8 2.04169 2.68558   2
  -2   5   8 0.49327 1.17519   3
   1  -5  -8 78.7397 9.19167   2
  -1   5   8 75.0987 6.62176   3
   0   5   8 114.687 9.51649   3
  -1  -5  -8 141.641 13.3069   2
   1   5   8 133.818 11.2205   3
  -2  -5  -8 132.187 12.7254   2
   2   5   8 128.439 10.5894   3
  -3  -5  -8 -0.7993 2.22354   2
   3   5   8 0.64600 0.87053   3
  -6   6   8 8.48737 1.51821   3
  -5   6   8 173.500 14.0719   3
  -4   6   8 207.323 16.6846   3
  -3   6   8 37.9545 3.72219   3
   2  -6  -8 2.77338 2.79956   2
  -2   6   8 5.78135 1.36814   3
   1  -6  -8 28.2071 5.16035   2
  -1   6   8 25.8418 2.93652   3
   0  -6  -8 114.009 11.1597   2
   0   6   8 100.224 8.76368   3
   1   6   8 75.7482 6.37988   3
  -3   7   8 118.000 9.65881   3
  -2   7   8 0.84642 0.95777   3
  -1   7   8 26.8761 2.69115   3
  -1 -10   9 56.1872 5.34900   2
   0 -10   9 7.08930 1.56108   2
  -4  -9   9 0.80389 1.58312   2
  -3  -9   9 29.9652 4.04349   2
  -2  -9   9 198.149 16.7323   2
   1   9  -9 226.804 20.6423   4
  -1  -9   9 285.720 21.2754   2
   0   9  -9 2.98142 1.47770   4
   0  -9   9 5.10279 1.75847   2
  -1   9  -9 10.0336 1.98420   4
   1  -9   9 11.0768 2.09126   2
  -2   9  -9 64.5992 6.42983   4
   2  -9   9 76.8987 6.55826   2
  -3   9  -9 35.7010 4.02123   4
   3  -9   9 42.4443 3.99840   2
  -5  -8   9 82.2521 7.55774   7
  -4  -8   9 40.6997 5.29861   2
  -3  -8   9 115.761 19.2518   8
  -3  -8   9 167.790 13.4428   2
  -2  -8   9 363.099 38.7893   8
  -2  -8   9 454.349 33.9433   2
   1   8  -9 102.228 9.42695   4
  -1  -8   9 117.615 10.2075   2
  -1  -8   9 107.291 16.4506   8
   0   8  -9 77.3053 7.26061   4
   0  -8   9 79.9152 7.82865   2
   0  -8   9 90.4881 14.8628   8
  -1   8  -9 219.582 18.7026   4
   1  -8   9 213.554 25.8467   8
   1  -8   9 245.436 19.1621   2
  -2   8  -9 227.282 17.9485   4
   2  -8   9 210.219 18.1110   2
   2  -8   9 214.444 25.5860   8
  -3   8  -9 11.9786 2.24663   4
   3  -8   9 14.9444 2.54363   2
   3  -8   9 10.4339 8.01354   8
  -4   8  -9 99.6171 8.82054   4
   4  -8   9 102.670 8.82052   2
  -7  -7   9 357.931 29.2975   2
  -6  -7   9 45.4613 4.90119   7
  -5  -7   9 5.50599 8.20348   8
  -4  -7   9 2.35756 6.27591   8
  -4  -7   9 4.06766 2.47798   2
  -3  -7   9 41.4997 10.6729   8
  -3  -7   9 42.8886 5.65677   2
   2   7  -9 25.0809 3.26879   4
  -2  -7   9 30.6761 4.54548   2
  -2  -7   9 27.8876 8.47497   8
   1   7  -9 340.062 27.3820   4
  -1  -7   9 375.219 28.2950   2
  -1  -7   9 294.540 33.5886   8
   0   7  -9 1.58074 1.48032   4
   0  -7   9 1.18515 5.65361   8
   0  -7   9 3.94337 2.32323   2
  -1   7  -9 158.962 15.0722   4
   1  -7   9 190.601 23.4351   8
   1  -7   9 202.737 15.9344   2
  -2   7  -9 52.4688 5.38939   4
   2  -7   9 51.6234 13.5717   8
   2  -7   9 55.2457 5.94424   2
  -3   7  -9 89.5582 8.34456   4
   3  -7   9 108.960 8.99721   2
   3  -7   9 63.6936 16.3977   8
  -4   7  -9 29.0602 3.59899   4
   4  -7   9 20.6354 10.4197   8
   4  -7   9 31.0907 3.95747   2
  -5   7  -9 -1.1609 1.15555   4
   5  -7   9 0.82844 1.22590   2
   6   6  -9 23.4696 5.06913   2
  -6  -6   9 18.1657 3.29264   7
  -6  -6   9 28.2764 4.21950   2
   5   6  -9 8.02857 3.41204   2
  -5  -6   9 10.5022 7.37786   8
  -5  -6   9 9.88333 2.98176   2
   4   6  -9 17.8044 4.39971   2
  -4  -6   9 21.5916 4.11228   2
  -4  -6   9 22.1271 7.45995   8
   3   6  -9 9.67329 3.61966   2
  -3  -6   9 10.8203 2.86113   2
  -3  -6   9 3.63396 5.49654   8
   2   6  -9 499.388 42.8818   4
  -2  -6   9 583.810 49.8567   8
  -2  -6   9 550.127 43.8618   2
  -1  -6   9 1255.09 101.003   8
  -1  -6   9 1136.42 94.5653   2
   0   6  -9 241.764 21.7053   4
   0  -6   9 262.479 29.0034   8
   0  -6   9 302.487 22.8161   2
  -1   6  -9 55.8027 5.61513   4
   1  -6   9 62.1725 6.72410   2
   1  -6   9 56.6409 13.1204   8
  -2   6  -9 44.4953 4.59221   4
   2  -6   9 36.5203 5.45015   2
   2  -6   9 55.7949 13.2968   8
  -3   6  -9 143.371 11.6458   4
   3  -6   9 127.533 20.2471   8
   3  -6   9 131.116 12.3176   2
  -4   6  -9 21.3026 3.09131   4
   4  -6   9 23.5657 3.81893   2
   4  -6   9 5.66636 8.49278   8
  -5   6  -9 29.9166 3.63765   4
   5  -6   9 33.6699 4.23000   2
   5  -6   9 26.2323 11.2026   8
  -6   6  -9 35.2345 4.03320   4
   6  -6   9 49.5418 4.71480   2
   8   5  -9 -1.1802 2.75907   2
  -8  -5   9 1.19973 1.60501   7
   7   5  -9 8.94462 3.71590   2
  -7  -5   9 8.40447 2.37269   2
  -7  -5   9 11.7496 2.46898   7
   6   5  -9 16.4832 4.37826   2
  -6  -5   9 20.5659 3.63524   2
  -6  -5   9 24.2212 3.62354   7
   5   5  -9 19.8502 4.66073   2
  -5  -5   9 15.6898 3.07064   2
  -5  -5   9 19.6862 7.63415   8
   4   5  -9 52.6338 7.56951   2
  -4  -5   9 50.9814 10.7632   8
  -4  -5   9 60.1719 6.37387   2
   3   5  -9 -0.6985 2.70548   2
  -3  -5   9 -1.3237 1.71498   2
  -3  -5   9 1.76353 4.09139   8
   2   5  -9 94.3293 9.24566   4
   2   5  -9 111.450 11.3634   2
  -2  -5   9 128.124 10.5279   2
  -2  -5   9 120.707 15.5404   8
   1   5  -9 74.2406 8.04537   2
   1   5  -9 64.2367 5.75660   4
  -1  -5   9 63.3028 11.4759   8
  -1  -5   9 56.6368 6.73583   2
   0   5  -9 49.3557 7.05565   2
   0   5  -9 57.1789 5.28954   4
   0  -5   9 58.6188 6.36357   2
   0  -5   9 56.7324 11.6363   8
  -1   5  -9 66.9016 6.01856   4
   1  -5   9 82.1099 13.6127   8
   1  -5   9 55.0581 6.97151   2
  -2   5  -9 621.389 48.1231   4
   2  -5   9 558.090 48.8978   2
   2  -5   9 646.906 56.8913   8
  -3   5  -9 323.338 25.9158   4
   3  -5   9 310.145 26.8260   2
   3  -5   9 332.512 35.0646   8
  -4   5  -9 1.13096 1.67313   4
   4  -5   9 -0.0024 1.95960   2
   4  -5   9 0.49653 7.56103   8
  -5   5  -9 2.62454 1.49996   4
   5  -5   9 2.46596 2.11799   2
   5  -5   9 0.14692 7.72198   8
  -6   5  -9 14.7508 2.35708   4
   6  -5   9 14.7103 2.87524   2
   9   4  -9 1.44705 2.81846   2
   8   4  -9 2.03006 3.06380   2
  -8  -4   9 2.96991 1.74666   7
   7   4  -9 262.884 24.5920   2
  -7  -4   9 268.074 22.5397   7
  -7  -4   9 284.471 22.5691   2
   6   4  -9 359.044 32.6934   2
  -6  -4   9 395.483 30.8020   2
  -6  -4   9 373.798 36.4161   8
  -6  -4   9 375.497 30.6590   7
   5   4  -9 146.324 14.3792   2
  -5  -4   9 123.952 17.0718   8
  -5  -4   9 138.658 12.1227   2
   4   4  -9 1.34362 3.02981   2
  -4  -4   9 0.32093 3.82699   8
  -4  -4   9 1.89283 1.71505   2
   3   4  -9 9.26279 4.08375   2
  -3  -4   9 10.0929 2.51769   2
  -3  -4   9 14.8718 5.68888   8
   2   4  -9 90.4039 8.50029   4
   2   4  -9 109.486 11.1876   2
  -2  -4   9 96.8046 13.7373   8
  -2  -4   9 116.803 9.58826   2
   1   4  -9 1.19531 1.02783   4
   1   4  -9 0.16607 2.74656   2
  -1  -4   9 1.90498 3.95661   8
  -1  -4   9 1.49382 1.73114   2
   0   4  -9 11.4378 3.85791   2
   0   4  -9 15.4455 2.28209   4
   0  -4   9 15.3501 6.68254   8
  -1   4  -9 -1.4491 2.48355   2
  -1   4  -9 3.34313 1.41174   4
   1  -4   9 0.41939 1.95794   2
   1  -4   9 2.12920 4.96163   8
  -2   4  -9 484.950 36.7514   4
  -2   4  -9 419.111 37.9150   2
   2  -4   9 485.890 44.5405   8
   2  -4   9 454.170 37.6053   2
  -3   4  -9 3.35935 1.78567   4
   3  -4   9 4.11433 2.63808   2
   3  -4   9 2.25342 7.14687   8
  -4   4  -9 5.34074 1.87126   4
   4  -4   9 4.64530 2.61001   2
   4  -4   9 2.87541 7.54445   8
  -5   4  -9 37.7581 4.12746   4
   5  -4   9 37.3336 5.38535   2
   5  -4   9 34.2561 11.8011   8
  -6   4  -9 5.85331 1.51316   4
   6  -4   9 10.3746 2.78755   2
   9   3  -9 15.1550 4.18111   2
  -9  -3   9 8.73728 2.04820   7
   8   3  -9 10.7066 4.48380   2
  -8  -3   9 5.88611 1.95961   7
   7   3  -9 120.262 44.4771   5
   7   3  -9 160.432 15.8740   2
  -7  -3   9 145.924 13.1109   7
   6   3  -9 226.623 52.8794   5
   6   3  -9 318.118 27.9937   2
  -6  -3   9 311.056 25.3998   7
  -6  -3   9 299.496 30.7049   8
  -6  -3   9 322.205 25.2827   2
   5   3  -9 98.9605 30.6910   5
   5   3  -9 155.658 15.5046   2
  -5  -3   9 142.831 12.4819   2
  -5  -3   9 150.090 17.7944   8
   4   3  -9 179.102 17.2828   2
   4   3  -9 119.525 29.4759   5
  -4  -3   9 174.033 14.7730   2
  -4  -3   9 189.605 19.7787   8
   3   3  -9 836.422 64.2076   2
  -3  -3   9 763.162 61.8422   2
  -3  -3   9 739.932 66.0830   8
   2   3  -9 445.273 37.7134   4
   2   3  -9 564.481 40.8488   2
  -2  -3   9 432.935 42.2886   8
   1   3  -9 17.0697 4.70234   2
   1   3  -9 15.6910 2.24946   4
  -1  -3   9 14.8008 5.71790   8
  -1  -3   9 19.6820 3.14105   2
   0   3  -9 21.8331 2.87809   4
   0   3  -9 18.7018 4.49518   2
   0  -3   9 25.2977 3.66281   2
   0  -3   9 27.9059 8.06626   8
  -1   3  -9 124.186 9.76745   4
  -1   3  -9 104.276 11.8357   2
   1  -3   9 112.578 10.3875   2
   1  -3   9 104.459 15.1534   8
  -2   3  -9 210.651 20.7054   2
  -2   3  -9 236.317 18.9285   4
   2  -3   9 247.769 26.0969   8
   2  -3   9 232.925 19.7461   2
  -3   3  -9 525.036 39.4021   4
  -3   3  -9 441.540 40.7541   2
   3  -3   9 504.244 40.2896   2
   3  -3   9 500.137 46.9412   8
  -4   3  -9 176.380 14.7796   4
   4  -3   9 186.211 15.9191   2
   4  -3   9 162.316 22.4812   8
  -5   3  -9 26.1098 3.42692   4
   5  -3   9 31.5463 4.93379   2
   5  -3   9 18.3125 10.1109   8
  -6   3  -9 3.65329 1.40447   4
   6  -3   9 6.78765 2.51919   2
   9   2  -9 17.6021 4.82553   2
  -9  -2   9 11.2822 2.38140   7
   8   2  -9 3.57775 3.68496   2
  -8  -2   9 0.94763 1.66868   7
   7   2  -9 27.7994 36.2071   5
   7   2  -9 57.9133 8.79867   2
  -7  -2   9 42.2490 5.30344   7
   6   2  -9 1.24441 3.74656   2
   6   2  -9 -17.679 27.2766   5
  -6  -2   9 7.12624 2.11290   7
   5   2  -9 3.40445 3.82919   2
   5   2  -9 6.03038 24.3548   5
  -5  -2   9 11.8115 5.90582   8
  -5  -2   9 10.5314 2.36058   7
  -5  -2   9 5.92236 1.78011   2
   4   2  -9 2.44092 3.67239   2
  -4  -2   9 2.16359 4.11439   8
  -4  -2   9 1.84119 1.36502   2
   3   2  -9 73.9240 9.80704   2
  -3  -2   9 66.2120 10.7203   8
  -3  -2   9 79.2617 6.96762   2
   2   2  -9 46.7999 7.50502   2
   2   2  -9 40.8889 3.73839   4
  -2  -2   9 33.7371 4.19755   2
  -2  -2   9 44.5127 8.42470   8
   1   2  -9 63.1252 8.80857   2
  -1  -2   9 63.2314 5.94442   2
  -1  -2   9 51.6072 9.59408   8
   0   2  -9 163.978 14.8479   2
   0  -2   9 117.970 15.8821   8
   0  -2   9 134.460 11.9101   2
  -1   2  -9 64.0929 8.92964   2
   1  -2   9 45.5161 10.3150   8
   1  -2   9 57.1969 6.02717   2
  -2   2  -9 1242.58 96.9376   2
   2  -2   9 1169.71 100.401   8
   2  -2   9 1185.19 95.0449   2
  -3   2  -9 849.756 72.1371   2
   3  -2   9 978.693 70.9581   2
   3  -2   9 821.460 76.2516   8
  -4   2  -9 146.990 11.6675   4
  -4   2  -9 129.011 13.5959   2
   4  -2   9 120.894 18.6869   8
  -5   2  -9 5.04514 1.94891   4
   5  -2   9 9.36843 2.81927   2
   5  -2   9 4.57895 9.31285   8
  -6   2  -9 22.4071 2.90479   4
   9   1  -9 1.72872 2.93534   2
  -9  -1   9 1.94665 1.78271   7
   8   1  -9 0.57369 3.21918   2
  -8  -1   9 -0.9196 1.60120   7
   7   1  -9 19.3781 31.4891   5
   7   1  -9 27.9585 6.37228   2
  -7  -1   9 35.7154 4.63377   7
   6   1  -9 621.883 52.6385   2
   6   1  -9 518.288 73.6622   5
  -6  -1   9 677.493 50.3234   7
   5   1  -9 840.470 70.6868   2
  -5  -1   9 912.739 68.3877   7
  -5  -1   9 822.071 72.8299   8
   4   1  -9 18.6221 5.60749   2
  -4  -1   9 17.5459 5.76053   8
  -4  -1   9 21.2056 3.26613   7
  -4  -1   9 12.0442 2.32170   2
   3   1  -9 222.490 20.3708   2
  -3  -1   9 198.760 16.9022   3
  -3  -1   9 201.804 17.3992   2
  -3  -1   9 242.630 22.1297   8
   2   1  -9 173.320 16.5841   2
  -2  -1   9 166.886 17.5702   8
  -2  -1   9 153.797 13.5266   2
   1   1  -9 18.2970 5.40939   2
  -1  -1   9 11.5424 4.61452   8
  -1  -1   9 16.1197 2.56922   2
   0   1  -9 184.864 17.8460   2
   0  -1   9 171.397 18.7537   8
   0  -1   9 170.739 14.7131   2
  -1   1  -9 60.3908 9.33108   2
   1  -1   9 48.2165 10.3059   8
   1  -1   9 57.8637 5.90771   2
  -2   1  -9 110.659 13.3060   2
   2  -1   9 125.664 15.8819   8
   2  -1   9 106.748 10.3351   2
  -3   1  -9 104.015 12.2173   2
   3  -1   9 103.785 9.68119   2
   3  -1   9 85.9783 15.2907   8
  -4   1  -9 38.7591 7.62551   2
   4  -1   9 46.2164 5.70116   2
   4  -1   9 36.9432 11.3027   8
  -5   1  -9 12.0629 2.48741   4
   5  -1   9 12.2367 2.96728   2
  -6   1  -9 2.71858 1.42714   4
   6  -1   9 4.70920 2.14130   2
   9   0  -9 -1.2073 2.45859   2
  -9   0   9 0.94673 1.76402   7
   8   0  -9 11.1204 4.24916   2
  -8   0   9 8.21803 2.65200   7
   7   0  -9 28.5760 6.26775   2
   7   0  -9 8.80701 31.0283   5
  -7   0   9 27.1343 4.21899   7
   6   0  -9 142.546 14.4546   2
   6   0  -9 75.3442 34.4334   5
  -6   0   9 135.745 11.9588   7
   5   0  -9 329.275 26.6630   2
  -5   0   9 277.981 23.8862   7
  -5   0   9 275.633 23.2611   3
   4   0  -9 0.47137 2.98939   2
  -4   0   9 2.29892 1.50739   7
  -4   0   9 -0.7258 3.61504   8
  -4   0   9 1.41967 0.95245   3
   3   0  -9 683.399 53.9391   2
  -3   0   9 611.003 50.8164   3
  -3   0   9 659.621 51.4027   7
  -3   0   9 635.737 54.9619   8
  -2   0   9 511.217 45.6367   2
  -2   0   9 553.995 45.3059   3
  -2   0   9 642.004 45.9263   7
  -2   0   9 604.124 49.4953   8
   1   0  -9 60.2494 9.46466   2
  -1   0   9 69.2002 6.12266   2
  -1   0   9 63.3633 9.51477   8
   0   0  -9 1194.07 93.6884   2
   0   0   9 1107.99 93.7974   8
   0   0   9 1150.60 90.7494   2
  -1   0  -9 460.757 39.3239   2
   1   0   9 486.287 36.2816   2
   1   0   9 397.639 39.0849   8
  -2   0  -9 19.4924 6.31572   2
   2   0   9 26.5816 7.45590   8
   2   0   9 21.7602 3.76015   2
  -3   0  -9 129.136 15.8086   2
   3   0   9 154.959 13.0928   2
  -4   0  -9 77.8386 11.0106   2
   4   0   9 89.2316 8.55475   2
  -5   0  -9 25.6581 6.03382   2
   5   0   9 32.8595 4.34704   2
  -6   0  -9 33.6685 3.79899   4
   6   0   9 38.3665 4.49766   2
   9  -1  -9 26.6822 4.86145   2
  -9   1   9 27.2996 3.86163   7
   8  -1  -9 0.53847 2.68901   2
  -8   1   9 0.90079 1.87275   7
   7  -1  -9 24.4617 5.20569   2
   7  -1  -9 28.1713 33.2464   5
  -7   1   9 20.8669 3.48217   7
   6  -1  -9 4.89031 3.69806   2
   6  -1  -9 15.1701 29.7172   5
  -6   1   9 2.00991 1.33869   3
  -6   1   9 0.70388 1.66578   7
   5  -1  -9 108.591 12.1876   2
  -5   1   9 100.159 9.31893   3
  -5   1   9 123.932 10.1676   7
   4  -1  -9 6.24767 3.83736   2
  -4   1   9 9.76590 1.61765   3
  -4   1   9 10.7166 2.29121   7
   3  -1  -9 55.6503 7.83417   2
  -3   1   9 45.3446 4.36162   3
  -3   1   9 52.6433 8.75998   8
  -3   1   9 47.4591 4.98239   7
  -2   1   9 371.230 33.6049   8
  -2   1   9 399.170 30.7193   7
  -2   1   9 375.155 30.2210   3
   1  -1  -9 39.4661 7.25066   2
  -1   1   9 30.8794 6.51024   8
  -1   1   9 31.3812 3.41759   7
  -1   1   9 31.4023 2.97599   3
   0   1   9 170.594 13.7772   3
   1   1   9 8.74811 2.18891   2
   2   1   9 46.4922 5.21906   2
   3   1   9 636.671 50.9457   2
   4   1   9 309.957 25.4596   2
  -5  -1  -9 19.3757 5.41115   2
   9  -2  -9 3.32759 2.23538   2
  -9   2   9 1.57345 1.65690   7
   8  -2  -9 22.4950 4.41638   2
  -8   2   9 17.2170 3.14920   7
   7  -2  -9 37.0616 6.07749   2
  -7   2   9 30.7260 4.40363   7
  -7   2   9 32.3207 3.56932   3
   6  -2  -9 51.3879 7.37057   2
  -6   2   9 55.8967 5.14390   3
  -6   2   9 54.3031 5.90982   7
   5  -2  -9 655.498 52.5505   2
  -5   2   9 610.321 50.7943   7
  -5   2   9 642.706 50.2163   3
   4  -2  -9 195.632 19.0577   2
  -4   2   9 216.996 17.4295   7
  -4   2   9 208.457 16.8060   3
   3  -2  -9 252.598 22.0927   2
  -3   2   9 236.318 19.5051   3
  -3   2   9 244.509 20.0402   7
   2  -2  -9 181.551 16.7293   2
  -2   2   9 167.022 13.7706   3
  -2   2   9 167.202 14.1441   7
   1  -2  -9 101.723 11.5960   2
  -1   2   9 98.9423 8.24035   3
   0   2   9 33.0017 3.11336   3
   1   2   9 120.811 9.82682   3
  -2  -2  -9 3.26520 3.43714   2
  -3  -2  -9 18.7643 4.94462   2
  -5  -2  -9 20.7526 5.19226   2
   8  -3  -9 43.4908 5.47711   2
  -8   3   9 30.3717 4.26998   7
   7  -3  -9 0.73332 2.28395   2
  -7   3   9 1.13648 1.71890   7
  -7   3   9 2.03319 1.16072   3
   6  -3  -9 133.473 12.5700   2
  -6   3   9 129.879 10.6654   3
  -6   3   9 121.135 11.2904   7
   5  -3  -9 210.583 17.8877   2
  -5   3   9 188.731 15.6311   3
  -5   3   9 181.691 16.2073   7
   4  -3  -9 97.6272 9.77689   2
  -4   3   9 79.4435 7.81035   7
  -4   3   9 83.1010 7.29795   3
   3  -3  -9 296.708 24.7791   2
  -3   3   9 314.180 22.4109   3
  -3   3   9 234.537 22.7987   7
   2  -3  -9 587.710 48.8457   2
  -2   3   9 590.540 46.4496   3
   1  -3  -9 141.675 14.4829   2
  -1   3   9 142.177 11.5625   3
   0   3   9 1.70788 0.96735   3
   1   3   9 5.39037 1.15065   3
  -2  -3  -9 0.05359 2.88317   2
  -3  -3  -9 53.3008 7.60110   2
  -7   4   9 -0.6520 1.29884   7
  -7   4   9 0.97041 1.08362   3
   6  -4  -9 23.6725 4.22732   2
  -6   4   9 21.7619 2.73036   3
   5  -4  -9 58.1392 7.05755   2
  -5   4   9 56.7990 5.01354   3
  -5   4   9 50.8790 5.53552   7
   4  -4  -9 152.215 14.2642   2
  -4   4   9 150.669 12.3675   3
   3  -4  -9 19.5081 4.44933   2
  -3   4   9 20.9298 2.44607   3
   2  -4  -9 26.1587 5.17290   2
  -2   4   9 24.1651 2.71553   3
   1  -4  -9 11.6700 4.26364   2
  -1   4   9 10.6154 1.56744   3
   0  -4  -9 8.02071 3.92282   2
   0   4   9 6.96606 1.26915   3
   1   4   9 297.193 23.6053   3
   2   4   9 37.1051 3.72285   3
  -6   5   9 17.8654 2.23495   3
  -5   5   9 118.062 9.75566   3
   4  -5  -9 207.719 18.4735   2
  -4   5   9 215.587 17.0483   3
   3  -5  -9 58.5598 7.00958   2
  -3   5   9 58.1185 5.14360   3
   2  -5  -9 1.97468 2.63459   2
  -2   5   9 2.39964 1.09849   3
   1  -5  -9 166.466 15.4541   2
  -1   5   9 159.078 13.1221   3
   0  -5  -9 80.0238 9.19431   2
   0   5   9 73.8677 6.37787   3
  -1  -5  -9 55.1376 7.26278   2
   1   5   9 38.6887 3.77298   3
  -2  -5  -9 19.9122 4.42564   2
  -4   6   9 6.40540 1.23434   3
  -3   6   9 40.8815 3.73930   3
  -2   6   9 83.4560 6.96405   3
  -1   6   9 263.866 20.9769   3
  -3  -9  10 0.76976 1.44081   2
  -2  -9  10 77.4408 7.38414   2
  -1  -9  10 120.180 10.5939   2
   0   9 -10 0.33124 1.25545   4
   0  -9  10 -0.2702 1.21275   2
  -1   9 -10 38.7946 4.18397   4
   1  -9  10 47.0664 4.53851   2
  -2   9 -10 86.0561 8.05595   4
   2  -9  10 102.489 8.26183   2
  -5  -8  10 39.9057 4.80545   2
  -4  -8  10 48.0100 5.68258   2
  -3  -8  10 9.69520 2.79458   2
  -3  -8  10 7.40321 8.46857   8
  -2  -8  10 2.44822 2.12001   2
  -2  -8  10 1.79631 6.78733   8
   1   8 -10 4.28365 1.67005   4
  -1  -8  10 3.50849 1.96749   2
  -1  -8  10 1.70417 6.66977   8
   0   8 -10 128.555 11.6247   4
   0  -8  10 133.948 18.6694   8
   0  -8  10 150.719 12.3347   2
  -1   8 -10 191.022 15.5830   4
   1  -8  10 183.769 22.9067   8
  -2   8 -10 166.641 13.5594   4
   2  -8  10 154.229 21.0988   8
  -3   8 -10 17.6286 2.96020   4
   3  -8  10 28.6586 3.17810   2
  -6  -7  10 38.5858 4.51091   7
  -6  -7  10 46.5389 5.07062   2
  -5  -7  10 23.5964 3.89716   2
  -5  -7  10 6.20887 8.36366   8
  -4  -7  10 90.3229 15.8539   8
  -4  -7  10 109.615 10.0202   2
  -3  -7  10 53.4629 12.5251   8
  -3  -7  10 72.8017 7.38079   2
  -2  -7  10 172.853 14.3886   2
  -2  -7  10 138.714 19.6950   8
   1   7 -10 247.926 19.8920   4
  -1  -7  10 237.941 26.8693   8
   0   7 -10 86.7831 7.40592   4
   0  -7  10 79.9598 14.8257   8
   0  -7  10 76.7918 8.17052   2
  -1   7 -10 203.544 16.0022   4
   1  -7  10 184.865 23.6394   8
   1  -7  10 186.198 16.6377   2
  -2   7 -10 65.6107 6.19775   4
   2  -7  10 62.4440 14.4161   8
  -3   7 -10 0.00425 1.38310   4
   3  -7  10 0.18725 7.03891   8
   3  -7  10 -0.2997 1.55130   2
  -4   7 -10 85.2998 7.81959   4
   4  -7  10 93.8922 8.24127   2
  -7  -6  10 137.202 10.7827   2
  -7  -6  10 104.231 10.3663   7
   6   6 -10 55.6426 8.98928   2
  -6  -6  10 67.1483 6.44746   2
  -6  -6  10 53.5303 5.87543   7
   5   6 -10 193.900 16.6331   2
  -5  -6  10 174.392 15.5655   2
  -5  -6  10 164.721 21.0228   8
   4   6 -10 452.210 38.8172   2
  -4  -6  10 463.320 43.7301   8
  -4  -6  10 488.821 38.2578   2
  -3  -6  10 326.607 34.9134   8
  -3  -6  10 387.156 29.9405   2
  -2  -6  10 79.4365 8.24285   2
  -2  -6  10 83.4968 13.7084   8
   1   6 -10 61.4798 6.27964   4
  -1  -6  10 73.6596 13.0900   8
  -1  -6  10 77.1521 7.57569   2
   0   6 -10 6.30566 1.53100   4
   0  -6  10 8.40886 6.39548   8
   0  -6  10 8.65745 2.70890   2
  -1   6 -10 31.6520 3.83539   4
   1  -6  10 39.1320 11.5038   8
   1  -6  10 34.3224 5.02112   2
  -2   6 -10 482.293 39.1392   4
   2  -6  10 422.955 46.4315   8
   2  -6  10 553.069 40.1959   2
  -3   6 -10 147.701 13.5244   4
   3  -6  10 178.788 14.5475   2
  -4   6 -10 1.35787 1.46533   4
   4  -6  10 0.14715 1.86818   2
   4  -6  10 2.82877 7.69439   8
  -5   6 -10 1.23144 1.29695   4
   5  -6  10 4.45253 1.78606   2
   7   5 -10 20.6563 4.68890   2
  -7  -5  10 20.4111 3.47294   2
  -7  -5  10 23.6455 3.38259   7
   6   5 -10 24.4637 5.26092   2
  -6  -5  10 23.0438 3.67272   2
  -6  -5  10 21.4138 3.59273   7
   5   5 -10 18.2242 4.78792   2
  -5  -5  10 13.8393 6.69767   8
  -5  -5  10 19.1530 3.32105   2
   4   5 -10 142.025 13.7621   2
  -4  -5  10 125.670 17.2423   8
   3   5 -10 41.6436 6.66853   2
  -3  -5  10 27.8293 8.11289   8
  -3  -5  10 49.4649 5.40287   2
   2   5 -10 35.2010 4.10234   4
  -2  -5  10 21.9542 8.11150   8
  -2  -5  10 27.9090 4.38343   2
   1   5 -10 1.04149 1.09135   4
   1   5 -10 3.10582 2.99448   2
  -1  -5  10 -1.8595 4.17959   8
  -1  -5  10 2.08865 2.18604   2
   0   5 -10 0.19829 3.39955   2
   0   5 -10 1.09875 1.23317   4
   0  -5  10 -0.4749 1.86262   2
   0  -5  10 2.92513 5.05594   8
  -1   5 -10 255.619 23.2097   4
   1  -5  10 281.836 30.5091   8
   1  -5  10 327.717 24.4795   2
  -2   5 -10 812.042 66.1176   4
   2  -5  10 773.505 73.4190   8
   2  -5  10 916.384 67.2349   2
  -3   5 -10 223.499 18.7851   4
   3  -5  10 247.234 19.8659   2
   3  -5  10 210.635 26.4360   8
  -4   5 -10 12.9506 2.33420   4
   4  -5  10 15.9788 3.37132   2
   4  -5  10 6.10688 8.13145   8
  -5   5 -10 58.3366 5.54202   4
   5  -5  10 61.2035 6.37021   2
   8   4 -10 3.92012 3.08065   2
  -8  -4  10 4.75859 1.74914   7
   7   4 -10 309.555 25.9172   2
  -7  -4  10 269.575 23.5411   7
   6   4 -10 209.534 19.0117   2
  -6  -4  10 204.690 16.4363   2
  -6  -4  10 194.979 16.4851   7
  -6  -4  10 162.039 21.3816   8
   5   4 -10 93.7252 11.0384   2
  -5  -4  10 79.4320 13.4449   8
  -5  -4  10 88.6904 8.26960   2
   4   4 -10 12.0041 4.49595   2
  -4  -4  10 10.5891 2.42696   2
  -4  -4  10 25.1337 7.85368   8
   3   4 -10 266.110 24.6125   2
  -3  -4  10 279.598 27.7407   8
  -3  -4  10 272.519 22.6090   2
   2   4 -10 41.7512 4.21388   4
   2   4 -10 52.4084 7.49774   2
  -2  -4  10 44.2602 9.66062   8
  -2  -4  10 49.6718 5.40151   2
   1   4 -10 79.0477 9.88395   2
   1   4 -10 84.3296 7.22518   4
  -1  -4  10 92.0211 8.26604   2
  -1  -4  10 67.1207 12.3791   8
   0   4 -10 46.6545 7.24913   2
   0   4 -10 49.8669 4.82062   4
   0  -4  10 49.5537 5.78787   2
   0  -4  10 43.6553 10.5917   8
  -1   4 -10 2.27432 3.17955   2
  -1   4 -10 3.73432 1.50017   4
   1  -4  10 3.61007 5.94394   8
   1  -4  10 9.23477 2.89693   2
  -2   4 -10 5.39424 1.66756   4
   2  -4  10 1.92224 5.82735   8
   2  -4  10 7.84862 2.64564   2
  -3   4 -10 7.00278 1.92165   4
   3  -4  10 11.9174 3.19412   2
   3  -4  10 4.94270 7.09557   8
  -4   4 -10 31.0440 3.71500   4
   4  -4  10 33.9919 4.96347   2
   4  -4  10 25.5304 9.65580   8
  -5   4 -10 129.508 11.0455   4
   5  -4  10 132.861 11.9465   2
  -6   4 -10 38.3990 4.00584   4
   6  -4  10 47.1138 4.91145   2
   8   3 -10 25.1580 5.32873   2
  -8  -3  10 10.3676 2.27201   7
   7   3 -10 36.2328 6.93736   2
  -7  -3  10 28.2323 4.16375   7
   6   3 -10 24.9553 5.97096   2
  -6  -3  10 26.2953 3.54349   2
  -6  -3  10 26.6821 3.95950   7
  -6  -3  10 13.5010 6.18757   8
   5   3 -10 7.85980 37.0732   5
   5   3 -10 12.7272 5.12407   2
  -5  -3  10 13.6674 6.56360   8
  -5  -3  10 15.8908 2.67797   2
  -5  -3  10 14.0768 2.91426   7
   4   3 -10 213.732 20.9271   2
  -4  -3  10 206.309 18.1079   2
  -4  -3  10 240.097 23.7490   8
   3   3 -10 605.134 47.6986   2
  -3  -3  10 533.386 49.6157   8
  -3  -3  10 547.581 44.8605   2
   2   3 -10 94.4387 8.38711   4
   2   3 -10 108.137 12.0566   2
  -2  -3  10 97.6932 9.08354   2
  -2  -3  10 109.616 14.1687   8
   1   3 -10 123.310 10.5617   4
   1   3 -10 125.398 13.5891   2
  -1  -3  10 142.471 16.6462   8
  -1  -3  10 120.762 11.1514   2
   0   3 -10 341.217 26.6633   4
   0   3 -10 337.861 29.3288   2
   0  -3  10 310.954 32.1818   8
  -1   3 -10 35.0026 6.52549   2
  -1   3 -10 28.9811 3.61393   4
   1  -3  10 26.4935 4.27582   2
   1  -3  10 30.1021 8.31066   8
  -2   3 -10 11.1854 4.30725   2
  -2   3 -10 9.47670 2.12295   4
   2  -3  10 10.8028 3.02951   2
   2  -3  10 10.2638 6.73324   8
  -3   3 -10 219.229 17.3703   4
  -3   3 -10 201.156 19.0682   2
   3  -3  10 224.751 18.3074   2
   3  -3  10 184.414 23.7365   8
  -4   3 -10 28.3334 3.70724   4
   4  -3  10 23.2493 9.56929   8
   4  -3  10 40.7136 5.15240   2
  -5   3 -10 0.31385 1.41923   4
   5  -3  10 0.73114 2.04158   2
  -6   3 -10 6.36176 1.39562   4
   9   2 -10 5.85443 3.00909   2
  -9  -2  10 7.75284 1.99230   7
   8   2 -10 67.5717 8.80268   2
  -8  -2  10 64.6634 6.62477   7
   7   2 -10 54.1672 8.57041   2
  -7  -2  10 50.1877 5.79338   7
   6   2 -10 8.88217 36.7344   5
   6   2 -10 26.8016 6.84333   2
  -6  -2  10 18.5905 3.22882   7
   5   2 -10 95.9565 11.6101   2
   5   2 -10 32.7216 35.3828   5
  -5  -2  10 85.7169 7.83111   2
  -5  -2  10 75.5236 12.6726   8
  -5  -2  10 93.3233 8.44080   7
   4   2 -10 179.972 18.2127   2
  -4  -2  10 191.382 20.2842   8
  -4  -2  10 170.026 14.9050   2
   3   2 -10 544.874 43.0161   2
  -3  -2  10 485.227 39.6917   2
  -3  -2  10 464.433 44.2826   8
   2   2 -10 205.164 17.2892   4
   2   2 -10 222.881 20.8982   2
  -2  -2  10 225.916 22.7590   8
  -2  -2  10 210.602 17.7632   2
   1   2 -10 8.78205 1.80004   4
   1   2 -10 9.04433 5.02543   2
  -1  -2  10 7.39517 1.93168   2
  -1  -2  10 9.56728 5.49964   8
   0   2 -10 135.189 14.5265   2
   0  -2  10 126.898 11.2526   2
   0  -2  10 118.878 15.9837   8
  -1   2 -10 12.5361 5.20204   2
   1  -2  10 6.90197 5.75748   8
   1  -2  10 10.4069 2.58905   2
  -2   2 -10 188.746 18.1890   2
   2  -2  10 191.866 15.8979   2
   2  -2  10 160.392 21.0002   8
  -3   2 -10 21.7000 3.41576   4
  -3   2 -10 23.4315 5.52776   2
   3  -2  10 10.0680 7.82276   8
   3  -2  10 24.8726 4.30172   2
  -4   2 -10 84.8789 7.37881   4
  -4   2 -10 86.9484 9.89042   2
   4  -2  10 58.3872 13.5451   8
  -5   2 -10 98.7935 9.46968   4
   5  -2  10 124.554 10.4488   2
  -6   2 -10 189.697 15.4375   4
   9   1 -10 155.336 13.6081   2
  -9  -1  10 128.393 11.9858   7
   8   1 -10 396.529 31.6512   2
  -8  -1  10 336.002 29.5937   7
   7   1 -10 281.253 23.3843   2
  -7  -1  10 225.750 20.7429   7
   6   1 -10 6.36979 4.34952   2
   6   1 -10 7.33468 35.7941   5
  -6  -1  10 5.65819 2.36438   7
   5   1 -10 53.5504 8.47756   2
  -5  -1  10 42.6455 9.76150   8
  -5  -1  10 40.3348 5.09002   7
   4   1 -10 17.3842 5.91178   2
  -4  -1  10 27.7714 3.94951   7
  -4  -1  10 29.7738 7.92334   8
   3   1 -10 455.189 38.9293   2
  -3  -1  10 381.217 35.7328   2
  -3  -1  10 529.871 41.3483   8
   2   1 -10 573.456 48.1277   2
  -2  -1  10 643.769 50.1336   8
  -2  -1  10 494.327 44.9048   2
   1   1 -10 185.553 17.9433   2
  -1  -1  10 155.914 14.1306   2
  -1  -1  10 174.829 18.8864   8
   0   1 -10 30.8899 7.36581   2
   0  -1  10 30.5825 7.45538   8
   0  -1  10 33.1438 4.08442   2
  -1   1 -10 20.6596 6.34715   2
   1  -1  10 17.6298 3.34230   2
   1  -1  10 8.92220 5.98148   8
  -2   1 -10 320.876 27.5230   2
   2  -1  10 314.698 24.4723   2
   2  -1  10 244.599 28.6768   8
  -3   1 -10 6.56034 4.30624   2
   3  -1  10 11.3851 2.68562   2
  -4   1 -10 3.07062 3.89283   2
   4  -1  10 6.22251 2.45448   2
  -5   1 -10 51.1015 5.34207   4
   5  -1  10 58.9758 5.97682   2
  -9   0  10 58.0597 5.86028   7
  -8   0  10 72.5670 7.20582   7
   7   0 -10 3.22669 3.56308   2
  -7   0  10 4.48166 2.16339   7
   6   0 -10 90.6995 40.6969   5
   6   0 -10 143.306 13.9619   2
  -6   0  10 118.511 11.2775   7
   5   0 -10 74.6281 9.75376   2
  -5   0  10 68.9399 7.03909   7
   4   0 -10 88.6611 10.5983   2
  -4   0  10 76.8412 11.9694   8
  -4   0  10 82.8380 7.51349   7
  -4   0  10 71.0782 6.64440   3
   3   0 -10 828.258 65.4620   2
  -3   0  10 717.339 66.3059   8
  -3   0  10 825.462 62.7780   7
   2   0 -10 865.158 71.1524   2
  -2   0  10 892.427 68.3655   7
  -2   0  10 831.199 71.9381   8
   1   0 -10 87.0386 11.4048   2
  -1   0  10 92.3134 12.0436   8
  -1   0  10 90.5979 7.53242   7
  -1   0  10 73.1154 7.44017   2
   0   0 -10 8.99113 5.37579   2
   0   0  10 7.34238 5.43489   8
   0   0  10 10.5812 2.19252   2
  -1   0 -10 12.7182 5.44986   2
   1   0  10 11.0059 2.37624   2
  -2   0 -10 5.58587 4.80395   2
   2   0  10 1.41302 1.84890   2
  -3   0 -10 87.6612 12.1331   2
   3   0  10 102.998 9.20768   2
  -4   0 -10 259.918 24.0747   2
   4   0  10 264.300 21.7219   2
  -5   0 -10 -0.5654 5.75217   2
  -5   0 -10 2.19177 1.56205   4
   8  -1 -10 96.9928 9.69893   2
  -8   1  10 85.2453 8.45155   7
   7  -1 -10 152.206 14.3616   2
  -7   1  10 137.821 12.6144   7
   6  -1 -10 -3.5665 33.8504   5
   6  -1 -10 3.06066 3.24545   2
  -6   1  10 1.42600 1.15721   3
  -6   1  10 0.23637 1.53349   7
   5  -1 -10 113.915 11.9067   2
  -5   1  10 96.0028 8.79854   3
  -5   1  10 107.413 9.59126   7
   4  -1 -10 8.26003 3.77360   2
  -4   1  10 8.15385 2.02429   7
  -4   1  10 8.50736 1.59039   3
   3  -1 -10 74.1049 9.39816   2
  -3   1  10 67.8791 5.86172   3
  -3   1  10 64.6587 6.40429   7
   2  -1 -10 39.8274 7.20800   2
  -2   1  10 29.2212 2.91498   3
  -2   1  10 27.7685 3.43081   7
  -2   1  10 27.3632 10.0920   8
   1  -1 -10 112.640 13.0964   2
   0  -1 -10 2.32306 3.92251   2
  -1  -1 -10 306.830 28.2576   2
  -2  -1 -10 4.28549 4.99175   2
  -3  -1 -10 244.421 23.2468   2
  -4  -1 -10 325.383 28.8897   2
   8  -2 -10 167.082 14.4998   2
  -8   2  10 152.269 13.5667   7
   7  -2 -10 84.6472 8.68405   2
  -7   2  10 67.2602 7.19083   7
   6  -2 -10 172.615 14.5921   2
  -6   2  10 138.395 12.0709   3
  -6   2  10 136.823 12.7082   7
   5  -2 -10 194.255 17.8855   2
  -5   2  10 190.713 15.4460   3
  -5   2  10 186.101 16.0421   7
   4  -2 -10 12.8362 3.92751   2
  -4   2  10 11.6276 2.39769   7
  -4   2  10 18.2716 2.10636   3
   3  -2 -10 6.03732 3.33499   2
  -3   2  10 4.61975 1.21861   3
  -3   2  10 5.69485 1.63127   7
   2  -2 -10 258.751 23.3778   2
  -2   2  10 254.685 20.4588   3
   1  -2 -10 327.365 27.8010   2
  -1   2  10 293.971 24.3981   3
   0  -2 -10 -0.2002 3.54729   2
  -1  -2 -10 99.7581 12.1827   2
  -2  -2 -10 0.79747 4.16370   2
  -3  -2 -10 37.5618 6.92090   2
  -4  -2 -10 6.49237 3.74912   2
   7  -3 -10 1.13966 2.37710   2
  -7   3  10 1.45020 0.94268   3
  -7   3  10 -0.5571 1.38555   7
   6  -3 -10 91.2494 9.23617   2
  -6   3  10 82.2799 7.82675   7
  -6   3  10 83.1474 7.23239   3
   5  -3 -10 3.59346 2.70669   2
  -5   3  10 1.22764 1.44009   7
  -5   3  10 2.04218 1.16679   3
   4  -3 -10 34.2578 6.05906   2
  -4   3  10 37.1437 3.56068   3
   3  -3 -10 32.6928 5.91430   2
  -3   3  10 26.3573 2.88495   3
   2  -3 -10 475.184 39.3535   2
  -2   3  10 456.867 36.7366   3
   1  -3 -10 262.396 23.6614   2
  -1   3  10 260.072 20.7835   3
   0  -3 -10 79.0209 10.0073   2
  -1  -3 -10 305.015 27.2428   2
  -2  -3 -10 179.473 17.5773   2
  -3  -3 -10 -0.2486 3.02847   2
  -6   4  10 59.0043 5.15771   3
   5  -4 -10 29.2509 4.94906   2
  -5   4  10 31.3473 3.11926   3
   4  -4 -10 49.9938 6.36844   2
  -4   4  10 43.9543 4.16158   3
   3  -4 -10 21.3994 4.46837   2
  -3   4  10 15.5366 2.11562   3
   2  -4 -10 83.8418 9.38799   2
  -2   4  10 82.4311 6.94248   3
   1  -4 -10 1.22313 3.00149   2
  -1   4  10 1.69527 0.90172   3
   0  -4 -10 17.5049 4.50800   2
  -1  -4 -10 202.575 18.7293   2
  -2  -4 -10 87.6492 9.81132   2
  -5   5  10 14.3823 1.79411   3
  -4   5  10 9.00997 1.39829   3
   3  -5 -10 1.78459 2.68490   2
  -3   5  10 0.85783 0.88901   3
   2  -5 -10 117.172 11.1941   2
  -2   5  10 112.807 9.35016   3
   1  -5 -10 425.431 37.3730   2
  -1   5  10 479.887 36.1752   3
   0  -5 -10 9.77301 3.39509   2
  -4  -8  11 60.2897 6.27639   2
  -3  -8  11 4.49898 2.15568   2
  -2  -8  11 52.0060 5.82538   2
  -1  -8  11 12.4742 2.85015   2
   0   8 -11 -0.5113 1.31004   4
   0  -8  11 1.12690 1.59112   2
  -1   8 -11 91.3907 9.00143   4
   1  -8  11 122.677 9.71061   2
  -2   8 -11 93.1391 8.06408   4
  -5  -7  11 10.1504 2.14785   7
  -5  -7  11 7.84261 2.32405   2
  -4  -7  11 154.397 21.2498   8
  -4  -7  11 202.514 16.0296   2
  -3  -7  11 204.962 17.6564   2
  -2  -7  11 104.512 9.71732   2
  -2  -7  11 91.0727 15.2585   8
   1   7 -11 30.8461 3.62394   4
  -1  -7  11 15.7196 7.79517   8
  -1  -7  11 33.9377 4.58066   2
   0   7 -11 36.4608 3.99594   4
   0  -7  11 37.8522 5.00182   2
   0  -7  11 35.3711 10.0410   8
  -1   7 -11 17.6655 2.79026   4
   1  -7  11 18.1742 8.60658   8
   1  -7  11 24.0727 3.84948   2
  -2   7 -11 0.70533 1.27305   4
   2  -7  11 2.65842 1.82341   2
   2  -7  11 2.44418 7.56973   8
  -3   7 -11 0.49404 1.09816   4
   3  -7  11 2.45694 1.63284   2
  -6  -6  11 5.58036 1.83871   7
  -6  -6  11 10.4356 2.29574   2
  -5  -6  11 26.0088 8.59579   8
  -5  -6  11 44.9592 4.93379   2
  -4  -6  11 350.727 36.3349   8
  -4  -6  11 407.000 31.3971   2
  -3  -6  11 191.559 23.9961   8
  -3  -6  11 246.993 19.2585   2
  -2  -6  11 29.0210 8.02927   8
  -2  -6  11 39.8446 5.05517   2
   1   6 -11 101.199 10.2975   4
  -1  -6  11 138.997 11.5823   2
  -1  -6  11 143.858 17.8478   8
   0   6 -11 124.594 11.0512   4
   0  -6  11 128.993 12.0483   2
   0  -6  11 148.067 18.6941   8
  -1   6 -11 88.7569 7.79277   4
   1  -6  11 80.7244 15.0831   8
   1  -6  11 87.9378 8.73339   2
  -2   6 -11 412.171 33.1056   4
   2  -6  11 393.967 40.1675   8
   2  -6  11 429.993 33.9444   2
  -3   6 -11 33.8774 3.70379   4
   3  -6  11 36.5444 4.58221   2
   3  -6  11 22.1197 9.68907   8
  -4   6 -11 39.2432 4.21902   4
   4  -6  11 46.9999 4.96179   2
   7   5 -11 33.4963 5.87395   2
  -7  -5  11 35.1899 3.99755   7
   6   5 -11 2.49801 3.10554   2
  -6  -5  11 2.00962 1.63738   7
  -6  -5  11 2.31004 1.60167   2
   5   5 -11 128.146 13.0029   2
  -5  -5  11 125.252 11.2222   2
  -5  -5  11 124.925 16.7327   8
   4   5 -11 179.161 16.9247   2
  -4  -5  11 152.103 20.0171   8
  -4  -5  11 191.391 15.3559   2
   3   5 -11 2.30084 3.18271   2
  -3  -5  11 1.15507 4.82423   8
  -3  -5  11 0.86318 1.72191   2
   2   5 -11 34.1002 6.53931   2
  -2  -5  11 50.9087 10.4502   8
  -2  -5  11 43.3347 5.30192   2
   1   5 -11 448.821 35.2540   4
   1   5 -11 415.385 36.9234   2
  -1  -5  11 433.598 36.0398   2
  -1  -5  11 475.582 42.1300   8
   0   5 -11 386.260 31.2329   4
   0  -5  11 358.947 37.5324   8
   0  -5  11 418.359 32.2276   2
  -1   5 -11 49.5036 5.31165   4
   1  -5  11 55.6871 12.5185   8
   1  -5  11 61.3153 6.52682   2
  -2   5 -11 458.939 33.8654   4
   2  -5  11 388.751 40.5028   8
   2  -5  11 410.681 34.6450   2
  -3   5 -11 29.8491 3.60232   4
   3  -5  11 18.8045 9.19869   8
   3  -5  11 39.6276 4.97373   2
  -4   5 -11 58.4476 5.83542   4
   4  -5  11 72.1119 6.83769   2
  -8  -4  11 2.71072 1.41995   7
   7   4 -11 10.6151 4.25625   2
  -7  -4  11 14.5933 2.57805   7
   6   4 -11 25.0660 6.03027   2
  -6  -4  11 19.2706 3.32265   2
  -6  -4  11 19.0918 3.38068   7
   5   4 -11 -1.1589 3.20403   2
  -5  -4  11 1.96469 2.11542   7
  -5  -4  11 1.54716 4.44963   8
  -5  -4  11 0.67418 1.50806   2
   4   4 -11 157.205 16.0551   2
  -4  -4  11 158.816 13.5568   2
  -4  -4  11 152.887 18.8073   8
   3   4 -11 344.838 28.9498   2
  -3  -4  11 316.643 26.4410   2
  -3  -4  11 307.296 31.5749   8
   2   4 -11 45.4409 7.66008   2
  -2  -4  11 39.5736 9.86938   8
  -2  -4  11 39.3941 4.90322   2
   1   4 -11 11.0085 1.96388   4
   1   4 -11 8.11978 4.18868   2
  -1  -4  11 12.0860 2.94622   2
  -1  -4  11 12.1943 6.65384   8
   0   4 -11 -0.3101 1.21044   4
   0   4 -11 -1.2979 2.91661   2
   0  -4  11 2.09439 5.16276   8
   0  -4  11 -0.2137 1.74346   2
  -1   4 -11 86.7182 10.4945   2
  -1   4 -11 104.812 8.50437   4
   1  -4  11 86.4050 15.0432   8
   1  -4  11 94.8393 9.30269   2
  -2   4 -11 9.99788 2.10830   4
   2  -4  11 2.16757 6.36975   8
   2  -4  11 11.7091 3.14098   2
  -3   4 -11 42.1980 4.39474   4
   3  -4  11 44.4820 5.44566   2
   3  -4  11 31.9635 9.38965   8
  -4   4 -11 21.1130 2.98201   4
   4  -4  11 25.2958 3.97661   2
  -5   4 -11 141.143 12.0972   4
   5  -4  11 153.262 12.7970   2
   8   3 -11 1.62442 2.72104   2
  -8  -3  11 0.18237 1.32716   7
   7   3 -11 0.77901 3.43364   2
  -7  -3  11 0.40370 1.36060   7
   6   3 -11 111.024 12.6341   2
  -6  -3  11 105.118 9.81587   7
   5   3 -11 3.76991 3.92229   2
  -5  -3  11 2.77620 5.24626   8
  -5  -3  11 2.04227 2.05596   7
  -5  -3  11 6.54420 1.88554   2
  -4  -3  11 648.473 53.2133   2
  -4  -3  11 691.558 58.9035   8
   3   3 -11 500.249 44.3288   2
  -3  -3  11 535.260 41.6155   2
  -3  -3  11 515.068 46.9270   8
   2   3 -11 120.690 13.0325   2
  -2  -3  11 86.2612 14.0185   8
  -2  -3  11 107.131 9.49106   2
   1   3 -11 171.920 17.3275   2
   1   3 -11 169.766 13.8696   4
  -1  -3  11 153.946 19.2856   8
  -1  -3  11 170.886 14.4462   2
   0   3 -11 254.003 23.8633   2
   0   3 -11 262.900 21.0689   4
   0  -3  11 267.012 21.6592   2
   0  -3  11 246.854 26.9050   8
  -1   3 -11 52.2321 8.02818   2
  -1   3 -11 48.7538 5.13546   4
   1  -3  11 55.8460 6.01558   2
   1  -3  11 48.4498 11.3764   8
  -2   3 -11 1.84882 1.45011   4
  -2   3 -11 -2.0077 3.06175   2
   2  -3  11 -0.6413 6.35357   8
   2  -3  11 1.39113 2.05172   2
  -3   3 -11 1.32281 1.43742   4
   3  -3  11 1.99576 7.56673   8
   3  -3  11 7.02183 2.32637   2
  -4   3 -11 0.24869 1.29699   4
   4  -3  11 0.08239 1.70848   2
  -5   3 -11 2.22634 1.18247   4
   5  -3  11 0.92927 1.50923   2
   8   2 -11 142.348 13.8362   2
  -8  -2  11 138.671 12.1422   7
   7   2 -11 114.718 11.9130   2
  -7  -2  11 94.8239 9.33030   7
   6   2 -11 11.4031 4.48182   2
  -6  -2  11 12.5464 2.77606   7
   5   2 -11 46.5288 8.39918   2
   5   2 -11 47.9233 48.1780   5
  -5  -2  11 46.6600 5.27953   7
  -5  -2  11 35.6309 8.86911   8
   4   2 -11 15.1540 5.41517   2
  -4  -2  11 17.0782 3.21480   7
  -4  -2  11 18.4355 2.87875   2
   3   2 -11 0.32757 4.32832   2
  -3  -2  11 6.87430 5.55766   8
  -3  -2  11 0.89163 1.43176   2
   2   2 -11 9.18266 4.47790   2
  -2  -2  11 18.0047 6.99749   8
  -2  -2  11 10.5704 2.24402   2
   1   2 -11 114.538 9.04271   4
   1   2 -11 95.7197 12.7172   2
  -1  -2  11 87.8996 9.22299   2
  -1  -2  11 126.004 15.3447   8
   0   2 -11 624.666 49.1438   2
   0   2 -11 578.115 45.5427   4
   0  -2  11 515.018 45.7819   2
   0  -2  11 584.270 51.1925   8
  -1   2 -11 45.2438 8.54299   2
  -1   2 -11 56.1371 5.52208   4
   1  -2  11 54.9247 5.93691   2
   1  -2  11 54.7162 11.9100   8
  -2   2 -11 7.19265 4.27742   2
  -2   2 -11 8.59579 2.11749   4
   2  -2  11 8.53856 7.34524   8
   2  -2  11 9.66201 2.44990   2
  -3   2 -11 199.371 16.2283   4
  -3   2 -11 192.142 18.4086   2
   3  -2  11 169.340 24.0995   8
   3  -2  11 208.228 16.8046   2
  -4   2 -11 1.36926 1.38178   4
   4  -2  11 -0.5366 1.58237   2
   8   1 -11 186.884 16.7383   2
  -8  -1  11 174.430 15.2194   7
   7   1 -11 316.796 26.3097   2
  -7  -1  11 276.705 24.2552   7
   6   1 -11 91.2638 11.4091   2
  -6  -1  11 100.286 9.17999   7
   5   1 -11 67.5090 47.2640   5
   5   1 -11 136.729 15.0741   2
  -5  -1  11 150.664 12.5907   7
   4   1 -11 0.06370 3.46123   2
  -4  -1  11 -0.3808 4.65327   8
  -4  -1  11 -0.0228 1.50792   7
   3   1 -11 92.6139 12.2155   2
  -3  -1  11 107.891 9.30047   7
  -3  -1  11 98.6388 13.9487   8
   2   1 -11 74.3987 10.4028   2
  -2  -1  11 69.6134 11.7176   8
  -2  -1  11 77.3959 6.81737   7
  -2  -1  11 61.9468 6.45086   2
   1   1 -11 8.98679 5.17124   2
  -1  -1  11 5.03184 5.64490   8
  -1  -1  11 11.2470 2.19727   2
   0   1 -11 137.564 15.0624   2
   0  -1  11 131.174 11.0073   2
   0  -1  11 113.616 10.5559   7
  -1   1 -11 54.1714 9.87743   2
   1  -1  11 63.9727 6.38367   2
   1  -1  11 65.1866 12.5342   8
  -2   1 -11 67.9137 9.91870   2
   2  -1  11 66.4390 6.74339   2
  -3   1 -11 59.8361 6.18531   4
  -3   1 -11 61.1933 9.04694   2
   3  -1  11 68.7510 6.59378   2
  -4   1 -11 18.4557 2.89846   4
  -4   1 -11 13.3151 4.97638   2
   4  -1  11 19.4367 3.24814   2
  -8   0  11 21.0693 3.28464   7
   7   0 -11 25.8358 4.98438   2
  -7   0  11 12.3703 2.48381   7
   6   0 -11 195.330 17.5001   2
  -6   0  11 166.863 15.2639   7
   5   0 -11 291.804 23.8525   2
  -5   0  11 229.916 21.1533   7
   4   0 -11 64.3716 8.93783   2
  -4   0  11 51.7755 5.64847   7
   3   0 -11 126.977 12.6530   2
  -3   0  11 81.0258 13.5041   8
  -3   0  11 99.5611 8.99004   7
   2   0 -11 166.271 16.0144   2
  -2   0  11 137.506 16.9358   8
  -2   0  11 138.345 12.2460   7
   1   0 -11 243.784 23.3522   2
   0   0 -11 310.313 28.6687   2
  -1   0 -11 467.405 40.7737   2
  -2   0 -11 76.4553 10.8185   2
  -3   0 -11 2.34491 4.07471   2
  -4   0 -11 13.0595 2.32697   4
  -4   0 -11 8.32206 4.12562   2
   8  -1 -11 84.0563 9.16185   2
  -8   1  11 99.0067 8.40779   7
   7  -1 -11 139.897 13.1180   2
  -7   1  11 130.400 11.7553   7
   6  -1 -11 24.2395 4.99875   2
  -6   1  11 17.0625 3.02661   7
   5  -1 -11 17.1632 4.74119   2
  -5   1  11 13.9333 2.60774   7
   4  -1 -11 132.887 13.2362   2
  -4   1  11 115.624 10.6752   7
   3  -1 -11 20.0254 4.94372   2
  -3   1  11 19.4801 2.93683   7
   2  -1 -11 0.12112 3.41299   2
   1  -1 -11 0.97007 3.45062   2
   0  -1 -11 539.204 45.9899   2
  -1  -1 -11 342.264 30.6922   2
  -2  -1 -11 21.2899 5.70343   2
  -3  -1 -11 62.3600 8.89593   2
   7  -2 -11 208.702 16.6385   2
  -7   2  11 165.605 15.3816   7
   6  -2 -11 1.35666 2.46130   2
  -6   2  11 0.97248 1.48310   7
   5  -2 -11 6.01737 3.15959   2
  -5   2  11 1.83564 1.56602   7
  -5   2  11 2.59842 1.16171   3
   4  -2 -11 137.242 12.8972   2
  -4   2  11 123.809 10.0433   3
  -4   2  11 111.318 10.5274   7
   3  -2 -11 22.2937 5.29318   2
   2  -2 -11 66.3625 8.89258   2
   1  -2 -11 42.9455 7.48485   2
   0  -2 -11 1.89714 3.65277   2
  -1  -2 -11 85.4413 10.5551   2
  -2  -2 -11 93.6148 10.9143   2
   6  -3 -11 12.2464 2.99616   2
  -6   3  11 6.35385 1.29204   3
   5  -3 -11 110.223 10.6719   2
  -5   3  11 101.374 8.66848   3
   4  -3 -11 60.3122 7.15369   2
  -4   3  11 49.9642 4.73496   3
  -3   3  11 33.4148 3.52491   3
   2  -3 -11 393.857 33.5300   2
   1  -3 -11 0.36467 2.74715   2
   0  -3 -11 26.1575 5.13897   2
  -1  -3 -11 208.369 19.1991   2
   4  -4 -11 1.63644 2.60109   2
   3  -4 -11 10.4505 3.23636   2
   2  -4 -11 18.0904 3.93716   2
   1  -4 -11 8.47192 3.18827   2
  -2  -8  12 347.596 28.3572   2
  -1  -8  12 178.361 15.1678   2
   0  -8  12 55.2877 5.64696   2
  -4  -7  12 13.5949 2.58331   2
  -3  -7  12 11.6873 2.42780   2
  -2  -7  12 8.36384 2.29159   2
  -2  -7  12 10.2733 12.0804   8
  -1  -7  12 39.2906 4.92648   2
  -1  -7  12 39.7205 11.0152   8
   0   7 -12 59.5193 6.22465   4
   0  -7  12 82.0698 7.25320   2
  -1   7 -12 0.47258 1.11635   4
   1  -7  12 -0.5403 1.43990   2
  -2   7 -12 35.8981 4.07134   4
   2  -7  12 52.2373 4.86417   2
  -5  -6  12 37.4844 4.27710   7
  -5  -6  12 37.6246 4.38144   2
  -4  -6  12 157.190 12.9116   2
  -4  -6  12 131.393 18.1360   8
  -3  -6  12 31.3129 4.33645   2
  -3  -6  12 26.5491 8.64615   8
  -2  -6  12 124.562 10.7743   2
  -2  -6  12 101.921 15.7527   8
  -1  -6  12 294.631 22.8302   2
  -1  -6  12 240.268 27.5776   8
   0   6 -12 186.589 16.8852   4
   0  -6  12 198.384 23.3947   8
   0  -6  12 236.080 17.9216   2
  -1   6 -12 4.74551 1.54081   4
   1  -6  12 6.77964 7.29451   8
   1  -6  12 10.6519 2.38904   2
  -2   6 -12 45.5976 4.76069   4
   2  -6  12 54.9470 5.66254   2
  -3   6 -12 2.88370 1.26779   4
   3  -6  12 0.61526 1.35613   2
   6   5 -12 7.91518 3.54345   2
   5   5 -12 35.2924 6.09279   2
  -5  -5  12 27.4459 3.76490   2
  -5  -5  12 34.1602 4.06753   7
   4   5 -12 7.67809 3.72922   2
  -4  -5  12 5.75872 5.38106   8
  -4  -5  12 7.35267 2.11560   2
   3   5 -12 7.47049 3.84341   2
  -3  -5  12 4.88204 5.49431   8
   2   5 -12 87.1260 10.1993   2
  -2  -5  12 80.9637 13.7081   8
  -2  -5  12 94.6997 8.58674   2
  -1  -5  12 362.051 37.3486   8
  -1  -5  12 422.751 32.4167   2
   0   5 -12 107.653 9.58870   4
   0  -5  12 121.698 10.5475   2
   0  -5  12 105.359 15.9572   8
  -1   5 -12 0.77354 1.24054   4
   1  -5  12 2.38113 2.23893   2
   1  -5  12 1.31130 5.74393   8
  -2   5 -12 27.5464 3.01764   4
   2  -5  12 21.5627 3.84488   2
   2  -5  12 12.6508 8.02290   8
  -3   5 -12 76.0355 6.94303   4
   3  -5  12 81.5431 7.60630   2
   7   4 -12 73.3624 8.79284   2
  -7  -4  12 76.2679 6.98680   7
   6   4 -12 83.3910 10.1947   2
  -6  -4  12 93.4250 8.30614   7
   5   4 -12 6.95795 3.87738   2
  -5  -4  12 3.09917 4.91191   8
  -5  -4  12 4.95391 1.86617   2
  -5  -4  12 4.41846 1.95186   7
   4   4 -12 125.360 12.5079   2
  -4  -4  12 92.7807 14.3696   8
  -4  -4  12 102.666 9.38563   2
   3   4 -12 45.6094 7.89669   2
  -3  -4  12 37.6565 4.53386   2
  -3  -4  12 36.2392 9.38294   8
   2   4 -12 12.2167 4.52336   2
  -2  -4  12 9.86976 6.73687   8
  -2  -4  12 9.87998 2.34143   2
   1   4 -12 4.68335 1.41983   4
   1   4 -12 4.73595 3.78679   2
  -1  -4  12 5.76333 5.90319   8
  -1  -4  12 3.45065 1.93004   2
   0   4 -12 0.48050 1.10674   4
   0   4 -12 1.20982 3.63812   2
   0  -4  12 0.52930 1.71351   2
   0  -4  12 0.13106 5.31472   8
  -1   4 -12 11.9704 2.20497   4
   1  -4  12 12.4596 2.81092   2
   1  -4  12 4.35883 5.81703   8
  -2   4 -12 145.268 12.2472   4
   2  -4  12 167.015 13.0464   2
   2  -4  12 112.027 17.9313   8
  -3   4 -12 39.5003 4.13950   4
   3  -4  12 42.2143 4.87025   2
   7   3 -12 89.5519 10.3305   2
  -7  -3  12 93.8355 8.40123   7
   6   3 -12 369.790 32.8462   2
  -6  -3  12 387.708 30.8612   7
   5   3 -12 0.75079 3.33813   2
  -5  -3  12 3.60315 1.85720   7
  -5  -3  12 5.08692 5.75349   8
   4   3 -12 67.9511 9.93229   2
  -4  -3  12 64.1098 11.6757   8
  -4  -3  12 65.4436 6.55682   2
  -4  -3  12 78.2767 7.16484   7
   3   3 -12 0.59712 3.99761   2
  -3  -3  12 2.34107 1.48140   2
  -3  -3  12 0.68275 5.11279   8
   2   3 -12 2.51598 3.91400   2
  -2  -3  12 0.02688 5.11167   8
  -2  -3  12 2.21366 1.56330   2
   1   3 -12 213.768 17.6314   4
   1   3 -12 228.497 21.1037   2
  -1  -3  12 203.549 18.0611   2
  -1  -3  12 229.719 23.7289   8
   0   3 -12 435.647 34.5478   4
   0   3 -12 465.461 37.5566   2
   0  -3  12 395.025 39.8848   8
  -1   3 -12 201.163 18.5127   2
  -1   3 -12 197.950 15.9487   4
   1  -3  12 190.452 16.4154   2
   1  -3  12 178.542 21.8558   8
  -2   3 -12 50.8241 9.71156   2
  -2   3 -12 62.1355 5.88300   4
   2  -3  12 40.7455 12.3530   8
   2  -3  12 74.3940 6.59472   2
  -3   3 -12 29.7204 3.47411   4
   3  -3  12 33.2427 4.17261   2
   7   2 -12 33.6750 5.85159   2
  -7  -2  12 24.0269 3.61310   7
   6   2 -12 11.9252 4.14657   2
  -6  -2  12 6.41116 2.17725   7
   5   2 -12 6.20987 4.10479   2
  -5  -2  12 13.6482 6.67800   8
  -5  -2  12 11.9913 2.50855   7
   4   2 -12 25.0527 6.14881   2
  -4  -2  12 36.9777 4.31953   7
  -4  -2  12 27.6342 8.15295   8
   3   2 -12 31.6027 6.78139   2
  -3  -2  12 39.9998 4.44868   7
  -3  -2  12 22.7855 7.56339   8
   2   2 -12 0.16380 4.07256   2
  -2  -2  12 -1.1433 1.27674   2
  -2  -2  12 0.18584 5.21453   8
   1   2 -12 85.7010 7.53090   4
   1   2 -12 85.6450 11.6482   2
  -1  -2  12 84.7182 7.91455   2
  -1  -2  12 89.4909 13.6528   8
   0   2 -12 279.778 23.8812   4
   0   2 -12 315.196 27.4225   2
   0  -2  12 315.860 24.3134   2
   0  -2  12 271.449 29.0804   8
  -1   2 -12 3.11238 1.53576   4
  -1   2 -12 3.75389 3.85291   2
   1  -2  12 4.87857 7.62120   8
   1  -2  12 3.85848 1.84969   2
  -2   2 -12 224.351 19.2676   4
  -2   2 -12 224.715 21.5198   2
   2  -2  12 255.534 19.6713   2
  -3   2 -12 171.113 14.2737   4
   3  -2  12 173.811 14.5637   2
   7   1 -12 59.5555 7.45244   2
  -7  -1  12 55.2511 5.79497   7
   6   1 -12 132.112 13.8362   2
  -6  -1  12 139.949 12.0477   7
   5   1 -12 299.994 26.2114   2
  -5  -1  12 282.126 23.8919   7
   4   1 -12 196.479 18.5030   2
  -4  -1  12 168.776 20.6790   8
  -4  -1  12 188.456 15.7009   7
   3   1 -12 1.54919 3.92464   2
  -3  -1  12 0.54720 1.27464   7
  -3  -1  12 0.44960 5.99389   8
   2   1 -12 53.0670 8.83844   2
  -2  -1  12 42.2494 4.48633   7
  -2  -1  12 35.2387 9.53170   8
   1   1 -12 14.2890 5.50599   2
   1   1 -12 10.5501 1.82004   4
  -1  -1  12 5.04300 1.87083   7
  -1  -1  12 6.25040 7.70228   8
   0   1 -12 10.3217 2.00118   4
   0   1 -12 10.0426 4.90839   2
  -1   1 -12 37.4477 4.42289   4
  -1   1 -12 42.0360 7.94107   2
   1  -1  12 43.9767 6.67306   2
  -2   1 -12 6.88019 4.45892   2
  -2   1 -12 14.7576 2.50207   4
  -3   1 -12 142.491 12.0898   4
  -3   1 -12 147.847 15.0588   2
   7   0 -12 1.61017 2.41997   2
  -7   0  12 0.38541 1.46398   7
   6   0 -12 59.2429 7.49899   2
  -6   0  12 48.4947 5.45928   7
   5   0 -12 213.956 18.5643   2
  -5   0  12 180.513 16.2905   7
   4   0 -12 277.901 24.3803   2
  -4   0  12 258.335 21.8946   7
   3   0 -12 365.320 30.0286   2
  -3   0  12 312.861 27.0938   7
   2   0 -12 61.0872 9.22941   2
   1   0 -12 0.14093 1.31070   4
   1   0 -12 1.79297 3.54696   2
   0   0 -12 312.812 28.4309   2
  -1   0 -12 177.663 17.7387   2
  -2   0 -12 75.2862 6.84027   4
  -2   0 -12 75.1405 9.63801   2
   6  -1 -12 47.2219 6.13941   2
  -6   1  12 32.4115 4.13073   7
   5  -1 -12 5.41954 3.23247   2
  -5   1  12 7.39983 1.82815   7
   4  -1 -12 0.32149 2.99479   2
  -4   1  12 1.42374 1.54770   7
   3  -1 -12 13.0945 4.50196   2
   2  -1 -12 45.4718 7.57727   2
   1  -1 -12 5.71649 3.59397   2
   0  -1 -12 153.321 15.6141   2
  -1  -1 -12 87.3455 10.4844   2
  -2  -1 -12 31.7430 6.15154   2
   6  -2 -12 11.7529 3.08673   2
   5  -2 -12 397.598 33.2191   2
   4  -2 -12 431.991 36.1988   2
   3  -2 -12 18.5279 4.50070   2
   2  -2 -12 5.27769 3.21015   2
   1  -2 -12 11.1636 3.88210   2
   0  -2 -12 6.70221 3.45193   2
  -1  -2 -12 13.1648 3.74007   2
   4  -3 -12 191.849 17.0313   2
   3  -3 -12 25.4672 4.74805   2
   2  -3 -12 34.2415 5.49749   2
  -4  -6  13 80.0195 7.89634   2
  -4  -6  13 78.6663 7.27540   7
  -3  -6  13 29.4181 3.79018   2
  -2  -6  13 4.30284 1.86074   2
  -1  -6  13 69.3392 6.83312   2
   0  -6  13 184.622 15.6700   2
   1  -6  13 18.0332 3.00138   2
  -5  -5  13 14.6617 2.54777   7
   4   5 -13 29.3205 7.28380   2
  -4  -5  13 50.9499 4.94299   7
  -4  -5  13 44.4985 4.72495   2
   3   5 -13 30.4522 8.97595   2
  -3  -5  13 13.1592 9.12880   8
  -3  -5  13 25.7029 3.46292   2
  -2  -5  13 126.797 10.5642   2
  -2  -5  13 104.461 15.3551   8
  -1  -5  13 129.596 10.6673   2
  -1  -5  13 98.3462 15.8949   8
   0  -5  13 69.8609 6.87004   2
  -1   5 -13 22.0601 3.02908   4
   1  -5  13 30.2669 3.73669   2
   5   4 -13 26.4664 5.45172   2
  -5  -4  13 28.2710 3.61047   7
   4   4 -13 78.7597 9.29179   2
  -4  -4  13 59.4673 6.39842   7
  -4  -4  13 61.5409 13.3122   8
   3   4 -13 10.1461 4.01412   2
  -3  -4  13 3.79745 5.81499   8
  -3  -4  13 9.44001 2.08426   2
   2   4 -13 14.7785 4.89527   2
  -2  -4  13 22.0870 7.59694   8
  -2  -4  13 19.6688 3.02063   2
   1   4 -13 17.5081 4.94437   2
  -1  -4  13 4.73036 6.32289   8
  -1  -4  13 15.2785 2.79931   2
   0   4 -13 52.8212 5.79054   4
   0  -4  13 76.9221 6.48519   2
  -1   4 -13 1.35265 1.18064   4
   1  -4  13 2.08547 1.52050   2
  -2   4 -13 52.3748 4.85787   4
   2  -4  13 51.7554 5.30625   2
   6   3 -13 225.615 19.9843   2
  -6  -3  13 216.024 18.2444   7
   5   3 -13 11.8641 4.13680   2
  -5  -3  13 9.27328 1.92459   7
   4   3 -13 22.7422 5.96872   2
  -4  -3  13 34.3645 4.05875   7
  -4  -3  13 33.7537 8.68785   8
   3   3 -13 150.410 16.2742   2
  -3  -3  13 177.483 14.0302   7
  -3  -3  13 153.553 18.9284   8
   2   3 -13 44.2848 7.91375   2
  -2  -3  13 45.6226 11.2479   8
  -2  -3  13 54.2750 5.15381   7
  -2  -3  13 40.9853 4.81122   2
   1   3 -13 76.5812 10.4336   2
  -1  -3  13 71.3721 13.9597   8
  -1  -3  13 89.7802 7.69422   2
   0   3 -13 196.205 17.3936   4
   0   3 -13 215.641 20.0531   2
   0  -3  13 232.117 17.8782   2
  -1   3 -13 14.2220 2.15788   4
  -1   3 -13 16.4476 5.51546   2
   1  -3  13 16.2611 2.84601   2
  -2   3 -13 1.39705 1.14799   4
   6   2 -13 20.2089 4.38585   2
  -6  -2  13 16.0215 2.87931   7
   5   2 -13 26.8401 5.61979   2
  -5  -2  13 22.4762 3.39394   7
   4   2 -13 13.3425 4.57463   2
  -4  -2  13 11.2346 2.15782   7
   3   2 -13 116.318 12.6428   2
  -3  -2  13 89.2878 16.0053   8
  -3  -2  13 109.860 9.50068   7
   2   2 -13 29.6994 6.50083   2
  -2  -2  13 32.5457 11.8733   8
  -2  -2  13 38.4347 4.02177   7
   1   2 -13 65.0796 9.69366   2
   0   2 -13 39.0037 7.36492   2
   0   2 -13 33.1540 3.62963   4
  -1   2 -13 10.8171 4.19908   2
  -1   2 -13 4.93729 1.42009   4
  -2   2 -13 115.568 9.72350   4
   6   1 -13 150.856 14.4357   2
  -6  -1  13 155.069 13.0571   7
   5   1 -13 242.184 20.7579   2
  -5  -1  13 215.089 18.7691   7
   4   1 -13 100.813 11.4239   2
  -4  -1  13 101.472 9.04652   7
   3   1 -13 57.1696 8.51038   2
  -3  -1  13 58.5903 5.69877   7
   2   1 -13 132.094 14.2747   2
   1   1 -13 71.8664 9.86654   2
   0   1 -13 20.3197 2.66086   4
   0   1 -13 22.3665 5.60091   2
  -1   1 -13 99.3296 10.5600   2
  -1   1 -13 84.0521 7.64899   4
   5   0 -13 105.917 10.4646   2
  -5   0  13 93.5168 9.37951   7
   4   0 -13 114.540 10.9460   2
  -4   0  13 81.7323 9.80192   7
   3   0 -13 135.288 13.7747   2
   2   0 -13 269.587 24.2954   2
   1   0 -13 53.2407 8.01181   2
   0   0 -13 6.00159 3.71320   2
   4  -1 -13 5.96038 2.90013   2
   3  -1 -13 22.8045 4.55578   2
   2  -1 -13 124.059 12.5101   2
   1  -1 -13 30.7337 5.80045   2
  -3  -4  14 152.740 12.8639   7
  -2  -4  14 90.6337 8.06236   7
   3   3 -14 284.543 24.9398   2
  -3  -3  14 278.646 22.8748   7
   2   3 -14 97.4365 10.8912   2
   3   2 -14 59.4531 8.14686   2
   2   2 -14 10.6480 4.15878   2
   1   2 -14 -1.0176 3.36537   2
   0   0   0    0.00    0.00   0

 _exptl_absorpt_process_details
)
 SADABS 2016/2: Krause, L., Herbst-Irmer, R., Sheldrick G.M. & Stalke D.,
 J. Appl. Cryst. 48 (2015) 3-10
)
 _exptl_absorpt_correction_type   multi-scan
 _exptl_absorpt_correction_T_max  0.7519
 _exptl_absorpt_correction_T_min  0.5261
 _exptl_special_details
)
 The following wavelength and cell were deduced by SADABS from the
 direction cosines etc. They are given here for emergency use only:
 CELL 1.34133    8.452    8.485   10.933  105.395  101.637   94.312
)
;
_shelx_hkl_checksum              11164
_olex2_submission_special_instructions 'No special instructions were received'
loop_
_space_group_symop_operation_xyz
'x, y, z'
'-x, -y, -z'
loop_
_atom_site_label
_atom_site_type_symbol
_atom_site_fract_x
_atom_site_fract_y
_atom_site_fract_z
_atom_site_U_iso_or_equiv
_atom_site_adp_type
_atom_site_occupancy
_atom_site_site_symmetry_order
_atom_site_calc_flag
_atom_site_refinement_flags_posn
_atom_site_refinement_flags_adp
_atom_site_refinement_flags_occupancy
_atom_site_disorder_assembly
_atom_site_disorder_group
V1 V 0.53890(7) 1.14621(7) -0.13825(5) 0.02126(18) Uani 1 1 d . . . . .
V2 V 0.59323(7) 0.79343(7) -0.13152(5) 0.02213(18) Uani 1 1 d . . . . .
V3 V 0.74789(7) 1.12226(7) 0.11365(5) 0.02195(18) Uani 1 1 d . . . . .
O5 O 0.7318(3) 1.2219(3) -0.0125(2) 0.0240(5) Uani 1 1 d . . . . .
O6 O 0.5491(3) 1.2576(3) -0.2347(3) 0.0289(6) Uani 1 1 d . . . . .
O7 O 0.5685(3) 0.7009(3) 0.0128(2) 0.0209(5) Uani 1 1 d . . . . .
O8 O 0.7983(3) 0.9188(3) -0.0018(2) 0.0217(5) Uani 1 1 d . . . . .
O10 O 0.6905(3) 0.9635(3) 0.2168(2) 0.0228(5) Uani 1 1 d . . . . .
O11 O 0.3786(3) 0.7384(3) -0.2051(2) 0.0256(5) Uani 1 1 d . . . . .
O12 O 0.6121(3) 0.9580(3) -0.2152(2) 0.0259(5) Uani 1 1 d . . . . .
O13 O 0.6714(3) 0.6479(3) -0.2151(2) 0.0291(6) Uani 1 1 d . . . . .
O14 O 0.9286(3) 1.1908(3) 0.2016(3) 0.0301(6) Uani 1 1 d . . . . .
O15 O 0.5000 1.0000 0.0000 0.0197(7) Uani 1 2 d S T P . .
C16 C 0.8114(5) 0.8645(4) 0.2566(3) 0.0266(7) Uani 1 1 d . . . . .
H16A H 0.7722 0.8053 0.3139 0.032 Uiso 1 1 calc R . . . .
H16B H 0.9126 0.9381 0.3078 0.032 Uiso 1 1 calc R . . . .
C19 C 0.9146(4) 0.8259(4) 0.0521(4) 0.0260(7) Uani 1 1 d . . . . .
H19A H 1.0150 0.9014 0.1027 0.031 Uiso 1 1 calc R . . . .
H19B H 0.9431 0.7428 -0.0198 0.031 Uiso 1 1 calc R . . . .
C26 C 0.6961(4) 0.6179(4) 0.0651(3) 0.0249(7) Uani 1 1 d . . . . .
H26A H 0.7225 0.5337 -0.0072 0.030 Uiso 1 1 calc R . . . .
H26B H 0.6577 0.5604 0.1237 0.030 Uiso 1 1 calc R . . . .
C2 C 0.8492(4) 0.7385(4) 0.1407(4) 0.0259(7) Uani 1 1 d . . . . .
C5 C 0.9803(5) 0.6417(5) 0.1931(4) 0.0357(9) Uani 1 1 d . . . . .
H5A H 1.0811 0.7171 0.2373 0.054 Uiso 1 1 calc GR . . . .
H5B H 1.0002 0.5551 0.1205 0.054 Uiso 1 1 calc GR . . . .
H5C H 0.9432 0.5911 0.2551 0.054 Uiso 1 1 calc GR . . . .
Na1 Na 0.5618(3) 1.3571(2) -0.41749(18) 0.0497(5) Uani 1 1 d . . . . .
O2 O 0.6606(4) 1.4965(4) -0.5611(3) 0.0424(7) Uani 1 1 d . . . . .
O3 O 0.7205(4) 1.1621(4) -0.5142(3) 0.0456(8) Uani 1 1 d . . . . .
O1 O 0.9587(5) 1.7101(5) -0.4665(3) 0.0574(9) Uani 1 1 d . . . . .
H1A H 1.0315 1.7300 -0.3937 0.086 Uiso 1 1 d G . . . .
H1B H 0.8826 1.7683 -0.4459 0.086 Uiso 1 1 d G . . . .
O0AA O 0.6806(5) 0.8733(4) -0.4521(3) 0.0539(9) Uani 1 1 d . . . . .
loop_
_atom_site_aniso_label
_atom_site_aniso_U_11
_atom_site_aniso_U_22
_atom_site_aniso_U_33
_atom_site_aniso_U_23
_atom_site_aniso_U_13
_atom_site_aniso_U_12
V1 0.0249(3) 0.0207(3) 0.0192(3) 0.0071(2) 0.0062(2) 0.0008(2)
V2 0.0276(3) 0.0194(3) 0.0173(3) 0.0014(2) 0.0056(2) 0.0033(2)
V3 0.0220(3) 0.0190(3) 0.0213(3) 0.0036(2) 0.0016(2) -0.0021(2)
O5 0.0212(12) 0.0222(11) 0.0289(13) 0.0090(10) 0.0056(10) -0.0007(9)
O6 0.0347(14) 0.0297(13) 0.0262(13) 0.0128(10) 0.0096(11) 0.0035(10)
O7 0.0230(12) 0.0174(10) 0.0216(11) 0.0049(9) 0.0050(9) 0.0006(9)
O8 0.0209(12) 0.0198(11) 0.0236(12) 0.0050(9) 0.0055(9) 0.0010(9)
O10 0.0252(12) 0.0224(11) 0.0182(11) 0.0046(9) 0.0016(9) 0.0014(9)
O11 0.0281(13) 0.0218(11) 0.0211(12) -0.0010(9) 0.0027(10) 0.0006(9)
O12 0.0326(14) 0.0263(12) 0.0212(12) 0.0077(10) 0.0096(10) 0.0055(10)
O13 0.0365(15) 0.0234(12) 0.0252(13) 0.0009(10) 0.0099(11) 0.0051(10)
O14 0.0238(13) 0.0309(13) 0.0300(14) 0.0058(11) -0.0004(10) -0.0026(10)
O15 0.0250(17) 0.0168(14) 0.0163(15) 0.0025(12) 0.0060(12) 0.0008(12)
C16 0.0316(19) 0.0249(16) 0.0221(16) 0.0062(13) 0.0032(14) 0.0061(14)
C19 0.0257(17) 0.0234(15) 0.0281(17) 0.0067(14) 0.0053(14) 0.0037(13)
C26 0.0274(17) 0.0191(14) 0.0277(17) 0.0064(13) 0.0058(14) 0.0033(13)
C2 0.0272(18) 0.0248(16) 0.0260(17) 0.0080(13) 0.0050(13) 0.0055(13)
C5 0.036(2) 0.036(2) 0.035(2) 0.0120(17) 0.0035(16) 0.0111(17)
Na1 0.0775(14) 0.0482(10) 0.0398(10) 0.0248(8) 0.0288(10) 0.0238(10)
O2 0.059(2) 0.0339(15) 0.0262(14) 0.0027(11) 0.0041(13) -0.0071(13)
O3 0.058(2) 0.0404(16) 0.0334(16) 0.0020(13) 0.0114(14) 0.0056(15)
O1 0.057(2) 0.065(2) 0.0366(18) 0.0047(16) -0.0018(16) -0.0038(18)
O0AA 0.082(3) 0.0440(18) 0.0370(17) 0.0059(14) 0.0268(18) 0.0039(17)
loop_
_atom_type_symbol
_atom_type_description
_atom_type_scat_dispersion_real
_atom_type_scat_dispersion_imag
_atom_type_scat_source
C C 0.0148 0.0070 'International Tables Vol C Tables 4.2.6.8 and 6.1.1.4'
H H 0.0000 0.0000 'International Tables Vol C Tables 4.2.6.8 and 6.1.1.4'
Na Na 0.1116 0.0924 'International Tables Vol C Tables 4.2.6.8 and 6.1.1.4'
O O 0.0412 0.0250 'International Tables Vol C Tables 4.2.6.8 and 6.1.1.4'
V V 0.2866 1.7327 'International Tables Vol C Tables 4.2.6.8 and 6.1.1.4'
loop_
_geom_angle_atom_site_label_1
_geom_angle_atom_site_label_2
_geom_angle_atom_site_label_3
_geom_angle
_geom_angle_site_symmetry_1
_geom_angle_site_symmetry_3
_geom_angle_publ_flag
V3 V1 V2 64.989(19) . . ?
O5 V1 V2 87.93(8) . . ?
O5 V1 V3 33.15(8) . . ?
O5 V1 O7 86.87(10) . 2_675 ?
O5 V1 O10 157.75(11) . 2_675 ?
O5 V1 O15 80.38(8) . . ?
O6 V1 V2 137.49(10) . . ?
O6 V1 V3 136.00(10) . . ?
O6 V1 O5 102.89(13) . . ?
O6 V1 O7 97.86(12) . 2_675 ?
O6 V1 O10 97.91(13) . 2_675 ?
O6 V1 O12 103.69(13) . . ?
O6 V1 O15 173.98(10) . . ?
O7 V1 V2 123.97(7) 2_675 . ?
O7 V1 V3 81.98(7) 2_675 . ?
O7 V1 O15 77.16(7) 2_675 . ?
O10 V1 V2 81.94(7) 2_675 . ?
O10 V1 V3 125.36(7) 2_675 . ?
O10 V1 O7 82.54(10) 2_675 2_675 ?
O10 V1 O15 78.22(7) 2_675 . ?
O12 V1 V2 34.06(8) . . ?
O12 V1 V3 85.78(8) . . ?
O12 V1 O5 92.87(12) . . ?
O12 V1 O7 157.93(11) . 2_675 ?
O12 V1 O10 89.76(11) . 2_675 ?
O12 V1 O15 81.04(8) . . ?
O15 V1 V2 47.014(15) . . ?
O15 V1 V3 47.276(17) . . ?
V3 V2 V1 65.137(19) 2_675 . ?
O7 V2 V1 124.72(7) . . ?
O7 V2 V3 81.77(7) . 2_675 ?
O7 V2 O8 82.62(10) . . ?
O7 V2 O15 78.09(7) . . ?
O8 V2 V1 81.02(7) . . ?
O8 V2 V3 123.54(7) . 2_675 ?
O8 V2 O15 77.14(7) . . ?
O11 V2 V1 85.64(8) . . ?
O11 V2 V3 34.64(8) . 2_675 ?
O11 V2 O7 91.02(11) . . ?
O11 V2 O8 158.18(11) . . ?
O11 V2 O12 92.29(12) . . ?
O11 V2 O15 81.13(8) . . ?
O12 V2 V1 32.80(8) . . ?
O12 V2 V3 87.91(8) . 2_675 ?
O12 V2 O7 156.66(11) . . ?
O12 V2 O8 85.81(11) . . ?
O12 V2 O15 79.61(8) . . ?
O13 V2 V1 135.11(10) . . ?
O13 V2 V3 137.28(10) . 2_675 ?
O13 V2 O7 99.42(12) . . ?
O13 V2 O8 98.73(12) . . ?
O13 V2 O11 102.91(13) . . ?
O13 V2 O12 102.34(13) . . ?
O13 V2 O15 175.36(10) . . ?
O15 V2 V1 46.839(16) . . ?
O15 V2 V3 46.588(15) . 2_675 ?
V1 V3 V2 65.46(2) . 2_675 ?
O5 V3 V1 34.63(8) . . ?
O5 V3 V2 86.47(8) . 2_675 ?
O5 V3 O8 91.35(11) . . ?
O5 V3 O10 159.84(11) . . ?
O5 V3 O11 93.73(12) . 2_675 ?
O5 V3 O15 82.40(8) . . ?
O8 V3 V1 83.04(7) . . ?
O8 V3 V2 125.67(7) . 2_675 ?
O8 V3 O10 82.77(10) . . ?
O8 V3 O15 78.59(7) . . ?
O10 V3 V1 125.24(7) . . ?
O10 V3 V2 81.48(7) . 2_675 ?
O10 V3 O15 77.55(7) . . ?
O11 V3 V1 88.68(8) 2_675 . ?
O11 V3 V2 33.05(8) 2_675 2_675 ?
O11 V3 O8 157.37(11) 2_675 . ?
O11 V3 O10 84.94(11) 2_675 . ?
O11 V3 O15 80.25(8) 2_675 . ?
O14 V3 V1 138.16(10) . . ?
O14 V3 V2 135.26(10) . 2_675 ?
O14 V3 O5 103.78(13) . . ?
O14 V3 O8 97.91(13) . . ?
O14 V3 O10 96.13(12) . . ?
O14 V3 O11 102.25(13) . 2_675 ?
O14 V3 O15 173.06(10) . . ?
O15 V3 V1 47.813(16) . . ?
O15 V3 V2 47.290(17) . 2_675 ?
V3 O5 V1 112.23(13) . . ?
V1 O6 Na1 165.40(16) . . ?
V2 O7 V1 110.35(11) . 2_675 ?
C26 O7 V1 118.6(2) . 2_675 ?
C26 O7 V2 118.8(2) . . ?
V3 O8 V2 109.86(11) . . ?
C19 O8 V2 118.3(2) . . ?
C19 O8 V3 119.3(2) . . ?
V1 O10 V3 108.80(11) 2_675 . ?
C16 O10 V1 118.3(2) . 2_675 ?
C16 O10 V3 118.2(2) . . ?
V2 O11 V3 112.30(12) . 2_675 ?
V1 O12 V2 113.14(13) . . ?
V2 O13 Na1 137.38(15) . 1_545 ?
V1 O15 V1 180.0 . 2_675 ?
V1 O15 V2 93.85(2) 2_675 . ?
V1 O15 V2 86.15(2) 2_675 2_675 ?
V1 O15 V2 93.85(2) . 2_675 ?
V1 O15 V2 86.15(2) . . ?
V2 O15 V2 180.0 . 2_675 ?
V3 O15 V1 84.91(2) . . ?
V3 O15 V1 95.09(2) . 2_675 ?
V3 O15 V1 84.91(2) 2_675 2_675 ?
V3 O15 V1 95.09(2) 2_675 . ?
V3 O15 V2 86.12(2) 2_675 . ?
V3 O15 V2 93.88(2) . . ?
V3 O15 V2 93.88(2) 2_675 2_675 ?
V3 O15 V2 86.12(2) . 2_675 ?
V3 O15 V3 180.0 2_675 . ?
O10 C16 C2 112.6(3) . . ?
O8 C19 C2 111.9(3) . . ?
O7 C26 C2 111.7(3) . . ?
C16 C2 C5 108.5(3) . . ?
C19 C2 C16 110.5(3) . . ?
C19 C2 C26 110.7(3) . . ?
C19 C2 C5 108.5(3) . . ?
C26 C2 C16 109.7(3) . . ?
C26 C2 C5 108.9(3) . . ?
O6 Na1 O13 79.76(10) . 1_565 ?
O6 Na1 Na1 145.93(12) . 2_684 ?
O6 Na1 O2 161.68(15) . . ?
O6 Na1 O0AA 86.42(12) . 2_674 ?
O13 Na1 Na1 80.55(9) 1_565 2_684 ?
O2 Na1 O6 104.27(12) 2_684 . ?
O2 Na1 O13 77.97(10) 2_684 1_565 ?
O2 Na1 O13 88.01(11) . 1_565 ?
O2 Na1 Na1 44.17(9) 2_684 2_684 ?
O2 Na1 Na1 42.07(9) . 2_684 ?
O2 Na1 O2 86.23(13) 2_684 . ?
O2 Na1 O3 149.57(14) 2_684 . ?
O2 Na1 O0AA 110.87(12) . 2_674 ?
O2 Na1 O0AA 76.64(13) 2_684 2_674 ?
O3 Na1 O6 97.29(12) . . ?
O3 Na1 O13 127.57(14) . 1_565 ?
O3 Na1 Na1 116.74(11) . 2_684 ?
O3 Na1 O2 79.35(13) . . ?
O3 Na1 O0AA 83.64(13) . 2_674 ?
O0AA Na1 O13 147.00(12) 2_674 1_565 ?
O0AA Na1 Na1 95.37(12) 2_674 2_684 ?
Na1 O2 Na1 93.77(13) 2_684 . ?
loop_
_geom_bond_atom_site_label_1
_geom_bond_atom_site_label_2
_geom_bond_distance
_geom_bond_site_symmetry_2
_geom_bond_publ_flag
V1 V2 3.0764(9) . ?
V1 V3 3.0235(9) . ?
V1 O5 1.856(3) . ?
V1 O6 1.600(3) . ?
V1 O7 2.032(2) 2_675 ?
V1 O10 2.004(3) 2_675 ?
V1 O12 1.812(2) . ?
V1 O15 2.2492(6) . ?
V2 V3 3.0627(9) 2_675 ?
V2 O7 1.977(2) . ?
V2 O8 2.023(2) . ?
V2 O11 1.806(3) . ?
V2 O12 1.874(2) . ?
V2 O13 1.601(2) . ?
V2 O15 2.2556(6) . ?
V3 V2 3.0627(9) 2_675 ?
V3 O5 1.786(2) . ?
V3 O8 1.981(2) . ?
V3 O10 2.060(2) . ?
V3 O11 1.882(3) 2_675 ?
V3 O14 1.608(3) . ?
V3 O15 2.2300(6) . ?
O6 Na1 2.383(3) . ?
O7 V1 2.032(2) 2_675 ?
O7 C26 1.439(4) . ?
O8 C19 1.437(4) . ?
O10 V1 2.004(3) 2_675 ?
O10 C16 1.445(4) . ?
O11 V3 1.882(3) 2_675 ?
O13 Na1 2.787(3) 1_545 ?
O15 V1 2.2492(6) 2_675 ?
O15 V2 2.2556(6) 2_675 ?
O15 V3 2.2299(6) 2_675 ?
C16 C2 1.532(5) . ?
C19 C2 1.526(5) . ?
C26 C2 1.527(5) . ?
C2 C5 1.539(5) . ?
Na1 O13 2.787(3) 1_565 ?
Na1 Na1 3.486(3) 2_684 ?
Na1 O2 2.340(4) 2_684 ?
Na1 O2 2.434(4) . ?
Na1 O3 2.375(4) . ?
Na1 O0AA 2.610(5) 2_674 ?
O2 Na1 2.340(4) 2_684 ?
O0AA Na1 2.610(5) 2_674 ?
