#------------------------------------------------------------------------------
#$Date: 2021-09-06 12:22:13 +0300 (Mon, 06 Sep 2021) $
#$Revision: 268561 $
#$URL: file:///home/coder/svn-repositories/cod/cif/7/12/86/7128688.cif $
#------------------------------------------------------------------------------
#
# This file is available in the Crystallography Open Database (COD),
# http://www.crystallography.net/
#
# All data on this site have been placed in the public domain by the
# contributors.
#
data_7128688
loop_
_publ_author_name
'Zhang, Jiarong'
'Chen, Long'
'Dai, Xing'
'Chen, Lixi'
'Zhai, Fuwan'
'Yu, Weifeng'
'Guo, Shikai'
'Yang, Lijiang'
'Chen, Lanhua'
'Zhang, Yugang'
'He, Linwei'
'Chen, Changlun'
'Chai, Zhifang'
'Wang, Shuao'
_publ_section_title
;
 Efficient Sr-90 removal from highly alkaline solution by an ultrastable
 crystalline zirconium phosphonate.
;
_journal_issue                   68
_journal_name_full
'Chemical communications (Cambridge, England)'
_journal_page_first              8452
_journal_page_last               8455
_journal_paper_doi               10.1039/d1cc02446a
_journal_volume                  57
_journal_year                    2021
_chemical_formula_moiety         '[(CH3)2NH2]2[ZrC6H4(CH2PO3)2F2]'
_chemical_formula_sum            'C12 H2 F2 N2 O6 P2 Zr'
_chemical_formula_weight         461.32
_chemical_melting_point          ?
_chemical_name_common            SZ-7
_space_group_crystal_system      triclinic
_space_group_IT_number           2
_space_group_name_Hall           '-P 1'
_space_group_name_H-M_alt        'P -1'
_atom_sites_solution_hydrogens   geom
_audit_creation_method           SHELXL-2018/3
_audit_update_record
;
2021-07-22 deposited with the CCDC.	2021-07-23 downloaded from the CCDC.
;
_cell_angle_alpha                92.747(10)
_cell_angle_beta                 102.575(10)
_cell_angle_gamma                107.729(10)
_cell_formula_units_Z            1
_cell_length_a                   5.3254(10)
_cell_length_b                   8.7035(16)
_cell_length_c                   11.343(2)
_cell_measurement_reflns_used    2283
_cell_measurement_temperature    296(2)
_cell_measurement_theta_max      28.001
_cell_measurement_theta_min      2.905
_cell_volume                     485.06(16)
_computing_cell_refinement       'SAINT V7.68A(Bruker D8-Venture)'
_computing_data_collection       'SMART (Bruker D8-Venture)'
_computing_data_reduction        'SAINT V7.68A(Bruker D8-Venture)'
_computing_molecular_graphics    'SHELXL-2018/3 (Sheldrick, 2018)'
_computing_publication_material  Crystalmaker
_computing_structure_refinement  'SHELXL-2018/3 (Sheldrick, 2018)'
_computing_structure_solution    'SHELXT 2014/5 (Sheldrick, 2014)'
_diffrn_ambient_temperature      296(2)
_diffrn_measured_fraction_theta_full 0.995
_diffrn_measured_fraction_theta_max 0.982
_diffrn_measurement_device_type  'BRUKER apex II'
_diffrn_measurement_method       '0.5 wide w/ exposures'
_diffrn_radiation_type           MoK\a
_diffrn_radiation_wavelength     0.71073
_diffrn_reflns_av_R_equivalents  0.1129
_diffrn_reflns_av_unetI/netI     0.0951
_diffrn_reflns_Laue_measured_fraction_full 0.995
_diffrn_reflns_Laue_measured_fraction_max 0.982
_diffrn_reflns_limit_h_max       6
_diffrn_reflns_limit_h_min       -6
_diffrn_reflns_limit_k_max       11
_diffrn_reflns_limit_k_min       -11
_diffrn_reflns_limit_l_max       14
_diffrn_reflns_limit_l_min       -14
_diffrn_reflns_number            11353
_diffrn_reflns_point_group_measured_fraction_full 0.995
_diffrn_reflns_point_group_measured_fraction_max 0.982
_diffrn_reflns_theta_full        25.242
_diffrn_reflns_theta_max         28.001
_diffrn_reflns_theta_min         2.905
_exptl_absorpt_coefficient_mu    0.777
_exptl_absorpt_correction_T_max  0.863
_exptl_absorpt_correction_T_min  0.498
_exptl_absorpt_correction_type   multi-scan
_exptl_absorpt_process_details   'SADABS, BRUKER'
_exptl_crystal_colour            colourless
_exptl_crystal_density_diffrn    1.579
_exptl_crystal_density_meas      ?
_exptl_crystal_density_method    'not measured'
_exptl_crystal_description       schistose
_exptl_crystal_F_000             224
_exptl_crystal_size_max          0.06
_exptl_crystal_size_mid          0.02
_exptl_crystal_size_min          0.006
_refine_diff_density_max         2.892
_refine_diff_density_min         -1.242
_refine_diff_density_rms         0.271
_refine_ls_extinction_method     none
_refine_ls_goodness_of_fit_ref   1.078
_refine_ls_hydrogen_treatment    constr
_refine_ls_matrix_type           full
_refine_ls_number_parameters     115
_refine_ls_number_reflns         2283
_refine_ls_number_restraints     0
_refine_ls_restrained_S_all      1.078
_refine_ls_R_factor_all          0.1314
_refine_ls_R_factor_gt           0.0995
_refine_ls_shift/su_max          0.000
_refine_ls_shift/su_mean         0.000
_refine_ls_structure_factor_coef Fsqd
_refine_ls_weighting_details
'w=1/[\s^2^(Fo^2^)+(0.1669P)^2^+5.3396P] where P=(Fo^2^+2Fc^2^)/3'
_refine_ls_weighting_scheme      calc
_refine_ls_wR_factor_gt          0.2750
_refine_ls_wR_factor_ref         0.2953
_reflns_Friedel_coverage         0.000
_reflns_number_gt                1730
_reflns_number_total             2283
_reflns_threshold_expression     'I > 2\s(I)'
_cod_data_source_file            d1cc02446a2.cif
_cod_data_source_block           SZ-7
_cod_depositor_comments
;
The following automatic conversions were performed:

data item '_chemical_melting_point' value 'N/A' was changed to '?' --
the value is undefined or not given.

data item '_exptl_absorpt_correction_type' value 'MULTI-SCAN' was
changed to 'multi-scan' in accordance with the
/home/data/users/saulius/crontab/automatic-downloads/rss-feeds/RSC/lib/dictionaries/cif_core.dic
dictionary named 'cif_core.dic' version 2.4.2 last updated on
2011-04-26.

data item '_exptl_crystal_density_meas' value 'not measured' was
changed to '?' -- the value is perceived as not measured.

Automatic conversion script
Id: cif_fix_values 7556 2019-12-06 15:28:31Z antanas 

 Adding full bibliography for 7128688.cif.
;
_cod_original_cell_volume        485.05(16)
_cod_database_code               7128688
_shelx_shelxl_version_number     2018/3
_shelx_space_group_comment
;
The symmetry employed for this shelxl refinement is uniquely defined
by the following loop, which should always be used as a source of
symmetry information in preference to the above space-group names.
They are only intended as comments.
;
_shelx_res_file
;

TITL SAVE_a.res in P-1
    b.res
    created by SHELXL-2018/3 at 10:51:32 on 22-Jul-2021
REM Old TITL SAVE in P1

REM SHELXT solution in P-1
REM R1 0.142,  Rweak 0.027,  Alpha 0.072,  Orientation as input
REM Formula found by SHELXT:  C12 N6 F4 P2 Zr

CELL  0.71073   5.3254   8.7035  11.3429   92.747  102.575  107.729
ZERR    1.000   0.0010   0.0016   0.0020    0.010    0.010    0.010
LATT  1
SFAC C N O F P ZR H
UNIT 12 2 6 2 2 1 2
TEMP 23.000
L.S. 10
ACTA
LIST 6
FMAP 2
PLAN 20
WGHT    0.166900    5.339600
FVAR       1.11055
P1    5   -1.009864   -0.361419   -0.163863    11.00000    0.02735    0.02199 =
         0.01879    0.00433    0.00401    0.00887
O3    3   -0.928154   -0.198542   -0.209327    11.00000    0.05466    0.02992 =
         0.03581    0.01402    0.00598    0.00914
O2    3   -0.777782   -0.387037   -0.075600    11.00000    0.03128    0.04771 =
         0.06200   -0.00965   -0.00485    0.02204
O1    3   -1.248828   -0.379340   -0.103756    11.00000    0.03697    0.04575 =
         0.06020    0.00240    0.02298    0.01111
C6    1   -1.111890   -0.523050   -0.285058    11.00000    0.06231    0.04936 =
         0.03023   -0.01151   -0.00137    0.02804
AFIX  23
H6A   7   -0.950307   -0.528950   -0.308683    11.00000   -1.20000
H6B   7   -1.189012   -0.624129   -0.253861    11.00000   -1.20000
AFIX   0
F1    4   -0.667786   -0.686190   -0.131201    11.00000    0.04531    0.03439 =
         0.02834   -0.01148   -0.00231    0.00634
ZR    6   -0.500000   -0.500000    0.000000    10.50000    0.02208    0.02185 =
         0.01257    0.00178    0.00152    0.00754
C5    1   -1.776274   -0.602930   -0.520705    11.00000    0.06570    0.05224 =
         0.03057   -0.00208    0.00386    0.02608
C4    1   -1.312193   -0.512741   -0.396778    11.00000    0.06628    0.06579 =
         0.03616   -0.00494    0.00063    0.03891
C3    1   -1.579362   -0.610805   -0.416462    11.00000    0.04779    0.07117 =
         0.04319   -0.00604   -0.00673    0.02179
C2    1   -0.605413    0.022576    0.335336    11.00000    0.13313    0.13157 =
         0.04856    0.01361    0.01517    0.05813
C1    1   -0.725393   -0.059574    0.111170    11.00000    0.06360    0.04535 =
         0.06199   -0.01290    0.00709    0.01111
N1    2   -0.615353    0.077334    0.211324    11.00000    0.06209    0.04023 =
         0.04705    0.00935    0.00636    0.01853

HKLF 4




REM  SAVE_a.res in P-1
REM wR2 = 0.2953, GooF = S = 1.078, Restrained GooF = 1.078 for all data
REM R1 = 0.0995 for 1730 Fo > 4sig(Fo) and 0.1314 for all 2283 data
REM 115 parameters refined using 0 restraints

END

WGHT      0.1613      5.2144

REM Highest difference peak  2.892,  deepest hole -1.242,  1-sigma level  0.271
Q1    1  -0.6647 -0.4949 -0.0072  11.00000  0.05    2.89
Q2    1  -0.9507 -0.6082 -0.4195  11.00000  0.05    2.04
Q3    1  -1.1137 -0.3936 -0.0611  11.00000  0.05    1.98
Q4    1  -1.0949 -0.5037 -0.3925  11.00000  0.05    1.78
Q5    1  -1.2763 -0.5095 -0.2925  11.00000  0.05    1.48
Q6    1  -1.1846 -0.3705 -0.1760  11.00000  0.05    1.46
Q7    1  -0.6462 -0.3713 -0.1084  11.00000  0.05    1.45
Q8    1  -1.9595 -0.6161 -0.5269  11.00000  0.05    1.20
Q9    1  -0.8405 -0.3685 -0.1382  11.00000  0.05    1.14
Q10   1  -1.3801 -0.4749 -0.1018  11.00000  0.05    1.10
Q11   1  -1.4462 -0.7390 -0.2431  11.00000  0.05    1.02
Q12   1  -1.3835 -0.6354 -0.4421  11.00000  0.05    1.00
Q13   1  -1.0813 -0.1818 -0.2027  11.00000  0.05    0.82
Q14   1  -0.9063 -0.1280  0.1232  11.00000  0.05    0.77
Q15   1  -0.5280 -0.6412 -0.2358  11.00000  0.05    0.76
Q16   1  -1.6398 -0.7179 -0.3855  11.00000  0.05    0.76
Q17   1  -0.4518 -0.0279  0.3256  11.00000  0.05    0.70
Q18   1  -1.0914 -0.4379 -0.2235  11.00000  0.05    0.67
Q19   1  -0.4510  0.0848  0.2028  11.00000  0.05    0.67
Q20   1  -1.7790 -0.3781 -0.4446  11.00000  0.05    0.66
;
_shelx_res_checksum              72532
_shelx_hkl_file
;
  -1   0   0  388.46   29.50
  -1   0   0  354.56   29.60
  -1   0   0  288.47   34.50
   1   0   0  359.46   30.60
   1   0   0  301.67   29.50
   1   0   0  364.76   29.00
   1   0   0  331.07   30.90
  -3   0   0   21.10   14.80
  -3   0   0   27.70   17.30
  -3   0   0   40.10   38.00
   3   0   0    3.20   16.70
   3   0   0    8.10   11.30
   3   0   0  -16.50   37.10
   3   0   0   22.10   21.20
   3   0   0   23.30   19.30
   3   0   0   38.80   15.30
  -4   0   0  840.02   74.29
  -4   0   0  675.23   78.29
  -4   0   0  931.31  115.79
   4   0   0  709.93   63.59
   4   0   0  762.32   79.69
   4   0   0  813.52   71.09
   4   0   0  788.62   77.29
  -5   0   0   63.29  105.09
  -5   0   0    6.60   32.50
   5   0   0   77.79   40.60
   5   0   0   47.70   45.90
   5   0   0   31.80   25.10
  -6   0   0  203.28  148.09
  -6   0   0  262.87   55.19
   6   0   0  201.48   69.59
   6  -1   0  235.28   58.59
   6  -1   0  127.69   63.89
  -6   1   0  103.59  151.68
   5  -1   0  106.19   20.40
   5  -1   0   56.19   21.50
   5  -1   0  105.79   41.60
   5  -1   0   58.79   34.90
  -5   1   0   20.90  107.09
  -5   1   0   42.80   31.10
   4  -1   0  740.73  103.79
   4  -1   0  661.83   89.29
   4  -1   0  767.62   73.19
   4  -1   0  749.33   76.79
   4  -1   0  745.83   65.39
   4  -1   0  752.42   62.69
  -4   1   0  851.81   69.69
  -4   1   0  620.24   75.19
   3  -1   0  199.68   33.20
   3  -1   0  188.78   21.70
   3  -1   0  241.78   32.70
   3  -1   0  152.28   23.90
  -3   1   0  174.38   29.30
  -3   1   0  155.98   28.70
   2  -1   0 1665.13  150.08
   2  -1   0 2041.70  146.99
   2  -1   0 2054.49  147.69
   2  -1   0 1898.81  150.78
  -2   1   0 1750.42  149.29
  -2   1   0 2197.78  147.59
  -2   1   0 1896.51  150.48
   1  -1   0  252.77   32.90
   1  -1   0  307.17   27.40
   1  -1   0  365.76   30.40
  -1   1   0  364.06   28.70
  -1   1   0  291.87   34.00
  -1   1   0  323.37   27.60
  -3  -1   0  254.17   35.30
  -3  -1   0  216.18   52.49
  -3  -1   0  218.28   30.70
   3   1   0  223.18   31.30
   3   1   0  225.38   39.00
   3   1   0  241.98   33.10
   3   1   0  175.78   49.70
   3   1   0  190.28   34.90
  -4  -1   0  907.21   81.09
  -4  -1   0  742.13  111.69
  -4  -1   0  746.13   84.09
   4   1   0  859.81   81.29
   4   1   0  803.32   79.09
   4   1   0  737.23   75.99
   4   1   0  761.72   64.39
  -5  -1   0  105.49   38.10
  -5  -1   0  108.79  112.99
   5   1   0   69.49   49.00
   5   1   0   93.19   41.40
  -6  -1   0  276.67   63.79
  -6  -1   0  406.36  152.68
   6   1   0  231.28   73.99
   6   1   0  218.88   61.19
   6  -2   0  104.89   45.80
   6  -2   0   91.09   59.49
  -6   2   0  185.28  136.89
   5  -2   0  532.45   76.19
   5  -2   0  505.35   51.39
   5  -2   0  453.45   70.39
  -5   2   0  477.15   59.49
  -5   2   0  530.45  127.29
   4  -2   0   31.10   26.80
   4  -2   0   58.49   13.90
   4  -2   0   72.49   28.00
   4  -2   0   98.59   66.49
   4  -2   0   18.30   15.70
   4  -2   0   75.79   37.90
  -4   2   0   42.60   28.80
  -4   2   0   95.29   66.69
  -3   2   0 1357.76  124.69
   2  -2   0  184.98   39.20
   2  -2   0  206.08   28.20
  -2   2   0  175.48   23.80
  -2   2   0  186.98   26.80
  -2   2   0  177.98   38.80
   1  -2   0 5330.47  365.46
   1  -2   0 4952.00  366.26
   1  -2   0 4260.47  365.56
   1  -2   0 5306.97  371.16
  -1   2   0 4252.77  365.46
  -1   2   0 5261.97  371.36
  -1   2   0 5189.38  365.56
  -1   2   0 4385.36  364.26
   0  -2   0 4680.33  353.06
   0  -2   0 4820.22  358.26
   0  -2   0 4486.15  354.56
   0  -2   0 4845.42  353.96
   0   2   0 4825.02  353.16
   0   2   0 4567.04  354.56
   0   2   0 4718.93  358.86
  -1  -2   0  451.95   36.90
  -1  -2   0  318.97   38.40
   1   2   0  413.56   35.90
   1   2   0  469.25   42.60
   1   2   0  318.27   37.90
   1   2   0  485.55   44.80
  -3  -2   0  398.06   39.60
  -3  -2   0  466.85   52.49
  -3  -2   0  381.56   50.89
   3   2   0  336.87   49.60
   3   2   0  391.46   47.10
   3   2   0  466.05   50.29
   3   2   0  524.85   80.99
   3   2   0  550.34   56.49
  -4  -2   0  424.96   56.59
  -4  -2   0  439.46   69.19
  -4  -2   0  510.65  102.99
   4   2   0  448.56   57.89
   4   2   0  382.76   59.99
   4   2   0  386.66   64.39
  -5  -2   0    8.20  117.99
  -5  -2   0   28.20   45.50
   5   2   0  114.19   49.20
   5   2   0   82.29   49.99
   6  -3   0   91.99   38.70
   6  -3   0   32.20   44.20
   6  -3   0   52.49   55.59
  -6   3   0  -48.50  159.38
   5  -3   0 1130.49   88.69
   5  -3   0  878.51  104.69
   5  -3   0 1051.09  107.89
  -5   3   0  899.51  156.18
   4  -3   0    1.70   26.20
   4  -3   0   -3.30   70.69
   4  -3   0    3.70   33.40
   4  -3   0  -10.70   16.00
  -4   3   0   42.90   25.10
  -4   3   0   -2.10   28.60
  -4   3   0  123.59   71.29
   3  -3   0 3084.09  229.48
   3  -3   0 2323.47  215.68
   3  -3   0 2928.71  214.98
   3  -3   0 2381.26  212.78
  -3   3   0 3142.59  215.98
   2  -3   0 1213.98   90.79
   2  -3   0 1030.70   87.09
   2  -3   0  968.80   99.49
  -2   3   0 1003.80   99.39
  -2   3   0 1246.18   90.29
  -2   3   0 1081.69   87.79
   1  -3   0  791.42   72.19
   1  -3   0  848.72   62.79
   1  -3   0  726.33   62.59
   1  -3   0  861.51   64.09
   1  -3   0  711.33   63.59
  -1   3   0  665.53   62.19
  -1   3   0  834.22   62.79
  -1   3   0  779.92   73.89
  -1   3   0  803.72   63.69
   0  -3   0  134.89   29.10
   0  -3   0  139.29   19.00
   0  -3   0  109.39   17.70
   0  -3   0  152.98   21.50
   0   3   0  133.89   22.40
   0   3   0  141.79   20.10
   0   3   0  130.29   29.80
  -1  -3   0  440.06   42.70
  -1  -3   0  424.66   39.20
   1   3   0  450.75   40.60
   1   3   0  495.95   54.89
   1   3   0  479.15   47.20
   1   3   0  515.45   53.69
  -2  -3   0  473.55   47.80
  -2  -3   0  580.24   56.09
   2   3   0  648.54   64.29
   2   3   0  661.03   72.49
   2   3   0  563.24   52.49
  -3  -3   0  539.65   64.29
  -3  -3   0  460.75   45.70
  -3  -3   0  472.15   68.69
   3   3   0  366.76   54.29
   3   3   0  551.94   79.39
   3   3   0  501.55   54.29
  -4  -3   0  -53.49   36.30
  -4  -3   0   -7.30   80.99
   4   3   0   21.40   80.59
   4   3   0   -0.70   33.60
   4   3   0   12.30   33.90
  -5  -3   0  336.97   64.49
   5   3   0  178.68  138.59
   5   3   0  378.56   67.49
   5   3   0  351.06   68.39
   6  -4   0  132.59   37.80
   6  -4   0   82.39   60.39
   6  -4   0  253.57   57.89
  -6   4   0  247.08  139.39
   5  -4   0 1274.97  100.89
   5  -4   0 1256.07  117.89
  -5   4   0  911.81  110.39
   4  -4   0   34.00   20.30
   4  -4   0   49.50   30.30
   4  -4   0  -34.60   30.90
   4  -4   0   69.19   72.39
  -4   4   0  -16.80   25.90
  -4   4   0   21.00   65.69
  -4   4   0   -9.40   43.20
   3  -4   0  335.07   37.00
   3  -4   0  243.08   43.30
   3  -4   0  256.47   36.30
   3  -4   0  361.96   72.09
  -3   4   0  245.78   37.80
  -3   4   0  380.06   67.59
   2  -4   0  208.38   29.20
   2  -4   0  278.67   52.19
   2  -4   0  284.27   31.40
   2  -4   0  287.17   36.50
  -2   4   0  240.48   28.40
  -2   4   0  255.67   35.30
  -2   4   0  244.18   26.60
  -2   4   0  239.38   48.40
  -2   4   0  256.47   27.00
   1  -4   0  975.00   80.29
   1  -4   0 1056.49   95.59
  -1   4   0  968.90   80.49
  -1   4   0 1023.20   94.39
   0  -4   0   76.89   16.90
   0  -4   0   95.19   17.10
   0  -4   0   73.69   28.20
   0  -4   0   84.59   18.30
   0   4   0   65.79   16.40
   0   4   0   82.39   31.80
   0   4   0   69.19   19.50
  -1  -4   0 2041.90  169.68
  -1  -4   0 2073.09  164.38
  -1  -4   0 1903.91  162.58
   1   4   0 2141.99  163.78
   1   4   0 2302.97  177.98
   1   4   0 2209.08  169.18
   1   4   0 2132.49  172.68
  -2  -4   0  258.47   43.90
  -2  -4   0  321.17   35.30
  -2  -4   0  308.87   43.90
   2   4   0  439.96   74.39
   2   4   0  387.46   64.39
  -3  -4   0  728.53   69.79
  -3  -4   0  696.33   90.29
   3   4   0 1014.50  119.69
   3   4   0  783.62   79.39
  -4  -4   0   94.59   47.20
   4   4   0   51.29   95.39
   4   4   0   -3.90   40.90
  -5  -4   0  124.19   62.49
   5   4   0  246.98  156.68
   5   4   0  259.87   63.59
   6  -5   0  268.47   48.00
   6  -5   0  247.18   65.49
   6  -5   0  264.57   67.29
  -6   5   0  106.99  137.99
   5  -5   0  340.67   50.69
   5  -5   0  383.56   60.49
  -5   5   0  243.28   54.89
  -5   5   0  284.07  110.69
   4  -5   0   78.69   35.90
   4  -5   0  145.19   39.50
   4  -5   0  142.99   27.80
   4  -5   0  -82.59  123.59
  -4   5   0  121.89   36.60
  -4   5   0  162.08   72.99
   3  -5   0  261.17   37.10
   3  -5   0  279.27   48.30
   3  -5   0  276.67   67.19
   3  -5   0  251.67   37.80
  -3   5   0  253.87   43.40
  -3   5   0  380.86   72.49
  -3   5   0  197.48   34.90
   2  -5   0  418.46   50.09
   2  -5   0  486.95   53.99
   2  -5   0  536.85   47.90
   2  -5   0  435.26   72.29
  -2   5   0  576.94   46.60
  -2   5   0  536.75   47.60
  -2   5   0  428.66   48.30
  -2   5   0  533.45   50.69
  -2   5   0  533.15   66.99
   1  -5   0 1357.16  122.49
   1  -5   0 1535.95  107.89
   1  -5   0 1276.37  109.39
   1  -5   0 1213.68  108.09
  -1   5   0 1183.88  109.49
  -1   5   0 1305.77  122.19
  -1   5   0 1495.95  107.89
   0  -5   0   99.89   20.70
   0  -5   0   88.19   19.30
   0  -5   0  108.79   39.60
   0  -5   0  106.29   22.70
   0   5   0  116.89   25.20
   0   5   0  146.59   43.70
   0   5   0  142.69   21.70
  -1  -5   0 1726.33  136.89
  -1  -5   0 1675.23  144.19
  -1  -5   0 1721.63  135.59
   1   5   0 1766.02  142.09
   1   5   0 1632.14  149.49
   1   5   0 1699.63  135.59
   1   5   0 1717.13  152.98
  -2  -5   0  120.49   38.80
  -2  -5   0  161.58   25.00
  -2  -5   0  116.89   40.20
   2   5   0  117.39   29.40
   2   5   0  112.49   63.59
  -3  -5   0   41.30   42.30
  -3  -5   0  121.79   28.50
   3   5   0   65.19   43.30
   3   5   0  312.17   88.19
  -4  -5   0  -65.69   55.19
   4   5   0   -1.80   62.59
   4   5   0   46.70  118.29
  -6   6   0   -8.00  153.48
  -6   6   0  130.99   69.69
   5  -6   0  174.58   60.89
   5  -6   0  178.78   37.50
  -5   6   0   82.59   51.79
  -5   6   0  130.79  123.09
   4  -6   0  318.77   53.49
   4  -6   0  200.08   37.30
  -4   6   0  263.47   96.29
  -4   6   0  234.98   48.60
   3  -6   0   28.90   20.30
   3  -6   0  -12.00   27.10
   3  -6   0  -44.40   24.70
   3  -6   0    9.50   66.29
  -3   6   0   26.10   18.70
  -3   6   0   22.30   28.00
  -3   6   0   64.09   26.50
  -3   6   0   19.40   63.39
   2  -6   0  858.41  113.19
   2  -6   0 1084.99   91.49
   2  -6   0 1179.08   98.89
   2  -6   0 1046.30   92.39
  -2   6   0 1208.08   93.09
  -2   6   0 1124.29   93.89
  -2   6   0 1231.88  121.19
   1  -6   0  138.49   26.10
   1  -6   0  110.79   24.20
   1  -6   0  160.08   45.20
   1  -6   0  158.58   27.30
  -1   6   0  131.89   27.60
  -1   6   0  180.38   50.89
  -1   6   0  171.08   29.60
   0  -6   0  807.02   70.49
   0  -6   0  658.43   90.99
   0  -6   0  844.52   76.49
   0  -6   0  709.73   69.89
   0   6   0  747.13   68.79
   0   6   0  843.32  101.99
   0   6   0  882.31   78.49
  -1  -6   0  100.99   30.00
  -1  -6   0   29.30   20.70
  -1  -6   0   68.19   29.80
   1   6   0  110.09   26.50
   1   6   0  102.59   62.59
  -2  -6   0  337.27   46.40
  -2  -6   0  352.36   56.79
   2   6   0  315.57  104.99
   2   6   0  310.87   58.19
  -3  -6   0  107.19   53.99
   3   6   0    3.10  115.19
   3   6   0  150.58   57.79
  -4  -6   0  328.07   78.09
   4   6   0  219.48  138.09
   4   6   0  108.29   77.49
   6  -7   0  164.58   47.20
   6  -7   0  138.49   76.39
  -6   7   0   50.99   73.39
  -6   7   0   10.70  154.78
   5  -7   0   77.49   61.19
   5  -7   0   32.00   34.30
  -5   7   0   75.49  133.89
  -5   7   0   -7.60   49.90
   4  -7   0  728.13  111.59
   4  -7   0  702.63   77.49
  -4   7   0  597.34   79.29
  -4   7   0  743.73  138.29
   3  -7   0   23.20   25.20
   3  -7   0   18.50   39.20
   3  -7   0   -8.00   32.40
  -3   7   0   20.20   27.60
  -3   7   0   39.70   25.10
  -3   7   0    8.00   22.20
  -3   7   0   -4.30   66.79
  -3   7   0   94.19   36.00
   2  -7   0 1227.08   99.49
   2  -7   0  901.21  100.79
   2  -7   0 1182.68  138.59
   2  -7   0 1117.59   99.49
  -2   7   0 1393.16  130.89
  -2   7   0  964.00  102.69
  -2   7   0 1332.87  101.19
   1  -7   0  -26.30   57.09
   1  -7   0  -32.00   19.10
   1  -7   0   20.30   24.50
   1  -7   0    7.80   26.00
  -1   7   0   24.40   30.70
  -1   7   0   21.00   22.70
  -1   7   0   23.20   54.09
   0  -7   0 1773.32  133.69
   0  -7   0 1416.86  131.89
   0  -7   0 1652.23  141.59
   0   7   0 1745.23  166.18
   0   7   0 1545.05  131.29
  -1  -7   0   -8.10   24.60
  -1  -7   0  -12.20   32.40
   1   7   0    5.10   34.50
   1   7   0   44.90   85.79
  -2  -7   0  128.09   50.19
  -2  -7   0  171.48   37.40
   2   7   0  244.98   53.59
   2   7   0  320.67  109.29
  -3  -7   0   27.70   63.29
   3   7   0  121.79  138.49
   3   7   0  -25.70   65.79
   6  -8   0  -91.99   86.89
   6  -8   0  111.49   62.69
  -6   8   0  -67.79  179.28
  -6   8   0   15.60   77.99
   5  -8   0  -58.89   75.89
   5  -8   0    8.90   36.60
  -5   8   0  138.29  163.88
  -5   8   0   31.60   57.09
   4  -8   0  784.42  120.69
   4  -8   0  558.74   73.19
  -4   8   0  457.95   80.89
  -4   8   0  329.57  123.09
   3  -8   0   69.69   46.00
   3  -8   0   94.09   32.90
  -3   8   0   96.39   32.50
  -3   8   0   72.09   39.10
  -3   8   0   26.60   46.00
  -3   8   0   61.79   84.89
  -3   8   0   74.59   35.10
   2  -8   0  367.86   53.79
   2  -8   0  349.37   53.79
   2  -8   0  357.16   56.69
  -2   8   0  354.06   98.39
  -2   8   0  450.55   57.19
  -2   8   0  446.56   65.09
   1  -8   0   -1.60   27.00
   1  -8   0   11.60   38.30
   1  -8   0   -1.00   24.30
  -1   8   0   57.39   28.90
  -1   8   0   29.90   83.29
   0  -8   0  426.46   55.69
   0  -8   0  521.75   79.79
   0   8   0  382.66   59.09
   0   8   0  587.84  122.49
  -1  -8   0  -50.19   45.40
  -1  -8   0   25.70   30.70
   1   8   0   74.99  109.89
   1   8   0   50.19   42.90
  -2  -8   0  212.58   45.00
  -2  -8   0   25.20   64.89
   2   8   0   88.59   59.19
   2   8   0  101.79  144.69
  -3  -8   0   34.30   88.09
   3   8   0  -97.29   74.49
   3   8   0  -15.80  243.08
   5  -9   0  198.88   61.49
   5  -9   0  304.07   93.29
  -5   9   0  186.58  167.48
  -5   9   0   37.00   65.09
   4  -9   0  124.89   71.89
   4  -9   0  108.69   46.50
  -4   9   0  160.68  128.39
  -4   9   0  256.97   65.49
   3  -9   0  101.19   38.50
   3  -9   0  220.28   54.19
  -3   9   0  241.88   55.49
  -3   9   0   62.49  109.79
  -3   9   0  148.99   40.80
  -3   9   0   91.69   52.99
   2  -9   0   14.70   35.00
  -2   9   0   14.30   40.60
  -2   9   0  -14.40  100.09
   1  -9   0   39.00   27.30
   1  -9   0  110.99   44.50
  -1   9   0  145.89   41.20
  -1   9   0  289.17  121.09
   0  -9   0  318.57   66.29
   0  -9   0  392.16   61.39
   0   9   0  349.77  129.39
   0   9   0  409.76   72.09
  -1  -9   0  122.19   41.00
  -1  -9   0  184.78   68.39
   1   9   0  195.68   54.49
   1   9   0 -108.89  155.18
  -2  -9   0  230.68   92.49
  -2  -9   0  166.68   52.99
   2   9   0    3.70   76.89
   2   9   0   43.20  175.98
   5 -10   0  206.08   97.59
  -5  10   0  203.18  189.38
   4 -10   0   26.50   80.89
   4 -10   0  -17.80   51.79
  -4  10   0   12.70   70.39
  -4  10   0   80.09  145.09
   3 -10   0  257.67   55.99
  -3  10   0  153.08   52.19
  -3  10   0  196.08  145.59
  -3  10   0  213.28   64.79
   2 -10   0  -50.99   35.60
  -2  10   0   10.70   43.20
  -2  10   0   62.69   55.09
   1 -10   0  137.69   40.60
   1 -10   0  144.69   58.09
  -1  10   0  177.08  142.99
  -1  10   0  210.58   56.89
   0 -10   0  171.88   51.09
   0 -10   0  100.29   70.69
   0  10   0  -57.39  158.48
   0  10   0  153.38   53.89
  -1 -10   0   75.69   76.89
  -1 -10   0  112.69   58.49
   1  10   0  -23.90   65.09
   1  10   0  -29.70  175.08
   3 -11   0   91.69   55.19
  -3  11   0   78.29  159.88
  -3  11   0  143.59   72.99
   2 -11   0  -21.90   49.90
  -2  11   0  129.19   56.99
  -2  11   0   73.89   65.19
  -2  11   0 -136.29  144.59
   1 -11   0  205.68   74.19
   1 -11   0  274.97   68.69
  -1  11   0  524.25  170.78
  -1  11   0  107.99   62.99
  -1  11  -1  313.17  164.08
  -1  11  -1  176.68   69.89
   1 -11   1  155.98   61.39
   1 -11   1   77.99   68.49
  -2  11  -1  213.08  142.69
  -2  11  -1  131.59   68.69
   2 -11   1   41.40   56.89
   2 -11   1   69.29   58.59
  -3  11  -1   43.50   74.39
  -3  11  -1   -8.70  146.99
   3 -11   1   -3.20   47.80
   1  10  -1  431.26  173.88
   1  10  -1  147.19   69.69
  -1 -10   1  204.68   55.49
  -1 -10   1  208.48   89.89
   0  10  -1   47.70   51.89
   0  10  -1 -134.49  150.68
   0 -10   1   31.90   63.89
   0 -10   1   36.20   41.60
  -1  10  -1  309.67  138.19
  -1  10  -1  199.48   57.89
   1 -10   1  198.68   55.09
   1 -10   1  122.19   41.20
  -2  10  -1  125.99  120.99
  -2  10  -1  -15.30   54.19
   2 -10   1   45.60   44.60
   2 -10   1  -24.80   36.80
  -3  10  -1  486.75  136.49
  -3  10  -1  288.87   56.39
  -3  10  -1  273.57   66.39
   3 -10   1  173.78   54.99
  -4  10  -1  191.88  143.79
  -4  10  -1   21.70   77.29
   4 -10   1   50.69   87.99
   4 -10   1   14.20   57.79
   2   9  -1  -18.70   71.79
   2   9  -1   14.00  164.98
  -2  -9   1  -55.19   49.90
  -2  -9   1    2.00   77.79
   1   9  -1  127.69  148.69
   1   9  -1  114.39   52.29
  -1  -9   1   53.69   70.79
  -1  -9   1   64.59   39.70
   0   9  -1   51.39   44.60
   0   9  -1   57.59  114.19
   0  -9   1   31.90   31.00
   0  -9   1  -35.70   48.20
  -1   9  -1  487.55  127.69
  -1   9  -1  418.76   72.89
   1  -9   1  595.44   84.09
   1  -9   1  459.45   63.09
  -2   9  -1  -12.80   39.80
  -2   9  -1  -65.39   91.39
  -2   9  -1    7.10   47.10
   2  -9   1   29.50   33.60
   2  -9   1   55.69   34.00
  -3   9  -1  415.96   64.69
  -3   9  -1  366.46  108.69
  -3   9  -1  316.27   62.69
   3  -9   1  429.26   66.09
   3  -9   1  687.23  109.39
  -4   9  -1  106.49  125.59
  -4   9  -1   -6.70   60.99
   4  -9   1   95.19   76.59
   4  -9   1   -7.30   39.00
  -5   9  -1   62.59  169.18
  -5   9  -1  316.07   86.09
   5  -9   1  601.04  108.39
   5  -9   1  262.97   67.49
   3   8  -1   -9.60  165.78
   3   8  -1  185.98   86.39
  -3  -8   1   13.10   79.79
   2   8  -1   72.89   57.79
   2   8  -1  -86.59  136.89
  -2  -8   1    1.30   67.29
  -2  -8   1   42.60   37.90
   1   8  -1  112.59  112.39
   1   8  -1   92.19   45.80
  -1  -8   1   28.90   53.89
  -1  -8   1   50.39   30.40
   0   8  -1   65.19   35.50
   0   8  -1  157.88   95.89
   0  -8   1   53.19   43.40
   0  -8   1   79.39   29.30
  -1   8  -1  299.97   58.19
  -1   8  -1  477.45   59.29
  -1   8  -1  676.03  113.79
   1  -8   1  480.55   64.69
   1  -8   1  434.96   55.59
  -2   8  -1   99.49   70.49
  -2   8  -1   16.90   34.50
  -2   8  -1   54.39   33.70
   2  -8   1   50.59   25.20
   2  -8   1   21.00   37.60
   2  -8   1  -16.80   23.80
  -3   8  -1  772.62  141.19
  -3   8  -1  355.46   63.09
  -3   8  -1  586.64   69.39
  -3   8  -1  541.75   60.59
   3  -8   1  359.66   60.89
  -4   8  -1   48.20   48.10
  -4   8  -1   -1.30  104.79
   4  -8   1  135.29   68.49
   4  -8   1   73.39   34.90
  -5   8  -1   61.69  146.29
  -5   8  -1  131.09   64.59
   5  -8   1  360.76   95.19
   5  -8   1  213.88   52.09
   6  -8   1   13.30   85.99
   6  -8   1   64.89   62.69
   3   7  -1   76.09  140.19
   3   7  -1  -18.50   62.09
  -3  -7   1  112.69   65.79
   2   7  -1   35.50   44.90
   2   7  -1  181.98  103.89
  -2  -7   1   12.60   53.69
  -2  -7   1   -2.00   29.30
   1   7  -1   29.30   33.40
   1   7  -1  101.89   80.99
  -1  -7   1    9.80   41.50
  -1  -7   1    8.30   24.10
   0   7  -1 1193.08  137.99
   0   7  -1 1184.78  100.89
   0  -7   1 1323.37  110.59
   0  -7   1 1176.88  101.99
   0  -7   1 1020.20  103.39
  -1   7  -1  477.25   51.89
  -1   7  -1  432.26   87.19
  -1   7  -1  496.45   62.79
   1  -7   1  448.76   52.49
   1  -7   1  328.17   74.29
   1  -7   1  454.65   56.29
   1  -7   1  529.45   56.19
  -2   7  -1  369.26   50.69
  -2   7  -1  368.16   53.79
  -2   7  -1  346.97   71.39
   2  -7   1  372.36   49.99
   2  -7   1  304.17   75.89
   2  -7   1  350.86   51.89
   2  -7   1  426.86   46.90
  -3   7  -1   66.89   39.90
  -3   7  -1   85.29   66.49
  -3   7  -1  128.19   27.20
  -3   7  -1  126.39   33.80
   3  -7   1   93.89   39.10
   3  -7   1  102.19   88.99
   3  -7   1   21.20   26.00
   3  -7   1   40.10   40.30
  -4   7  -1  360.56  121.49
  -4   7  -1  573.84   82.79
   4  -7   1  723.53   91.79
   4  -7   1  558.74   69.89
  -5   7  -1  106.09   60.89
  -5   7  -1 -132.59  120.19
   5  -7   1  -32.90   53.69
   5  -7   1    1.10   31.60
  -6   7  -1  -28.30  170.28
  -6   7  -1  127.29   72.89
   6  -7   1   90.39   52.19
   6  -7   1  165.78   79.79
   4   6  -1  465.95  144.79
   4   6  -1  200.68   78.29
  -4  -6   1   58.89   66.29
   3   6  -1    1.70   94.69
   3   6  -1   -6.70   50.29
  -3  -6   1  -44.00   50.19
   2   6  -1  680.13   73.99
   2   6  -1  777.42  121.19
  -2  -6   1  646.94   63.99
  -2  -6   1  533.25   86.99
   1   6  -1   -0.20   54.49
   1   6  -1    6.70   54.39
   1   6  -1   13.60   24.30
  -1  -6   1    1.10   29.00
  -1  -6   1   18.20   29.60
  -1  -6   1  -30.70   19.90
   0   6  -1 2524.35  200.08
   0   6  -1 2380.86  194.58
   0   6  -1 2351.86  215.48
   0  -6   1 2328.27  195.08
   0  -6   1 2854.91  202.18
   0  -6   1 2370.96  210.18
   0  -6   1 2703.13  197.38
  -1   6  -1   63.39   43.70
  -1   6  -1   74.29   23.30
  -1   6  -1   80.09   21.80
   1  -6   1   44.70   19.10
   1  -6   1   42.70   37.90
   1  -6   1   38.60   22.80
   1  -6   1   46.20   22.50
  -2   6  -1 1071.99  105.89
  -2   6  -1  879.91   79.99
   2  -6   1  986.10   80.99
   2  -6   1  757.92   99.59
   2  -6   1  826.82   77.09
   2  -6   1 1002.60   85.89
  -3   6  -1  -79.29   49.20
  -3   6  -1   14.80   23.90
  -3   6  -1   10.00   28.70
   3  -6   1    3.60   67.29
   3  -6   1    2.30   31.40
   3  -6   1  -10.50   20.10
   3  -6   1  -26.80   27.10
  -4   6  -1  389.16  103.69
  -4   6  -1  579.74   73.89
   4  -6   1  647.64   65.69
   4  -6   1  623.34   85.49
  -5   6  -1   64.09  118.69
  -5   6  -1  -28.90   46.40
   5  -6   1   88.69   51.89
   5  -6   1   95.29   30.20
  -6   6  -1  258.97   80.39
  -6   6  -1  280.77  161.38
   6  -6   1  257.77   71.49
   4   5  -1  106.59  112.59
   4   5  -1  125.99   61.09
  -4  -5   1  112.39   60.89
   3   5  -1  122.19   79.59
   3   5  -1   46.60   42.50
  -3  -5   1   -0.30   40.80
   2   5  -1  847.12   72.39
   2   5  -1  730.43   97.69
  -2  -5   1  751.02   77.49
  -2  -5   1  652.43   64.19
  -2  -5   1  723.83   81.99
   1   5  -1  259.27   57.29
   1   5  -1   94.69   28.10
   1   5  -1  177.38   27.00
   1   5  -1  127.89   42.70
  -1  -5   1  144.59   32.60
  -1  -5   1  164.88   27.30
  -1  -5   1  207.58   28.60
   0   5  -1 1205.98  118.79
   0   5  -1 1210.18  103.69
   0   5  -1 1415.76  108.99
   0  -5   1 1449.26  106.19
   0  -5   1 1227.18  117.29
   0  -5   1 1340.07  108.59
   0  -5   1 1216.68  104.59
  -1   5  -1  245.18   37.20
  -1   5  -1  355.16   35.00
  -1   5  -1  304.07   50.59
   1  -5   1  234.68   36.10
   1  -5   1  332.87   35.80
   1  -5   1  290.47   36.30
   1  -5   1  313.57   54.89
  -2   5  -1  702.63   59.79
  -2   5  -1  712.03   61.79
  -2   5  -1  698.73   81.09
   2  -5   1  571.54   58.09
   2  -5   1  785.42   66.69
   2  -5   1  589.94   61.99
   2  -5   1  553.54   57.49
   2  -5   1  704.13   77.39
  -3   5  -1  429.36   52.99
  -3   5  -1  308.27   67.99
  -3   5  -1  443.26   48.10
   3  -5   1  563.04   59.59
   3  -5   1  321.57   46.40
   3  -5   1  356.66   78.69
   3  -5   1  470.55   48.80
  -4   5  -1  554.74  118.19
  -4   5  -1  670.93   74.29
   4  -5   1  784.62   84.69
   4  -5   1  705.93   69.79
  -5   5  -1  -45.00  103.59
  -5   5  -1   40.50   47.00
   5  -5   1   97.89   46.10
   5  -5   1   50.69   27.80
  -6   5  -1  164.48   75.79
  -6   5  -1  234.38  138.39
   6  -5   1  201.18   60.59
   6  -5   1  250.67   44.80
   5   4  -1  -26.80   56.69
   5   4  -1   11.70  127.19
  -5  -4   1  -30.20   59.99
   4   4  -1  -44.40   91.19
   4   4  -1   82.19   43.70
  -4  -4   1   55.69   47.50
  -3  -4   1  343.57   38.70
  -3  -4   1  363.36   58.29
   2   4  -1  695.23   83.59
   2   4  -1  732.03   80.79
   2   4  -1  787.52   64.49
  -2  -4   1  619.44   57.09
  -2  -4   1  694.93   65.89
  -2  -4   1  568.44   70.29
   1   4  -1 1508.55  113.09
   1   4  -1 1477.75  126.39
   1   4  -1 1389.86  117.59
   1   4  -1 1364.16  124.09
  -1  -4   1 1427.36  112.19
  -1  -4   1 1457.55  113.89
  -1  -4   1 1304.27  118.09
   0   4  -1   16.60   15.60
   0   4  -1    4.20   11.50
   0   4  -1   22.80   26.80
   0  -4   1    0.50   14.20
   0  -4   1   -2.80   11.20
   0  -4   1   22.90   13.00
   0  -4   1    2.90   24.90
  -1   4  -1 1569.14  115.79
  -1   4  -1 1223.48  114.59
  -1   4  -1 1403.36  125.29
   1  -4   1 1631.24  127.49
   1  -4   1 1655.63  115.79
   1  -4   1 1313.77  115.19
  -2   4  -1 1417.66  112.99
  -2   4  -1 1467.45  113.59
  -2   4  -1 1380.66  123.79
   2  -4   1 1319.47  125.89
   2  -4   1 1492.05  116.79
   2  -4   1 1378.16  114.09
   2  -4   1 1436.46  112.79
  -3   4  -1  578.54   61.59
  -3   4  -1  536.65   78.99
  -3   4  -1  625.24   58.89
   3  -4   1  701.23   65.49
   3  -4   1  697.03   59.19
   3  -4   1  556.34   57.29
   3  -4   1  536.05   80.19
  -4   4  -1   73.69   71.59
  -4   4  -1   79.59   32.00
   4  -4   1  169.68   86.99
   4  -4   1   85.59   23.10
   4  -4   1  139.39   36.10
  -5   4  -1   67.69   45.10
  -5   4  -1  -61.99   99.79
   5  -4   1   71.69   42.00
   5  -4   1   75.39   23.90
  -6   4  -1   34.60  143.69
   6  -4   1  211.68   60.19
   6  -4   1  196.78   56.69
   5   3  -1  443.86   71.89
  -5  -3   1  486.35   77.59
  -5  -3   1  644.64  141.09
   4   3  -1   -8.30   33.40
   4   3  -1   76.69   34.00
  -4  -3   1  -78.09   38.10
  -4  -3   1   24.30   82.89
  -4  -3   1   84.39   38.50
   3   3  -1  856.21   81.69
  -3  -3   1  906.31   89.29
  -3  -3   1 1046.20  104.89
  -3  -3   1  890.21   91.39
   2   3  -1  549.25   66.69
   2   3  -1  552.04   62.29
   2   3  -1  615.44   50.59
  -2  -3   1  574.84   53.49
  -2  -3   1  449.76   56.59
  -2  -3   1  512.55   45.30
   1   3  -1 1016.60   86.09
   1   3  -1 1056.09   89.89
   1   3  -1 1049.89   93.89
   1   3  -1 1098.39   96.09
  -1  -3   1 1051.39   86.79
  -1  -3   1 1159.48   92.39
  -1  -3   1 1155.98   85.49
   0   3  -1  209.28   24.60
   0   3  -1  239.08   36.40
   0   3  -1  229.18   27.30
   0  -3   1  233.78   28.70
   0  -3   1  223.18   24.90
   0  -3   1  203.68   31.60
   0  -3   1  240.88   23.70
  -1   3  -1  661.13   52.29
  -1   3  -1  568.44   61.59
  -1   3  -1  574.54   50.49
   1  -3   1  698.33   51.29
   1  -3   1  528.45   52.69
   1  -3   1  614.74   59.19
  -2   3  -1 1501.45  137.19
  -2   3  -1 1828.72  137.89
  -2   3  -1 1555.54  145.49
   2  -3   1 2053.49  141.19
   2  -3   1 1810.82  137.79
   2  -3   1 1739.53  137.09
   2  -3   1 1838.72  147.69
  -3   3  -1 1859.91  146.29
  -3   3  -1 1711.43  146.39
   3  -3   1 2007.60  145.19
   3  -3   1 1720.53  145.29
   3  -3   1 1857.41  161.08
   3  -3   1 1835.92  148.59
  -4   3  -1   -3.00   28.00
  -4   3  -1    4.70   59.79
   4  -3   1    3.10   37.00
   4  -3   1    7.70   17.10
   4  -3   1   98.69   67.89
   4  -3   1   74.49   31.40
  -5   3  -1  217.48  114.59
   5  -3   1  275.27   49.60
   5  -3   1  192.38   31.90
  -6   3  -1  -92.29  139.09
   6  -3   1  127.49   55.29
   6  -3   1  129.89   33.80
   6  -3   1  123.49   55.09
   6   2  -1  -26.40   64.39
   6   2  -1   63.19   66.19
  -6  -2   1   46.00  170.48
  -6  -2   1   67.59   62.29
   5   2  -1  454.15   69.19
   5   2  -1  653.23   78.79
  -5  -2   1  491.35  122.49
  -5  -2   1  404.46   68.19
   4   2  -1  136.09   38.20
   4   2  -1  105.79   37.70
   4   2  -1  206.48   37.90
  -4  -2   1  170.98   78.69
  -4  -2   1  165.78   35.60
  -4  -2   1  180.28   36.60
   3   2  -1  414.16   51.89
   3   2  -1  448.66   49.70
   3   2  -1  519.45   74.49
   3   2  -1  445.46   47.60
  -3  -2   1  410.96   48.50
  -3  -2   1  446.36   52.59
  -3  -2   1  451.95   56.89
   2   2  -1  151.48   27.20
   2   2  -1  208.78   43.20
   2   2  -1  170.08   26.00
   2   2  -1  210.28   24.30
  -2  -2   1  162.98   27.20
  -2  -2   1  136.89   24.80
  -2  -2   1  185.38   37.10
   1   2  -1  680.13   61.59
   1   2  -1  723.93   62.29
   1   2  -1  668.03   56.09
  -1  -2   1  686.23   56.49
   0   2  -1  128.39   26.10
   0   2  -1  158.58   19.10
   0   2  -1  139.39   18.40
   0  -2   1  112.69   17.40
   0  -2   1  139.69   17.70
   0  -2   1  132.89   19.90
   0  -2   1  140.49   23.40
  -1   2  -1 9874.81  722.93
  -1   2  -1 9397.36  722.23
  -1   2  -1 9999.00  726.63
   1  -2   1 9265.37  725.63
   1  -2   1 9383.76  722.43
   1  -2   1 9997.50  722.73
  -2   2  -1 1154.58   85.79
  -2   2  -1  875.61   84.99
   2  -2   1 1148.49   95.29
   2  -2   1 1086.39   84.69
   2  -2   1  930.01   86.99
   2  -2   1 1144.29   85.49
  -3   2  -1 1848.92  138.79
  -3   2  -1 1517.45  138.29
  -3   2  -1 1564.14  150.98
   3  -2   1 1617.34  140.39
   3  -2   1 1794.22  135.89
   3  -2   1 1952.00  154.08
   3  -2   1 1825.82  139.79
  -4   2  -1  313.57   55.89
  -4   2  -1  303.77   76.49
  -4   2  -1  411.76   52.19
   4  -2   1  316.87   53.69
   4  -2   1  193.18   78.69
   4  -2   1  377.26   38.60
  -5   2  -1  300.47  115.59
   5  -2   1  424.76   61.29
   5  -2   1  407.56   60.19
   5  -2   1  295.37   39.90
  -6   2  -1   99.29  159.38
   6  -2   1   81.49   52.49
   6  -2   1   90.39   56.49
   6   1  -1  115.09   62.69
   6   1  -1   91.09   54.99
  -6  -1   1  354.46  156.78
  -6  -1   1  127.59   58.89
   5   1  -1  218.38   44.80
   5   1  -1   77.19   45.80
  -5  -1   1  242.68  104.79
  -5  -1   1  124.99   37.80
   4   1  -1  390.16   57.19
   4   1  -1  405.16   55.29
   4   1  -1  362.56   51.69
  -4  -1   1  423.26   91.79
  -4  -1   1  391.26   52.09
  -4  -1   1  421.26   54.39
   3   1  -1  552.94   56.69
   3   1  -1  566.44   56.99
   3   1  -1  571.94   57.29
   3   1  -1  575.64   72.89
   3   1  -1  558.14   53.89
  -3  -1   1  650.33   69.99
  -3  -1   1  553.94   55.49
  -3  -1   1  538.05   57.09
   2   1  -1  621.64   56.99
   2   1  -1  682.03   66.09
   2   1  -1  722.03   55.89
   2   1  -1  621.04   57.19
  -2  -1   1  551.34   54.99
  -2  -1   1  664.43   56.99
  -2  -1   1  618.84   59.19
  -2  -1   1  685.23   62.99
   1   1  -1 3449.75  271.27
   1   1  -1 4008.60  270.07
  -1  -1   1 3298.37  269.47
  -1  -1   1 3558.94  271.77
   0   1  -1    1.40    2.10
   0   1  -1    2.90    4.10
   0   1  -1    0.90    3.40
   0  -1   1    9.00    4.70
   0  -1   1    5.00    3.60
   0  -1   1    8.20    5.90
   0  -1   1    6.50    2.70
  -1   1  -1 3089.09  243.28
  -1   1  -1 3416.86  246.38
   1  -1   1 2991.00  242.98
   1  -1   1 3402.66  246.18
  -2   1  -1    4.50   12.10
  -2   1  -1   34.60   24.30
  -2   1  -1   25.50   12.10
   2  -1   1   43.00   16.40
   2  -1   1    1.40    8.60
  -3   1  -1  612.54   51.79
  -3   1  -1  509.35   54.99
   3  -1   1  544.95   48.20
   3  -1   1  548.55   48.40
   3  -1   1  525.85   57.19
  -4   1  -1   -2.00   19.40
  -4   1  -1   34.10   63.69
  -4   1  -1    1.30   30.20
   4  -1   1    2.80   15.70
   4  -1   1  -23.10   24.50
   4  -1   1   -4.30   64.69
   4  -1   1  -11.90   23.90
   4  -1   1    6.00   15.00
  -5   1  -1  271.97   39.80
  -5   1  -1  265.77  108.69
   5  -1   1  328.87   54.99
   5  -1   1  203.38   29.90
   5  -1   1  160.68   30.00
   5  -1   1  326.47   56.29
  -6   1  -1  -47.80  148.49
   6  -1   1  226.38   71.99
   6  -1   1  285.27   60.59
   6   0  -1  298.07   68.09
   6   0  -1  197.28   58.29
  -6   0   1  195.88   58.59
  -6   0   1  105.89  139.89
   5   0  -1   25.60   24.80
   5   0  -1   57.39   39.20
   5   0  -1   73.99   34.80
  -5   0   1   24.40   95.59
  -5   0   1   20.40   30.60
   4   0  -1  703.33   74.69
   4   0  -1  748.43   70.69
   4   0  -1  729.53   66.89
  -4   0   1  756.82   70.49
  -4   0   1  617.94   73.79
  -4   0   1  699.33  100.09
   3   0  -1  196.28   29.60
   3   0  -1  244.28   34.30
   3   0  -1  199.78   31.70
   3   0  -1  156.08   31.40
   3   0  -1  224.58   48.20
  -3   0   1  237.18   32.90
  -3   0   1  194.88   49.99
  -3   0   1  182.98   31.00
   2   0  -1   80.79   15.80
   2   0  -1   88.19   17.50
  -2   0   1  120.99   30.60
  -2   0   1   90.29   17.00
  -2   0   1   90.29   17.00
   1   0  -1  188.18   24.40
  -1   0   1  195.68   19.10
  -1   0  -1 2186.48  161.88
  -1   0  -1 1986.90  159.38
   1   0   1 2111.69  161.58
   1   0   1 2093.69  159.68
  -2   0  -1  447.36   37.70
  -2   0  -1  458.65   41.90
  -2   0  -1  524.35   42.60
   2   0   1  428.46   43.60
   2   0   1  428.16   39.70
   2   0   1  386.96   42.40
   2   0   1  396.36   45.10
  -3   0  -1  113.19   21.10
  -3   0  -1   99.89   22.40
  -3   0  -1   36.30   39.70
   3   0   1  135.39   30.90
   3   0   1   79.89   18.00
   3   0   1   74.69   13.80
   3   0   1  123.89   43.30
   3   0   1   85.29   23.30
   3   0   1   71.09   22.90
  -4   0  -1  547.75   69.09
  -4   0  -1  624.74   61.09
  -4   0  -1  397.46   86.09
   4   0   1  575.94   64.19
   4   0   1  606.74   49.70
   4   0   1  557.24   65.79
   4   0   1  469.65   56.09
  -5   0  -1    4.60  105.59
  -5   0  -1  180.98   38.80
   5   0   1  164.38   52.69
   5   0   1  194.88   44.40
  -6   0  -1  224.58  154.28
   6   0   1  197.48   76.09
   6   0   1  163.18   55.29
   6  -1  -1  222.98   63.49
   6  -1  -1  249.28   53.79
  -6   1   1  195.18   51.49
  -6   1   1  133.59  150.58
   5  -1  -1  -11.50   38.20
   5  -1  -1   26.40   30.80
   5  -1  -1   -3.80   19.30
  -5   1   1  -11.00   27.20
  -5   1   1  166.78   98.69
   4  -1  -1  987.50   88.69
   4  -1  -1 1099.09   99.69
   4  -1  -1  928.71   93.79
   4  -1  -1 1078.19   84.99
   4  -1  -1 1217.58  101.69
  -4   1   1 1088.89   91.89
  -4   1   1 1327.37  124.69
  -4   1   1  966.40   97.19
   3  -1  -1  186.98   46.60
   3  -1  -1  256.57   25.40
   3  -1  -1  237.18   34.50
   3  -1  -1  165.08   31.50
   3  -1  -1  234.08   27.70
  -3   1   1  245.18   50.69
  -3   1   1  207.88   33.90
  -3   1   1  228.08   30.80
   2  -1  -1 4926.81  404.66
   2  -1  -1 5544.25  400.06
   2  -1  -1 5708.03  398.86
   2  -1  -1 5153.18  396.16
   2  -1  -1 4361.16  395.66
  -2   1   1 5805.42  406.46
  -2   1   1 5463.75  396.86
   1  -1  -1  234.78   19.70
   1  -1  -1  199.58   27.40
  -1   1   1  243.48   29.90
  -1   1   1  167.48   18.30
   0   1   1 1329.97   99.89
  -1  -1  -1  166.18   26.40
  -1  -1  -1  158.88   15.40
   1   1   1  163.78   26.90
   1   1   1  132.99   18.30
   1   1   1  100.59   19.80
  -2  -1  -1  261.77   39.60
  -2  -1  -1  150.38   28.90
  -2  -1  -1  217.98   23.50
  -2  -1  -1  180.88   26.30
   2   1   1  259.27   29.70
   2   1   1  206.48   28.70
   2   1   1  285.67   43.80
   2   1   1  251.07   31.30
   2   1   1  235.58   31.40
  -3  -1  -1  215.68   30.50
  -3  -1  -1  193.48   50.19
  -3  -1  -1  217.08   30.60
  -3  -1  -1  154.68   21.50
   3   1   1  130.09   25.70
   3   1   1  122.19   48.20
   3   1   1  182.28   30.30
   3   1   1  167.68   32.20
   3   1   1  176.68   34.40
  -4  -1  -1  799.42   87.89
  -4  -1  -1  844.92   78.79
   4   1   1  818.22   81.49
   4   1   1  756.42   63.99
   4   1   1  627.84   73.09
   4   1   1  787.12   81.29
  -5  -1  -1  136.29  106.39
  -5  -1  -1   19.30   37.20
   5   1   1   42.30   49.60
   5   1   1   98.79   41.70
  -6  -1  -1  249.28  194.78
   6   1   1  249.18   65.09
   6   1   1  246.18   82.19
   6  -2  -1  162.58   57.79
  -6   2   1  172.68  140.69
   5  -2  -1   28.60   20.00
   5  -2  -1   61.39   20.30
   5  -2  -1   10.80   32.60
   5  -2  -1    4.00   35.50
  -5   2   1   81.49  100.49
  -5   2   1   39.90   24.80
   4  -2  -1 1439.76  144.29
   4  -2  -1 1332.47  108.99
   4  -2  -1 1402.56  121.19
   4  -2  -1 1409.06  121.09
   4  -2  -1 1520.05  109.99
   4  -2  -1 1275.07  116.79
  -4   2   1 1223.58  119.59
  -4   2   1 1510.35  112.49
  -4   2   1 1232.08  139.69
   3  -2  -1  289.87   28.40
   3  -2  -1  256.97   35.20
   3  -2  -1  349.77   62.39
   3  -2  -1  233.38   25.90
  -3   2   1  251.97   29.20
  -3   2   1  239.38   36.40
   2  -2  -1  482.45   44.70
   2  -2  -1  551.64   48.10
   2  -2  -1  578.74   44.00
   2  -2  -1  509.05   40.60
   2  -2  -1  504.05   60.59
  -2   2   1  491.75   41.30
  -2   2   1  467.45   44.30
  -2   2   1  557.04   47.10
  -2   2   1  420.96   56.09
   1  -2  -1  862.01   73.39
   1  -2  -1 1118.99   76.39
   1  -2  -1  818.92   81.59
   1  -2  -1 1072.09   76.09
  -1   2   1 1000.60   74.29
  -1   2   1  987.00   75.69
  -1   2   1  900.71   83.39
  -1   2   1 1002.40   74.39
  -1   2   1  854.01   73.49
   0  -2  -1  503.25   36.40
   0  -2  -1  501.25   46.70
   0   2   1  377.46   39.50
   0   2   1  413.16   47.00
  -1  -2  -1  952.10   76.09
  -1  -2  -1 1013.70   78.39
   1   2   1 1014.10   84.59
   1   2   1  875.71   79.79
   1   2   1 1056.49   85.09
   1   2   1  942.21   77.39
  -2  -2  -1  553.24   62.19
  -2  -2  -1  523.65   54.39
  -2  -2  -1  540.95   53.69
  -2  -2  -1  618.44   47.40
   2   2   1  524.55   64.09
   2   2   1  500.85   53.59
   2   2   1  555.44   52.49
   2   2   1  554.84   49.70
  -3  -2  -1  505.85   77.59
  -3  -2  -1  399.56   50.69
  -3  -2  -1  398.46   40.90
   3   2   1  460.95   85.79
   3   2   1  389.76   49.60
   3   2   1  411.66   51.89
   3   2   1  375.06   48.00
   3   2   1  367.66   56.59
  -4  -2  -1  961.70   88.09
  -4  -2  -1  926.81  124.69
  -4  -2  -1  654.63   71.99
   4   2   1  912.61   86.29
   4   2   1  650.43   83.19
   4   2   1  844.12   86.29
  -5  -2  -1  -56.49  114.99
  -5  -2  -1   48.80   42.80
   5   2   1  -24.20   53.59
   5   2   1  -25.70   43.80
   6  -3  -1  181.68   57.29
   6  -3  -1  141.99   49.99
  -6   3   1  221.48  142.49
   5  -3  -1  243.38   44.70
   5  -3  -1  149.49   28.70
   5  -3  -1  123.39   43.70
  -5   3   1  136.09  100.09
   4  -3  -1  111.79   22.20
   4  -3  -1  184.68   74.69
   4  -3  -1  109.39   32.20
   4  -3  -1   51.79   34.00
  -4   3   1   50.69   59.39
  -4   3   1   98.29   32.60
  -4   3   1  136.19   29.30
   3  -3  -1  960.90   89.29
   3  -3  -1  931.01   94.39
   3  -3  -1 1289.97  112.59
   3  -3  -1 1236.78   91.99
  -3   3   1 1167.38   91.29
  -3   3   1  900.31   93.09
  -3   3   1 1290.67  110.89
   2  -3  -1  648.24   68.69
   2  -3  -1  655.73   49.60
   2  -3  -1  451.05   49.50
   2  -3  -1  458.95   52.49
  -2   3   1  680.83   50.69
  -2   3   1  564.94   47.30
   1  -3  -1  416.06   42.10
   1  -3  -1  464.85   41.90
   1  -3  -1  558.74   40.20
   1  -3  -1  493.85   53.59
  -1   3   1  527.85   41.10
  -1   3   1  461.35   41.20
  -1   3   1  523.75   53.09
  -1   3   1  418.36   41.10
  -1   3   1  463.45   41.90
   0  -3  -1  295.37   31.10
   0  -3  -1  297.47   27.00
   0  -3  -1  274.17   40.80
   0  -3  -1  306.57   28.80
   0   3   1  294.57   28.50
   0   3   1  312.07   32.80
   0   3   1  278.57   41.80
  -1  -3  -1 2678.13  218.78
  -1  -3  -1 2834.12  220.38
   1   3   1 3012.90  228.08
   1   3   1 3061.49  229.98
   1   3   1 3040.20  224.48
   1   3   1 2710.73  219.38
  -2  -3  -1 1207.58   90.99
  -2  -3  -1 1256.57   98.19
  -2  -3  -1  926.61   96.79
   2   3   1  934.11   96.99
   2   3   1 1238.98  108.99
   2   3   1 1149.89   93.49
   2   3   1 1271.17  107.19
  -3  -3  -1  167.08   36.50
  -3  -3  -1  184.48   27.80
   3   3   1   81.69   45.70
   3   3   1  223.68   40.10
   3   3   1  269.97   61.09
   3   3   1  115.29   36.80
  -4  -3  -1  183.48   47.80
   4   3   1  219.18   47.50
   4   3   1  244.88  101.69
   4   3   1  207.78   44.10
  -5  -3  -1  -30.30   48.40
   5   3   1   29.10   54.79
   5   3   1   42.10   62.59
   5   3   1    6.30  134.49
   6  -4  -1   54.49   48.60
   6  -4  -1   79.89   35.80
   6  -4  -1   93.89   55.39
  -6   4   1  -65.49  130.69
   5  -4  -1  852.71   81.59
   5  -4  -1  891.51  100.59
   4  -4  -1    2.30   16.90
   4  -4  -1   71.39   80.09
   4  -4  -1   11.60   30.50
   4  -4  -1   35.60   30.10
  -4   4   1  -14.40   29.70
  -4   4   1   29.50   25.20
  -4   4   1  -91.49   63.19
   3  -4  -1  849.72   74.09
   3  -4  -1  627.14   64.79
   3  -4  -1  849.32   67.19
   3  -4  -1  711.03   97.29
  -3   4   1  731.73   64.79
  -3   4   1  658.93   88.79
  -3   4   1  738.53   69.89
   2  -4  -1  177.68   27.50
   2  -4  -1  205.08   33.80
   2  -4  -1  232.18   26.70
   2  -4  -1  242.18   49.40
  -2   4   1  185.78   31.30
  -2   4   1  181.08   25.20
  -2   4   1  197.18   24.50
  -2   4   1  222.78   27.60
  -2   4   1  245.28   46.90
   1  -4  -1  563.34   44.50
   1  -4  -1  411.36   46.40
   1  -4  -1  493.95   46.90
   1  -4  -1  605.94   63.29
  -1   4   1  436.26   47.50
  -1   4   1  551.14   45.90
  -1   4   1  522.35   61.79
   0  -4  -1  266.27   44.00
   0  -4  -1  181.58   26.50
   0   4   1  253.97   43.10
  -1  -4  -1 1351.06  109.59
  -1  -4  -1 1418.16  116.29
  -1  -4  -1 1353.46  111.19
   1   4   1 1421.86  110.29
   1   4   1 1425.66  116.69
   1   4   1 1361.36  121.29
   1   4   1 1390.56  127.29
  -2  -4  -1  295.17   44.10
  -2  -4  -1  294.07   34.70
  -2  -4  -1  185.68   38.20
   2   4   1  224.18   41.00
   2   4   1  351.36   64.29
   2   4   1  332.27   71.39
   2   4   1  288.07   37.70
  -3  -4  -1  435.56   50.49
  -3  -4  -1  422.56   59.09
   3   4   1  343.27   55.39
   3   4   1  388.66   87.39
  -4  -4  -1   78.79   44.40
   4   4   1  156.48  110.29
   4   4   1   -3.30   45.00
  -5  -4  -1  152.98   64.69
   5   4   1  277.57  149.09
   5   4   1  110.69   66.89
   6  -5  -1   50.49   55.19
   6  -5  -1   96.09   37.70
   6  -5  -1   49.00   52.79
  -6   5   1  -51.09  137.39
   5  -5  -1  313.77   42.30
   5  -5  -1  360.36   60.69
  -5   5   1  187.08   53.29
  -5   5   1  409.06  123.99
   4  -5  -1    8.60   31.30
   4  -5  -1    2.40   30.50
   4  -5  -1   22.40   19.40
  -4   5   1  -12.10   26.00
  -4   5   1 -102.69   70.99
   3  -5  -1  379.36   55.29
   3  -5  -1  382.96   43.00
   3  -5  -1  454.85   82.89
   3  -5  -1  329.87   42.80
  -3   5   1  353.96   38.40
  -3   5   1  353.66   38.70
  -3   5   1  265.97   48.40
   2  -5  -1  640.74   53.89
   2  -5  -1  501.15   58.09
   2  -5  -1  558.64   76.49
  -2   5   1  635.94   53.19
  -2   5   1  537.75   56.19
  -2   5   1  636.74   75.09
  -2   5   1  572.84   51.79
   1  -5  -1 2367.66  175.58
   1  -5  -1 2200.88  190.58
   1  -5  -1 2416.36  178.48
   1  -5  -1 1954.40  177.88
  -1   5   1 2257.27  192.18
  -1   5   1 2238.68  175.38
  -1   5   1 2473.15  179.68
   0  -5  -1   16.20   15.80
   0  -5  -1  -17.50   31.70
   0  -5  -1   13.80   15.10
   0  -5  -1    8.50   15.20
   0   5   1   21.60   22.40
   0   5   1   23.40   15.40
   0   5   1   22.90   34.00
  -1  -5  -1 2417.66  187.58
  -1  -5  -1 2567.94  195.88
  -1  -5  -1 2382.06  188.18
   1   5   1 2473.45  187.58
   1   5   1 2324.87  204.98
   1   5   1 2473.45  194.98
   1   5   1 2226.88  200.78
  -2  -5  -1   37.00   22.20
  -2  -5  -1   70.29   36.30
  -2  -5  -1   27.70   31.90
   2   5   1   39.90   70.89
   2   5   1   92.09   30.70
  -3  -5  -1  326.67   45.30
  -3  -5  -1  280.57   60.19
   3   5   1  359.66   58.29
   3   5   1  440.06  101.19
  -4  -5  -1  -61.99   49.90
   4   5   1   31.30   67.09
   4   5   1   -4.10  130.59
   6  -6  -1  117.59   62.99
   6  -6  -1   48.20   39.00
  -6   6   1   12.30   68.49
  -6   6   1  -42.70  157.28
   5  -6  -1   95.69   29.90
   5  -6  -1  217.28   58.69
  -5   6   1   32.40  128.49
  -5   6   1  109.29   50.09
   4  -6  -1  110.29   28.30
   4  -6  -1  217.78   42.20
   4  -6  -1  169.38   49.40
  -4   6   1  101.79   35.60
  -4   6   1   86.49   87.59
   3  -6  -1  613.44  109.89
   3  -6  -1  732.23   77.49
   3  -6  -1  661.13   63.29
   3  -6  -1  511.75   60.99
  -3   6   1  676.43   61.59
  -3   6   1  563.14   57.69
  -3   6   1  562.64   68.69
  -3   6   1  618.64   61.39
  -3   6   1  676.23  100.09
   2  -6  -1  883.91   73.59
   2  -6  -1  810.92   69.09
   2  -6  -1  602.64   70.89
   2  -6  -1  642.74   92.89
  -2   6   1  867.41   72.09
  -2   6   1  638.04   72.49
  -2   6   1  794.32   68.29
  -2   6   1  828.72   93.49
  -2   6   1  862.91   68.99
   1  -6  -1 1901.31  152.38
   1  -6  -1 1901.81  148.09
   1  -6  -1 1982.40  152.58
   1  -6  -1 1671.93  165.28
  -1   6   1 1840.92  148.19
  -1   6   1 2060.39  155.48
  -1   6   1 1831.62  170.08
   0  -6  -1    6.20   18.40
   0  -6  -1  -29.00   20.00
   0  -6  -1   90.19   50.69
   0  -6  -1   -1.30   21.70
   0   6   1   -6.60   53.69
   0   6   1   27.50   20.20
   0   6   1    2.20   29.10
  -1  -6  -1  253.97   38.30
  -1  -6  -1  207.08   42.50
  -1  -6  -1  294.67   44.20
   1   6   1  270.27   41.60
   1   6   1  343.47   82.79
  -2  -6  -1   83.39   38.70
  -2  -6  -1    1.90   26.30
   2   6   1  183.88  100.69
   2   6   1    4.00   38.40
  -3  -6  -1  259.07   63.39
  -3  -6  -1  219.48   41.80
   3   6   1  225.38  126.29
   3   6   1   87.49   59.49
  -4  -6  -1  -91.79   60.39
   4   6   1 -268.07  153.48
   4   6   1  103.09   82.19
   6  -7  -1   94.79   66.29
   6  -7  -1  105.99   45.20
  -6   7   1   59.69   73.89
  -6   7   1 -134.29  154.18
   5  -7  -1   -9.40   60.39
   5  -7  -1   -2.30   29.50
  -5   7   1  -29.40  134.99
  -5   7   1    7.40   46.40
   4  -7  -1  686.03   86.89
   4  -7  -1  558.44   70.89
  -4   7   1  665.83  141.39
  -4   7   1  527.65   73.69
   3  -7  -1  150.48   33.30
   3  -7  -1  237.08   44.10
   3  -7  -1  160.48   36.90
  -3   7   1  198.88   42.60
  -3   7   1  200.08   30.60
  -3   7   1  215.38   36.50
  -3   7   1   81.39   81.09
  -3   7   1  137.99   34.80
   2  -7  -1  629.64   68.99
  -2   7   1  817.62  114.39
  -2   7   1  516.05   74.89
  -2   7   1  842.62   68.69
  -2   7   1  806.22   67.89
   1  -7  -1  111.09   29.60
   1  -7  -1   84.39   23.70
   1  -7  -1   89.69   26.40
  -1   7   1  118.99   33.70
  -1   7   1  112.69   25.10
  -1   7   1   81.29   61.59
   0  -7  -1  299.67   42.50
   0  -7  -1  306.97   50.69
   0  -7  -1  265.87   46.70
   0   7   1  420.76   94.59
   0   7   1  260.07   43.00
  -1  -7  -1   43.20   27.00
  -1  -7  -1  159.98   42.30
  -1  -7  -1  109.59   44.60
   1   7   1  159.28   93.09
   1   7   1  108.59   33.90
  -2  -7  -1  247.38   45.80
  -2  -7  -1  269.17   62.09
   2   7   1  486.65  133.19
   2   7   1  329.57   60.29
  -3  -7  -1   45.60   69.69
   3   7   1  339.57  149.49
   3   7   1  132.59   71.79
   6  -8  -1  165.18   60.19
   6  -8  -1  218.88   84.09
  -6   8   1  136.49  173.28
  -6   8   1  126.69   78.09
   5  -8  -1   13.70   37.20
   5  -8  -1  -44.40   66.19
  -5   8   1   62.29  156.98
  -5   8   1   55.29   58.09
   4  -8  -1 1080.69  125.49
   4  -8  -1  869.41   92.79
  -4   8   1  983.70  171.48
  -4   8   1  839.92   95.99
   3  -8  -1   -9.50   24.70
   3  -8  -1    6.40   37.40
   3  -8  -1   12.80   39.20
  -3   8   1   24.50   30.10
  -3   8   1   26.60   86.09
  -3   8   1    1.10   44.10
  -3   8   1   86.49   37.60
  -3   8   1    2.00   33.30
   2  -8  -1  685.73   77.09
  -2   8   1  708.03  133.09
  -2   8   1  773.72   75.89
  -2   8   1  839.52   76.09
  -2   8   1  766.32   90.79
   1  -8  -1   35.90   24.20
   1  -8  -1   18.40   31.10
   1  -8  -1   37.00   32.80
  -1   8   1   71.49   87.79
  -1   8   1   30.80   28.50
   0  -8  -1  247.88   48.50
   0  -8  -1  491.55   68.29
   0  -8  -1  405.26   51.59
   0   8   1  371.26   53.29
   0   8   1  654.33  120.89
  -1  -8  -1   82.59   51.79
  -1  -8  -1   42.40   31.40
   1   8   1  -45.90   42.10
   1   8   1  189.48  112.99
  -2  -8  -1  273.17   52.39
  -2  -8  -1  119.99   68.09
   2   8   1  331.07  151.28
   2   8   1  233.08   63.39
   5  -9  -1   67.49   46.50
   5  -9  -1  -23.90   74.09
  -5   9   1   60.29   65.99
  -5   9   1  -64.09  180.38
   4  -9  -1  572.14   79.79
  -4   9   1  473.25   71.79
  -4   9   1  427.36  137.79
  -4   9   1  560.34   89.19
   3  -9  -1  -27.70   28.60
  -3   9   1  -90.59  109.39
  -3   9   1  -41.20   37.30
  -3   9   1   17.10   44.30
  -3   9   1  -37.30   42.00
   2  -9  -1   86.59   44.00
   2  -9  -1   73.69   29.60
  -2   9   1   64.79   33.80
  -2   9   1   -8.50  104.79
  -2   9   1  122.09   39.10
   1  -9  -1    8.40   43.30
   1  -9  -1    8.70   26.80
  -1   9   1  233.48  118.89
  -1   9   1   38.00   33.30
   0  -9  -1  270.17   44.30
   0  -9  -1  250.47   58.69
   0   9   1  328.37  135.79
   0   9   1  266.47   50.79
  -1  -9  -1   24.90   70.39
  -1  -9  -1  -12.90   40.80
   1   9   1 -153.68  167.38
   1   9   1  116.39   58.79
  -2  -9  -1   41.50   56.89
  -2  -9  -1   67.19   88.99
   2   9   1  629.44  262.17
   5 -10  -1  114.89   52.59
   5 -10  -1  -32.10   83.39
  -5  10   1  -94.39  195.68
  -5  10   1  -89.49   66.99
   4 -10  -1  186.58   72.29
   4 -10  -1   46.70   53.39
  -4  10   1   93.39   64.99
  -4  10   1 -200.08  155.68
   3 -10  -1   69.39   45.60
  -3  10   1   65.79   50.69
  -3  10   1   72.49  139.19
  -3  10   1   66.99   58.39
   2 -10  -1   27.90   38.30
  -2  10   1  125.29   52.49
  -2  10   1   80.39   44.40
  -2  10   1  153.48  132.39
   1 -10  -1   84.29   45.60
   1 -10  -1  102.09   58.79
  -1  10   1  146.59   53.79
  -1  10   1  311.47  142.69
   0 -10  -1  142.19   69.99
   0 -10  -1  172.48   52.19
   0  10   1  178.88  160.68
   0  10   1  143.59   55.29
   3 -11  -1   85.29   50.49
  -3  11   1  215.68   65.99
  -3  11   1   47.10   68.09
  -3  11   1 -199.38  165.38
   2 -11  -1  -12.10   49.00
  -2  11   1  -89.89   55.59
  -2  11   1   -7.70   63.19
   1 -11  -1  128.09   60.89
   1 -11  -1  183.88   71.59
  -1  11   1  205.98   60.29
  -1  11   1  270.37  187.78
  -1  11  -2   75.59  147.09
  -1  11  -2   72.19   67.49
   1 -11   2  -28.00   63.09
   1 -11   2   10.80   56.49
  -2  11  -2  152.98  139.39
  -2  11  -2  153.18   71.69
   2 -11   2   94.39   58.79
   2 -11   2   42.70   58.39
  -3  11  -2   54.59  143.69
  -3  11  -2   77.19   77.99
   3 -11   2  -54.39   49.80
   1  10  -2  135.79   67.79
   1  10  -2  190.08  164.78
  -1 -10   2  174.08   58.29
  -1 -10   2  179.18   79.99
   0  10  -2   63.59  149.79
   0  10  -2   -8.20   50.39
   0 -10   2  -21.90   59.89
   0 -10   2   32.90   39.90
  -1  10  -2  -65.59  125.99
  -1  10  -2   61.09   53.79
   1 -10   2  104.29   55.89
   1 -10   2   46.10   42.00
  -2  10  -2  281.87  116.69
  -2  10  -2   41.40   54.29
   2 -10   2   -7.20   40.00
   2 -10   2   90.79   47.20
  -3  10  -2  348.47  130.09
  -3  10  -2  303.17   69.09
  -3  10  -2  207.08   71.09
   3 -10   2  238.88   58.89
  -4  10  -2  100.89   78.69
  -4  10  -2    3.70  153.18
   4 -10   2  300.67  104.29
   4 -10   2  180.08   65.99
   2   9  -2  -46.00  168.48
   2   9  -2   60.89   67.39
  -2  -9   2  -73.69   47.10
  -2  -9   2  107.39   87.49
   1   9  -2  238.28   60.99
   1   9  -2   49.20  148.09
  -1  -9   2  183.68   71.49
  -1  -9   2  136.69   43.80
   0   9  -2   78.19   48.60
   0   9  -2 -147.29  110.19
   0  -9   2   47.10   53.99
   0  -9   2    0.50   32.70
  -1   9  -2  442.56   64.79
  -1   9  -2  522.25  120.49
   1  -9   2  443.96   60.09
   1  -9   2  308.87   60.79
  -2   9  -2  255.67   93.39
  -2   9  -2   37.30   45.40
  -2   9  -2   59.19   45.60
   2  -9   2   61.19   35.20
   2  -9   2   82.79   36.80
  -3   9  -2  745.93  152.38
  -3   9  -2  438.66   81.19
  -3   9  -2  506.75   59.89
   3  -9   2  336.47   58.19
   3  -9   2  484.35   73.69
  -4   9  -2 -122.49  126.89
  -4   9  -2    5.30   66.59
   4  -9   2  100.69   69.09
   4  -9   2   58.69   41.90
  -5   9  -2  192.58   95.79
  -5   9  -2   63.19  157.08
   5  -9   2  175.38   94.39
   5  -9   2   72.49   57.79
   3   8  -2  -51.99  154.38
   3   8  -2  119.69   77.69
  -3  -8   2  158.68   85.19
   2   8  -2   68.89   61.69
   2   8  -2   35.80  129.79
  -2  -8   2   -1.80   34.60
  -2  -8   2   38.50   75.29
   1   8  -2  462.15   71.99
   1   8  -2  643.14  128.69
  -1  -8   2  379.46   57.49
  -1  -8   2  291.67   66.09
   0   8  -2  127.19   95.79
   0   8  -2   61.09   37.70
   0  -8   2   39.50   25.80
   0  -8   2  124.49   48.50
  -1   8  -2  543.75  118.59
  -1   8  -2  555.74   67.39
  -1   8  -2  422.66   64.79
   1  -8   2  560.54   68.89
   1  -8   2  544.05   62.09
  -2   8  -2  -11.50   34.10
  -2   8  -2   21.10   68.59
  -2   8  -2  -18.50   34.90
   2  -8   2  -44.80   25.90
   2  -8   2   15.70   27.50
  -3   8  -2  519.95   78.69
  -3   8  -2  572.64   65.59
  -3   8  -2  683.73  126.99
  -3   8  -2  632.34   65.79
   3  -8   2  777.42   94.39
   3  -8   2  575.04   75.59
  -4   8  -2  119.89   55.99
  -4   8  -2   71.39  112.19
   4  -8   2   73.29   40.20
   4  -8   2    2.00   59.39
  -5   8  -2  164.58  147.79
  -5   8  -2  161.88   70.49
   5  -8   2  334.77   89.89
   5  -8   2  294.97   57.29
   3   7  -2  118.79   67.99
   3   7  -2   68.29  134.29
  -3  -7   2  221.98   70.89
   2   7  -2   10.80   45.20
   2   7  -2   -1.20   94.89
  -2  -7   2   50.69   51.09
  -2  -7   2   40.60   28.10
   1   7  -2  466.25   59.39
   1   7  -2  553.74  110.39
  -1  -7   2  337.07   49.20
  -1  -7   2  487.25   83.59
   0   7  -2  235.38   48.20
   0   7  -2  309.17   46.40
   0   7  -2  363.46   81.19
   0  -7   2  289.17   44.30
   0  -7   2  208.88   45.30
   0  -7   2  363.36   77.89
   0  -7   2  356.56   58.59
  -1   7  -2  981.90   88.89
  -1   7  -2  934.01  113.79
  -1   7  -2  895.91   83.59
   1  -7   2  982.00   85.09
   1  -7   2  994.60   87.79
   1  -7   2  763.02   86.49
   1  -7   2  856.11  103.49
  -2   7  -2   25.20   28.30
  -2   7  -2   42.10   56.49
  -2   7  -2  -11.40   24.70
   2  -7   2  -14.30   20.30
   2  -7   2   -2.40   21.90
   2  -7   2    9.50   25.40
   2  -7   2    1.80   59.59
   2  -7   2   27.10   31.90
   2  -7   2   60.49   32.10
  -3   7  -2  220.38   71.29
   3  -7   2  280.07   45.50
   3  -7   2  191.98   75.89
  -4   7  -2  103.69  101.79
  -4   7  -2   91.89   52.19
   4  -7   2  215.18   62.39
   4  -7   2  232.78   42.10
  -5   7  -2  148.29   63.69
  -5   7  -2  170.08  134.29
   5  -7   2  253.17   71.29
   5  -7   2  155.68   41.80
  -6   7  -2  227.08  160.08
  -6   7  -2  147.29   86.09
   6  -7   2  105.29   69.29
   6  -7   2  113.59   55.29
   4   6  -2   34.20  123.09
   4   6  -2  177.78   75.29
  -4  -6   2  -60.19   60.19
   3   6  -2  -31.10  100.29
   3   6  -2   33.60   50.19
  -3  -6   2   23.80   46.00
   2   6  -2  538.75  106.59
   2   6  -2  462.35   64.99
  -2  -6   2  439.36   71.79
  -2  -6   2  308.87   47.60
   1   6  -2  502.45   85.89
   1   6  -2  461.15   56.09
   1   6  -2  499.75   89.09
  -1  -6   2  476.25   52.89
  -1  -6   2  482.85   60.99
  -1  -6   2  535.25   66.09
   0   6  -2 1173.08  125.99
   0   6  -2 1217.58  105.79
   0   6  -2 1164.48  100.39
   0  -6   2 1121.99  116.39
   0  -6   2 1380.56  108.09
   0  -6   2 1324.77  103.19
   0  -6   2 1079.59  102.29
  -1   6  -2   77.29   43.10
  -1   6  -2   56.09   22.20
  -1   6  -2   54.59   23.10
   1  -6   2   38.40   20.60
   1  -6   2   26.30   41.20
   1  -6   2   43.20   20.30
   1  -6   2   34.50   22.20
  -2   6  -2  427.06   75.49
  -2   6  -2  548.35   51.89
   2  -6   2  395.66   73.89
   2  -6   2  494.55   60.99
   2  -6   2  431.46   51.19
  -3   6  -2   48.70   30.00
  -3   6  -2   47.20   58.29
   3  -6   2  -11.80   31.30
   3  -6   2   62.39   64.29
   3  -6   2   35.00   31.70
   3  -6   2    3.90   23.70
  -4   6  -2  659.83  120.09
  -4   6  -2  573.34   78.09
   4  -6   2  672.13   69.89
   4  -6   2  650.93   89.59
  -5   6  -2   73.69   52.09
  -5   6  -2   79.69  111.79
   5  -6   2   15.10   30.40
   5  -6   2   78.79   51.99
  -6   6  -2  133.89   74.19
  -6   6  -2  -76.29  149.69
   6  -6   2  176.08   67.49
   6  -6   2  151.78   43.50
   4   5  -2  303.97  122.79
  -4  -5   2  235.78   64.59
   3   5  -2  -26.60   76.39
   3   5  -2   14.40   39.80
  -3  -5   2   49.40   40.00
   2   5  -2  988.60  126.69
   2   5  -2 1347.67  105.39
  -2  -5   2 1232.48  114.69
  -2  -5   2 1220.78   98.09
   1   5  -2   38.00   48.60
   1   5  -2   44.50   22.20
   1   5  -2   75.39   39.00
   1   5  -2   33.80   21.70
  -1  -5   2   27.80   24.40
  -1  -5   2   22.20   22.60
  -1  -5   2   40.80   16.90
   0   5  -2 1135.09   98.19
   0   5  -2 1264.27  101.79
   0   5  -2 1151.88  112.59
   0  -5   2 1149.98   99.29
   0  -5   2 1138.09  108.79
   0  -5   2 1314.97  104.39
   0  -5   2 1296.77   99.89
  -1   5  -2   72.29   18.60
  -1   5  -2   55.39   34.10
  -1   5  -2   34.40   18.90
   1  -5   2   45.20   16.80
   1  -5   2   53.89   18.40
   1  -5   2   88.89   35.40
   1  -5   2   41.70   19.20
  -2   5  -2 1142.69  109.59
  -2   5  -2  992.00   93.39
   2  -5   2 1142.39  108.99
   2  -5   2 1279.37   99.49
  -3   5  -2   54.69   25.50
  -3   5  -2   77.79   57.39
   3  -5   2   65.69   27.90
   3  -5   2   28.20   55.59
   3  -5   2   44.30   31.90
   3  -5   2   28.20   21.90
  -4   5  -2 1041.60  109.69
  -4   5  -2 1248.58  143.99
   4  -5   2 1225.08  114.69
   4  -5   2 1334.47  158.98
   4  -5   2 1113.19  102.29
  -5   5  -2  119.09   49.90
  -5   5  -2  213.88  109.79
   5  -5   2   69.09   29.90
   5  -5   2   98.49   45.70
  -6   5  -2  216.98   74.89
   6  -5   2  144.39   62.79
   6  -5   2  217.38   44.00
   5   4  -2  213.58  136.39
   5   4  -2   71.29   69.59
  -5  -4   2  149.69   63.19
   4   4  -2  368.16   99.69
   4   4  -2  191.18   55.09
  -4  -4   2  214.38   53.09
   3   4  -2  155.68   57.59
   3   4  -2   52.39   31.40
  -3  -4   2   61.39   35.00
   2   4  -2 1306.47  102.69
   2   4  -2 1207.58  108.79
   2   4  -2 1172.08  115.79
   2   4  -2 1200.58  119.59
  -2  -4   2 1374.76  112.29
  -2  -4   2 1271.67  105.69
  -2  -4   2 1123.59   96.79
   1   4  -2  348.47   35.20
   1   4  -2  258.97   41.70
   1   4  -2  332.37   51.69
   1   4  -2  300.37   46.10
  -1  -4   2  336.77   38.00
   0   4  -2    7.90   25.10
   0   4  -2   27.80   13.40
   0   4  -2    8.90   15.60
   0  -4   2   13.90   15.10
   0  -4   2   22.30   13.10
   0  -4   2   -7.70   13.10
   0  -4   2  -11.20   22.70
  -1   4  -2  591.84   61.79
  -1   4  -2  581.54   50.29
   1  -4   2  540.85   60.19
   1  -4   2  626.54   50.89
   1  -4   2  455.95   50.19
   1  -4   2  467.55   50.69
   1  -4   2  564.34   47.50
   1  -4   2  584.24   51.19
  -2   4  -2 2205.78  178.38
  -2   4  -2 2207.28  186.78
   2  -4   2 2506.35  180.48
   2  -4   2 2155.18  177.78
   2  -4   2 2395.46  188.38
  -3   4  -2  191.68   35.50
  -3   4  -2  205.98   34.80
  -3   4  -2  170.38   54.49
   3  -4   2  163.08   55.49
   3  -4   2  229.58   40.80
   3  -4   2  227.28   31.00
  -4   4  -2  696.33   79.29
   4  -4   2  760.92   81.39
   4  -4   2  637.14  122.89
   4  -4   2  729.03   69.29
  -5   4  -2  114.19   47.50
  -5   4  -2  131.89  107.19
   5  -4   2    4.00   23.70
   5  -4   2   33.40   40.90
  -6   4  -2  138.19  138.79
   6  -4   2  317.47   69.59
   6  -4   2  482.15   77.39
   6  -4   2  290.57   46.40
   5   3  -2  318.37   61.59
  -5  -3   2  270.67   60.49
  -5  -3   2  445.06  132.59
   4   3  -2   57.59   32.70
   4   3  -2   31.80   33.00
  -4  -3   2  144.89   83.69
  -4  -3   2   47.80   34.50
  -4  -3   2  106.89   40.80
   3   3  -2  542.05   57.79
   3   3  -2  647.64   95.19
  -3  -3   2  537.95   69.69
  -3  -3   2  629.34   78.29
   2   3  -2  459.05   44.50
   2   3  -2  506.85   62.49
   2   3  -2  417.26   54.29
  -2  -3   2  461.05   48.00
  -2  -3   2  469.65   59.39
   1   3  -2 1396.36  110.39
   1   3  -2 1472.15  114.89
   1   3  -2 1466.75  118.29
   1   3  -2 1510.75  117.69
  -1  -3   2 1187.88  108.59
  -1  -3   2 1309.57  115.59
  -1  -3   2 1494.55  111.59
   0   3  -2  158.08   33.00
   0   3  -2  117.19   20.30
   0   3  -2  132.59   22.30
   0  -3   2  118.39   18.70
   0  -3   2  142.89   21.70
   0  -3   2  167.58   27.60
   0  -3   2  155.98   22.90
  -1   3  -2 2205.08  162.28
  -1   3  -2 1969.20  156.18
   1  -3   2 1880.21  154.28
   1  -3   2 1962.70  155.68
   1  -3   2 2059.69  160.08
   1  -3   2 2048.40  155.68
  -2   3  -2 1780.52  144.69
  -2   3  -2 1922.91  154.18
   2  -3   2 1752.42  144.19
   2  -3   2 1908.31  153.68
   2  -3   2 1886.61  146.19
  -3   3  -2  191.68   33.10
  -3   3  -2  165.58   28.90
  -3   3  -2  127.49   50.09
   3  -3   2  133.39   23.80
   3  -3   2  150.48   33.50
   3  -3   2  177.78   56.49
  -4   3  -2  411.36   85.29
  -4   3  -2  412.36   57.19
   4  -3   2  409.66   91.79
   4  -3   2  395.96   60.69
   4  -3   2  381.16   46.70
  -5   3  -2  139.89   50.69
  -5   3  -2   92.69  111.19
   5  -3   2  105.59   27.40
   5  -3   2   77.19   42.60
  -6   3  -2  361.56  156.28
   6  -3   2  287.07   71.29
   6  -3   2  253.57   67.49
   6  -3   2  233.78   41.60
   6   2  -2   10.90   68.29
   6   2  -2  -62.39   61.09
  -6  -2   2 -148.49  155.18
  -6  -2   2   79.29   56.59
   5   2  -2  604.04   89.49
   5   2  -2  421.76   76.89
  -5  -2   2  479.15   83.99
   4   2  -2    0.90   27.50
   4   2  -2  -31.20   28.80
   4   2  -2   -8.50   26.60
  -4  -2   2    1.90   29.20
  -4  -2   2  -25.90   30.30
  -4  -2   2   25.10   74.99
   3   2  -2  466.55   48.90
   3   2  -2  471.85   53.19
   3   2  -2  548.95   80.29
   3   2  -2  461.55   49.60
  -3  -2   2  428.96   49.30
  -3  -2   2  473.25   55.39
  -3  -2   2  489.55   66.59
  -3  -2   2  398.56   55.59
  -2  -2   2  190.88   29.90
   1   2  -2  702.03   53.19
   1   2  -2  650.83   58.29
  -1  -2   2  658.93   53.69
  -1  -2   2  529.35   55.89
  -1  -2   2  634.24   58.29
   0   2  -2   95.99   17.60
   0   2  -2   85.69   12.10
   0   2  -2  120.99   15.80
   0   2  -2  109.89   19.40
   0  -2   2   92.89   14.60
   0  -2   2   83.99   11.90
   0  -2   2  107.79   17.30
   0  -2   2   90.59   17.20
   0  -2   2  104.59   16.60
  -1   2  -2 3817.42  288.67
  -1   2  -2 3798.82  286.07
  -1   2  -2 3908.91  290.97
   1  -2   2 3796.02  287.77
   1  -2   2 3890.21  288.57
   1  -2   2 3734.13  288.17
   1  -2   2 3749.43  290.27
  -2   2  -2 1260.37  116.59
  -2   2  -2 1386.06  109.49
   2  -2   2 1394.46  109.99
   2  -2   2 1377.96  109.19
   2  -2   2 1428.46  117.09
  -3   2  -2  615.44   58.29
  -3   2  -2  468.45   75.99
  -3   2  -2  646.04   61.39
   3  -2   2  570.64   79.49
   3  -2   2  725.63   65.79
   3  -2   2  636.74   55.59
   3  -2   2  629.14   60.89
  -4   2  -2  103.49   71.09
  -4   2  -2   15.40   31.60
   4  -2   2  -48.10   70.89
   4  -2   2    2.10   17.20
   4  -2   2   48.00   29.90
   5  -2   2  471.45   68.59
   5  -2   2  425.16   73.99
   5  -2   2  464.95   52.49
  -6   2  -2   72.49  153.18
   6  -2   2  104.39   58.79
   6  -2   2  195.28   70.89
   6   1  -2   87.29   51.69
   6   1  -2  -49.40   57.69
  -6  -1   2   66.59   53.79
  -6  -1   2 -112.29  135.79
   5   1  -2  238.88   52.39
   5   1  -2  362.66   59.69
  -5  -1   2  374.56  108.79
  -5  -1   2  202.88   46.60
   4   1  -2    2.20   23.60
   4   1  -2  -13.70   22.50
   4   1  -2   28.70   23.70
  -4  -1   2  -20.00   23.00
  -4  -1   2   94.59   72.99
  -4  -1   2   27.90   27.10
   3   1  -2  202.98   33.60
   3   1  -2  214.48   30.30
  -3  -1   2  218.88   33.10
  -3  -1   2  247.28   35.10
  -2  -1   2  531.05   54.59
   1   1  -2 7926.51  602.24
   1   1  -2 8972.10  599.64
   1   1  -2 6801.92  600.34
   1   1  -2 8333.17  598.84
  -1  -1   2 6980.30  600.84
  -1  -1   2 8906.41  602.14
  -1  -1   2 7077.29  598.84
  -1  -1   2 9002.60  599.74
   0   1  -2 1037.70   83.99
   0   1  -2 1157.18   84.39
   0   1  -2 1059.99   83.49
   0  -1   2 1031.30   83.89
   0  -1   2 1124.39   83.79
   0  -1   2 1133.19   84.49
  -1   1  -2 4050.09  302.97
  -1   1  -2 4337.87  299.57
  -1   1  -2 3865.91  301.27
   1  -1   2 4065.59  301.07
   1  -1   2 3943.71  299.27
   1  -1   2 3831.82  301.07
   1  -1   2 3860.01  302.57
  -2   1  -2   83.39   16.20
  -2   1  -2  123.19   33.10
  -2   1  -2  102.69   19.80
   2  -1   2   94.39   13.10
   2  -1   2   73.39   13.20
   2  -1   2   87.69   31.00
   2  -1   2   92.29   19.90
   2  -1   2  110.29   19.90
  -3   1  -2 1211.68  104.09
  -3   1  -2 1517.65  109.39
  -3   1  -2 1212.78  108.49
  -3   1  -2 1144.09  120.19
   3  -1   2 1146.29  102.69
   3  -1   2 1458.15  123.19
   3  -1   2 1473.25  110.79
   3  -1   2 1201.88  103.19
   3  -1   2 1421.36  111.29
  -4   1  -2    6.50   19.30
  -4   1  -2   45.40   69.39
   4  -1   2   37.80   28.20
   4  -1   2   31.00   28.50
   4  -1   2  -38.10   73.59
   4  -1   2   25.60   17.30
   4  -1   2    3.20   16.00
  -5   1  -2  574.74   64.09
  -5   1  -2  562.64  132.69
   5  -1   2  634.64   75.79
   5  -1   2  468.35   57.69
   5  -1   2  514.45   84.99
   5  -1   2  519.45   57.59
  -6   1  -2   -8.30  164.18
   6  -1   2  160.98   58.89
   6  -1   2   48.40   67.39
   6   0  -2  104.99   55.79
   6   0  -2   -6.00   46.10
  -6   0   2  272.17  159.88
  -6   0   2   69.39   46.90
   5   0  -2   33.80   26.90
   5   0  -2   52.79   37.70
   5   0  -2   78.59   33.20
  -5   0   2   29.90   30.00
  -5   0   2  -48.10   97.39
   4   0  -2  114.69   92.59
   4   0  -2  352.36   44.30
   4   0  -2  268.87   44.10
   4   0  -2  393.16   49.90
  -4   0   2  301.17   80.19
  -4   0   2  334.17   45.40
  -4   0   2  341.77   51.89
   3   0  -2 1315.67   95.89
   3   0  -2 1153.88   94.19
   3   0  -2 1094.29  108.29
   3   0  -2 1097.79   95.49
   3   0  -2 1081.69   93.89
  -3   0   2 1099.39   94.79
  -3   0   2 1088.29   93.49
   1   0  -2 3504.45  257.97
   1   0  -2 3255.27  258.57
   1   0  -2 3597.14  259.37
   1   0  -2 3386.16  262.07
  -1   0   2 3449.16  259.37
  -1   0   2 3296.17  258.67
  -1   0   2 3497.35  257.97
  -1   0   2 3465.95  261.87
   0   0  -2  121.99   12.20
   0   0  -2  131.59   12.60
   0   0  -2  103.69   12.70
   0   0  -2  123.69   13.10
   0   0   2  117.79   12.80
   0   0   2  112.09   11.90
   0   0   2  139.59   13.20
   0   0   2  126.79   13.40
  -1   0  -2  976.10   85.19
  -1   0  -2 1067.89   82.39
   1   0   2  951.40   85.09
   1   0   2 1054.29   83.19
   1   0   2 1140.39   82.59
   1   0   2 1189.78   83.09
   1   0   2 1057.69   82.69
  -2   0  -2   -0.10   10.70
  -2   0  -2   25.40   13.90
  -2   0  -2   11.80   10.10
  -2   0  -2   47.20   26.40
   2   0   2   -3.20    9.10
   2   0   2   25.50   19.10
   2   0   2   -5.70   13.20
   2   0   2   -1.20   29.00
  -3   0  -2  712.43   84.19
  -3   0  -2  819.82   68.39
  -3   0  -2  817.62   67.09
   3   0   2  761.52   71.89
   3   0   2  755.52   67.59
  -4   0  -2  444.56   54.19
  -4   0  -2  480.75  101.69
   4   0   2  354.66   49.20
   4   0   2  462.85   44.40
   4   0   2  519.85   61.19
   4   0   2  453.05   62.89
  -5   0  -2  445.96   65.69
  -5   0  -2  394.26  131.29
   5   0   2  397.56   70.59
   5   0   2  380.96   64.29
   5   0   2  246.18   47.70
   5   0   2  345.07   45.20
  -6   0  -2   37.30  167.38
   6   0   2   63.19   58.29
   6   0   2  -31.80   70.49
   6  -1  -2  163.28   56.19
   6  -1  -2  232.88   48.60
  -6   1   2  188.28   45.70
  -6   1   2  134.19  139.69
   5  -1  -2  -18.70   35.60
   5  -1  -2    1.70   33.70
   5  -1  -2   -3.30   20.70
  -5   1   2  136.59   96.79
  -5   1   2    8.60   26.30
   4  -1  -2  487.55   98.69
   4  -1  -2  673.43   69.69
   4  -1  -2  548.75   50.39
   4  -1  -2  514.55   45.30
   4  -1  -2  458.75   55.39
   4  -1  -2  586.84   62.19
  -4   1   2  482.25   53.29
  -4   1   2  391.56   85.79
  -4   1   2  447.26   61.39
   3  -1  -2  351.36   41.90
   3  -1  -2  257.17   57.39
   3  -1  -2  375.36   32.60
   3  -1  -2  289.27   35.60
   3  -1  -2  400.66   42.90
   3  -1  -2  387.06   39.20
  -3   1   2  361.16   38.40
  -3   1   2  414.76   62.89
  -3   1   2  324.87   39.70
  -2   1   2  528.85   57.29
   1  -1  -2 2121.39  177.68
   1  -1  -2 2461.35  177.28
   1  -1  -2 2218.68  183.08
   1  -1  -2 2398.36  177.18
   1  -1  -2 2296.27  178.98
   1  -1  -2 2570.44  178.58
  -1   1   2 2188.48  178.58
  -1   1   2 2295.67  183.38
  -1   1   2 2635.34  178.98
   0  -1  -2 8900.81  655.43
   0  -1  -2 9362.46  652.13
   0  -1  -2 8518.95  652.43
   0  -1  -2 8298.97  652.13
   0   1   2 9202.68  651.83
   0   1   2 8315.87  650.73
   0   1   2 8586.84  652.83
   0   1   2 8559.64  655.73
   1   1   2  447.96   43.60
   1   1   2  404.96   37.80
   1   1   2  433.76   44.10
   1   1   2  435.56   39.80
  -2  -1  -2 1031.60  101.29
   2   1   2 1148.69   94.89
   2   1   2 1165.68   96.09
   2   1   2 1291.97  105.59
   2   1   2 1231.38   96.89
  -3  -1  -2  506.55   44.20
  -3  -1  -2  456.35   49.10
   3   1   2  371.46   48.40
   3   1   2  364.36   46.40
  -4  -1  -2  721.23   69.29
  -4  -1  -2  463.55  103.99
  -4  -1  -2  612.44   63.09
   4   1   2  682.13   72.29
   4   1   2  497.95   63.59
   4   1   2  602.14   74.09
  -5  -1  -2  -62.79  136.09
  -5  -1  -2   72.49   40.20
   5   1   2   40.20   53.99
   5   1   2   48.40   45.90
   6  -2  -2  428.06   73.59
   6  -2  -2  211.68   59.49
  -6   2   2  265.07   49.70
  -6   2   2  -17.40  134.59
   5  -2  -2   30.20   17.90
   5  -2  -2   25.40   35.80
   5  -2  -2   20.00   31.00
   5  -2  -2    3.30   17.60
  -5   2   2   24.50   90.99
  -5   2   2    6.60   23.10
   4  -2  -2 2408.36  205.58
   4  -2  -2 2410.16  183.78
   4  -2  -2 2080.69  177.88
   4  -2  -2 2545.55  182.68
   4  -2  -2 2023.20  172.78
   4  -2  -2 2290.67  172.68
  -4   2   2 2092.09  181.88
  -4   2   2 2143.59  174.88
   3  -2  -2  194.38   24.50
   3  -2  -2  191.48   25.20
   3  -2  -2  264.87   55.79
   3  -2  -2  204.08   31.30
   3  -2  -2  226.88   32.10
  -3   2   2  334.97   60.59
  -3   2   2  216.98   29.50
  -3   2   2  183.48   29.40
   2  -2  -2 1088.09  102.79
   2  -2  -2 1233.18   89.69
   2  -2  -2 1085.39   89.39
   2  -2  -2 1100.29   88.09
   2  -2  -2 1226.28   92.89
  -2   2   2 1182.98   89.69
  -2   2   2 1165.98   92.49
  -2   2   2  997.50   99.79
  -2   2   2 1105.39   89.79
   1  -2  -2  139.99   18.60
   1  -2  -2  170.28   31.20
   1  -2  -2  182.08   18.50
   1  -2  -2  166.88   19.70
   1  -2  -2  161.18   14.90
  -1   2   2  143.39   18.30
  -1   2   2  179.18   15.50
  -1   2   2  181.78   34.30
  -1   2   2  187.28   19.80
   0  -2  -2 6095.79  481.05
   0  -2  -2 6522.55  482.85
   0  -2  -2 6608.54  488.75
   0  -2  -2 6845.82  484.65
   0   2   2 5631.44  480.65
   0   2   2 6631.14  483.75
   0   2   2 6437.66  489.85
   0   2   2 6724.43  484.65
   1   2   2  272.97   42.80
   1   2   2  266.67   28.40
   1   2   2  279.27   41.00
   2   2   2 1104.29  102.89
   2   2   2 1441.66  115.39
   2   2   2 1285.27  112.19
   2   2   2 1304.57  105.29
  -3  -2  -2  178.28   32.40
  -3  -2  -2  167.58   25.20
  -3  -2  -2  147.19   58.79
   3   2   2  124.59   72.79
   3   2   2  159.08   31.10
   3   2   2   82.59   36.30
   3   2   2  192.28   34.00
   3   2   2  117.49   27.20
   3   2   2  128.89   30.20
  -4  -2  -2  728.33   77.19
  -4  -2  -2  589.84   67.99
  -4  -2  -2  749.03  130.19
   4   2   2  658.93   76.19
   4   2   2  643.14   79.69
  -5  -2  -2   38.40   47.00
  -5  -2  -2 -208.68  119.89
   5   2   2   38.60   57.59
   5   2   2  -53.09  124.39
   5   2   2   17.60   49.99
   6  -3  -2  788.62   90.69
   6  -3  -2  633.84  102.19
   5  -3  -2  130.79   24.60
   5  -3  -2  131.39   42.20
   5  -3  -2  121.79   36.80
  -5   3   2   87.69   28.00
  -5   3   2  125.29   98.39
   4  -3  -2  603.24   55.29
   4  -3  -2  763.02   74.89
   4  -3  -2  623.54   68.49
   4  -3  -2  638.54   66.79
   4  -3  -2  588.24  108.59
   4  -3  -2  727.93   61.09
  -4   3   2  577.14   71.69
  -4   3   2  774.42  102.09
  -4   3   2  675.23   60.69
   3  -3  -2   23.70    9.10
   3  -3  -2   58.49   20.00
   3  -3  -2  -16.70   13.10
   3  -3  -2  117.49   44.70
   3  -3  -2  -24.60   17.70
  -3   3   2  -10.20   14.10
  -3   3   2   82.59   42.20
   2  -3  -2  272.67   55.49
   2  -3  -2  256.17   29.20
   2  -3  -2  308.67   29.60
   2  -3  -2  342.97   32.90
   2  -3  -2  376.86   35.30
  -2   3   2  310.57   31.70
  -2   3   2  335.57   34.60
  -2   3   2  244.48   47.00
  -2   3   2  315.07   32.00
   1  -3  -2 1186.38   84.49
   1  -3  -2  984.20   87.69
   1  -3  -2 1071.99   98.49
   1  -3  -2 1017.10   86.59
   1  -3  -2 1186.38   84.49
  -1   3   2 1153.18   87.89
  -1   3   2 1018.90   86.29
  -1   3   2 1065.99   97.49
  -1   3   2 1121.89   84.59
  -1   3   2 1157.08   88.29
   0  -3  -2 2055.19  175.38
   0  -3  -2 2376.86  186.68
   0  -3  -2 2422.86  177.98
   0  -3  -2 2360.16  180.28
   0   3   2 2220.28  175.58
   0   3   2 2334.77  188.48
   0   3   2 2501.45  181.18
  -1  -3  -2  575.24   49.90
  -1  -3  -2  548.45   52.39
  -1  -3  -2  576.44   47.50
   1   3   2  583.74   53.49
   1   3   2  501.85   46.60
   1   3   2  484.35   62.69
   1   3   2  529.55   58.69
  -2  -3  -2 1749.22  147.89
   2   3   2 1787.32  151.88
   2   3   2 1804.62  150.28
   2   3   2 2111.09  165.98
   2   3   2 2142.39  165.18
  -3  -3  -2   -4.60   23.30
  -3  -3  -2   54.99   26.90
   3   3   2   35.70   25.60
   3   3   2  -15.40   64.79
   3   3   2   27.40   25.00
   3   3   2   22.80   30.20
  -4  -3  -2  413.26   61.29
  -4  -3  -2  305.87   45.00
   4   3   2  386.86   57.49
   4   3   2  219.98  100.49
   4   3   2  388.26   67.09
  -5  -3  -2  -28.50   51.49
   5   3   2   18.00   52.89
   5   3   2   15.20   64.69
   5   3   2 -249.97  138.49
   6  -4  -2  323.17   59.69
   6  -4  -2  242.58   62.89
   6  -4  -2  323.17   43.40
  -6   4   2  137.59  138.99
   5  -4  -2  503.45   52.09
   5  -4  -2  516.45   66.59
   5  -4  -2  352.56   64.79
  -5   4   2  272.97  106.69
   4  -4  -2  160.28   81.49
   4  -4  -2   95.99   32.60
   4  -4  -2   19.50   20.80
   4  -4  -2   53.69   28.50
  -4   4   2  243.88   74.99
  -4   4   2   11.70   32.30
  -4   4   2   88.19   26.30
   3  -4  -2  370.26   47.10
   3  -4  -2  353.16   33.10
   3  -4  -2  371.16   40.30
  -3   4   2  322.37   45.30
  -3   4   2  325.47   39.40
   2  -4  -2  647.54   55.39
   2  -4  -2  615.34   80.39
   2  -4  -2  738.63   59.79
   2  -4  -2  749.73   60.59
  -2   4   2  703.63   57.69
  -2   4   2  677.63   59.19
  -2   4   2  515.55   74.29
  -2   4   2  605.44   55.79
  -2   4   2  650.03   56.49
   1  -4  -2 3151.58  246.68
   1  -4  -2 3153.48  256.57
   1  -4  -2 3294.07  242.18
  -1   4   2 3118.69  244.78
  -1   4   2 3345.17  247.18
  -1   4   2 3282.37  242.78
  -1   4   2 3084.29  256.77
   0  -4  -2 1370.66  115.79
   0  -4  -2 1381.36  113.59
   0  -4  -2 1456.65  124.99
   0  -4  -2 1328.77  111.09
   0   4   2 1545.95  111.89
   0   4   2 1539.45  118.89
   0   4   2 1392.06  126.59
  -1  -4  -2   90.39   22.80
  -1  -4  -2   76.39   17.70
  -1  -4  -2  103.39   22.00
   1   4   2  139.39   21.30
   1   4   2  188.88   50.19
   1   4   2  109.79   25.50
   1   4   2  153.48   41.60
  -2  -4  -2  481.45   64.49
   2   4   2  465.65   91.39
   2   4   2  512.65   51.89
   2   4   2  601.84   84.29
  -3  -4  -2   30.30   28.60
  -3  -4  -2   49.50   36.60
   3   4   2  -34.70   81.79
   3   4   2   41.10   31.30
  -4  -4  -2  208.78   50.99
   4   4   2  109.49  129.19
   4   4   2  140.49   49.50
   6  -5  -2  188.08   58.99
   6  -5  -2  196.88   53.39
  -6   5   2  -76.79  131.19
   5  -5  -2  686.53   91.29
   5  -5  -2  689.83   64.79
  -5   5   2  532.25   77.99
  -5   5   2  475.65  132.19
   4  -5  -2   49.00   33.30
   4  -5  -2   63.59   23.20
   4  -5  -2   48.10   29.00
  -4   5   2   60.89   27.50
  -4   5   2  140.99   78.59
   3  -5  -2  369.96   44.00
   3  -5  -2  467.15   44.50
   3  -5  -2  434.86   55.59
   3  -5  -2  385.76   78.09
  -3   5   2  370.06   44.50
  -3   5   2  372.56   51.79
  -3   5   2  343.07   41.50
   2  -5  -2  741.13   64.89
   2  -5  -2  735.93   64.89
   2  -5  -2  700.03   60.29
   2  -5  -2  679.73   85.49
  -2   5   2  648.94   64.09
  -2   5   2  661.83   59.49
  -2   5   2  669.43   87.69
  -2   5   2  768.92   62.99
  -2   5   2  688.83   65.19
   1  -5  -2 1192.58  112.19
   1  -5  -2 1387.86  107.79
   1  -5  -2 1405.46  111.99
   1  -5  -2 1332.97  126.39
  -1   5   2 1303.17  127.69
  -1   5   2 1426.16  108.29
  -1   5   2 1563.44  114.59
  -1   5   2 1329.87  110.09
   0  -5  -2   11.80   16.10
   0  -5  -2  -14.70   33.90
   0  -5  -2   -3.90   15.70
   0  -5  -2    2.80   14.50
   0   5   2   13.10   24.60
   0   5   2    8.00   15.50
   0   5   2    2.90   41.50
  -1  -5  -2  430.86   54.79
  -1  -5  -2  422.66   47.90
  -1  -5  -2  343.07   43.50
   1   5   2  489.35   78.09
   1   5   2  390.86   60.89
   1   5   2  454.35   45.60
   1   5   2  418.66   76.29
  -2  -5  -2  252.67   50.79
  -2  -5  -2  178.78   30.50
  -2  -5  -2  133.99   39.00
  -3  -5  -2  313.37   57.99
  -3  -5  -2  253.47   43.10
   3   5   2  166.68   53.39
   3   5   2  217.48  107.39
  -4  -5  -2   79.89   56.29
   4   5   2  261.37  129.49
   4   5   2   -9.40   64.89
   6  -6  -2  142.79   41.80
   6  -6  -2  131.39   64.69
   6  -6  -2   80.89   52.79
  -6   6   2  -33.00  148.69
   5  -6  -2  334.47   47.90
   5  -6  -2  477.75   70.59
  -5   6   2  263.17   56.49
  -5   6   2  594.74  133.19
   4  -6  -2    9.30   35.90
   4  -6  -2   33.30   33.80
   4  -6  -2   12.70   22.80
  -4   6   2   97.79   85.99
  -4   6   2   44.90   25.50
  -4   6   2   11.00   29.30
   3  -6  -2  750.62   78.99
   3  -6  -2  904.71  117.59
   3  -6  -2  856.11   68.29
   3  -6  -2  594.34   68.59
  -3   6   2  742.43   66.49
  -3   6   2  613.24   75.39
  -3   6   2  674.63   71.99
   2  -6  -2  379.66   49.00
   2  -6  -2  461.65   45.20
   2  -6  -2  449.16   50.39
  -2   6   2  512.85   50.99
  -2   6   2  408.06   43.40
  -2   6   2  411.66   46.70
  -2   6   2  415.56   53.69
  -2   6   2  454.95   76.99
   1  -6  -2 2272.37  210.58
   1  -6  -2 2477.95  190.78
   1  -6  -2 2624.54  196.38
   1  -6  -2 2510.75  196.08
  -1   6   2 2399.06  190.68
  -1   6   2 2649.53  198.58
  -1   6   2 2366.16  213.98
   0  -6  -2  116.09   25.30
   0  -6  -2  137.59   26.80
   0  -6  -2  124.19   29.50
   0  -6  -2   79.49   54.89
   0   6   2  184.18   67.39
   0   6   2  161.98   38.90
   0   6   2  147.49   25.10
  -1  -6  -2  549.05   55.39
  -1  -6  -2  429.96   68.49
  -1  -6  -2  491.15   61.89
   1   6   2  587.24   56.89
   1   6   2  660.43  111.29
  -2  -6  -2   62.19   38.00
  -2  -6  -2   -3.70   26.10
   2   6   2   -0.50   39.30
   2   6   2  -11.30   96.89
  -3  -6  -2  345.27   48.70
  -3  -6  -2  192.48   55.89
   3   6   2  456.45  140.09
   3   6   2  341.57   68.09
  -4  -6  -2    3.50   69.49
   6  -7  -2  147.59   45.70
   6  -7  -2  159.28   65.29
  -6   7   2   37.40   67.79
  -6   7   2   70.49  179.18
   5  -7  -2  293.17   63.99
   5  -7  -2  285.87   43.70
  -5   7   2  141.79   54.89
  -5   7   2  189.98  141.99
   4  -7  -2   69.39   27.30
   4  -7  -2   32.00   38.30
   4  -7  -2    6.20   41.40
  -4   7   2   55.99   32.00
  -4   7   2   44.40   24.70
  -4   7   2   43.10   31.50
  -4   7   2   49.10   96.69
   3  -7  -2  672.73   66.39
   3  -7  -2  634.24   66.19
   3  -7  -2  711.43   76.39
  -3   7   2  475.85   73.69
  -3   7   2  456.95   70.09
  -3   7   2  580.94   62.69
  -3   7   2  708.83   64.49
  -3   7   2  706.43  116.69
   2  -7  -2    5.00   20.70
   2  -7  -2   76.29   25.80
  -2   7   2   60.19   72.29
  -2   7   2   60.89   23.60
  -2   7   2  103.59   27.60
   1  -7  -2  311.47   44.60
   1  -7  -2  326.77   49.10
   1  -7  -2  272.67   41.70
  -1   7   2  252.07   77.69
  -1   7   2  254.77   51.49
  -1   7   2  329.27   40.30
   0  -7  -2   19.00   25.80
   0  -7  -2   51.99   23.20
   0  -7  -2   40.10   31.00
   0   7   2   29.80   79.29
   0   7   2   39.10   23.50
  -1  -7  -2  388.56   65.59
  -1  -7  -2  268.67   55.59
  -1  -7  -2  428.36   50.59
   1   7   2  330.97   53.79
   1   7   2  616.64  122.99
  -2  -7  -2  142.79   38.20
  -2  -7  -2   99.19   54.39
   2   7   2  290.87  129.69
   2   7   2  153.18   53.69
  -3  -7  -2   23.80   67.89
  -3  -7  -2   96.19   47.00
   3   7   2  288.97   79.39
   3   7   2   69.19  155.68
   6  -8  -2  260.77   64.69
   6  -8  -2   27.50   79.69
  -6   8   2 -297.77  184.28
  -6   8   2   60.19   80.19
   5  -8  -2  -38.30   64.09
   5  -8  -2   19.10   34.80
  -5   8   2   12.60   53.79
  -5   8   2   -2.70  150.48
   4  -8  -2  186.38   57.79
   4  -8  -2  119.89   39.50
   4  -8  -2   18.30   59.59
  -4   8   2  240.18  115.59
  -4   8   2  285.77   51.69
  -4   8   2  176.48   35.90
   3  -8  -2   39.50   36.80
   3  -8  -2   16.30   24.40
   3  -8  -2   64.09   36.10
  -3   8   2   97.39   34.30
  -3   8   2   44.00   43.70
  -3   8   2  152.78   99.99
  -3   8   2    0.40   32.60
  -3   8   2   12.60   44.70
   2  -8  -2  132.19   35.40
   2  -8  -2   93.59   29.20
  -2   8   2   82.29   49.30
  -2   8   2  217.78   92.59
  -2   8   2  188.48   33.00
   1  -8  -2   85.29   30.70
   1  -8  -2   91.39   29.30
   1  -8  -2   69.89   37.10
  -1   8   2   64.29   92.09
  -1   8   2   89.19   27.10
   0  -8  -2  553.84   76.59
   0  -8  -2  358.96   66.69
   0  -8  -2  503.95   58.79
   0   8   2  685.43  139.49
   0   8   2  484.95   59.39
  -1  -8  -2   95.09   38.00
  -1  -8  -2  173.78   56.19
   1   8   2   71.39  125.79
   1   8   2   79.49   46.30
  -2  -8  -2  136.59   63.79
  -2  -8  -2  180.18   50.89
   2   8   2  159.78  165.88
   2   8   2  217.38   66.69
   5  -9  -2   41.40   48.60
  -5   9   2  -42.00  175.88
  -5   9   2    6.10   61.79
   4  -9  -2  596.54  104.89
   4  -9  -2  566.24   75.79
  -4   9   2  439.16   77.29
  -4   9   2  559.64  159.88
  -4   9   2  413.86   61.29
   3  -9  -2   -2.80   41.20
   3  -9  -2  -11.50   29.70
  -3   9   2  -33.40   37.80
  -3   9   2  -45.10  112.89
  -3   9   2   42.60   39.70
   2  -9  -2  110.29   34.50
   2  -9  -2   85.89   41.60
  -2   9   2  203.38   42.40
  -2   9   2   86.19  102.79
  -2   9   2  171.78   41.60
   1  -9  -2   16.30   42.20
   1  -9  -2   20.50   29.00
  -1   9   2    2.20   33.80
  -1   9   2  -16.60  113.79
  -1   9   2   22.00   38.90
   0  -9  -2  525.55   73.09
   0  -9  -2  807.32  106.69
   0   9   2  779.92  160.48
   0   9   2  469.45   75.29
  -1  -9  -2   40.50   46.50
  -1  -9  -2   65.29   67.39
   1   9   2   -6.20   56.29
   1   9   2  -62.19  161.18
   5 -10  -2  -31.30   83.39
  -5  10   2  282.77  201.88
   4 -10  -2   31.30   50.19
   4 -10  -2  195.18   68.19
  -4  10   2   15.50  159.38
  -4  10   2  152.78   62.99
   3 -10  -2   -8.00   43.90
  -3  10   2   82.79   51.49
  -3  10   2   82.89  143.79
  -3  10   2  106.39   48.00
   2 -10  -2   57.79   44.90
  -2  10   2  140.89  140.79
  -2  10   2   57.59   47.70
  -2  10   2  159.38   46.70
   1 -10  -2   10.70   39.80
  -1  10   2  164.68  144.99
  -1  10   2  103.89   57.69
  -1  10   2  140.69   47.50
   0 -10  -2  483.55   77.29
   0 -10  -2  479.65   89.99
   0  10   2  356.56   60.19
   0  10   2  530.05  178.38
   3 -11  -2   84.19   48.00
  -3  11   2    5.30   61.19
  -3  11   2  121.49  179.68
   2 -11  -2   99.19   52.89
  -2  11   2  -32.70  181.88
  -2  11   2   40.80   61.79
  -1  11  -3   32.30   64.89
  -1  11  -3  148.09  142.29
   1 -11   3   48.60   73.79
   1 -11   3   -1.40   59.99
  -2  11  -3  416.46   85.19
  -2  11  -3  240.88  145.99
   2 -11   3  314.37   75.49
   2 -11   3  377.06   65.69
  -3  11  -3   70.69   82.89
  -3  11  -3   74.59  144.89
   3 -11   3  -31.50   48.50
   1  10  -3   28.70   64.29
   1  10  -3 -189.28  168.48
  -1 -10   3  -31.70   80.19
  -1 -10   3   32.40   52.89
   0  10  -3  251.87  149.79
   0  10  -3  133.19   56.39
   0 -10   3  207.18   49.20
   0 -10   3  146.19   75.69
  -1  10  -3   16.10   56.19
  -1  10  -3  163.98  108.09
   1 -10   3  -20.10   51.89
   1 -10   3   29.80   40.50
  -2  10  -3  220.08   63.29
  -2  10  -3  256.17  120.09
   2 -10   3  209.18   50.19
   2 -10   3  200.48   55.09
  -3  10  -3   81.29  112.99
  -3  10  -3   -4.40   67.99
   3 -10   3  -21.80   51.69
  -4  10  -3   -6.60   83.49
  -4  10  -3  -48.90  150.08
   4 -10   3  162.98   62.69
   4 -10   3  150.08   86.29
   2   9  -3   78.79   66.99
   2   9  -3  -68.49  169.18
  -2  -9   3   26.90   80.89
  -2  -9   3  -26.00   45.90
   1   9  -3  100.09  151.88
   1   9  -3   22.30   55.29
  -1  -9   3  121.69   42.50
  -1  -9   3   87.69   66.49
   0   9  -3   67.79  114.49
   0   9  -3   53.19   47.30
   0  -9   3   -0.30   53.19
   0  -9   3   29.10   32.40
  -1   9  -3  311.77  103.69
  -1   9  -3  234.48   52.69
   1  -9   3  153.18   53.49
   1  -9   3  241.88   43.90
  -2   9  -3  302.77   59.69
  -2   9  -3  324.17  109.99
  -2   9  -3  217.88   50.09
   2  -9   3  285.87   48.20
   2  -9   3  337.77   54.39
  -3   9  -3  -32.60   54.19
  -3   9  -3  136.09   96.09
   3  -9   3  127.59   63.49
   3  -9   3   19.80   37.60
  -4   9  -3   44.00  126.49
  -4   9  -3  160.48   71.19
   4  -9   3  121.79   58.09
   4  -9   3  189.78   76.29
  -5   9  -3 -111.59   77.69
  -5   9  -3   -8.40  159.08
   5  -9   3  -32.20   89.09
   5  -9   3   18.90   56.19
   3   8  -3    8.80  150.08
   3   8  -3   -9.50   77.19
  -3  -8   3  170.58   82.49
   2   8  -3   31.10  136.49
   2   8  -3   40.40   59.79
  -2  -8   3   19.20   35.00
  -2  -8   3   -5.00   72.89
   1   8  -3  618.54  123.49
   1   8  -3  421.36   67.89
  -1  -8   3  412.46   60.99
  -1  -8   3  318.87   71.39
   0   8  -3  241.18   48.20
   0   8  -3  318.87   95.29
   0  -8   3  202.28   40.30
   0  -8   3  270.57   54.49
  -1   8  -3  599.44  103.09
  -1   8  -3  471.45   70.59
  -1   8  -3  418.26   67.09
   1  -8   3  585.34   68.89
   1  -8   3  659.73   70.99
  -2   8  -3   12.30   34.90
  -2   8  -3   24.10   41.40
  -2   8  -3   66.49   68.69
   2  -8   3   71.19   30.80
   2  -8   3  107.79   34.40
  -3   8  -3  167.28   85.69
  -3   8  -3   42.70   46.60
   3  -8   3  101.89   35.70
   3  -8   3  226.58   55.09
  -4   8  -3  226.08  119.29
  -4   8  -3   85.99   59.69
   4  -8   3   26.80   37.30
   4  -8   3   -9.60   61.89
  -5   8  -3   86.39  138.59
  -5   8  -3  201.08   88.69
   5  -8   3  252.27   60.39
   5  -8   3  330.17   82.69
   3   7  -3  236.58   69.09
   3   7  -3  507.05  141.69
  -3  -7   3  264.17   70.69
   2   7  -3   -2.20   45.60
   2   7  -3  221.68  103.99
  -2  -7   3    2.90   29.40
  -2  -7   3   -2.40   52.99
   1   7  -3  615.54  116.29
   1   7  -3  469.05   67.09
  -1  -7   3  499.65   59.09
   0   7  -3   91.29   38.40
   0   7  -3  107.19   33.80
   0   7  -3  184.58   68.59
   0  -7   3  100.79   35.40
   0  -7   3   43.10   54.39
   0  -7   3   32.90   27.30
  -1   7  -3 1019.90   91.99
  -1   7  -3  738.63  108.69
  -1   7  -3  916.21   86.89
   1  -7   3 1042.80   86.89
   1  -7   3  842.52   84.99
   1  -7   3  975.40  107.19
  -2   7  -3   56.99   53.79
  -2   7  -3  116.39   36.90
  -2   7  -3  115.29   27.50
   2  -7   3   94.89   29.10
   2  -7   3   69.69   28.30
   2  -7   3   39.80   22.60
   2  -7   3  105.19   38.40
   2  -7   3   62.09   58.19
  -3   7  -3  585.94   73.39
  -3   7  -3  604.24  103.59
  -4   7  -3   73.29   50.99
  -4   7  -3  -10.60   96.59
   4  -7   3  118.49   57.89
   4  -7   3  111.39   37.50
  -5   7  -3  367.36  137.09
  -5   7  -3  590.74   91.09
   5  -7   3  813.12  104.49
   5  -7   3  538.25   79.19
   6  -7   3  -12.10   55.49
   6  -7   3   72.99   71.69
   4   6  -3  -10.10   69.39
   4   6  -3   60.19  133.19
  -4  -6   3  213.38   68.39
   3   6  -3  193.38  102.39
   3   6  -3  201.38   53.99
  -3  -6   3  179.18   60.89
   2   6  -3  121.49   79.49
   2   6  -3   26.20   37.60
  -2  -6   3   60.59   44.90
  -2  -6   3   20.00   22.50
   1   6  -3  941.71   81.89
   1   6  -3  956.90  112.59
   1   6  -3  692.33   99.69
  -1  -6   3  906.11   94.39
  -1  -6   3  929.11   80.79
   0   6  -3  405.16   53.39
   0   6  -3  358.26   47.20
   0   6  -3  382.36   74.79
   0  -6   3  367.56   52.09
   0  -6   3  436.26   66.79
   0  -6   3  411.76   55.39
   0  -6   3  424.96   47.60
  -1   6  -3  707.03   88.79
  -1   6  -3  781.12   72.99
  -1   6  -3  873.61   76.49
   1  -6   3  864.41   74.09
   1  -6   3  689.93   72.99
   1  -6   3  948.31   76.99
   1  -6   3  762.02   89.09
  -2   6  -3   11.20   24.00
  -2   6  -3    9.70   42.00
  -2   6  -3    4.40   16.40
   2  -6   3   -2.40   46.40
   2  -6   3   18.10   22.00
   2  -6   3  -10.80   27.80
   2  -6   3  -14.40   16.40
   2  -6   3   -1.70   27.10
   2  -6   3   35.80   23.50
  -3   6  -3 1007.70  117.49
   3  -6   3  998.90  117.49
   3  -6   3  976.60  100.59
  -4   6  -3  190.08   88.39
  -4   6  -3  297.77   59.69
   4  -6   3  394.96   53.59
   4  -6   3  525.45   71.19
  -5   6  -3  347.77  126.49
  -5   6  -3  329.17   80.09
   5  -6   3  385.96   67.99
   5  -6   3  318.77   50.39
  -6   6  -3  109.79  144.69
  -6   6  -3   57.49   76.59
   6  -6   3   23.70   61.09
   6  -6   3    8.60   40.70
   5   5  -3   16.80   81.29
   5   5  -3  102.19  146.39
  -5  -5   3   79.59   72.29
   4   5  -3  234.28   65.39
  -4  -5   3  224.48   64.79
   3   5  -3  142.49   85.09
   3   5  -3   84.79   43.20
   2   5  -3  499.05   85.79
   2   5  -3  444.76   82.39
   2   5  -3  402.96   53.69
   1   5  -3   23.30   38.00
   1   5  -3   65.59   23.00
   1   5  -3   76.59   51.29
   1   5  -3   29.90   23.00
  -1  -5   3   28.80   24.40
  -1  -5   3   29.00   25.70
  -1  -5   3   36.40   17.50
   0   5  -3 1581.34  142.29
   0   5  -3 1694.73  133.49
   0   5  -3 1635.34  129.69
   0  -5   3 1644.14  130.79
   0  -5   3 1567.14  137.79
   0  -5   3 1516.35  129.99
   0  -5   3 1725.63  135.49
  -1   5  -3   92.39   21.00
  -1   5  -3   42.70   32.50
  -1   5  -3   66.29   20.50
   1  -5   3   74.19   17.70
   1  -5   3   64.09   20.70
   1  -5   3   39.00   19.70
   1  -5   3   45.70   35.80
   1  -5   3   65.79   21.60
   1  -5   3   76.59   20.60
  -2   5  -3  342.27   38.70
  -2   5  -3  457.25   65.69
  -2   5  -3  469.55   46.60
   2  -5   3  405.46   47.90
   2  -5   3  425.86   48.20
   2  -5   3  459.25   51.89
   2  -5   3  414.16   45.60
   2  -5   3  501.15   64.69
  -3   5  -3  182.18   57.69
  -3   5  -3  159.88   31.80
   3  -5   3  183.98   60.79
   3  -5   3  178.08   39.00
   3  -5   3   81.99   34.20
  -4   5  -3  659.43   88.39
   4  -5   3  707.73   92.99
   4  -5   3  773.12   72.29
  -5   5  -3   90.59  108.39
  -5   5  -3  182.68   61.59
   5  -5   3  241.18   56.79
   5  -5   3  230.08   42.40
  -6   5  -3 -120.69  146.59
  -6   5  -3  178.98   74.39
   6  -5   3   84.49   42.20
   6  -5   3    5.30   59.09
   5   4  -3  197.38  133.59
   5   4  -3  -40.20   65.69
  -5  -4   3  138.79   59.69
   4   4  -3  992.30  140.09
   4   4  -3  741.23   98.39
   3   4  -3    9.80   32.80
   3   4  -3   62.09   58.09
  -3  -4   3  -15.80   34.20
   2   4  -3  903.01   93.09
   2   4  -3  956.80   79.29
   2   4  -3  720.33   84.69
   2   4  -3 1068.59   93.19
  -2  -4   3  718.33   86.29
  -2  -4   3  947.51   82.39
   1   4  -3   44.80   30.00
   1   4  -3    7.30   19.80
   1   4  -3   69.79   18.20
   1   4  -3   64.69   32.40
  -1  -4   3   48.90   18.80
  -1  -4   3   37.50   14.50
  -1  -4   3   24.80   21.50
   0   4  -3 2859.31  198.98
   0   4  -3 2410.76  196.38
   0   4  -3 2405.76  203.28
   0  -4   3 2751.32  196.68
   0  -4   3 2294.27  199.98
   0  -4   3 2572.44  197.08
  -1   4  -3  153.48   24.80
  -1   4  -3  144.09   20.90
  -1   4  -3  120.39   33.10
   1  -4   3  176.58   23.90
   1  -4   3  178.98   25.40
   1  -4   3  166.38   34.30
   1  -4   3  158.48   25.30
   1  -4   3  168.58   26.10
   1  -4   3  163.48   25.70
  -2   4  -3 3113.19  232.78
  -2   4  -3 2647.54  237.88
   2  -4   3 2842.92  231.38
   2  -4   3 3201.38  239.88
   2  -4   3 2936.21  231.08
   2  -4   3 3287.07  232.78
  -3   4  -3  259.37   40.50
  -3   4  -3  245.48   59.69
   3  -4   3  311.17   45.40
   3  -4   3  243.78   35.70
   3  -4   3  365.56   71.79
  -4   4  -3  590.74   74.89
   4  -4   3  532.55   59.49
   4  -4   3  653.33   82.69
   4  -4   3  705.03  121.99
  -5   4  -3  -92.49  107.79
  -5   4  -3  -28.80   49.40
   5  -4   3   26.40   45.30
   5  -4   3   54.89   24.50
  -6   4  -3 -139.09  144.89
   6  -4   3   74.49   37.20
   6  -4   3  137.59   63.69
   5   3  -3  111.19   54.29
   5   3  -3   67.89   50.39
  -5  -3   3   24.50  115.09
  -5  -3   3  167.78   51.09
   4   3  -3  345.17   58.79
   4   3  -3  409.06   61.39
  -4  -3   3  297.07   55.89
  -4  -3   3  566.44  104.49
  -4  -3   3  308.87   49.20
   3   3  -3   46.80   26.80
   3   3  -3   20.80   24.70
   3   3  -3   18.30   18.80
   3   3  -3   19.60   61.99
  -3  -3   3   37.40   23.80
  -3  -3   3   10.70   50.69
  -3  -3   3   11.80   21.50
  -3  -3   3    9.40   37.20
   2   3  -3  642.74   71.59
   2   3  -3  632.54   53.69
   2   3  -3  441.96   58.29
  -2  -3   3  483.05   59.79
  -2  -3   3  690.33   67.09
  -2  -3   3  667.53   56.99
  -2  -3   3  494.15   48.20
   1   3  -3  587.84   60.49
   1   3  -3  608.64   53.29
   1   3  -3  682.13   57.99
   1   3  -3  541.15   60.09
  -1  -3   3  646.34   54.99
   0   3  -3 2043.60  164.48
   0   3  -3 1948.61  170.58
   0   3  -3 2403.36  167.98
   0   3  -3 1999.30  166.38
   0  -3   3 1909.71  167.58
   0  -3   3 2157.38  166.88
   0  -3   3 2428.96  169.38
   0  -3   3 2370.16  166.98
   0  -3   3 2223.08  164.78
  -1   3  -3  841.72   72.29
  -1   3  -3  874.51   69.09
  -1   3  -3  819.52   76.89
   1  -3   3  892.51   71.19
   1  -3   3  901.51   71.89
   1  -3   3  880.81   75.29
   1  -3   3  860.51   71.59
  -2   3  -3 2679.73  216.08
  -2   3  -3 2789.72  209.48
   2  -3   3 2579.64  208.48
   2  -3   3 2548.25  208.28
   2  -3   3 2810.62  215.58
   2  -3   3 2614.84  208.78
   2  -3   3 2888.31  209.58
  -3   3  -3   20.70   25.80
  -3   3  -3   16.40   42.20
   3  -3   3   17.90   24.10
   3  -3   3   -5.60   16.30
   3  -3   3   31.20   49.20
   3  -3   3   23.30   24.80
  -4   3  -3  355.46   57.19
  -4   3  -3  157.48   81.39
   4  -3   3  179.38   84.99
   4  -3   3  451.55   61.09
   4  -3   3  270.97   41.00
  -5   3  -3  -59.59  107.09
  -5   3  -3  -78.79   48.40
   5  -3   3  -15.50   40.80
   5  -3   3  -21.00   22.30
  -6   3  -3  269.47  155.48
   6  -3   3  356.46   79.19
   6  -3   3  385.16   73.19
   6  -3   3  460.05   55.99
   6   2  -3   62.49   59.99
   6   2  -3  156.38   70.99
  -6  -2   3  -19.30   61.09
  -6  -2   3   23.70  144.99
   5   2  -3  367.56   61.49
   5   2  -3  215.38   52.39
  -5  -2   3  439.86  122.39
  -5  -2   3  356.26   57.39
   4   2  -3    3.50   26.00
   4   2  -3   -4.90   25.10
  -4  -2   3  -43.20   31.60
  -4  -2   3   55.89   82.19
  -4  -2   3    3.90   30.90
   3   2  -3  220.98   37.60
   3   2  -3  249.38   34.80
   3   2  -3  305.47   63.19
   3   2  -3  244.08   34.60
  -3  -2   3  375.66   57.69
  -3  -2   3  278.47   44.90
  -3  -2   3  259.97   39.50
  -3  -2   3  277.97   36.00
   2   2  -3  602.94   53.09
   2   2  -3  656.73   60.19
  -2  -2   3  630.94   56.39
  -2  -2   3  623.94   61.29
   1   2  -3 2407.66  177.28
   1   2  -3 2112.49  176.98
   1   2  -3 2291.87  172.98
   1   2  -3 2018.30  173.78
  -1  -2   3 2264.87  174.88
  -1  -2   3 2436.46  173.48
  -1  -2   3 2189.48  177.38
  -1  -2   3 2428.36  177.98
  -1  -2   3 2350.46  172.98
   0   2  -3  841.42   72.39
   0   2  -3  909.51   71.19
   0   2  -3  865.41   72.29
   0   2  -3  976.40   73.19
   0  -2   3  941.31   72.19
   0  -2   3  921.81   73.79
   0  -2   3  820.52   70.69
   0  -2   3  922.91   72.39
   0  -2   3  930.41   71.29
  -1   2  -3  517.75   46.30
  -1   2  -3  567.44   48.90
  -1   2  -3  552.34   43.80
   1  -2   3  444.76   44.30
   1  -2   3  577.04   47.10
   1  -2   3  549.05   48.20
   1  -2   3  535.95   46.40
  -2   2  -3 3405.36  287.57
  -2   2  -3 3748.43  282.77
   2  -2   3 4011.30  283.47
   2  -2   3 3666.33  282.47
   2  -2   3 3969.00  282.77
   2  -2   3 3790.32  287.37
   2  -2   3 3303.37  281.27
  -3   2  -3   45.00   48.10
  -3   2  -3   20.30   24.40
   3  -2   3    8.80   22.80
   3  -2   3   21.20   26.40
   3  -2   3   12.80   13.60
   3  -2   3   26.60   47.00
  -4   2  -3   84.19   36.80
  -4   2  -3   63.09   73.09
   4  -2   3  -14.10   81.59
   4  -2   3   78.79   39.20
   4  -2   3   95.29   21.30
  -5   2  -3    1.00  109.09
   5  -2   3   24.70   46.30
   5  -2   3  103.39   50.39
  -6   2  -3  233.38  161.08
   6  -2   3  335.87   77.49
   6  -2   3  375.26   55.39
   6  -2   3  457.45   71.29
   6   1  -3   12.90   60.99
   6   1  -3   48.50   52.29
  -6  -1   3   27.10   50.29
  -6  -1   3 -113.99  134.19
   5   1  -3  404.56   60.39
   5   1  -3  391.36   67.49
  -5  -1   3  465.95   75.29
  -5  -1   3  594.94  121.29
   4   1  -3   -8.00   23.90
   4   1  -3   12.00   24.20
   4   1  -3   20.60   26.40
  -4  -1   3  -24.30   27.80
  -4  -1   3   13.10   64.89
  -4  -1   3   16.40   25.70
   3   1  -3  392.56   44.90
   3   1  -3  390.56   41.90
   3   1  -3  399.76   47.00
  -3  -1   3  310.47   44.40
  -3  -1   3  520.05   60.19
  -3  -1   3  423.96   48.30
  -3  -1   3  420.66   46.60
   2   1  -3  924.51   73.59
   2   1  -3  817.92   69.19
  -2  -1   3  776.22   72.29
  -2  -1   3  838.72   70.29
   1   1  -3 4169.48  295.97
   1   1  -3 3956.90  298.57
   1   1  -3 3887.41  299.07
   1   1  -3 3828.82  296.07
  -1  -1   3 3491.15  297.67
  -1  -1   3 3706.03  297.97
  -1  -1   3 4152.38  296.47
  -1  -1   3 4219.38  296.37
   0   1  -3  798.82   68.29
   0   1  -3  911.81   68.39
   0   1  -3  811.12   67.79
   0   1  -3  914.21   69.19
   0  -1   3  873.61   68.29
   0  -1   3  871.11   68.79
   0  -1   3  860.21   67.89
  -1   1  -3  466.15   37.10
  -1   1  -3  469.25   40.50
  -1   1  -3  416.16   38.70
  -1   1  -3  427.86   38.10
   1  -1   3  451.25   37.00
   1  -1   3  462.35   39.60
   1  -1   3  401.26   40.50
   1  -1   3  427.96   38.40
  -2   1  -3  732.93   64.59
  -2   1  -3  783.12   63.29
  -2   1  -3  628.54   71.79
   2  -1   3  607.44   72.89
   2  -1   3  836.92   67.49
   2  -1   3  788.22   61.59
   2  -1   3  784.12   65.49
   2  -1   3  778.72   61.19
   2  -1   3  797.12   65.49
  -3   1  -3  469.75   49.30
  -3   1  -3  508.75   53.29
  -3   1  -3  424.86   70.89
   3  -1   3  467.05   45.10
   3  -1   3  510.15   45.70
   3  -1   3  494.15   56.39
   3  -1   3  480.75   55.29
   3  -1   3  494.05   72.29
  -4   1  -3  140.59   74.69
   4  -1   3   16.40   18.30
   4  -1   3    1.20   32.90
   4  -1   3   33.60   95.19
   4  -1   3   24.80   16.70
   4  -1   3   12.00   16.60
   4  -1   3   -9.90   34.30
  -5   1  -3  105.79  121.09
   5  -1   3  440.06   47.10
   5  -1   3  349.27   70.69
   5  -1   3  321.17   50.39
   5  -1   3  548.65   74.29
  -6   1  -3 -164.58  162.98
   6  -1   3   27.00   68.29
   6  -1   3   87.89   63.99
   6   0  -3    5.20   53.39
   6   0  -3   12.90   44.40
  -6   0   3  162.58  130.79
  -6   0   3   -9.70   44.10
   5   0  -3  409.26   69.59
   5   0  -3  293.47   49.80
  -5   0   3  282.37   47.90
   4   0  -3   70.29   37.00
   4   0  -3   92.39   23.30
   4   0  -3    3.00   80.89
   4   0  -3  128.49   30.10
   4   0  -3  133.19   30.20
  -4   0   3   93.29   65.19
  -4   0   3  108.49   28.30
  -4   0   3  119.79   32.10
   3   0  -3 2701.53  201.48
   3   0  -3 2599.34  202.38
   3   0  -3 2684.23  203.38
  -3   0   3 2439.36  202.28
  -3   0   3 2492.15  202.18
  -3   0   3 2623.24  202.48
   2   0  -3  576.04   51.89
   2   0  -3  642.24   53.49
  -2   0   3  549.85   52.49
  -2   0   3  606.34   52.59
   1   0  -3 3918.21  296.37
   1   0  -3 3773.32  297.27
   1   0  -3 3976.10  295.27
   1   0  -3 4049.99  300.07
  -1   0   3 4173.78  299.77
  -1   0   3 3603.44  297.17
  -1   0   3 3883.91  295.27
  -1   0   3 4063.59  296.57
   0   0  -3  399.26   33.70
   0   0  -3  406.56   34.80
   0   0  -3  394.86   35.20
   0   0  -3  429.16   35.60
   0   0  -3  422.46   35.40
   0   0   3  452.85   35.90
   0   0   3  424.36   35.50
   0   0   3  389.16   33.50
   0   0   3  411.96   35.40
  -1   0  -3 2517.35  191.68
  -1   0  -3 2444.46  190.28
  -1   0  -3 2412.56  190.08
  -1   0  -3 2501.65  189.48
   1   0   3 2426.36  189.68
   1   0   3 2408.16  189.58
   1   0   3 2677.93  190.28
   1   0   3 2626.04  189.78
   1   0   3 2394.06  191.48
  -2   0  -3   51.89   17.10
  -2   0  -3   79.49   30.50
  -2   0  -3   87.69   15.90
   2   0   3  105.09   21.00
   2   0   3  119.49   36.70
   2   0   3   96.19   17.40
   2   0   3   77.69   20.80
   2   0   3  104.99   19.60
   2   0   3   91.59   15.40
  -3   0  -3  940.11   70.89
   3   0   3  784.02   75.59
   3   0   3  694.23   75.59
   3   0   3  822.82   72.09
  -4   0  -3   67.39   82.49
   4   0   3   23.30   20.30
   4   0   3   22.40   33.30
   4   0   3  -21.70   33.10
   4   0   3    3.90   16.60
  -5   0  -3  349.47  126.69
   5   0   3  585.14   65.09
   5   0   3  601.24   84.29
   5   0   3  450.65   58.39
   5   0   3  563.04   79.89
   6   0   3   74.49   71.99
   6   0   3   32.80   83.39
   6  -1  -3   77.89   48.40
   6  -1  -3  105.79   45.20
  -6   1   3  -44.10  124.49
  -6   1   3   39.10   41.50
   5  -1  -3  242.08   37.90
   5  -1  -3  358.26   54.69
  -5   1   3  307.47   43.00
  -5   1   3  275.77  101.39
   4  -1  -3  340.57   46.40
   4  -1  -3  324.37   53.19
   4  -1  -3  411.66   35.30
   4  -1  -3  486.95   53.49
   4  -1  -3  329.47   43.70
  -4   1   3  386.56   53.59
  -4   1   3  365.66   79.59
  -4   1   3  408.96   46.80
   3  -1  -3 2397.46  188.68
   3  -1  -3 2459.35  189.48
   3  -1  -3 2341.57  188.78
   3  -1  -3 2478.05  184.58
   3  -1  -3 2706.33  192.68
  -3   1   3 2400.96  189.18
  -3   1   3 2318.87  201.08
  -3   1   3 2357.66  190.98
   2  -1  -3  144.89   16.70
   2  -1  -3  118.39   20.00
   2  -1  -3  141.29   21.90
   2  -1  -3  114.09   19.80
   2  -1  -3  148.19   40.30
  -2   1   3  154.88   34.90
  -2   1   3  126.99   19.70
  -2   1   3  151.78   21.70
   1  -1  -3  866.01   72.59
   1  -1  -3  992.20   79.09
  -1   1   3  971.10   79.39
  -1   1   3  870.51   70.29
   0  -1  -3   90.49   19.30
   0  -1  -3   82.39   11.70
   0  -1  -3   74.89   13.20
   0  -1  -3   52.59   10.00
   0   1   3   72.09   12.60
   0   1   3   54.09   11.80
   0   1   3   46.70    8.20
   0   1   3   46.60   18.00
  -1  -1  -3 1294.47  105.19
  -1  -1  -3 1362.76  104.79
   1   1   3 1375.56  104.29
   1   1   3 1352.06  109.39
   1   1   3 1424.26  105.39
   1   1   3 1299.07  106.79
   1   1   3 1268.67  109.79
  -2  -1  -3  352.76   52.79
  -2  -1  -3  450.15   42.10
  -2  -1  -3  428.46   38.10
   2   1   3  437.96   42.30
   2   1   3  406.36   46.90
   2   1   3  350.86   42.50
   2   1   3  423.36   44.10
   2   1   3  322.37   59.09
   2   1   3  394.56   43.10
  -3  -1  -3  732.83   82.99
  -3  -1  -3  686.33   58.89
  -3  -1  -3  525.15   60.29
   3   1   3  630.04   63.19
   3   1   3  569.14   63.39
   3   1   3  505.45   59.99
  -4  -1  -3  -57.39   94.99
  -4  -1  -3   26.60   29.20
  -4  -1  -3   55.99   26.10
   4   1   3   79.69   38.30
   4   1   3   31.80   29.10
   4   1   3   84.79   39.40
  -5  -1  -3  211.28   45.20
  -5  -1  -3  152.28  145.49
   5   1   3  239.18   59.49
   5   1   3  117.09   64.69
   6  -2  -3  193.58   45.60
   6  -2  -3  126.19   53.19
  -6   2   3   77.99   40.10
  -6   2   3  218.38  148.29
   5  -2  -3   50.99   18.50
   5  -2  -3   88.69   35.70
   5  -2  -3   64.79   30.90
   5  -2  -3   52.39   21.40
  -5   2   3   97.49   90.59
  -5   2   3  111.09   27.70
   4  -2  -3 1244.18  125.29
   4  -2  -3 1102.99   82.99
   4  -2  -3  889.01   84.39
   4  -2  -3  971.00   89.49
   4  -2  -3 1100.99   94.29
  -4   2   3  983.80   87.39
  -4   2   3  945.41   94.49
   3  -2  -3  991.20   88.29
   3  -2  -3 1220.78   92.49
   3  -2  -3  913.21  106.29
   3  -2  -3 1065.89   87.39
   3  -2  -3 1215.68   84.89
   3  -2  -3 1015.90   85.09
  -3   2   3 1060.19   90.09
  -3   2   3 1039.50   86.99
  -3   2   3  919.91  103.69
   1  -2  -3  594.24   46.30
   1  -2  -3  538.15   46.70
   1  -2  -3  548.85   46.30
   1  -2  -3  506.85   55.59
  -1   2   3  571.84   46.20
  -1   2   3  546.85   47.20
  -1   2   3  521.05   55.69
   0  -2  -3 9440.46  629.64
   0  -2  -3 8488.15  636.04
   0  -2  -3 8266.37  630.14
   0   2   3 7203.68  627.24
   0   2   3 8058.79  627.74
   0   2   3 8370.36  637.34
   0   2   3 8749.82  629.04
   0   2   3 8809.02  632.24
   0   2   3 8232.98  631.24
  -1  -2  -3  961.70   91.69
  -1  -2  -3 1149.19   89.59
   1   2   3 1132.49   89.89
   1   2   3 1163.08   98.29
   1   2   3 1214.38   98.69
   1   2   3 1144.59   89.89
   1   2   3 1119.99   88.19
   1   2   3 1120.89   93.59
  -2  -2  -3  389.26   37.50
  -2  -2  -3  319.97   39.50
   2   2   3  279.47   56.19
   2   2   3  340.77   37.40
   2   2   3  265.57   49.40
   2   2   3  309.87   36.80
   2   2   3  301.47   39.20
   2   2   3  363.16   42.30
   2   2   3  279.57   41.40
   3   2   3   32.90   25.40
   3   2   3  -33.00   87.19
   3   2   3  109.19   29.50
   3   2   3   47.60   25.00
   3   2   3   54.79   26.60
  -4  -2  -3   81.09   34.20
  -4  -2  -3  118.49   38.70
   4   2   3   32.50   42.60
   4   2   3  137.39   41.30
   4   2   3   94.89   99.19
  -5  -2  -3  232.48   54.29
   5   2   3  143.29   69.39
   5   2   3   21.50  146.39
   5   2   3  102.99   63.19
   6  -3  -3  591.44   95.39
  -6   3   3  499.75   71.09
  -6   3   3  360.96  139.59
   5  -3  -3   51.29   18.40
   5  -3  -3   98.49   34.00
   5  -3  -3   38.60   21.30
   5  -3  -3   60.49   30.20
  -5   3   3  -14.50   88.59
  -5   3   3   38.90   25.50
   4  -3  -3 1405.16  114.39
   4  -3  -3 1217.18  108.99
   4  -3  -3 1188.88  103.29
   4  -3  -3 1101.09  139.89
   4  -3  -3 1333.77  110.19
   4  -3  -3 1450.95  105.59
  -4   3   3 1259.07  105.89
  -4   3   3 1491.85  144.09
  -4   3   3 1204.88  114.19
   3  -3  -3   39.50   47.80
   3  -3  -3   39.60   17.80
   3  -3  -3   -6.30   10.90
   3  -3  -3   38.50   20.20
   3  -3  -3   12.70   14.50
   3  -3  -3   12.00   17.30
  -3   3   3    1.10   14.60
  -3   3   3   44.00   18.00
  -3   3   3  -30.90   41.30
   2  -3  -3  222.98   23.20
   2  -3  -3  205.78   29.30
   2  -3  -3  207.48   27.30
   2  -3  -3  193.38   25.90
   2  -3  -3  304.57   53.09
  -2   3   3  276.07   26.30
  -2   3   3  235.68   49.50
  -2   3   3  173.38   29.50
  -2   3   3  241.08   27.10
   1  -3  -3  377.46   52.09
   1  -3  -3  487.65   39.70
   1  -3  -3  431.46   38.10
  -1   3   3  418.86   40.60
  -1   3   3  395.46   37.10
  -1   3   3  410.36   38.90
  -1   3   3  356.16   50.89
   0  -3  -3 4353.16  329.17
   0  -3  -3 4226.28  320.37
   0  -3  -3 4219.88  317.87
   0   3   3 4157.48  321.07
   0   3   3 4192.38  330.27
   0   3   3 4404.66  323.57
   0   3   3 4028.20  317.17
  -1  -3  -3  227.18   28.20
  -1  -3  -3  216.08   32.90
   1   3   3  221.08   26.70
   1   3   3  255.57   42.50
   1   3   3  234.78   37.70
   1   3   3  287.17   52.09
   1   3   3  184.48   29.20
  -2  -3  -3  319.97   35.90
  -2  -3  -3  271.07   42.00
   2   3   3  283.17   38.10
   2   3   3  332.37   68.09
   2   3   3  284.27   47.40
   2   3   3  259.07   42.20
   2   3   3  339.17   61.49
  -3  -3  -3   84.09   28.60
  -3  -3  -3   82.19   28.70
   3   3   3   85.59   33.50
   3   3   3  210.88   79.39
   3   3   3   78.59   31.00
  -4  -3  -3  448.66   65.69
  -4  -3  -3  446.66   76.89
   4   3   3  313.27   58.69
   4   3   3  440.46  112.49
   4   3   3  423.56   65.69
  -5  -3  -3   39.50   51.79
   5   3   3   62.79   61.29
   5   3   3  341.67  158.88
   5   3   3   80.09   66.79
   6  -4  -3  424.86   62.29
   6  -4  -3  433.06   60.89
   6  -4  -3  302.67   66.89
  -6   4   3   93.39  146.09
   5  -4  -3   26.90   34.80
   5  -4  -3    4.50   17.90
   5  -4  -3   46.80   31.70
   5  -4  -3   33.10   21.30
  -5   4   3  -26.80   98.19
  -5   4   3   48.00   23.10
   4  -4  -3  316.27   39.60
   4  -4  -3  372.56   48.60
   4  -4  -3  330.17   42.70
   4  -4  -3  353.96   58.39
   4  -4  -3  459.35   48.80
  -4   4   3  523.95   93.39
  -4   4   3  338.77   42.60
   3  -4  -3  112.29   56.29
   3  -4  -3   41.70   21.60
   3  -4  -3   36.80   16.70
   3  -4  -3   55.99   16.30
  -3   4   3   10.10   19.30
  -3   4   3   34.40   14.90
  -3   4   3   55.49   17.10
   2  -4  -3  505.75   43.70
   2  -4  -3  550.64   73.09
  -2   4   3  509.95   47.70
  -2   4   3  563.94   67.79
  -2   4   3  483.25   46.40
   1  -4  -3  496.95   39.60
   1  -4  -3  468.25   46.10
   1  -4  -3  588.24   65.99
  -1   4   3  467.55   45.50
  -1   4   3  405.66   43.30
  -1   4   3  506.05   64.59
  -1   4   3  521.75   49.60
  -1   4   3  486.65   40.90
   0  -4  -3 4651.73  360.06
   0  -4  -3 4717.83  350.16
   0  -4  -3 4540.45  346.87
   0  -4  -3 4687.23  352.56
   0   4   3 4328.77  346.27
   0   4   3 4431.16  362.36
   0   4   3 4856.81  354.06
  -1  -4  -3  244.98   40.80
  -1  -4  -3  287.77   42.10
  -1  -4  -3  308.67   34.00
   1   4   3  273.07   52.19
   1   4   3  279.57   53.99
   1   4   3  250.47   31.60
   1   4   3  217.78   38.10
  -2  -4  -3  324.87   38.30
  -2  -4  -3  228.18   40.70
   2   4   3  305.67   41.40
   2   4   3  417.96   76.89
   2   4   3  295.77   47.40
  -3  -4  -3  -15.00   34.20
  -3  -4  -3   33.10   29.60
   3   4   3  133.69   83.69
   3   4   3  -10.30   33.80
  -4  -4  -3  467.65   71.99
   4   4   3  150.88  128.89
   4   4   3  405.16   69.49
   6  -5  -3  156.58   44.80
   6  -5  -3  130.09   57.49
   6  -5  -3  113.19   35.80
  -6   5   3  -76.69  138.09
   5  -5  -3  358.86   58.39
   5  -5  -3  353.46   51.29
   5  -5  -3  382.66   48.50
   5  -5  -3  261.77   42.50
  -5   5   3  201.68  108.19
   4  -5  -3   79.79   22.90
   4  -5  -3  112.49   32.20
   4  -5  -3   54.69   33.90
  -4   5   3   92.49   21.50
  -4   5   3  112.49   28.00
   3  -5  -3  551.44   50.19
   3  -5  -3  475.05   57.89
   3  -5  -3  606.44  101.79
   3  -5  -3  509.75   52.79
  -3   5   3  630.84   90.49
  -3   5   3  424.06   56.69
  -3   5   3  475.95   53.19
  -3   5   3  557.24   49.70
  -3   5   3  382.26   49.10
   2  -5  -3  886.21   92.39
   2  -5  -3 1240.68  114.89
   2  -5  -3 1276.17   87.89
   2  -5  -3 1089.79   91.99
  -2   5   3 1214.48  116.79
  -2   5   3 1211.78   92.79
  -2   5   3  935.71   91.89
  -2   5   3 1145.19   88.79
  -2   5   3  927.71   93.09
   1  -5  -3  101.39   41.80
   1  -5  -3  196.78   29.00
   1  -5  -3  130.09   20.70
  -1   5   3  136.79   24.00
  -1   5   3  152.98   29.60
  -1   5   3  155.58   22.40
  -1   5   3   99.49   42.60
   0  -5  -3  425.66   41.60
   0  -5  -3  446.16   67.09
   0  -5  -3  398.76   44.10
   0  -5  -3  384.36   49.60
   0   5   3  401.06   55.79
   0   5   3  437.76   76.39
   0   5   3  421.96   40.50
  -1  -5  -3   -9.70   29.80
  -1  -5  -3    3.10   18.90
  -1  -5  -3   26.80   24.00
   1   5   3   -5.20   56.59
   1   5   3  -62.79   54.79
   1   5   3   17.50   33.20
   1   5   3  -16.30   20.40
  -2  -5  -3  393.86   68.19
  -2  -5  -3  335.57   49.50
   2   5   3  426.06   55.49
   2   5   3  404.26   62.79
   2   5   3  438.66  112.49
  -3  -5  -3   41.30   44.70
  -3  -5  -3  126.79   36.00
   3   5   3  101.89  116.29
   3   5   3   43.00   47.50
  -4  -5  -3  159.88   64.49
   4   5   3  122.99  146.99
   4   5   3   70.19   69.59
   6  -6  -3  -12.40   35.80
   6  -6  -3  104.39   47.20
   6  -6  -3  -29.50   52.49
  -6   6   3  -51.99  147.89
   5  -6  -3  513.35   63.29
   5  -6  -3  697.83   95.39
  -5   6   3  404.16   71.19
  -5   6   3  713.33  141.79
   4  -6  -3  -20.10   34.70
   4  -6  -3   -9.40   20.80
   4  -6  -3   61.79   33.90
  -4   6   3   -7.20   26.80
  -4   6   3   27.70   20.80
  -4   6   3   78.39   28.90
  -4   6   3  151.68   85.29
   3  -6  -3  344.37   40.20
   3  -6  -3  325.67   44.80
   3  -6  -3  275.87   42.70
  -3   6   3  205.68   42.30
  -3   6   3  480.25   97.39
  -3   6   3  319.47   42.90
  -3   6   3  299.77   51.39
   2  -6  -3  257.57   32.40
   2  -6  -3  267.17   38.00
   2  -6  -3  129.09   68.59
   2  -6  -3  258.67   37.60
  -2   6   3  234.08   39.80
  -2   6   3  309.17   66.59
  -2   6   3  277.07   41.40
  -2   6   3  233.38   32.60
   1  -6  -3  515.65   50.69
   1  -6  -3  412.46   75.99
   1  -6  -3  415.26   43.00
  -1   6   3  413.56   43.10
  -1   6   3  473.65   60.29
  -1   6   3  397.26   81.69
  -1   6   3  483.75   49.30
   0  -6  -3  124.19   31.80
   0  -6  -3  136.99   28.90
   0  -6  -3  193.38   33.80
   0   6   3  153.18   26.10
   0   6   3  165.78   68.99
  -1  -6  -3  433.26   50.99
  -1  -6  -3  446.06   71.59
  -1  -6  -3  482.25   59.69
   1   6   3  471.35   52.59
   1   6   3  569.04  108.39
  -2  -6  -3  173.58   49.00
  -2  -6  -3  180.08   35.90
   2   6   3  176.08   46.70
   2   6   3  225.18  113.29
  -3  -6  -3  312.37   53.69
  -3  -6  -3  247.38   65.09
   3   6   3  322.57   70.09
   3   6   3  422.86  161.98
   6  -7  -3  -45.60   49.50
   6  -7  -3   81.09   40.90
   6  -7  -3    2.70   61.79
  -6   7   3 -168.78  168.88
   5  -7  -3  572.14   85.79
   5  -7  -3  615.84   72.49
  -5   7   3  593.94  146.89
   4  -7  -3   14.20   42.20
   4  -7  -3   14.10   38.80
   4  -7  -3   26.60   23.60
  -4   7   3   70.19   34.20
  -4   7   3   26.70   30.70
  -4   7   3   12.70   23.70
  -4   7   3    5.50   99.59
   3  -7  -3  777.12   78.19
   3  -7  -3  851.21   75.19
   3  -7  -3  834.92   84.29
  -3   7   3  923.81   79.19
  -3   7   3  678.93   86.29
  -3   7   3  847.52   74.29
  -3   7   3  682.83   85.39
   2  -7  -3   86.99   26.50
   2  -7  -3   77.09   26.60
  -2   7   3   98.09   25.20
  -2   7   3   70.29   72.39
  -2   7   3  138.99   32.40
  -2   7   3  124.49   39.20
   1  -7  -3  662.43   62.99
   1  -7  -3  562.24   57.49
  -1   7   3  636.04  116.39
  -1   7   3  594.74   55.69
  -1   7   3  577.84   63.79
   0  -7  -3   67.29   37.50
   0  -7  -3   60.59   29.20
   0  -7  -3   29.70   24.50
   0   7   3  -24.60   92.39
   0   7   3   53.39   23.50
  -1  -7  -3  626.54   76.79
  -1  -7  -3  622.94   91.09
  -1  -7  -3  655.63   67.79
   1   7   3  739.93  141.89
   1   7   3  506.85   67.29
  -2  -7  -3   95.29   64.29
  -2  -7  -3   34.80   39.50
   2   7   3  158.68  147.49
   2   7   3   31.90   51.99
  -3  -7  -3  192.28   73.49
  -3  -7  -3  346.87   57.09
   3   7   3  192.18   86.39
   3   7   3  305.97  177.28
   6  -8  -3    4.90   55.39
   6  -8  -3   76.29   73.99
  -6   8   3 -229.28  188.88
   5  -8  -3  644.14   90.89
   5  -8  -3  513.15   77.59
  -5   8   3  347.67  174.58
   4  -8  -3   20.80   46.20
   4  -8  -3   -9.30   28.20
   4  -8  -3   -4.50   44.00
  -4   8   3   49.70  113.29
  -4   8   3   92.99   31.80
  -4   8   3  -34.30   36.30
   3  -8  -3  197.78   39.20
   3  -8  -3  188.78   40.10
   3  -8  -3  183.18   38.60
  -3   8   3  121.99   46.90
  -3   8   3  229.98   39.70
  -3   8   3  259.67   44.10
  -3   8   3  169.78   49.20
  -3   8   3  102.29  106.69
   2  -8  -3  -12.80   25.10
   2  -8  -3  -18.30   31.10
  -2   8   3   -0.40   26.80
  -2   8   3   15.20   31.30
  -2   8   3   14.40   85.39
   1  -8  -3  350.16   49.70
   1  -8  -3  344.97   50.79
  -1   8   3  526.65  124.29
  -1   8   3  494.05   63.99
  -1   8   3  343.07   47.00
   0  -8  -3  122.99   47.70
   0  -8  -3   57.79   38.60
   0  -8  -3  134.29   32.50
   0   8   3   71.09   31.40
   0   8   3  134.69  108.79
  -1  -8  -3  236.98   60.19
  -1  -8  -3  319.47   48.80
   1   8   3  371.26  158.18
   1   8   3  383.26   68.89
  -2  -8  -3   73.99   50.89
  -2  -8  -3  173.38   64.99
   2   8   3  198.38  180.68
   2   8   3   48.30   64.69
   5  -9  -3   17.70   50.49
   5  -9  -3  -13.90   65.09
  -5   9   3   71.19   55.99
  -5   9   3   44.30  172.88
   4  -9  -3  159.18   59.49
   4  -9  -3  163.68   48.60
  -4   9   3   15.00  140.89
  -4   9   3  162.38   47.00
  -4   9   3  241.88   48.20
   3  -9  -3   12.50   32.00
  -3   9   3   39.40   38.80
  -3   9   3   98.59   39.20
  -3   9   3   31.20  118.79
   2  -9  -3  234.28   47.60
  -2   9   3  250.67   51.99
  -2   9   3  339.47   50.89
  -2   9   3  412.26  120.99
   1  -9  -3   48.50   33.50
  -1   9   3   77.09   33.00
  -1   9   3  220.78  136.09
  -1   9   3   53.59   43.50
   0  -9  -3  339.47   73.29
   0  -9  -3  382.36   55.69
   0   9   3  253.77   58.89
   0   9   3  354.86   60.79
   0   9   3  177.48  143.59
  -1  -9  -3   49.40   51.19
  -1  -9  -3  108.69   74.39
   1   9   3   -9.10  163.38
   1   9   3   70.29   54.89
   4 -10  -3  235.98   64.39
   4 -10  -3  244.08   67.79
  -4  10   3  165.78  115.79
  -4  10   3  290.47  164.88
   3 -10  -3   -4.70   46.40
  -3  10   3  -37.60   45.40
  -3  10   3 -121.79  147.59
   2 -10  -3  239.38   53.39
  -2  10   3  183.58   56.09
  -2  10   3  134.89   45.20
  -2  10   3  321.47  161.48
   1 -10  -3  -39.40   40.00
  -1  10   3   -4.80  160.68
  -1  10   3    5.90   55.39
  -1  10   3   79.09   54.19
   0 -10  -3  190.78   61.19
   0  10   3  111.39   69.69
   0  10   3  470.95  193.78
  -3  11   3  198.98  217.98
  -2  11   3 -441.96  271.37
  -1  11  -4  -72.09  133.09
  -1  11  -4   48.70   68.89
  -2  11  -4  201.78   80.19
  -2  11  -4  156.18  127.09
   2 -11   4  212.78   62.59
   2 -11   4   19.40   66.19
   1  10  -4 -284.77  162.78
   1  10  -4  -38.60   66.19
  -1 -10   4   23.10   83.99
  -1 -10   4   -3.20   53.89
   0  10  -4  395.76  144.79
   0  10  -4  203.98   67.59
   0 -10   4  360.36   81.29
   0 -10   4  299.37   59.89
  -1  10  -4   17.80   56.99
  -1  10  -4  -52.79  103.69
   1 -10   4   42.30   58.99
   1 -10   4   51.59   42.80
  -2  10  -4  592.74  100.09
   2 -10   4  519.55   78.79
   2 -10   4  430.06   69.19
  -3  10  -4   39.90   75.19
  -3  10  -4  -14.40  120.19
   3 -10   4   40.10   57.69
  -4  10  -4   65.79  163.18
  -4  10  -4  147.49   88.59
   4 -10   4   57.49   53.49
   4 -10   4  216.98   94.19
   2   9  -4  138.09   70.89
   2   9  -4  419.56  167.28
  -2  -9   4  260.07   95.19
   1   9  -4   79.89   60.09
  -1  -9   4   84.09   74.89
   0   9  -4  212.48   55.99
   0   9  -4  210.68  114.29
   0  -9   4   98.59   61.59
   0  -9   4  134.19   41.80
  -1   9  -4  137.99   88.19
  -1   9  -4  -18.70   44.60
   1  -9   4   14.20   46.90
   1  -9   4   45.50   32.80
  -2   9  -4  308.97   62.79
  -2   9  -4  361.06   95.69
   2  -9   4  460.85   66.39
   2  -9   4  390.56   61.39
  -3   9  -4   19.60   59.59
  -3   9  -4   -5.40   98.09
   3  -9   4  105.99   68.49
   3  -9   4   41.20   41.30
  -4   9  -4  194.58   83.89
  -4   9  -4  185.38  136.99
   4  -9   4  324.27   78.49
   4  -9   4   70.19   56.19
   3   8  -4  -75.59  151.98
   3   8  -4   78.99   74.99
  -3  -8   4  239.78   91.69
   2   8  -4  173.68   61.19
   2   8  -4   80.99  125.69
  -2  -8   4   91.19   39.20
  -2  -8   4   12.00   73.19
   1   8  -4  319.77  106.89
   1   8  -4  121.39   50.19
  -1  -8   4  158.08   37.30
  -1  -8   4  181.18   59.59
   0   8  -4  263.37   56.09
   0   8  -4  436.66   96.79
   0  -8   4  392.36   57.59
   0  -8   4  417.36   62.79
  -1   8  -4  241.58   67.49
  -1   8  -4  127.49   43.20
  -1   8  -4   35.10   43.60
   1  -8   4   80.69   33.30
   1  -8   4  104.59   32.10
   1  -8   4  213.48   74.29
  -2   8  -4  532.35   74.89
  -2   8  -4  364.76   85.89
  -2   8  -4  432.36   62.79
   2  -8   4  348.27   93.89
   2  -8   4  436.56   63.89
   2  -8   4  494.25   62.59
   2  -8   4  629.14   69.29
   2  -8   4  617.14   81.39
  -3   8  -4  180.88   84.39
  -3   8  -4  166.48   57.39
   3  -8   4  110.79   38.50
   3  -8   4  187.28   63.69
  -4   8  -4  184.78   70.79
  -4   8  -4  242.78  123.39
   4  -8   4   96.29   44.60
   4  -8   4  142.79   67.99
  -5   8  -4  205.98  134.89
  -5   8  -4   67.79   87.09
   5  -8   4    3.20   51.69
   5  -8   4   79.69   74.19
   3   7  -4  357.66   75.69
   3   7  -4  437.86  136.39
  -3  -7   4  263.87   78.79
   2   7  -4  162.98   53.39
   2   7  -4  118.79  101.69
  -2  -7   4  120.59   33.10
  -2  -7   4   67.39   53.09
   1   7  -4  612.74  105.59
   1   7  -4  501.15   68.39
  -1  -7   4  513.05   86.69
  -1  -7   4  431.66   59.19
   0   7  -4  228.78   42.50
   0   7  -4  269.67   71.39
   0   7  -4  111.89   44.40
   0  -7   4  232.28   37.50
   0  -7   4  199.78   65.69
   0  -7   4  221.68   42.20
  -1   7  -4  277.67   42.40
  -1   7  -4  285.27   47.90
  -1   7  -4  281.67   62.69
   1  -7   4  221.68   40.10
   1  -7   4  244.88   40.30
   1  -7   4  232.58   54.39
  -2   7  -4   58.19   24.20
  -2   7  -4   64.09   36.80
  -2   7  -4   56.79   55.09
   2  -7   4   27.00   28.80
   2  -7   4   43.60   23.70
   2  -7   4   21.30   34.50
   2  -7   4   50.89   58.39
   2  -7   4  124.69   30.00
  -3   7  -4  380.56   63.49
  -3   7  -4  304.07   78.89
   3  -7   4  230.38   80.99
   3  -7   4  460.45   76.69
  -4   7  -4 -117.29   90.59
  -4   7  -4   23.00   52.09
   4  -7   4   23.50   54.59
   4  -7   4   17.00   29.90
  -5   7  -4  218.88   79.99
  -5   7  -4  343.97  135.19
   5  -7   4  264.27   55.39
   5  -7   4  330.47   77.49
   4   6  -4   42.30   66.39
   4   6  -4   55.09  127.69
  -4  -6   4  -30.30   69.99
   3   6  -4  395.26   66.79
   3   6  -4  368.56  111.39
  -3  -6   4  378.96   79.39
   2   6  -4   10.30   37.80
   2   6  -4  -23.10   77.99
  -2  -6   4  -16.70   26.70
  -2  -6   4   62.89   43.60
   1   6  -4  841.32  100.59
   1   6  -4  666.23   87.49
   1   6  -4  739.53   71.89
  -1  -6   4  884.81   86.89
  -1  -6   4  577.74   67.59
   0   6  -4    9.10   24.20
   0   6  -4    7.40   26.30
   0   6  -4    8.50   42.60
   0  -6   4  -13.80   21.00
   0  -6   4   39.20   31.40
   0  -6   4   55.29   25.10
   0  -6   4   46.00   38.20
  -1   6  -4 1011.60   92.59
  -1   6  -4 1085.39   91.39
  -1   6  -4  914.01  103.29
   1  -6   4 1209.68   95.29
   1  -6   4 1164.38   93.29
   1  -6   4  957.00   89.49
   1  -6   4  996.60  102.59
  -2   6  -4   11.80   16.70
  -2   6  -4    0.50   29.10
  -2   6  -4    4.20   42.50
   2  -6   4   -8.10   20.00
   2  -6   4   -9.40   17.20
   2  -6   4  -30.60   27.40
   2  -6   4  -40.90   27.70
   2  -6   4   14.00   25.20
   2  -6   4   13.70   45.70
  -3   6  -4 1260.67  122.19
  -3   6  -4 1365.46  141.39
   3  -6   4 1266.77  118.59
   3  -6   4 1356.06  137.49
   3  -6   4 1627.34  127.69
  -4   6  -4  162.68   78.79
  -4   6  -4   39.80   51.49
   4  -6   4   36.50   46.80
   4  -6   4   84.49   30.40
   4  -6   4 -174.78  107.09
  -5   6  -4  396.66  129.79
  -5   6  -4  325.57   82.59
   5  -6   4  334.97   53.49
   5  -6   4  444.26   74.09
   5   5  -4 -111.99  141.29
   5   5  -4   49.00  107.49
  -5  -5   4   47.00   65.19
   4   5  -4   10.00   58.39
   4   5  -4   72.09  107.39
  -4  -5   4   18.00   52.29
   3   5  -4  833.52  125.09
   3   5  -4  741.63   87.29
  -3  -5   4  694.03  103.49
   2   5  -4  103.09   54.59
   2   5  -4   20.30   61.09
   2   5  -4   39.10   28.70
  -2  -5   4   66.79   21.70
  -2  -5   4   35.50   36.20
   1   5  -4  707.53   66.59
   1   5  -4  686.43   76.89
   1   5  -4  743.93   73.39
  -1  -5   4  743.63   65.89
  -1  -5   4  678.53   70.19
  -1  -5   4  740.63   79.59
   0   5  -4  212.08   49.70
   0   5  -4  246.28   35.90
   0   5  -4  203.58   34.20
   0  -5   4  221.48   39.50
   0  -5   4  153.78   28.30
   0  -5   4  161.08   31.00
   0  -5   4  289.07   40.60
  -1   5  -4 1518.65  121.79
  -1   5  -4 1441.76  123.29
  -1   5  -4 1367.16  130.69
   1  -5   4 1417.56  121.59
   1  -5   4 1493.15  123.19
   1  -5   4 1459.25  130.29
   1  -5   4 1648.54  124.89
   1  -5   4 1545.75  121.09
   1  -5   4 1769.82  124.49
  -2   5  -4   96.89   19.80
  -2   5  -4   76.29   41.40
  -2   5  -4  112.09   25.40
   2  -5   4  111.39   23.20
   2  -5   4   66.89   22.70
   2  -5   4   97.99   26.80
   2  -5   4   74.59   26.70
   2  -5   4   92.29   41.00
   2  -5   4   71.39   25.90
  -3   5  -4  435.36   57.09
  -3   5  -4  420.36   81.79
   3  -5   4  290.77   57.19
   3  -5   4  369.06   48.00
   3  -5   4  544.25   64.29
  -4   5  -4   80.99   52.39
  -4   5  -4   88.69   74.09
   4  -5   4   88.29   44.80
   4  -5   4   28.00   23.50
   4  -5   4  129.79  101.29
  -5   5  -4  221.08   65.79
  -5   5  -4   97.49  107.39
   5  -5   4  270.77   42.20
   5  -5   4  341.27   65.69
  -6   5  -4 -188.18  156.08
  -6   5  -4  111.89   89.09
   6  -5   4  -81.39   40.70
   6  -5   4   17.90   63.69
   5   4  -4 -135.99  136.79
   5   4  -4  137.39   71.09
  -5  -4   4   99.09   63.29
   4   4  -4  414.26  101.19
   4   4  -4  475.75   76.89
  -4  -4   4  265.87   65.79
   3   4  -4  153.88   65.09
   3   4  -4  181.28   42.90
  -3  -4   4  263.97   48.10
   2   4  -4  611.64   75.59
   2   4  -4  588.54   70.99
  -2  -4   4  546.75   61.19
  -2  -4   4  451.25   48.60
  -2  -4   4  478.15   63.99
   1   4  -4   24.40   30.90
   1   4  -4    8.30   32.80
   1   4  -4  -11.10   20.00
   1   4  -4   79.39   21.50
  -1  -4   4   36.50   20.60
  -1  -4   4    8.90   16.20
  -1  -4   4   25.30   22.20
   0   4  -4 1441.36  107.89
   0   4  -4 1156.98  102.09
   0   4  -4 1210.78  112.79
   0   4  -4 1270.67  105.99
   0  -4   4 1200.58  107.49
   0  -4   4 1247.68  103.39
   0  -4   4 1439.66  106.39
   0  -4   4 1551.94  110.79
   0  -4   4 1313.67  106.19
  -1   4  -4  360.46   38.60
  -1   4  -4  351.66   52.39
  -1   4  -4  372.96   41.90
   1  -4   4  397.26   42.90
   1  -4   4  452.35   42.30
   1  -4   4  381.16   48.80
   1  -4   4  412.36   41.70
   1  -4   4  398.06   42.50
  -2   4  -4  779.22   67.89
  -2   4  -4  752.72   78.69
   2  -4   4  600.44   66.79
   2  -4   4  804.72   69.39
   2  -4   4  794.72   79.69
   2  -4   4  824.02   71.29
  -3   4  -4  179.88   58.39
  -3   4  -4  226.08   38.20
   3  -4   4  217.38   30.80
   3  -4   4  232.48   40.10
   3  -4   4  138.69   35.50
   3  -4   4  245.78   58.79
   3  -4   4  126.89   39.60
  -4   4  -4  242.38   81.49
  -4   4  -4  206.48   49.40
   4  -4   4  181.28   93.29
   4  -4   4  204.58   34.20
   4  -4   4  319.97   57.59
  -5   4  -4  135.49  112.39
  -5   4  -4  196.88   64.49
   5  -4   4  223.58   38.70
   5  -4   4  298.87   60.79
  -6   4  -4   66.19  140.49
   6  -4   4   93.09   61.99
   6  -4   4   15.30   37.30
   5   3  -4   97.29   60.19
   5   3  -4   26.40   45.10
  -5  -3   4   89.99  130.39
  -5  -3   4  -44.20   49.20
   4   3  -4  338.57   57.49
   4   3  -4  497.25   67.19
  -4  -3   4  439.66   65.49
  -4  -3   4  335.87   52.39
   3   3  -4   55.29   34.20
   3   3  -4   28.50   18.70
   3   3  -4   23.50   60.69
   3   3  -4    7.90   24.80
  -3  -3   4   21.30   49.99
  -3  -3   4    3.60   22.30
  -3  -3   4  -33.40   26.20
   2   3  -4 1285.57  106.29
   2   3  -4 1206.78   97.09
   2   3  -4 1000.10  110.39
   2   3  -4 1202.58  100.09
  -2  -3   4 1224.88   95.99
  -2  -3   4 1260.37   99.59
  -2  -3   4 1459.35  108.39
  -2  -3   4 1195.48  107.79
  -2  -3   4 1185.88  102.09
   1   3  -4   33.80   18.20
   1   3  -4   76.89   14.50
  -1  -3   4   33.80   16.70
  -1  -3   4   24.00   13.70
  -1  -3   4   54.89   12.90
  -1  -3   4  117.69   20.20
   0   3  -4 4200.98  295.67
   0   3  -4 3734.73  294.27
   0   3  -4 3598.44  292.37
   0   3  -4 3609.74  295.77
   0  -3   4 3377.16  292.47
   0  -3   4 4383.46  294.77
   0  -3   4 3821.32  294.57
   0  -3   4 4281.57  296.77
  -1   3  -4 1264.57  102.29
  -1   3  -4 1268.27  104.29
  -1   3  -4 1339.77  100.59
   1  -3   4 1088.79  101.59
   1  -3   4 1345.37  103.29
   1  -3   4 1292.37  102.09
   1  -3   4 1283.27  101.59
   1  -3   4 1248.48  101.79
  -2   3  -4  779.62   82.79
  -2   3  -4  875.81   72.39
   2  -3   4  863.41   73.49
   2  -3   4  877.01   74.69
   2  -3   4  874.41   81.69
   2  -3   4  733.53   71.49
  -3   3  -4   15.30   24.60
  -3   3  -4   49.80   46.30
   3  -3   4   -8.90   29.80
   3  -3   4    3.80   22.60
   3  -3   4   37.30   53.69
   3  -3   4   27.40   15.40
   3  -3   4    9.90   26.20
  -4   3  -4  208.58   81.89
  -4   3  -4  359.36   61.69
   4  -3   4  268.07   41.10
   4  -3   4  353.26   58.69
   4  -3   4  235.98   92.89
  -5   3  -4    7.50  113.49
  -5   3  -4  160.98   60.09
   5  -3   4   68.79   50.39
   5  -3   4  144.69   29.10
  -6   3  -4  190.08  149.19
   6  -3   4  111.29   39.40
   6  -3   4  190.48   72.69
   6  -3   4  165.78   66.49
   6   2  -4  251.47   70.69
  -6  -2   4  151.78  135.19
  -6  -2   4  158.18   60.79
   5   2  -4   -4.60   36.00
   5   2  -4   34.70   43.30
  -5  -2   4  151.18   47.40
  -5  -2   4  146.49  109.49
   4   2  -4  261.07   42.00
  -4  -2   4  253.17   45.60
  -4  -2   4  434.66   90.09
  -4  -2   4  182.08   42.10
  -3  -2   4  146.19   37.00
   2   2  -4 2124.49  175.88
   2   2  -4 2194.28  180.08
   2   2  -4 2016.60  169.58
   2   2  -4 2384.96  172.08
  -2  -2   4 2445.36  173.18
  -2  -2   4 2034.80  175.58
  -2  -2   4 2366.86  177.78
  -2  -2   4 2099.69  171.68
   1   2  -4  888.91   75.49
   1   2  -4  846.92   70.99
   1   2  -4  833.42   69.99
   1   2  -4  815.42   74.69
  -1  -2   4  913.91   69.59
  -1  -2   4  917.61   70.59
  -1  -2   4  844.62   75.09
  -1  -2   4  857.11   71.79
  -1  -2   4  886.11   74.69
   0   2  -4  280.27   30.60
   0   2  -4  248.98   28.50
   0   2  -4  280.57   27.40
   0   2  -4  270.37   28.00
   0   2  -4  228.08   23.90
   0  -2   4  267.47   29.20
   0  -2   4  289.07   27.70
   0  -2   4  294.07   29.30
  -1   2  -4  451.45   42.10
  -1   2  -4  487.45   40.60
  -1   2  -4  456.85   42.50
  -1   2  -4  472.85   42.60
   1  -2   4  507.65   43.10
   1  -2   4  393.56   40.60
   1  -2   4  423.96   42.40
   1  -2   4  501.95   43.60
  -2   2  -4  936.41   88.49
  -2   2  -4  902.61   77.69
  -2   2  -4  883.31   77.29
   2  -2   4  945.21   80.99
   2  -2   4  889.71   73.39
   2  -2   4  881.51   85.29
   2  -2   4  978.00   73.69
   2  -2   4  928.21   78.69
  -3   2  -4    6.30   45.30
  -3   2  -4   32.40   26.10
   3  -2   4   48.10   24.20
   3  -2   4    0.00   29.90
   3  -2   4  -32.00   49.40
   3  -2   4   66.79   18.70
   3  -2   4   47.30   28.90
  -4   2  -4  620.24  114.49
  -4   2  -4  737.13   78.49
   4  -2   4  513.75   82.59
   4  -2   4  599.34   60.39
  -5   2  -4  -48.60  108.89
   5  -2   4   67.09   52.89
   5  -2   4  166.58   52.59
   5  -2   4   67.09   24.70
  -6   2  -4  153.68  159.68
   6  -2   4  300.37   82.89
   6  -2   4  426.56   56.29
   6  -2   4  597.74  105.19
   6   1  -4  133.19   54.19
   6   1  -4   71.69   63.59
  -6  -1   4  111.39   52.59
  -6  -1   4  175.08  135.69
   5   1  -4  237.88   48.60
   5   1  -4  265.57   54.69
  -5  -1   4  220.58   48.70
  -5  -1   4  419.06  107.89
   4   1  -4   99.19   29.30
   4   1  -4  104.89   35.30
   4   1  -4   63.39   25.90
  -4  -1   4   31.60   33.80
  -4  -1   4   93.79   68.39
  -4  -1   4   69.79   29.90
   3   1  -4  243.58   38.50
   3   1  -4  221.88   35.30
  -3  -1   4  201.18   36.50
  -3  -1   4  254.37   35.20
   2   1  -4 1801.42  128.79
   2   1  -4 1513.25  138.29
   2   1  -4 1762.62  128.79
   2   1  -4 1484.95  131.39
  -2  -1   4 1818.02  136.59
  -2  -1   4 1362.36  131.09
  -2  -1   4 1540.05  129.49
  -2  -1   4 1831.92  130.19
   1   1  -4  537.25   54.89
   1   1  -4  613.84   49.50
   1   1  -4  614.44   50.99
   1   1  -4  610.24   51.19
   1   1  -4  642.34   54.59
  -1  -1   4  676.63   51.89
  -1  -1   4  633.84   53.79
  -1  -1   4  638.44   51.19
  -1  -1   4  511.95   53.19
   0   1  -4  994.60   83.69
   0   1  -4 1124.39   84.69
   0   1  -4 1037.20   83.39
   0   1  -4  966.30   82.69
   0  -1   4 1053.59   84.69
   0  -1   4 1095.49   83.19
   0  -1   4 1111.29   84.09
  -1   1  -4  604.24   54.19
  -1   1  -4  675.93   54.39
  -1   1  -4  659.23   55.19
  -1   1  -4  674.13   53.79
  -1   1  -4  577.04   54.29
   1  -1   4  634.14   53.59
   1  -1   4  634.34   55.29
   1  -1   4  674.53   54.79
  -2   1  -4 1497.55  114.99
  -2   1  -4 1419.56  115.69
  -2   1  -4 1223.88  120.49
   2  -1   4 1465.45  112.69
   2  -1   4 1522.15  117.19
   2  -1   4 1385.96  115.49
   2  -1   4 1548.45  116.49
   2  -1   4 1526.75  113.79
   2  -1   4 1349.86  121.69
  -3   1  -4  431.06   51.59
  -3   1  -4  446.96   47.20
  -3   1  -4  365.56   69.29
   3  -1   4  380.16   75.29
   3  -1   4  459.65   56.89
   3  -1   4  438.46   41.70
   3  -1   4  370.96   54.19
   3  -1   4  449.06   43.80
   3  -1   4  386.36   53.39
  -4   1  -4  291.67   88.39
   4  -1   4  572.34   75.09
   4  -1   4  387.36   46.80
   4  -1   4  417.76   45.10
   4  -1   4  390.26   48.90
  -5   1  -4  -48.60  119.09
   5  -1   4   61.59   52.09
   5  -1   4   66.79   26.70
   5  -1   4  112.79   51.69
   5  -1   4   92.39   26.40
   6  -1   4  110.49   64.19
   6   0  -4  -47.40   42.90
   6   0  -4  -47.90   51.39
  -6   0   4   24.70   45.20
  -6   0   4  181.78  148.19
   5   0  -4  431.96   59.59
   5   0  -4  291.27   55.39
  -5   0   4  297.87  112.59
  -5   0   4  258.07   47.20
   4   0  -4   67.59   91.59
   4   0  -4   38.80   36.90
   4   0  -4   69.79   25.10
   4   0  -4  101.79   25.60
   4   0  -4   80.09   25.00
  -4   0   4  110.09   68.79
  -4   0   4   93.49   26.60
  -4   0   4   68.89   30.30
   3   0  -4  724.43   67.39
   3   0  -4  794.82   64.09
   3   0  -4  719.33   67.99
  -3   0   4  702.33   68.09
  -3   0   4  710.13   68.79
   2   0  -4 1145.69  102.49
   2   0  -4 1413.56   99.49
   2   0  -4 1420.66   97.29
  -2   0   4 1033.00  100.19
  -2   0   4 1070.19  100.89
  -2   0   4 1459.85  109.79
   1   0  -4  442.26   36.60
   1   0  -4  351.26   39.10
   1   0  -4  419.76   42.50
   1   0  -4  398.56   36.40
   1   0  -4  452.55   37.80
  -1   0   4  427.46   45.20
  -1   0   4  452.45   36.00
  -1   0   4  392.66   38.00
  -1   0   4  452.65   39.70
   0   0  -4  130.89   18.40
   0   0  -4  124.29   17.00
   0   0  -4  139.99   16.90
   0   0  -4  132.69   16.20
   0   0  -4  124.79   17.40
   0   0   4   96.19   18.60
   0   0   4  122.29   14.70
   0   0   4  116.09   17.90
   0   0   4  120.99   18.50
  -1   0  -4  717.53   59.69
  -1   0  -4  695.63   59.69
  -1   0  -4  798.82   60.09
   1   0   4  720.53   59.79
   1   0   4  621.24   61.99
   1   0   4  674.63   58.79
   1   0   4  672.13   58.79
   1   0   4  795.92   62.29
  -2   0  -4  690.03   58.69
  -2   0  -4  682.03   71.19
  -2   0  -4  599.94   59.29
   2   0   4  663.93   58.89
   2   0   4  605.54   56.79
   2   0   4  630.84   61.29
   2   0   4  714.93   62.09
   2   0   4  719.33   61.39
   2   0   4  656.63   70.89
  -3   0  -4 1477.55  115.19
  -3   0  -4 1382.46  133.59
   3   0   4 1411.36  115.39
   3   0   4 1431.06  121.69
   3   0   4 1509.65  113.99
   3   0   4 1303.67  119.29
   3   0   4 1280.47  118.09
   3   0   4 1383.76  134.09
  -4   0  -4  -86.89   86.89
  -4   0  -4   -3.90   28.50
   4   0   4    2.90   43.30
   4   0   4   18.70   22.40
   4   0   4    5.40   23.70
   4   0   4   45.40   41.00
  -5   0  -4  161.58  149.59
   5   0   4  192.18   58.29
   5   0   4  260.87   63.09
   5   0   4  109.79   32.20
   5   0   4  158.98   34.70
   6  -1  -4   79.99   53.79
   6  -1  -4   70.59   44.90
  -6   1   4   93.09  143.59
  -6   1   4  -43.40   40.20
   5  -1  -4  328.67   58.59
   5  -1  -4  516.15   72.69
   5  -1  -4  428.76   60.09
  -5   1   4  592.24  116.09
  -5   1   4  437.46   61.59
   4  -1  -4  206.48   33.80
   4  -1  -4  202.58   28.80
   4  -1  -4   61.89   86.79
   4  -1  -4  181.58   40.40
   4  -1  -4  200.08   23.90
   4  -1  -4  226.58   35.50
  -4   1   4  134.89   66.59
  -4   1   4  117.19   32.60
  -4   1   4  247.28   33.60
   3  -1  -4 1021.70   79.69
   3  -1  -4 1085.59   87.89
   3  -1  -4  971.70   83.39
   3  -1  -4 1183.58  108.79
   3  -1  -4  954.00   85.39
  -3   1   4  998.80   87.69
  -3   1   4  938.41   85.19
   2  -1  -4   44.30   12.80
   2  -1  -4   47.40   10.40
   2  -1  -4   73.09   38.30
   2  -1  -4   35.40   12.10
   2  -1  -4   29.30   12.90
  -2   1   4   22.50   12.70
  -2   1   4   71.29   15.10
  -2   1   4   23.80   13.50
   1  -1  -4 2531.75  188.68
   1  -1  -4 2366.66  188.18
   1  -1  -4 2654.93  185.88
   1  -1  -4 2393.66  189.28
   1  -1  -4 2624.44  194.48
  -1   1   4 2337.37  193.68
  -1   1   4 2352.16  185.58
  -1   1   4 2468.65  189.48
  -1   1   4 2495.05  188.98
   0  -1  -4    9.20    7.20
   0  -1  -4    0.30   14.70
   0  -1  -4    2.30   10.40
   0  -1  -4    5.70    8.40
   0  -1  -4   10.30    9.60
   0   1   4   -7.50    8.90
   0   1   4   -4.90   18.70
   0   1   4    5.70    9.80
   0   1   4    8.00    7.00
  -1  -1  -4 2484.65  201.58
  -1  -1  -4 2666.23  202.18
  -1  -1  -4 2694.83  202.38
   1   1   4 2471.25  202.88
   1   1   4 2628.84  201.48
   1   1   4 2708.83  206.98
   1   1   4 2774.02  206.28
   1   1   4 2654.03  203.88
   1   1   4 2659.13  201.78
  -2  -1  -4  134.59   21.10
   2   1   4   80.49   17.90
   2   1   4  101.59   22.60
   2   1   4   71.99   20.00
   2   1   4  109.39   24.90
   2   1   4   98.89   26.50
   2   1   4   81.29   31.40
   2   1   4  111.59   45.90
   2   1   4  138.69   27.00
  -3  -1  -4 1866.21  153.08
  -3  -1  -4 1506.15  130.39
   3   1   4 1759.42  140.29
   3   1   4 1565.24  135.59
   3   1   4 1524.65  134.29
   3   1   4 1553.84  133.69
   3   1   4 1591.94  134.79
   3   1   4 1642.74  131.29
  -4  -1  -4   13.80   97.99
  -4  -1  -4  -23.80   30.00
   4   1   4   11.00   31.10
   4   1   4   56.29   40.10
   4   1   4    4.50   44.30
   4   1   4  -30.10   24.30
   5   1   4  135.09   58.49
   5   1   4  175.78   46.70
   5   1   4  183.78   35.60
   5   1   4   42.70  131.99
   5   1   4   13.40   64.29
   6  -2  -4  -20.80   43.80
   6  -2  -4   42.20   48.30
  -6   2   4  307.17  146.69
  -6   2   4    9.70   38.80
   5  -2  -4  296.57   46.30
   5  -2  -4  356.86   61.69
   5  -2  -4  234.88   31.40
  -5   2   4  241.68  104.29
  -5   2   4  205.88   37.40
   4  -2  -4   81.79   20.10
   4  -2  -4   95.79   26.10
   4  -2  -4   33.50   35.60
   4  -2  -4   74.19   16.20
   4  -2  -4   50.89   24.40
   4  -2  -4   55.59   76.79
  -4   2   4   96.79   22.90
  -4   2   4   45.40   28.30
  -4   2   4  108.19   68.59
   3  -2  -4 1049.59   77.59
   3  -2  -4  803.22   74.09
   3  -2  -4  905.91   72.69
   3  -2  -4 1016.30   79.89
   3  -2  -4  782.02   74.99
   3  -2  -4  713.63   94.69
  -3   2   4  788.12   78.49
  -3   2   4  923.51   77.99
  -3   2   4 1077.79   97.79
   2  -2  -4   58.49   14.30
   2  -2  -4   50.69   13.00
   2  -2  -4   61.89   15.10
   2  -2  -4   71.79   39.00
   2  -2  -4   65.49   12.50
   2  -2  -4   59.29   14.90
  -2   2   4   57.69   15.50
  -2   2   4   63.09   31.10
  -2   2   4   46.20   15.40
   1  -2  -4 1360.36  116.59
   1  -2  -4 1359.46  108.49
   1  -2  -4 1375.86  107.49
  -1   2   4 1402.66  107.69
  -1   2   4 1413.36  108.69
  -1   2   4 1292.87  114.99
   0  -2  -4 1913.01  140.39
   0  -2  -4 1847.52  141.09
   0  -2  -4 1777.12  147.49
   0   2   4 1871.61  150.58
   0   2   4 1703.93  137.59
   0   2   4 1733.03  137.39
   0   2   4 1798.02  142.29
   0   2   4 1878.11  140.29
   0   2   4 1832.32  143.19
  -1  -2  -4 2726.83  199.08
  -1  -2  -4 2753.52  199.18
   1   2   4 2588.24  207.08
   1   2   4 2569.44  202.28
   1   2   4 2538.35  197.58
   1   2   4 2736.23  206.68
   1   2   4 2433.46  199.98
   1   2   4 2562.64  198.28
   1   2   4 2362.06  198.38
  -2  -2  -4  189.58   27.90
   2   2   4  186.18   34.20
   2   2   4  194.78   33.30
   2   2   4  153.58   49.90
   2   2   4  166.38   27.40
   2   2   4  211.58   33.00
   2   2   4  204.88   49.99
   2   2   4  193.58   30.70
  -3  -2  -4  417.56   51.99
   3   2   4  378.16   62.79
   3   2   4  468.95   58.49
   3   2   4  593.34   90.89
   3   2   4  295.27   69.69
   3   2   4  455.65   56.19
  -4  -2  -4  -50.29   33.80
   4   2   4  -37.40   40.50
   4   2   4   12.60   50.49
   4   2   4  -44.10   33.90
   4   2   4  -35.00   97.29
   5   2   4   91.69   61.29
   5   2   4  201.68   47.90
   5   2   4  165.68  154.68
   5   2   4   88.09   75.29
   6  -3  -4  131.09   52.09
   6  -3  -4  138.19   43.00
  -6   3   4  263.37  134.09
  -6   3   4  126.89   43.00
   5  -3  -4  108.39   37.20
   5  -3  -4   56.59   21.00
   5  -3  -4   97.29   21.50
   5  -3  -4  108.09   29.40
  -5   3   4   40.80   96.89
  -5   3   4   43.10   25.30
   4  -3  -4  388.66   52.89
   4  -3  -4  418.36   41.00
   4  -3  -4  324.17   41.00
   4  -3  -4  333.27   42.90
   4  -3  -4  444.36  101.49
  -4   3   4  361.26   44.10
   3  -3  -4  177.08   26.90
   3  -3  -4  178.98   24.50
   3  -3  -4  108.49   57.89
   3  -3  -4  178.08   28.20
   3  -3  -4  145.49   25.50
   3  -3  -4  144.49   21.60
  -3   3   4  100.09   25.00
  -3   3   4  167.18   25.80
  -3   3   4  227.08   52.89
   2  -3  -4 1238.88   95.19
   2  -3  -4 1271.27  116.59
   2  -3  -4 1269.57   94.59
   2  -3  -4 1273.37   99.09
   2  -3  -4 1090.49   98.59
   2  -3  -4 1153.08   99.29
  -2   3   4 1349.56  113.69
  -2   3   4 1295.77   99.29
  -2   3   4 1144.09   99.69
   1  -3  -4 1214.58   92.39
   1  -3  -4 1238.78  107.89
   1  -3  -4  982.00   92.09
   1  -3  -4 1168.48   93.99
  -1   3   4 1190.38   93.99
  -1   3   4 1162.68  103.99
  -1   3   4 1136.09   92.29
   0  -3  -4 3118.19  242.18
   0  -3  -4 3061.79  233.58
   0  -3  -4 3163.68  231.88
   0   3   4 2989.40  229.78
   0   3   4 3074.69  235.08
   0   3   4 2872.21  229.38
   0   3   4 3025.10  245.38
   0   3   4 3043.30  235.78
   0   3   4 3067.59  231.68
  -1  -3  -4  125.69   22.50
   1   3   4  128.99   37.50
   1   3   4  157.18   32.30
   1   3   4  153.58   24.80
   1   3   4  148.89   39.80
   1   3   4  126.69   21.60
   1   3   4  130.19   22.70
  -2  -3  -4   38.00   21.50
  -2  -3  -4   37.70   20.60
   2   3   4   98.49   30.30
   2   3   4   83.29   60.59
   2   3   4    8.90   20.60
   2   3   4   -5.40   21.40
   2   3   4   -7.90   15.60
   2   3   4    9.50   30.60
   2   3   4  113.89   53.09
  -3  -3  -4  279.57   43.70
  -3  -3  -4  315.87   49.20
   3   3   4  295.97   47.10
   3   3   4  162.68   89.29
   3   3   4  262.17   47.30
  -4  -3  -4  190.68   43.10
  -4  -3  -4  151.58   44.80
   4   3   4  167.68  115.99
   4   3   4   43.40   48.30
   4   3   4  208.08   58.19
   6  -4  -4  496.75   68.99
   6  -4  -4  463.15   57.49
   6  -4  -4  448.16   72.79
  -6   4   4  181.08  147.89
   5  -4  -4   20.00   19.10
   5  -4  -4  -18.00   20.50
   5  -4  -4   -4.80   25.00
   5  -4  -4  -13.70   35.10
  -5   4   4 -135.89   98.19
  -5   4   4   -5.60   23.00
   4  -4  -4  625.44   62.09
   4  -4  -4  735.43   64.99
   4  -4  -4  765.72   67.79
   4  -4  -4  637.64   64.59
   4  -4  -4  700.33   76.69
  -4   4   4  843.02  115.59
  -4   4   4  665.83   65.99
   3  -4  -4  138.39   61.69
   3  -4  -4   68.39   20.00
   3  -4  -4   38.10   18.00
   3  -4  -4   42.20   17.20
   3  -4  -4   56.79   20.10
   3  -4  -4   68.89   22.40
  -3   4   4   58.09   18.70
  -3   4   4  107.49   51.19
  -3   4   4   17.80   22.40
   2  -4  -4 1590.74  150.88
   2  -4  -4 1800.02  135.19
   2  -4  -4 1639.64  134.29
   2  -4  -4 1836.02  136.09
  -2   4   4 1770.42  134.79
  -2   4   4 1733.33  135.89
  -2   4   4 1469.15  147.99
   1  -4  -4  210.68   46.00
   1  -4  -4  129.89   24.90
   1  -4  -4  204.98   28.70
  -1   4   4  195.28   29.90
  -1   4   4  170.88   26.90
  -1   4   4  258.97   49.70
   0  -4  -4 1503.95  122.69
   0  -4  -4 1538.35  136.89
   0   4   4 1365.56  118.69
   0   4   4 1549.14  124.09
   0   4   4 1626.44  142.69
   0   4   4 1686.33  128.59
  -1  -4  -4  179.68   28.40
   1   4   4  197.18   33.90
   1   4   4  236.18   51.39
   1   4   4  192.58   29.50
   1   4   4  151.68   37.80
   1   4   4  198.38   52.59
   1   4   4  192.88   28.70
  -2  -4  -4  251.77   36.80
   2   4   4  326.37   75.69
   2   4   4  251.97   39.10
   2   4   4  151.48   36.10
  -3  -4  -4   70.19   39.40
  -3  -4  -4   65.39   32.90
   3   4   4   21.40   35.70
   3   4   4   72.69  102.29
  -4  -4  -4  207.98   48.90
  -4  -4  -4  251.47   55.59
   4   4   4  377.06  153.58
   4   4   4  192.78   61.39
   6  -5  -4  435.06   70.89
   6  -5  -4  394.76   67.99
   6  -5  -4  393.66   50.99
  -6   5   4   99.99  148.99
   5  -5  -4   23.50   39.70
   5  -5  -4   -1.40   22.40
   5  -5  -4    4.10   27.00
   5  -5  -4  -17.40   24.90
  -5   5   4   31.90  111.59
  -5   5   4    7.60   24.10
   4  -5  -4  317.67   46.50
   4  -5  -4  368.76   63.69
   4  -5  -4  352.46   43.60
   4  -5  -4  351.76   43.60
  -4   5   4  323.07   46.00
   3  -5  -4  242.38   37.70
   3  -5  -4  175.08   31.50
   3  -5  -4  331.17   84.89
  -3   5   4  409.46   82.29
  -3   5   4  255.27   35.60
  -3   5   4  229.78   33.00
   2  -5  -4 2424.36  184.38
   2  -5  -4 2357.96  180.98
   2  -5  -4 2179.28  203.28
  -2   5   4 2533.75  183.28
  -2   5   4 2252.37  177.48
  -2   5   4 2297.07  182.78
  -2   5   4 2211.58  183.88
  -2   5   4 2310.77  203.88
   1  -5  -4  312.57   37.00
   1  -5  -4  269.97   56.69
  -1   5   4  310.97   38.90
  -1   5   4  289.47   48.20
  -1   5   4  353.86   71.39
   0  -5  -4  378.66   46.40
   0  -5  -4  375.86   69.39
   0  -5  -4  401.36   44.70
   0   5   4  553.24   77.69
   0   5   4  411.86   46.40
   0   5   4  383.96   39.80
   0   5   4  371.46   64.89
  -1  -5  -4   13.60   23.00
  -1  -5  -4    9.10   18.90
   1   5   4   -9.00   67.09
   1   5   4   -0.10   23.60
   1   5   4   44.60   23.10
  -2  -5  -4  506.05   55.29
  -2  -5  -4  394.96   71.09
   2   5   4  476.55   61.99
   2   5   4  526.45   70.29
   2   5   4  617.44  112.19
  -3  -5  -4   53.29   42.90
  -3  -5  -4   -9.20   36.50
   3   5   4    1.40   48.90
   3   5   4  -93.69  125.49
  -4  -5  -4  310.77   66.89
   4   5   4  496.25  183.48
   4   5   4  191.08   76.69
   6  -6  -4  252.47   46.40
   6  -6  -4  192.78   61.69
   6  -6  -4  245.78   49.60
  -6   6   4   50.19  154.98
   5  -6  -4  426.16   65.19
   5  -6  -4  237.48   40.50
   5  -6  -4  337.07   50.29
  -5   6   4  453.45  130.59
  -5   6   4  235.58   39.20
   4  -6  -4  274.27   48.90
   4  -6  -4  261.47   38.30
   4  -6  -4  315.87   51.49
  -4   6   4  289.67   41.50
  -4   6   4  226.08   35.90
  -4   6   4  286.07   42.90
   3  -6  -4  268.37   38.10
   3  -6  -4  165.18   32.30
   3  -6  -4  226.68   36.80
  -3   6   4  238.98   82.99
  -3   6   4  148.09   35.50
  -3   6   4  196.28   33.10
  -3   6   4  281.97   37.20
  -3   6   4  204.98   36.50
   2  -6  -4  662.13   61.19
   2  -6  -4  664.73   64.39
   2  -6  -4  610.94   53.99
  -2   6   4  717.83   99.19
  -2   6   4  728.93   66.29
  -2   6   4  649.43   64.19
  -2   6   4  633.74   71.99
  -2   6   4  537.85   56.69
   1  -6  -4   -2.20   15.00
   1  -6  -4   -3.30   53.39
   1  -6  -4   27.40   19.20
  -1   6   4   -8.40   22.20
  -1   6   4  -38.30   33.40
  -1   6   4  -72.99   52.99
  -1   6   4  -28.50   17.70
   0  -6  -4  201.48   32.40
   0  -6  -4  196.88   33.60
   0   6   4  179.78   32.90
   0   6   4  291.57   83.59
   0   6   4  159.28   30.40
  -1  -6  -4  102.89   34.50
  -1  -6  -4  109.29   27.20
   1   6   4  112.49   93.59
   1   6   4  160.18   30.00
  -2  -6  -4  402.96   56.29
  -2  -6  -4  319.57   60.09
   2   6   4  590.04  127.59
   2   6   4  401.06   68.29
  -3  -6  -4   54.79   58.09
  -3  -6  -4   43.00   44.60
   3   6   4   63.39   67.09
   3   6   4  -85.89  156.98
   6  -7  -4   79.99   44.50
   6  -7  -4  130.59   53.79
   6  -7  -4  159.38   67.29
  -6   7   4   14.20  166.78
   5  -7  -4  186.88   40.10
   5  -7  -4  348.57   62.79
  -5   7   4  172.78   40.60
  -5   7   4  397.46  156.78
   4  -7  -4   19.60   34.20
   4  -7  -4  -22.00   43.40
   4  -7  -4    9.70   24.30
  -4   7   4   41.10   28.00
  -4   7   4   76.79   38.50
  -4   7   4   93.19  101.49
  -4   7   4   36.70   31.70
   3  -7  -4  190.58   37.80
   3  -7  -4  290.87   41.20
   3  -7  -4  137.99   34.90
  -3   7   4  354.16  102.29
  -3   7   4  275.97   38.00
  -3   7   4  128.19   44.00
  -3   7   4  240.08   41.30
   2  -7  -4  359.26   47.40
   2  -7  -4  301.17   39.40
  -2   7   4  168.88   94.59
  -2   7   4  319.77   40.30
  -2   7   4  433.36   54.19
   1  -7  -4  482.25   54.19
   1  -7  -4  431.46   48.30
  -1   7   4  407.26   44.80
  -1   7   4  657.03  118.79
  -1   7   4  390.96   61.59
   0  -7  -4   11.80   26.90
   0  -7  -4  -19.60   31.20
   0   7   4   22.90   22.80
   0   7   4   29.60   31.10
   0   7   4  -47.20   90.49
  -1  -7  -4  361.46   63.99
  -1  -7  -4  459.35   62.59
   1   7   4  510.75  129.19
   1   7   4  465.95   60.99
   1   7   4  642.74   73.69
  -2  -7  -4  129.09   53.89
  -2  -7  -4   89.69   41.80
   2   7   4  246.28  151.28
   2   7   4  157.48   55.29
   6  -8  -4  -24.70   57.99
   6  -8  -4   31.90   57.39
   6  -8  -4  110.39   74.49
  -6   8   4  122.69  183.08
   5  -8  -4  339.37   55.39
   5  -8  -4  379.66   71.99
  -5   8   4  243.88   55.69
  -5   8   4  413.96  167.58
   4  -8  -4   13.70   31.30
   4  -8  -4   36.40   45.60
  -4   8   4  129.79  127.49
  -4   8   4   38.40   33.00
  -4   8   4   53.39   69.99
  -4   8   4   42.10   33.60
   3  -8  -4  292.67   45.20
   3  -8  -4  271.37   42.30
   3  -8  -4  242.98   39.60
  -3   8   4  156.58   56.29
  -3   8   4  315.47  111.59
  -3   8   4  372.96   59.59
  -3   8   4  281.37   45.80
   2  -8  -4   35.10   26.20
   2  -8  -4   44.80   27.50
  -2   8   4  -12.60   26.60
  -2   8   4   42.90   35.00
  -2   8   4  -62.49   98.69
   1  -8  -4  677.73   67.59
   1  -8  -4  554.44   59.69
  -1   8   4  489.25   77.89
  -1   8   4  697.63  142.39
  -1   8   4  557.54   57.89
   0  -8  -4  -22.10   32.60
   0   8   4  -24.00   27.90
   0   8   4  141.39  120.99
   0   8   4   -9.60   36.20
  -1  -8  -4  366.86   55.59
   1   8   4  377.76   69.79
   1   8   4  501.95  163.98
   1   8   4  355.06   57.19
  -2  -8  -4  -21.20   53.29
  -2  -8  -4   43.60   70.29
   2   8   4   51.19   62.99
   2   8   4   65.89   64.29
   2   8   4    6.40  181.28
   5  -9  -4   52.89   65.09
   5  -9  -4  132.19   56.39
  -5   9   4  206.18   91.19
  -5   9   4  -87.29  174.18
   4  -9  -4  -77.89   44.70
   4  -9  -4   -9.20   39.20
  -4   9   4  -99.19  155.98
  -4   9   4   27.50   40.80
  -4   9   4  -19.40   42.50
   3  -9  -4  163.28   43.80
  -3   9   4  206.88   48.90
  -3   9   4  210.28   41.10
  -3   9   4  188.88  142.29
   2  -9  -4   47.90   35.60
  -2   9   4  134.19   47.10
  -2   9   4  145.69   36.20
  -2   9   4  102.69  135.99
   1  -9  -4  400.56   60.79
  -1   9   4  388.96   68.69
  -1   9   4  387.16   55.89
  -1   9   4  588.64  166.18
   0  -9  -4   14.80   46.30
   0   9   4   63.39   52.89
   0   9   4  -33.60  155.98
   0   9   4   63.39   39.80
  -1  -9  -4  185.08   61.39
   1   9   4  271.27  195.48
   4 -10  -4  115.99   56.59
   4 -10  -4  138.69   58.39
  -4  10   4  171.18   58.89
  -4  10   4  249.18  179.98
   3 -10  -4  114.39   51.69
  -3  10   4   28.30   48.90
  -3  10   4  104.79  152.68
   2 -10  -4  141.09   52.49
  -2  10   4  177.98  157.58
  -2  10   4   64.89   58.69
   1 -10  -4  100.09   59.39
  -1  10   4   56.59   61.29
  -1  10   4   -5.20  177.08
   1  10  -5  -40.30   71.39
   1  10  -5 -117.39  155.08
   0  10  -5  230.18   73.19
   0  10  -5  320.67  135.29
   0 -10   5  196.58   68.39
   0 -10   5  175.28   60.59
  -1  10  -5   58.39   64.39
  -1  10  -5    5.90  102.19
   1 -10   5  -40.60   50.09
   1 -10   5   65.09   61.69
  -2  10  -5  244.58  116.79
  -2  10  -5  336.07   78.59
   2 -10   5   88.89   60.49
   2 -10   5  148.49   51.59
  -3  10  -5   67.19   74.59
  -3  10  -5  101.19  121.89
   3 -10   5  131.39   84.89
   3 -10   5   20.40   60.59
   2   9  -5  514.15  172.98
   2   9  -5  464.45   84.39
  -2  -9   5  385.66   97.39
   1   9  -5  -15.10   58.09
   1   9  -5    2.50  116.89
  -1  -9   5   94.99   45.10
  -1  -9   5  -37.20   62.29
   0   9  -5  477.95   75.79
   0   9  -5  559.74  122.99
   0  -9   5  457.75   72.89
   0  -9   5  531.95   84.39
  -1   9  -5  161.28   85.69
  -1   9  -5  -47.00   46.10
   1  -9   5   -3.20   43.70
   1  -9   5   14.30   39.90
  -2   9  -5  312.77   94.99
  -2   9  -5  280.67   62.89
   2  -9   5  148.89   50.89
   2  -9   5  157.98   44.90
  -3   9  -5  -10.70   63.99
  -3   9  -5   44.90  107.89
   3  -9   5   41.70   50.59
   3  -9   5   61.19   68.69
  -4   9  -5  -50.99  138.09
  -4   9  -5  123.79   80.99
   4  -9   5  127.29   59.59
   4  -9   5   62.39   81.99
   3   8  -5  -12.50   83.69
   3   8  -5   32.50  157.18
  -3  -8   5  -51.39   86.99
   2   8  -5  251.97   63.49
   2   8  -5  374.06  136.29
  -2  -8   5  109.09   67.69
  -2  -8   5  213.28   42.70
   1   8  -5   79.19   98.99
   1   8  -5   80.89   47.00
  -1  -8   5   36.30   54.79
  -1  -8   5   46.70   33.90
   0   8  -5  342.37   94.89
   0   8  -5  311.47   59.09
   0  -8   5  427.36   56.89
   0  -8   5  414.56   70.29
  -1   8  -5  109.09   64.89
  -1   8  -5    3.10   41.20
  -1   8  -5  -19.50   44.10
   1  -8   5  -43.60   64.49
   1  -8   5   -9.10   32.10
   1  -8   5   24.10   35.30
  -2   8  -5  296.97   77.29
  -2   8  -5  240.18   43.80
  -2   8  -5  271.47   55.39
   2  -8   5  287.87   43.80
   2  -8   5  182.58   43.30
   2  -8   5  241.18   48.60
   2  -8   5  261.27   51.69
   2  -8   5  275.37   87.49
  -3   8  -5  -80.39   83.49
  -3   8  -5  -33.40   54.39
   3  -8   5   33.60  102.79
   3  -8   5  -10.50   33.20
   3  -8   5  -19.60   56.19
  -4   8  -5  327.17   86.79
  -4   8  -5  345.37  126.69
   4  -8   5  486.25   85.59
   4  -8   5  382.26   71.49
  -5   8  -5  -39.50  156.68
  -5   8  -5  -27.30   99.19
   5  -8   5   33.30   56.09
   5  -8   5   47.20   82.39
   3   7  -5  161.68   69.59
   3   7  -5  215.28  134.49
  -3  -7   5  155.58   75.09
   2   7  -5  426.06  104.59
  -2  -7   5  160.38   40.30
  -2  -7   5  222.68   63.69
   1   7  -5  135.19   42.00
   1   7  -5  206.68   80.59
  -1  -7   5  114.89   50.49
  -1  -7   5  101.29   33.10
   0   7  -5  460.35   85.69
   0   7  -5  355.26   64.79
   0   7  -5  379.36   70.79
  -1   7  -5    0.00   29.10
  -1   7  -5  125.39   52.89
  -1   7  -5   55.79   40.10
   1  -7   5   48.10   30.60
   1  -7   5  101.79   30.40
   1  -7   5  103.69   47.30
  -2   7  -5  289.97   46.40
  -2   7  -5  454.25   77.49
  -2   7  -5  460.65   66.99
   2  -7   5  300.27   48.50
   2  -7   5  360.56   54.69
   2  -7   5  254.37   66.99
   2  -7   5  222.08   44.90
   2  -7   5  285.17   48.70
  -3   7  -5   86.89   73.09
  -3   7  -5   35.10   46.00
   3  -7   5  -37.90   69.59
   3  -7   5   28.90   31.20
   3  -7   5   46.40   47.20
  -4   7  -5  326.17  107.09
  -4   7  -5  140.19   65.29
   4  -7   5  210.88   46.10
   4  -7   5  333.07   69.19
  -5   7  -5  -67.79   71.29
   5  -7   5   -0.80   46.80
   5  -7   5   49.50   62.49
   4   6  -5  136.99  143.49
   4   6  -5  -62.89   69.29
  -4  -6   5  117.19   70.89
   3   6  -5  582.34  122.79
   3   6  -5  538.55   81.49
  -3  -6   5  316.17   77.89
   2   6  -5  190.78   81.09
   2   6  -5   57.79   41.60
  -2  -6   5    7.40   46.40
  -2  -6   5   33.50   28.70
   1   6  -5  257.07   41.60
   1   6  -5  186.68   55.59
   1   6  -5  296.47   66.99
  -1  -6   5  146.99   40.80
  -1  -6   5  179.78   34.20
   0   6  -5   85.09   35.60
   0   6  -5   57.49   39.30
   0   6  -5   72.39   48.90
   0   6  -5   76.39   31.80
   0  -6   5  179.38   31.80
   0  -6   5  129.49   32.10
  -1   6  -5  283.07   44.50
  -1   6  -5  354.46   60.49
  -1   6  -5  284.07   49.20
   1  -6   5  324.47   44.80
   1  -6   5  325.27   47.40
   1  -6   5  277.07   48.50
   1  -6   5  314.87   43.70
   1  -6   5  306.57   59.69
  -2   6  -5   11.20   31.40
  -2   6  -5   55.79   44.60
  -2   6  -5   28.90   23.10
   2  -6   5   16.60   28.50
   2  -6   5  -18.50   20.30
   2  -6   5  -18.70   29.80
   2  -6   5   10.30   21.90
   2  -6   5   47.90   49.70
  -3   6  -5  486.25   94.09
  -3   6  -5  579.44   70.39
   3  -6   5  523.45   89.79
   3  -6   5  511.85   80.49
   3  -6   5  444.76   57.89
  -4   6  -5   98.29   84.89
  -4   6  -5  149.99   58.39
   4  -6   5  165.38   53.29
   4  -6   5  162.78   36.00
   4  -6   5  174.28  105.89
  -5   6  -5  309.47  123.09
  -5   6  -5  177.28   76.49
   5  -6   5  205.68   70.49
   5  -6   5  294.47   52.19
   5   5  -5  172.48  157.68
   4   5  -5   38.80  113.29
   4   5  -5   -8.20   56.89
  -4  -5   5   87.89   62.19
   3   5  -5  729.93  115.39
   3   5  -5  691.53   83.99
   2   5  -5   99.29   57.59
   2   5  -5  157.08   62.69
   2   5  -5   88.69   33.00
  -2  -5   5   81.79   40.30
  -2  -5   5   60.19   22.60
   1   5  -5  969.50   96.99
   1   5  -5  907.21   94.59
   1   5  -5  959.80   90.89
   1   5  -5  927.21   83.89
  -1  -5   5  886.31   86.09
  -1  -5   5 1030.00   93.99
  -1  -5   5  895.51   82.59
   0   5  -5   69.69   19.50
   0   5  -5   97.99   26.80
   0   5  -5   96.29   27.60
   0   5  -5   79.19   31.40
   0   5  -5   67.09   36.60
   0  -5   5   53.89   22.80
   0  -5   5   69.39   26.30
   0  -5   5   97.69   23.90
   0  -5   5  123.99   28.80
  -1   5  -5 2597.64  227.08
  -1   5  -5 2764.52  223.58
  -1   5  -5 2974.90  221.38
   1  -5   5 3057.99  220.98
   1  -5   5 3269.27  223.58
   1  -5   5 3198.18  224.88
   1  -5   5 2486.35  221.98
   1  -5   5 2541.25  224.98
  -2   5  -5   34.80   19.10
  -2   5  -5   51.99   45.60
  -2   5  -5   38.50   24.20
   2  -5   5   -5.50   19.10
   2  -5   5   13.50   21.30
   2  -5   5  -17.60   26.00
   2  -5   5   50.89   41.00
   2  -5   5   -6.30   25.10
   2  -5   5   43.80   28.10
  -3   5  -5 1214.98  117.89
  -3   5  -5 1021.00  101.09
   3  -5   5 1031.30  119.09
   3  -5   5  998.10  102.29
  -4   5  -5   36.70   78.59
  -4   5  -5   48.80   53.29
   4  -5   5   88.89   27.30
   4  -5   5   82.99  100.19
  -5   5  -5  156.38   68.49
  -5   5  -5  240.98  123.89
   5  -5   5  240.98   64.99
   5  -5   5  243.88   43.00
   5   4  -5  251.47   71.89
   5   4  -5   49.50  132.89
  -5  -4   5  144.39   70.39
   4   4  -5   49.80   49.60
   4   4  -5  -12.30   81.99
   4   4  -5   52.99   32.00
  -4  -4   5   25.20   40.50
  -4  -4   5    4.20   46.40
  -4  -4   5  125.69   87.29
   3   4  -5  354.36   73.49
   3   4  -5  359.86   57.79
   3   4  -5  334.57   45.70
  -3  -4   5  253.57   53.99
   2   4  -5   21.10   38.50
   2   4  -5  -19.20   31.30
   2   4  -5    5.20   23.50
   2   4  -5   55.19   48.50
  -2  -4   5    5.10   18.20
  -2  -4   5   19.80   31.40
  -2  -4   5   28.20   27.30
   1   4  -5 1316.47  113.39
   1   4  -5 1401.36  110.69
   1   4  -5 1278.17  118.39
   1   4  -5 1431.16  122.89
   1   4  -5 1578.94  119.49
  -1  -4   5 1569.34  120.79
  -1  -4   5 1351.96  115.29
  -1  -4   5 1372.16  112.59
  -1  -4   5 1352.76  111.49
   0   4  -5  782.02   67.39
   0   4  -5  633.54   64.09
   0   4  -5  660.53   60.59
   0   4  -5  664.23   72.99
   0   4  -5  622.64   63.19
   0  -4   5  788.82   67.19
   0  -4   5  771.22   63.69
   0  -4   5  716.43   63.99
   0  -4   5  793.32   65.49
  -1   4  -5 1072.89   96.59
  -1   4  -5 1223.18   95.09
   1  -4   5 1196.98   95.59
   1  -4   5 1214.08   95.79
   1  -4   5 1258.67   96.69
   1  -4   5 1041.00   95.09
   1  -4   5 1054.09   96.79
  -2   4  -5   46.30   14.20
  -2   4  -5   15.00   20.90
  -2   4  -5   38.10   38.70
   2  -4   5   12.40   18.30
   2  -4   5   41.40   36.20
   2  -4   5   32.40   26.50
   2  -4   5   32.70   26.00
   2  -4   5   24.40   22.20
   2  -4   5   49.90   21.00
  -3   4  -5  338.47   66.59
  -3   4  -5  400.56   54.69
   3  -4   5  483.05   77.59
   3  -4   5  345.07   60.69
   3  -4   5  348.47   46.10
  -4   4  -5  150.28   82.99
  -4   4  -5  124.39   46.70
   4  -4   5  184.78   47.40
   4  -4   5  206.28   93.49
   4  -4   5  210.78   34.40
  -5   4  -5  419.36   86.49
  -5   4  -5  273.67  121.59
   5  -4   5  414.76   78.49
   5  -4   5  529.15   61.09
   5   3  -5  146.09   46.60
   5   3  -5   91.39   57.79
  -5  -3   5  -43.20  116.19
  -5  -3   5   51.69   54.49
   4   3  -5  135.79   32.90
  -4  -3   5  201.58   50.09
  -4  -3   5  118.69   44.20
   3   3  -5  -52.39   60.79
   3   3  -5   -3.00   28.00
   3   3  -5   -9.20   18.80
  -3  -3   5  -14.90   27.80
  -3  -3   5   -0.30   28.60
  -3  -3   5  -18.00   50.89
   2   3  -5  412.26   43.00
   2   3  -5  515.85   48.00
   2   3  -5  511.95   62.59
  -2  -3   5  447.36   48.80
  -2  -3   5  322.37   53.39
  -2  -3   5  437.16   47.50
   1   3  -5  385.16   48.20
   1   3  -5  426.86   39.20
   1   3  -5  347.87   47.60
   1   3  -5  385.26   39.70
   1   3  -5  412.26   48.90
  -1  -3   5  407.76   37.70
  -1  -3   5  384.56   41.90
  -1  -3   5  366.26   46.10
  -1  -3   5  341.87   39.70
   0   3  -5 2753.82  197.88
   0   3  -5 2288.97  193.38
   0   3  -5 2390.36  196.18
   0   3  -5 2531.75  194.98
   0   3  -5 2305.57  195.28
   0  -3   5 2851.61  196.98
   0  -3   5 2691.53  198.18
   0  -3   5 2613.54  195.98
   0  -3   5 2501.55  196.58
  -1   3  -5  871.21   74.39
  -1   3  -5  718.83   72.79
  -1   3  -5  840.82   74.99
   1  -3   5  896.31   75.09
   1  -3   5  905.01   74.99
   1  -3   5  871.51   74.89
   1  -3   5  926.21   72.79
   1  -3   5  950.40   73.19
  -2   3  -5  466.55   45.40
  -2   3  -5  523.85   64.39
  -2   3  -5  510.75   50.99
   2  -3   5  528.65   54.99
   2  -3   5  526.05   55.09
   2  -3   5  576.64   61.09
   2  -3   5  384.16   48.90
  -3   3  -5  146.79   59.49
  -3   3  -5  301.77   46.00
   3  -3   5  333.07   45.90
   3  -3   5  248.58   35.50
   3  -3   5  263.07   66.19
  -4   3  -5  191.28   81.19
  -4   3  -5  249.08   52.69
   4  -3   5  307.37   52.99
   4  -3   5  224.78   97.59
   4  -3   5  362.16   42.50
  -5   3  -5  298.17   72.79
  -5   3  -5  203.48  111.89
   5  -3   5  266.87   41.00
   5  -3   5  329.67   73.49
   6   2  -5  169.68   69.69
   6   2  -5  184.18   70.69
  -6  -2   5   91.89  153.18
  -6  -2   5  359.56   69.89
   5   2  -5    7.60   41.40
   5   2  -5    0.00   45.00
  -5  -2   5   39.70  113.99
  -5  -2   5   -3.60   44.10
   4   2  -5  270.77   40.00
  -4  -2   5  184.88   42.40
  -4  -2   5  322.47   52.19
   3   2  -5   57.29   58.09
   3   2  -5   68.39   31.80
   3   2  -5   81.39   25.00
   3   2  -5   64.59   20.10
  -3  -2   5   54.69   34.00
  -3  -2   5   90.19   49.70
  -3  -2   5   44.50   25.40
  -3  -2   5   69.19   27.00
   2   2  -5 3343.87  234.08
   2   2  -5 2621.54  237.68
   2   2  -5 2821.02  241.98
   2   2  -5 3121.99  232.38
  -2  -2   5 3275.37  238.58
  -2  -2   5 3268.77  234.78
  -2  -2   5 2751.62  230.28
  -2  -2   5 3362.76  234.98
  -2  -2   5 2729.83  237.78
   1   2  -5 1404.96  117.89
   1   2  -5 1494.65  117.89
   1   2  -5 1344.67  121.09
   1   2  -5 1594.94  118.09
   1   2  -5 1674.93  122.49
  -1  -2   5 1456.05  118.69
  -1  -2   5 1519.35  119.39
  -1  -2   5 1566.74  121.39
   0   2  -5  963.70   82.19
   0   2  -5 1018.10   81.69
   0   2  -5 1017.00   83.69
   0   2  -5  946.21   80.89
   0  -2   5 1005.80   81.99
   0  -2   5 1041.00   81.99
   0  -2   5 1019.30   82.59
  -1   2  -5   96.89   19.20
  -1   2  -5   77.19   15.80
  -1   2  -5   62.79   18.60
  -1   2  -5   79.49   17.50
   1  -2   5   80.79   18.50
   1  -2   5   98.49   19.90
   1  -2   5  103.79   17.50
   1  -2   5   95.89   16.30
  -2   2  -5  627.44   66.29
  -2   2  -5  610.44   56.99
  -2   2  -5  608.04   53.89
   2  -2   5  518.55   55.69
   2  -2   5  545.55   52.69
   2  -2   5  652.43   60.49
   2  -2   5  673.73   67.39
   2  -2   5  672.23   63.29
  -3   2  -5  239.88   32.60
  -3   2  -5  141.69   54.09
  -3   2  -5  174.18   34.30
   3  -2   5  165.88   28.50
   3  -2   5  105.89   58.79
   3  -2   5  189.38   36.60
   3  -2   5  148.59   23.80
   3  -2   5  167.78   22.40
  -4   2  -5  406.86   69.69
  -4   2  -5  362.06   91.09
   4  -2   5  429.36   48.50
   4  -2   5  243.88  103.09
   4  -2   5  477.05   65.89
  -5   2  -5  112.49  122.39
   5  -2   5   45.20   57.99
   5  -2   5   47.50   28.70
   5  -2   5   60.19   53.49
   6   1  -5  195.78   64.79
  -6  -1   5  180.58   58.69
  -6  -1   5  172.68  136.29
   5   1  -5   48.50   36.00
   5   1  -5   30.00   41.10
  -5  -1   5   48.50   40.90
  -5  -1   5  367.16  109.59
   4   1  -5  538.35   56.99
   4   1  -5  413.96   60.69
  -4  -1   5  402.56   62.99
  -4  -1   5  379.66   63.59
  -4  -1   5  531.85   90.19
   3   1  -5  104.29   48.40
   3   1  -5   26.90   17.20
   3   1  -5   23.30   23.60
   3   1  -5   16.70   17.30
  -3  -1   5   49.70   27.70
  -3  -1   5   23.10   21.10
  -3  -1   5   -1.40   20.50
   2   1  -5 2994.60  228.28
   2   1  -5 2797.42  216.98
   2   1  -5 2713.23  217.18
  -2  -1   5 2830.22  222.98
  -2  -1   5 2928.21  218.88
  -2  -1   5 2746.63  217.58
   1   1  -5  492.25   51.19
   1   1  -5  632.94   52.29
   1   1  -5  521.85   46.00
   1   1  -5  530.45   47.00
   1   1  -5  571.44   47.20
  -1  -1   5  490.05   50.79
  -1  -1   5  498.95   47.20
  -1  -1   5  597.64   51.39
   0   1  -5  166.68   23.90
   0   1  -5  166.68   24.70
   0   1  -5  191.38   27.10
   0   1  -5  188.68   23.00
   0  -1   5  190.08   26.10
   0  -1   5  186.48   23.30
   0  -1   5  184.68   24.70
  -1   1  -5  213.58   26.70
  -1   1  -5  182.38   27.70
  -1   1  -5  195.98   26.00
  -1   1  -5  202.88   28.40
   1  -1   5  242.68   30.10
   1  -1   5  229.88   26.50
   1  -1   5  222.18   27.10
   1  -1   5  200.88   27.70
   1  -1   5  212.38   25.20
  -2   1  -5 2641.54  204.68
  -2   1  -5 2640.04  205.78
  -2   1  -5 2559.84  208.58
   2  -1   5 2635.04  206.78
   2  -1   5 2757.72  205.38
   2  -1   5 2457.75  204.68
   2  -1   5 2747.12  203.98
   2  -1   5 2667.43  202.48
   2  -1   5 2625.14  209.98
  -3   1  -5   83.49   26.00
  -3   1  -5   41.80   29.90
  -3   1  -5    7.50   48.80
   3  -1   5   90.39   19.90
   3  -1   5   80.49   36.80
   3  -1   5   42.80   28.80
   3  -1   5   58.29   39.40
   3  -1   5   87.09   17.80
   3  -1   5  107.29   54.79
  -4   1  -5  719.93   78.99
  -4   1  -5  424.06   97.99
   4  -1   5  490.55   54.99
   4  -1   5  454.45   60.49
   4  -1   5  582.74   53.49
   4  -1   5  576.34   80.69
  -5   1  -5  -86.09  127.69
   5  -1   5  -50.99   27.90
   5  -1   5  -70.09   56.99
   5  -1   5   40.60   53.39
   6   0  -5  143.89   59.59
   6   0  -5  140.99   47.80
  -6   0   5   72.09   47.40
  -6   0   5  268.87  141.59
   5   0  -5  246.58   48.00
   5   0  -5  313.27   50.69
  -5   0   5  265.07  108.29
  -5   0   5  223.58   45.00
   4   0  -5  156.48   31.30
   4   0  -5  216.38   34.50
   4   0  -5   80.39   98.99
   4   0  -5  209.68   36.90
  -4   0   5  174.88   33.50
  -4   0   5  133.29   36.90
  -4   0   5  140.69   69.59
   3   0  -5   75.29   17.30
   3   0  -5  118.49   21.10
   3   0  -5  216.48   59.09
   3   0  -5  115.29   16.90
   3   0  -5   92.19   25.10
  -3   0   5  128.99   46.60
  -3   0   5   88.69   22.70
  -3   0   5  146.79   28.10
  -3   0   5   99.49   23.50
   2   0  -5 3707.63  278.57
   2   0  -5 3795.22  277.27
   2   0  -5 3144.79  285.87
   2   0  -5 3726.53  275.97
  -2   0   5 3662.13  279.57
  -2   0   5 3641.34  277.37
  -2   0   5 3875.11  285.17
   1   0  -5  769.32   63.09
   1   0  -5  868.71   67.39
   1   0  -5  817.32   63.29
   1   0  -5  739.43   68.89
   1   0  -5  775.82   64.49
  -1   0   5  799.92   62.29
  -1   0   5  693.33   68.99
  -1   0   5  745.43   65.39
  -1   0   5  766.72   65.79
   0   0  -5  590.84   48.70
   0   0  -5  539.65   48.50
   0   0  -5  578.64   49.50
   0   0  -5  583.84   50.99
   0   0  -5  536.45   49.10
   0   0   5  527.65   50.29
   0   0   5  629.64   51.39
   0   0   5  556.64   49.60
   0   0   5  606.24   47.70
  -1   0  -5  439.36   44.80
  -1   0  -5  521.05   46.40
  -1   0  -5  512.85   46.50
  -1   0  -5  538.35   48.00
   1   0   5  488.45   44.70
   1   0   5  547.75   53.89
   1   0   5  469.25   45.10
   1   0   5  488.75   48.60
   1   0   5  492.55   46.40
  -2   0  -5 2699.23  207.18
  -2   0  -5 2649.14  206.38
   2   0   5 2523.75  208.38
   2   0   5 2670.73  206.88
   2   0   5 2760.52  211.78
   2   0   5 2935.31  214.58
   2   0   5 2780.42  207.88
   2   0   5 2537.35  207.38
   2   0   5 2411.96  204.88
  -3   0  -5   79.19   26.90
  -3   0  -5  172.18   61.19
  -3   0  -5   52.89   30.60
   3   0   5   57.39   28.30
   3   0   5   69.49   42.20
   3   0   5  114.59   22.70
   3   0   5   65.39   58.09
   3   0   5   20.60   41.90
   3   0   5   83.99   22.90
  -4   0  -5  185.78   96.39
  -4   0  -5  139.39   33.10
   4   0   5   58.69   26.50
   4   0   5  117.59   29.60
   4   0   5  121.39   45.60
   4   0   5   99.09   40.80
  -5   0  -5  -49.70  143.09
   5   0   5  -25.40   31.50
   5   0   5  -41.20   55.49
   5   0   5   67.79   31.80
   5   0   5   -8.70   70.19
   6  -1  -5   47.10   50.19
   6  -1  -5  104.89   46.10
  -6   1   5   65.79   46.40
  -6   1   5  -72.09  132.99
   5  -1  -5  390.96   69.29
   5  -1  -5  356.86   57.49
   5  -1  -5  368.76   60.99
  -5   1   5  341.77   57.79
   4  -1  -5  285.57   46.70
   4  -1  -5  302.67   50.29
   4  -1  -5  293.67   32.00
   4  -1  -5  210.78   43.60
   4  -1  -5  255.47   39.00
  -4   1   5  260.77   70.69
  -4   1   5  281.47   47.50
   3  -1  -5  311.97   31.40
   3  -1  -5  259.27   39.80
   3  -1  -5  369.86   68.89
   3  -1  -5  356.36   35.70
   3  -1  -5  267.77   41.70
  -3   1   5  332.77   40.80
  -3   1   5  241.78   39.60
  -3   1   5  415.96   41.90
   2  -1  -5  665.93   57.19
   2  -1  -5  738.33   75.39
   2  -1  -5  704.63   59.89
  -2   1   5  730.33   57.89
  -2   1   5  690.83   71.99
  -2   1   5  605.44   59.89
   1  -1  -5  904.51   81.39
   1  -1  -5  896.11   73.69
   1  -1  -5  926.01   75.39
   1  -1  -5  899.41   69.79
   1  -1  -5  986.30   73.29
  -1   1   5  970.10   75.09
  -1   1   5  766.22   81.39
  -1   1   5  879.81   69.49
  -1   1   5  857.41   74.29
   0  -1  -5  457.35   39.70
   0  -1  -5  426.06   44.00
   0  -1  -5  397.06   41.70
   0  -1  -5  443.96   39.50
   0  -1  -5  397.06   36.80
   0   1   5  411.76   52.09
   0   1   5  418.36   41.10
   0   1   5  407.56   40.20
   0   1   5  456.95   36.10
  -1  -1  -5 2127.59  160.98
  -1  -1  -5 2042.80  160.68
  -1  -1  -5 1862.21  159.28
   1   1   5 2123.99  160.18
   1   1   5 2080.49  167.08
   1   1   5 2142.69  161.38
   1   1   5 1974.80  164.78
   1   1   5 2094.49  163.08
   1   1   5 2105.79  159.68
  -2  -1  -5  218.18   31.60
   2   1   5  107.19   22.30
   2   1   5  117.89   24.50
   2   1   5  137.29   27.80
  -3  -1  -5  162.78   30.90
   3   1   5  197.28   29.00
   3   1   5  173.28   31.30
   3   1   5  233.78   83.29
   3   1   5   77.99   36.70
   3   1   5   79.29   56.09
   3   1   5  164.58   34.80
   3   1   5   99.89   45.80
   3   1   5  216.68   38.90
  -4  -1  -5  -25.20   31.50
   4   1   5   12.70   95.69
   4   1   5  -10.30   47.80
   4   1   5  -18.10   26.00
   4   1   5    9.80   44.20
   5   1   5  191.18   39.90
   5   1   5  283.27   68.09
   5   1   5  180.38   48.00
   5   1   5  102.29   73.29
   5   1   5  -84.49  140.09
   6  -2  -5   52.39   46.80
   6  -2  -5   -4.30   40.00
  -6   2   5  -40.90  142.19
  -6   2   5    7.80   41.80
   5  -2  -5  263.27   40.20
   5  -2  -5  380.86   55.19
   5  -2  -5  381.96   54.49
  -5   2   5  304.17   52.69
  -5   2   5  560.44  110.99
   4  -2  -5   69.59   21.80
   4  -2  -5  166.88   36.20
   4  -2  -5  100.99   19.50
   4  -2  -5   80.59   30.00
   4  -2  -5  111.39   25.30
   4  -2  -5  308.97   95.89
  -4   2   5   74.79   24.20
   3  -2  -5 1085.69   86.79
   3  -2  -5 1224.88   93.59
   3  -2  -5 1160.18   86.79
   3  -2  -5  954.90  110.29
   3  -2  -5  938.51   88.79
  -3   2   5 1025.20   91.79
  -3   2   5 1048.40   91.29
   2  -2  -5   38.00   11.30
   2  -2  -5   57.99   13.50
   2  -2  -5   72.09   42.30
   2  -2  -5   56.99   15.70
   2  -2  -5   60.39   15.70
   2  -2  -5   47.10   12.60
  -2   2   5   31.10   13.60
  -2   2   5   43.30   15.30
  -2   2   5   82.89   33.30
   1  -2  -5 2983.10  224.38
   1  -2  -5 3037.70  232.18
   1  -2  -5 2826.32  223.08
   1  -2  -5 2963.60  222.78
  -1   2   5 2837.22  229.98
  -1   2   5 2955.60  223.08
  -1   2   5 2767.12  223.48
   0  -2  -5  126.29   18.80
   0  -2  -5  149.99   23.20
   0  -2  -5  107.19   20.30
   0  -2  -5  139.99   31.20
   0   2   5  119.39   20.20
   0   2   5  133.89   35.50
   0   2   5  112.49   19.60
   0   2   5   90.19   15.10
   0   2   5  155.38   18.40
  -1  -2  -5 2755.12  203.48
  -1  -2  -5 2564.24  203.08
   1   2   5 2760.92  207.58
   1   2   5 2417.46  201.88
   1   2   5 2704.83  202.58
   1   2   5 2620.44  205.28
   1   2   5 2532.15  211.68
   1   2   5 2670.63  210.38
   1   2   5 2640.64  202.18
  -2  -2  -5   22.20   20.40
   2   2   5   -8.40   17.30
   2   2   5    4.30   18.10
   2   2   5   -0.90   23.90
   2   2   5   23.00   23.30
   2   2   5   19.80   22.40
   2   2   5   14.10   47.40
   2   2   5   20.60   21.20
   2   2   5   30.10   44.70
  -3  -2  -5  218.48   36.00
   3   2   5  222.38   39.00
   3   2   5  240.58   37.80
   3   2   5  236.98   43.70
  -4  -2  -5   48.90   38.60
   4   2   5 -170.88  112.39
   4   2   5   40.10   49.00
   4   2   5   74.79   38.30
   4   2   5   70.69   58.09
   5   2   5  163.98   64.69
   5   2   5   70.69   53.59
   5   2   5   93.39   83.89
   6  -3  -5   -8.50   39.70
   6  -3  -5  109.09   48.10
  -6   3   5   25.20  132.49
  -6   3   5   18.80   37.90
   5  -3  -5  216.28   32.50
   5  -3  -5  243.28   32.90
   5  -3  -5  355.76   51.29
   5  -3  -5  268.57   41.60
  -5   3   5  400.16  106.29
  -5   3   5  203.38   39.30
   4  -3  -5  151.68   25.80
   4  -3  -5  170.48   35.40
   4  -3  -5  172.98   25.80
   4  -3  -5  182.68   36.80
   4  -3  -5  202.48   29.40
  -4   3   5  110.29   26.00
  -4   3   5  144.59   71.19
   3  -3  -5 1210.78  125.79
   3  -3  -5 1290.97  103.79
   3  -3  -5 1094.59   95.59
   3  -3  -5 1356.26   97.59
   3  -3  -5 1298.87   98.39
   3  -3  -5  984.60   97.69
  -3   3   5 1184.88  100.69
  -3   3   5 1012.40  101.79
  -3   3   5 1456.15  125.39
   2  -3  -5  328.47   63.59
  -2   3   5  350.26   57.09
   1  -3  -5 2629.14  204.58
   1  -3  -5 2547.84  204.08
   1  -3  -5 2790.42  216.38
   1  -3  -5 2673.33  203.38
  -1   3   5 2623.34  203.48
  -1   3   5 2612.14  205.18
  -1   3   5 2612.54  215.38
   0  -3  -5  982.00   96.89
   0  -3  -5 1066.69   86.29
   0  -3  -5 1086.69   85.19
   0   3   5  976.30   98.09
   0   3   5 1009.10   87.69
   0   3   5 1054.09   89.39
   0   3   5 1047.30   85.19
  -1  -3  -5  478.85   48.70
  -1  -3  -5  554.74   52.79
   1   3   5  445.96   45.20
   1   3   5  483.05   51.49
   1   3   5  389.76   68.59
   1   3   5  511.65   58.79
   1   3   5  485.05   48.40
   1   3   5  495.35   45.80
   1   3   5  553.94   71.19
  -2  -3  -5   94.89   23.70
   2   3   5   79.59   26.90
   2   3   5   81.59   32.10
   2   3   5   29.70   34.50
   2   3   5   69.99   24.10
   2   3   5   97.29   25.50
   2   3   5   59.99   19.60
   2   3   5   48.30   56.59
   2   3   5   73.69   69.19
  -3  -3  -5  229.08   37.10
   3   3   5  151.08   37.90
   3   3   5  425.36  102.99
   3   3   5  172.58   39.70
   3   3   5  225.58   44.40
   3   3   5  180.18   39.40
  -4  -3  -5  173.58   49.60
   4   3   5  140.79   57.69
   4   3   5  126.79  128.29
   4   3   5  172.28   67.49
   4   3   5  168.18   50.19
   6  -4  -5  109.39   40.00
   6  -4  -5  177.38   41.40
   6  -4  -5  177.58   54.19
  -6   4   5   97.69   39.90
  -6   4   5  277.87  136.59
   5  -4  -5   55.39   21.60
   5  -4  -5   51.69   23.50
   5  -4  -5    8.20   24.10
   5  -4  -5   65.09   37.60
   5  -4  -5    7.70   48.80
  -5   4   5   99.09  107.69
  -5   4   5    8.70   24.10
   4  -4  -5  755.62   69.19
   4  -4  -5  824.42   70.89
   4  -4  -5  781.12   84.49
   4  -4  -5  677.03   67.59
   4  -4  -5  691.63   68.59
  -4   4   5  696.63   70.39
  -4   4   5  984.30  125.09
   3  -4  -5  608.74   47.70
   3  -4  -5  451.25   51.29
   3  -4  -5  477.15   50.59
   3  -4  -5  552.64   55.79
   3  -4  -5  492.55   47.90
  -3   4   5  364.46   57.69
  -3   4   5  433.06   52.19
  -3   4   5  679.53   86.29
   2  -4  -5  340.17   37.60
   2  -4  -5  335.87   67.39
   2  -4  -5  202.08   37.90
  -2   4   5  274.87   37.80
  -2   4   5  317.37   60.29
   1  -4  -5  127.49   43.80
   1  -4  -5   92.09   19.70
   1  -4  -5   75.69   20.20
  -1   4   5  178.78   47.00
  -1   4   5   96.59   23.30
  -1   4   5   38.60   18.40
  -1   4   5   52.79   18.10
   0  -4  -5  415.46   68.09
   0  -4  -5  512.95   48.90
   0  -4  -5  526.65   49.50
   0   4   5  447.26   60.59
   0   4   5  513.25   74.59
   0   4   5  471.75   42.10
   0   4   5  429.36   48.00
   0   4   5  481.75   51.09
  -1  -4  -5  240.48   34.60
   1   4   5  241.78   39.10
   1   4   5  224.48   32.60
   1   4   5  307.37   67.49
   1   4   5  234.18   37.60
   1   4   5  161.58   56.79
  -2  -4  -5   -0.10   21.90
   2   4   5   27.00   25.10
   2   4   5  116.99   74.39
   2   4   5   35.60   26.20
   2   4   5   20.90   33.70
  -3  -4  -5  218.88   44.40
   3   4   5  243.08   49.70
   3   4   5  263.87  119.29
   3   4   5  249.68   51.09
  -4  -4  -5  239.38   51.79
   4   4   5  222.88   59.79
   4   4   5 -188.58  154.28
   4   4   5  110.79   60.59
   6  -5  -5  425.86   61.29
   6  -5  -5  469.75   69.59
   6  -5  -5  309.77   55.09
  -6   5   5  275.87  165.98
   5  -5  -5  -49.99   38.40
   5  -5  -5   46.40   41.20
   5  -5  -5   36.70   23.50
   5  -5  -5   44.80   28.10
   5  -5  -5    1.30   27.00
  -5   5   5 -116.59  111.89
  -5   5   5   25.00   27.00
   4  -5  -5 1012.30   97.19
   4  -5  -5  776.72   79.59
   4  -5  -5  909.81   80.69
   4  -5  -5  867.61   77.99
   4  -5  -5  923.61   79.99
  -4   5   5 1191.78  143.59
  -4   5   5  726.23   81.79
   3  -5  -5   52.09   23.60
   3  -5  -5    9.40   19.90
   3  -5  -5   23.50   21.60
   3  -5  -5   59.39   20.20
   3  -5  -5   76.59   77.19
   3  -5  -5   12.10   18.70
  -3   5   5    6.60   56.69
  -3   5   5   25.80   26.60
  -3   5   5   -1.70   20.90
   2  -5  -5  185.08   30.70
   2  -5  -5  170.28   57.99
  -2   5   5  255.27   64.39
  -2   5   5  176.48   31.70
  -2   5   5  135.19   27.20
   1  -5  -5  114.09   24.00
   1  -5  -5  171.18   51.19
  -1   5   5  161.18   55.99
  -1   5   5  113.29   32.40
  -1   5   5  119.99   26.10
   0  -5  -5  686.63   93.89
   0  -5  -5  773.32   67.49
   0   5   5  682.73   69.59
   0   5   5  641.84   60.59
   0   5   5  762.22   60.69
   0   5   5  645.14  100.59
  -1  -5  -5  156.18   29.00
   1   5   5  158.48   28.90
   1   5   5   93.99   79.29
   1   5   5  121.19   27.60
   1   5   5  127.69   34.40
  -2  -5  -5  230.98   38.40
   2   5   5  426.76  111.09
   2   5   5  209.08   50.99
   2   5   5  202.68   43.50
   2   5   5  262.87   43.30
  -3  -5  -5  124.39   42.20
   3   5   5   63.39   45.20
   3   5   5  180.68  133.99
   3   5   5   60.69   53.19
   6  -6  -5  443.76   57.69
   6  -6  -5  438.46   71.19
   6  -6  -5  606.34  100.39
  -6   6   5  178.18  177.38
   5  -6  -5   88.29   29.40
   5  -6  -5  119.99   46.50
   5  -6  -5   98.39   33.20
   5  -6  -5   29.40   45.20
  -5   6   5   92.99   30.20
  -5   6   5  103.09  142.59
   4  -6  -5  516.25   60.29
   4  -6  -5  664.93   64.99
   4  -6  -5  702.23   64.29
   4  -6  -5  746.53   86.99
  -4   6   5  506.65   75.29
  -4   6   5  539.85   66.49
   3  -6  -5    6.10   20.40
   3  -6  -5   -2.70   20.60
   3  -6  -5   15.00   23.90
  -3   6   5   35.70   29.20
  -3   6   5  -26.00   82.59
  -3   6   5   10.80   32.10
  -3   6   5   19.40   26.00
   2  -6  -5  159.58   32.80
  -2   6   5  301.47   69.29
  -2   6   5  178.68   33.50
  -2   6   5  175.58   41.70
   1  -6  -5   11.20   21.60
  -1   6   5   10.00   23.90
  -1   6   5   32.30   65.79
   0  -6  -5  743.83   69.89
   0   6   5  723.93   64.69
   0   6   5  826.72  124.79
   0   6   5  673.83   62.39
   0   6   5  660.43   78.29
  -1  -6  -5   48.50   28.00
   1   6   5  -15.90   97.89
   1   6   5   61.59   31.40
   1   6   5   43.60   30.10
   1   6   5   47.80   34.00
  -2  -6  -5  600.04   69.39
   2   6   5  570.84   76.89
   2   6   5  532.65  139.79
   2   6   5  489.15   84.19
  -3  -6  -5   57.89   48.40
   3   6   5   75.09   54.99
   3   6   5  -63.79   66.19
   3   6   5 -180.68  173.78
   6  -7  -5  409.26   75.59
   6  -7  -5  264.17   54.99
   6  -7  -5  195.98   49.99
  -6   7   5 -103.29  180.08
   5  -7  -5  239.28   60.29
   5  -7  -5  215.18   40.30
   5  -7  -5  137.89   40.90
  -5   7   5  135.49   37.90
  -5   7   5  -31.20  160.68
   4  -7  -5   94.69   44.40
   4  -7  -5   68.29   30.80
   4  -7  -5  117.89   36.50
  -4   7   5   96.99   34.90
  -4   7   5   59.29   43.20
  -4   7   5  192.18  107.29
   3  -7  -5   33.10   27.70
   3  -7  -5    5.50   25.70
  -3   7   5  194.68   96.39
  -3   7   5   39.80   31.70
  -3   7   5  -11.30   38.60
  -3   7   5    4.50   23.00
   2  -7  -5  456.45   57.79
  -2   7   5  416.56   63.69
  -2   7   5  501.05  106.29
   1  -7  -5  162.18   36.00
  -1   7   5  176.28   39.30
  -1   7   5  214.38   99.79
   0  -7  -5  542.25   60.79
   0   7   5  444.36   52.59
   0   7   5  777.72  138.19
   0   7   5  448.76   71.99
  -1  -7  -5   73.99   34.90
   1   7   5   33.30   32.90
   1   7   5  156.88  143.19
   1   7   5  132.69   45.20
  -2  -7  -5  253.17   54.89
   2   7   5  328.27   62.89
   2   7   5  547.25  179.98
   2   7   5  204.38   57.99
   6  -8  -5   40.30   73.69
  -6   8   5 -140.19  259.17
   5  -8  -5  181.38   62.69
   5  -8  -5  241.68   50.29
  -5   8   5  164.68   43.60
  -5   8   5  443.36  167.78
   4  -8  -5   73.39   42.30
   4  -8  -5    9.20   30.60
  -4   8   5  146.99  148.69
  -4   8   5   38.80   34.30
  -4   8   5  -15.80   37.40
   3  -8  -5   87.39   33.20
   3  -8  -5   97.19   34.20
  -3   8   5  122.89   43.80
  -3   8   5  102.39   57.69
  -3   8   5   27.30  119.39
   2  -8  -5  174.68   38.30
  -2   8   5  146.39   44.50
  -2   8   5  172.58  106.99
   1  -8  -5  514.35   65.29
  -1   8   5  873.41  170.88
  -1   8   5  440.66   75.89
   0  -8  -5   57.49   36.90
   0   8   5   57.39  138.59
   0   8   5   46.90   29.60
   0   8   5   55.79   47.90
  -1  -8  -5  180.08   51.79
   1   8   5  107.29   61.29
   1   8   5  305.57  160.38
   5  -9  -5  165.78   58.09
   5  -9  -5  147.39   63.09
  -5   9   5 -166.58  184.08
   4  -9  -5   46.20   46.10
  -4   9   5  108.69  161.08
  -4   9   5   51.79   51.39
   3  -9  -5  283.67   57.49
  -3   9   5  357.26  152.38
  -3   9   5  311.57   57.09
   2  -9  -5   29.70   37.40
  -2   9   5   84.39  136.99
  -2   9   5  -13.00   43.40
   1  -9  -5  620.74   85.09
  -1   9   5  405.36   68.99
   0  -9  -5  -25.90   50.49
   0   9   5  -31.60  148.79
   0   9   5   65.29   59.59
   4 -10  -5  -83.49   42.70
   4 -10  -5  -28.70   64.29
  -4  10   5   24.90   62.69
  -4  10   5  264.37  205.28
   3 -10  -5  159.98   58.19
  -3  10   5  281.17   63.99
  -3  10   5  265.07  184.48
   2 -10  -5   11.20   52.49
  -2  10   5 -203.88  172.58
  -2  10   5   66.69   60.19
   1 -10  -5  256.77   68.19
  -1  10   5   83.59   55.69
  -1  10   5  227.18  196.78
   0  10  -6  144.99   62.09
   0  10  -6   -9.60  133.89
   0 -10   6 -103.99   66.19
   0 -10   6  -53.09   55.49
  -1  10  -6   58.69  112.59
  -1  10  -6  293.87   67.39
   1 -10   6  156.48   66.69
   1 -10   6  210.48   70.29
  -2  10  -6  126.89  121.79
  -2  10  -6  123.69   67.59
   2 -10   6  -25.70   80.09
   2 -10   6  -42.40   57.89
  -3  10  -6  101.99   80.79
   3 -10   6   96.49   58.29
   3 -10   6  158.78   90.09
   2   9  -6  294.97   80.39
   2   9  -6  237.08  153.78
  -2  -9   6    9.80   90.59
   1   9  -6  -68.59   61.19
   1   9  -6  -72.29  121.29
  -1  -9   6   65.29   51.79
  -1  -9   6  153.38   73.49
   0   9  -6  351.66  112.79
   0   9  -6  175.78   66.39
   0  -9   6  147.49   47.80
   0  -9   6  175.88   60.09
  -1   9  -6  179.98   52.59
  -1   9  -6  -74.09   86.29
   1  -9   6  -10.00   44.70
   1  -9   6   55.59   42.00
  -2   9  -6  135.79   93.99
  -2   9  -6  174.78   64.89
   2  -9   6  123.79   61.99
   2  -9   6  198.08   49.90
   2  -9   6  113.09   43.20
  -3   9  -6  104.69  117.89
   3  -9   6  176.98   59.99
   3  -9   6  141.99   71.99
  -4   9  -6   53.49   84.69
   4  -9   6   18.50   50.19
   4  -9   6   -9.40   81.89
   3   8  -6  -40.20  157.08
   3   8  -6  194.28   95.29
   2   8  -6  333.87  125.49
  -2  -8   6  204.68   47.10
  -2  -8   6  240.28   78.29
   1   8  -6 -153.88   99.29
   1   8  -6  -71.59   51.79
  -1  -8   6  105.99   56.39
  -1  -8   6   56.89   37.00
   0   8  -6  121.59   46.90
   0   8  -6  132.29   68.99
   0   8  -6  200.78   78.89
   0  -8   6  269.37   59.19
   0  -8   6  216.08   45.50
  -1   8  -6   81.09   47.30
  -1   8  -6  -22.90   62.79
   1  -8   6  158.48   68.09
   1  -8   6   -5.20   35.80
   1  -8   6   34.70   38.20
  -2   8  -6  237.78   61.79
  -2   8  -6  278.37   80.09
   2  -8   6  173.78   78.29
   2  -8   6  365.36   55.89
   2  -8   6  243.38   46.10
   2  -8   6  298.67   49.70
  -3   8  -6  103.99   89.39
  -3   8  -6   54.09   62.39
   3  -8   6   87.19   59.59
   3  -8   6   99.49   44.20
  -4   8  -6  103.99  127.89
  -4   8  -6  190.18   81.19
   4  -8   6  143.59   72.89
   4  -8   6  156.38   56.69
   3   7  -6  111.19  132.99
   3   7  -6   34.10   67.79
  -3  -7   6  -74.29   71.79
   2   7  -6  351.56   60.69
   2   7  -6  401.96  111.09
  -2  -7   6  218.08   63.39
  -2  -7   6  190.38   45.20
   1   7  -6   87.59   70.19
   1   7  -6   68.49   69.89
   1   7  -6  -46.50   40.40
  -1  -7   6  -37.40   41.10
  -1  -7   6   -2.40   30.00
   0   7  -6  193.98   64.29
   0   7  -6  151.08   58.89
   0   7  -6  218.38   44.40
   0  -7   6  208.98   46.60
   0  -7   6  299.17   43.40
  -1   7  -6   85.19   36.40
  -1   7  -6   53.49   33.50
  -1   7  -6   45.00   53.49
   1  -7   6   52.39   29.20
   1  -7   6    3.90   27.50
   1  -7   6   -1.20   31.30
   1  -7   6   36.70   28.40
   1  -7   6   -9.80   47.40
  -2   7  -6 1224.28  115.39
  -2   7  -6 1043.20  121.99
  -2   7  -6 1176.18  104.89
   2  -7   6  988.80  125.39
   2  -7   6 1201.48  103.69
   2  -7   6 1177.38  108.89
   2  -7   6 1286.07  107.49
  -3   7  -6   78.69   75.79
  -3   7  -6  135.59   52.59
   3  -7   6   40.90   78.79
   3  -7   6  102.89   36.40
   3  -7   6  109.69   52.99
  -4   7  -6  391.36  110.09
  -4   7  -6  394.66   79.59
   4  -7   6  298.57   53.79
   4  -7   6  303.97   78.09
  -5   7  -6    0.90   86.49
   5  -7   6   33.40   51.69
   5  -7   6    4.70   66.89
   4   6  -6  481.75  148.39
   4   6  -6  181.18   78.79
  -4  -6   6   31.10   76.49
   3   6  -6   19.40  100.69
   3   6  -6  100.79   58.19
  -3  -6   6   56.29   62.49
   2   6  -6  496.45   76.89
   2   6  -6  681.23  103.29
   1   6  -6   68.19   36.50
   1   6  -6   67.79   52.39
   1   6  -6  136.49   59.79
  -1  -6   6   51.29   37.30
  -1  -6   6   61.89   29.60
   0   6  -6  612.64   68.69
   0   6  -6  496.55   78.59
   0   6  -6  523.05   67.59
   0   6  -6  499.05   64.89
   0  -6   6  490.55   61.39
   0  -6   6  640.74   63.19
   0  -6   6  572.34   69.39
  -1   6  -6  134.99   28.50
  -1   6  -6  133.99   46.00
  -1   6  -6  138.79   37.70
   1  -6   6  128.49   30.80
   1  -6   6  113.99   29.70
   1  -6   6   87.19   27.20
   1  -6   6  184.68   35.50
   1  -6   6  120.79   42.70
  -2   6  -6  937.31  103.59
  -2   6  -6  891.11   95.99
  -2   6  -6 1007.90   87.59
   2  -6   6  896.01   84.99
   2  -6   6  991.90   94.49
   2  -6   6  907.91  103.79
   2  -6   6 1010.20   88.89
  -3   6  -6  -34.90   42.10
  -3   6  -6   80.09   64.29
   3  -6   6   58.59   62.19
   3  -6   6    7.90   39.70
   3  -6   6   26.20   26.30
  -4   6  -6  262.77   70.19
  -4   6  -6  189.28   93.29
   4  -6   6  161.38   38.80
   4  -6   6  171.88   57.99
  -5   6  -6  224.68  139.59
  -5   6  -6   59.89   80.29
   5  -6   6  -94.39   64.69
   5  -6   6   27.20   40.50
   4   5  -6  -20.10   59.39
   4   5  -6   12.10  113.19
  -4  -5   6    2.80   59.19
   3   5  -6  387.36   66.89
  -3  -5   6  303.67   65.89
   2   5  -6   81.29   56.79
   2   5  -6   53.49   60.29
   2   5  -6   71.99   38.60
  -2  -5   6   49.10   26.60
  -2  -5   6  -32.40   38.80
   1   5  -6  137.59   40.30
   1   5  -6  232.98   38.10
   1   5  -6  301.57   42.50
   1   5  -6  355.46   57.69
   1   5  -6  231.58   49.10
  -1  -5   6  164.68   31.40
  -1  -5   6  236.98   39.00
   0   5  -6  217.68   47.00
   0   5  -6  237.48   35.40
   0   5  -6  192.98   38.90
   0   5  -6  256.47   42.50
   0   5  -6  207.68   29.60
   0  -5   6  148.29   31.80
   0  -5   6  219.28   34.60
   0  -5   6  258.77   37.30
  -1   5  -6 1290.67  108.29
  -1   5  -6 1082.09  112.69
  -1   5  -6 1375.46  105.89
   1  -5   6 1283.07  106.19
   1  -5   6 1373.36  106.49
   1  -5   6 1281.67  105.89
   1  -5   6 1175.28  105.89
   1  -5   6 1132.19  108.19
  -2   5  -6  371.76   45.80
  -2   5  -6  318.17   50.09
  -2   5  -6  289.67   63.29
   2  -5   6  245.58   37.80
   2  -5   6  256.77   36.80
   2  -5   6  325.77   58.29
   2  -5   6  306.77   48.30
   2  -5   6  314.97   55.49
  -3   5  -6  421.46   79.99
  -3   5  -6  356.86   58.59
   3  -5   6  446.36   69.99
   3  -5   6  419.66   84.99
   3  -5   6  254.77   44.30
  -4   5  -6   91.89   89.39
  -4   5  -6   42.80   63.39
   4  -5   6   43.10  105.29
   4  -5   6  114.39   52.99
   4  -5   6   67.29   28.90
  -5   5  -6  114.89   67.09
  -5   5  -6  141.79  130.79
   5  -5   6  138.19   42.30
   5  -5   6  150.48   68.99
   5   4  -6  257.27  122.29
   5   4  -6   28.50   48.30
   5   4  -6  193.38   69.49
  -5  -4   6   99.29  123.39
  -5  -4   6   29.60   63.29
   4   4  -6   -8.60   31.30
   4   4  -6   18.70   47.10
  -4  -4   6  -17.10   92.09
  -4  -4   6  -35.80   43.60
  -4  -4   6  -36.80   54.09
   3   4  -6  779.22  102.69
   3   4  -6  901.91   82.49
   3   4  -6  625.34   71.39
  -3  -4   6  707.33   79.99
  -3  -4   6  767.32   96.59
   2   4  -6   31.10   41.50
   2   4  -6  -21.10   26.10
   2   4  -6   -4.20   20.40
   2   4  -6    1.20   49.10
  -2  -4   6    2.10   36.00
  -2  -4   6   13.00   29.20
  -2  -4   6  -11.30   19.30
  -2  -4   6   13.30   24.00
   1   4  -6 2615.64  214.08
   1   4  -6 2533.65  209.38
   1   4  -6 2620.74  215.28
   1   4  -6 2595.34  207.08
   1   4  -6 2804.92  215.68
  -1  -4   6 2893.31  209.08
  -1  -4   6 2514.85  210.88
  -1  -4   6 2997.00  216.58
   0   4  -6  438.86   47.20
   0   4  -6  389.06   54.39
   0   4  -6  379.56   44.40
   0   4  -6  381.96   44.20
   0   4  -6  474.85   49.90
   0  -4   6  468.05   45.10
   0  -4   6  498.35   52.79
   0  -4   6  410.86   48.10
   0  -4   6  402.16   46.70
  -1   4  -6 3053.79  216.48
  -1   4  -6 2343.97  214.48
  -1   4  -6 2851.81  218.28
   1  -4   6 2890.21  215.58
   1  -4   6 2535.45  212.48
   1  -4   6 3057.59  217.68
   1  -4   6 2580.44  216.18
   1  -4   6 2989.60  216.48
  -2   4  -6   44.00   42.80
  -2   4  -6   47.80   26.90
  -2   4  -6   15.80   18.70
   2  -4   6   38.30   19.50
   2  -4   6    9.10   28.40
   2  -4   6   24.50   27.80
   2  -4   6   50.79   32.80
   2  -4   6   38.60   20.60
   2  -4   6   17.70   35.10
  -3   4  -6  317.77   55.79
  -3   4  -6  303.57   67.19
   3  -4   6  331.77   68.39
   3  -4   6  211.88   46.30
  -4   4  -6   76.89   82.59
  -4   4  -6   33.10   47.60
   4  -4   6  205.68   93.09
   4  -4   6    6.10   46.40
   4  -4   6   74.59   26.80
  -5   4  -6  337.07   82.79
  -5   4  -6   83.59  120.59
   5  -4   6  281.57   46.00
   5  -4   6  172.98   69.49
   5   3  -6  158.58   46.60
   5   3  -6   81.99   60.59
  -5  -3   6  150.68   60.69
  -5  -3   6  154.68  129.79
   4   3  -6   73.09   31.00
   4   3  -6   26.00   41.40
  -4  -3   6  113.29   89.49
  -4  -3   6   54.09   45.30
   3   3  -6 1123.19   98.39
   3   3  -6 1013.30   93.39
  -3  -3   6 1244.48  110.39
  -3  -3   6 1080.59  100.69
  -3  -3   6 1089.19  113.39
   2   3  -6   43.00   18.80
   2   3  -6  102.39   42.60
   2   3  -6   25.50   30.60
   2   3  -6   58.39   23.10
  -2  -3   6   71.29   30.20
  -2  -3   6   91.59   33.40
  -2  -3   6   73.59   28.50
  -2  -3   6   59.09   19.60
  -2  -3   6   49.80   23.00
   1   3  -6  983.70   87.99
   1   3  -6  996.30   90.49
   1   3  -6  990.70   82.69
   1   3  -6  922.91   83.89
   1   3  -6  982.90   89.29
  -1  -3   6 1132.09   89.99
  -1  -3   6  935.61   84.79
  -1  -3   6  997.70   85.89
  -1  -3   6 1133.79   84.49
   0   3  -6  133.39   26.50
   0   3  -6   88.79   21.90
   0   3  -6  113.59   20.60
   0   3  -6  117.39   25.40
   0  -3   6  141.19   24.60
   0  -3   6  108.19   20.10
   0  -3   6  136.89   25.30
   0  -3   6  149.79   24.60
  -1   3  -6  801.32   72.99
  -1   3  -6  853.51   73.29
  -1   3  -6  803.72   72.99
  -1   3  -6  850.21   72.59
   1  -3   6  766.52   71.79
   1  -3   6  888.31   73.69
   1  -3   6  805.02   70.99
   1  -3   6  845.42   71.09
  -2   3  -6  -12.40   20.50
  -2   3  -6   17.70   38.70
  -2   3  -6   12.90   19.80
   2  -3   6  -31.30   23.30
   2  -3   6   16.70   27.10
   2  -3   6   28.10   31.60
   2  -3   6  -23.30   14.70
   2  -3   6    6.80   15.00
   2  -3   6   30.70   29.50
  -3   3  -6  407.26   56.09
  -3   3  -6  455.95   74.99
   3  -3   6  267.87   52.69
   3  -3   6  415.26   86.09
  -4   3  -6  155.88   87.59
  -4   3  -6   61.89   48.00
   4  -3   6   93.49   99.89
   4  -3   6  159.88   29.70
   4  -3   6  183.88   47.40
  -5   3  -6  291.17   82.89
  -5   3  -6   91.89  127.89
   5  -3   6  358.16   50.69
   5  -3   6  506.75   85.29
   6   2  -6   14.50   72.29
   6   2  -6  147.79   63.29
  -6  -2   6 -162.08  151.58
  -6  -2   6  109.49   67.09
   5   2  -6  109.99   51.49
   5   2  -6   63.79   41.00
  -5  -2   6    8.40   51.79
  -5  -2   6  142.49  112.69
   4   2  -6  226.58   39.80
   4   2  -6  409.56   61.89
  -4  -2   6  259.37   55.19
   3   2  -6  201.28   34.50
   3   2  -6  151.88   65.89
   3   2  -6  212.08   37.50
   3   2  -6  165.68   48.10
  -3  -2   6  272.27   56.09
  -3  -2   6  174.18   42.60
  -3  -2   6  196.48   35.70
  -3  -2   6  274.87   41.30
  -3  -2   6  277.37   31.50
   2   2  -6  808.42   70.99
   2   2  -6  833.62   71.09
   2   2  -6  815.12   89.69
   2   2  -6  848.52   72.99
  -2  -2   6  875.81   79.79
  -2  -2   6  834.02   75.69
  -2  -2   6  805.32   78.09
  -2  -2   6  865.11   75.09
   1   2  -6  769.82   68.99
   1   2  -6  876.41   74.69
   1   2  -6  816.92   69.39
   1   2  -6  785.22   74.39
   1   2  -6  810.22   69.59
  -1  -2   6  805.22   71.29
  -1  -2   6  836.72   72.69
  -1  -2   6  801.12   70.69
  -1  -2   6  886.91   72.29
   0   2  -6 1259.57   96.99
   0   2  -6 1178.48   94.19
   0   2  -6 1078.19   93.79
   0   2  -6 1056.09   93.99
   0  -2   6 1163.48   95.29
   0  -2   6 1225.58   95.79
   0  -2   6 1142.09   94.39
  -1   2  -6  669.23   58.59
  -1   2  -6  625.04   58.49
  -1   2  -6  591.14   57.89
  -1   2  -6  691.13   58.89
   1  -2   6  673.03   57.69
   1  -2   6  664.83   60.39
   1  -2   6  619.74   58.09
  -2   2  -6  251.27   50.99
  -2   2  -6  297.67   38.40
  -2   2  -6  276.07   37.90
  -2   2  -6  236.88   39.10
   2  -2   6  293.87   34.50
   2  -2   6  300.57   54.29
  -3   2  -6  401.06   49.60
  -3   2  -6  470.25   78.79
   3  -2   6  290.87   39.50
   3  -2   6  282.07   42.40
   3  -2   6  416.76   65.09
   3  -2   6  414.66   82.69
  -4   2  -6  124.69   86.29
  -4   2  -6   99.29   48.70
   4  -2   6  179.68   30.00
   4  -2   6  192.18   31.80
   4  -2   6  233.38   50.79
   4  -2   6   -9.40  101.69
  -5   2  -6  226.18  127.69
   5  -2   6  100.19   35.20
   5  -2   6  152.48   72.79
   6   1  -6  190.38   62.09
   6   1  -6  219.38   65.79
  -6  -1   6  170.28   60.79
  -6  -1   6   40.70  140.19
   5   1  -6   56.79   43.10
   5   1  -6   32.30   40.80
  -5  -1   6  241.18  108.69
  -5  -1   6   82.29   45.80
   4   1  -6  860.41   86.99
  -4  -1   6  968.90   95.39
   3   1  -6  128.59   25.60
   3   1  -6  211.88   33.00
   3   1  -6  134.99   60.89
   3   1  -6  131.59   36.50
   3   1  -6  157.18   24.70
  -3  -1   6  163.58   32.40
  -3  -1   6  249.08   37.00
  -3  -1   6  148.09   29.70
   2   1  -6  799.02   82.99
   2   1  -6  986.70   76.09
   2   1  -6  926.21   77.39
   2   1  -6  950.10   77.89
   2   1  -6  955.10   93.89
  -2  -1   6  945.91   78.59
  -2  -1   6  986.50   82.39
  -2  -1   6  873.11   86.29
  -2  -1   6  960.70   82.09
   1   1  -6   66.29   16.20
   1   1  -6   71.39   22.80
   1   1  -6   94.89   18.30
   1   1  -6   86.19   24.10
   1   1  -6   67.99   16.10
  -1  -1   6   98.59   20.70
  -1  -1   6   61.09   16.80
  -1  -1   6  109.09   25.70
  -1  -1   6  120.89   19.70
   0   1  -6   19.40   12.40
   0   1  -6   29.70   14.80
   0   1  -6   17.30   17.00
   0   1  -6   37.90   15.50
   0  -1   6    9.70   14.30
   0  -1   6    3.50   15.50
   0  -1   6   50.99   15.50
  -1   1  -6  276.97   36.80
  -1   1  -6  252.57   34.30
  -1   1  -6  270.47   32.30
   1  -1   6  315.27   33.40
   1  -1   6  291.47   36.60
   1  -1   6  273.07   32.00
   1  -1   6  305.47   34.50
  -2   1  -6  925.11   79.19
  -2   1  -6  934.51   80.89
   2  -1   6  928.71   79.89
   2  -1   6  962.40   82.39
   2  -1   6  839.12   87.99
   2  -1   6  925.91   76.19
   2  -1   6  821.62   79.19
  -3   1  -6  162.88   30.30
  -3   1  -6   46.10   34.20
  -3   1  -6  123.29   60.09
   3  -1   6  121.79   40.30
   3  -1   6   77.59   57.99
   3  -1   6  102.99   23.70
   3  -1   6  103.59   21.90
  -4   1  -6  366.46  105.49
  -4   1  -6  284.67   61.19
  -4   1  -6  311.47   48.10
   4  -1   6  332.37   43.40
   4  -1   6  333.87   45.80
   4  -1   6  361.06   59.79
   4  -1   6  270.97   41.80
  -5   1  -6   49.40  130.79
   5  -1   6   54.09   64.49
   5  -1   6  -59.49   71.19
   5  -1   6    4.30   32.70
   6   0  -6  280.67   57.59
  -6   0   6  473.95  154.18
  -6   0   6  297.27   65.09
   5   0  -6  207.88   45.20
   5   0  -6  121.69   37.30
  -5   0   6   63.79   37.00
  -5   0   6  163.78  102.49
   4   0  -6  572.04   73.49
   4   0  -6  451.65   63.39
   4   0  -6  649.74   60.19
  -4   0   6  545.35   69.29
  -4   0   6  410.86   75.59
   3   0  -6   -1.00   17.70
   3   0  -6    0.60   17.30
   3   0  -6    7.00   13.70
   3   0  -6   31.60   22.30
   3   0  -6   -6.00   54.39
  -3   0   6  -14.20   21.10
  -3   0   6   35.60   25.90
  -3   0   6    1.70   18.70
  -3   0   6   46.80   45.10
   2   0  -6  902.71   91.79
   2   0  -6  919.51   71.19
   2   0  -6  888.61   72.19
   2   0  -6  834.22   73.99
  -2   0   6  901.81   83.79
  -2   0   6  820.72   76.59
  -2   0   6  873.01   72.59
  -2   0   6  828.62   77.09
   1   0  -6  234.88   30.10
   1   0  -6  232.38   36.60
   1   0  -6  246.18   29.90
   1   0  -6  271.67   29.30
   1   0  -6  210.28   33.30
  -1   0   6  264.67   41.50
  -1   0   6  289.17   34.80
  -1   0   6  256.17   32.00
  -1   0   6  255.17   26.80
   0   0  -6  981.00   80.09
   0   0  -6  872.81   76.59
   0   0  -6  956.10   76.79
   0   0  -6  957.10   78.79
   0   0  -6  979.60   79.19
   0   0   6  902.41   79.19
   0   0   6  908.91   79.09
   0   0   6  997.20   76.69
   0   0   6 1008.90   79.99
  -1   0  -6  379.06   40.40
  -1   0  -6  356.06   42.60
  -1   0  -6  305.47   36.30
   1   0   6  377.66   50.59
   1   0   6  347.37   37.60
   1   0   6  361.96   42.70
  -2   0  -6 2976.80  220.88
  -2   0  -6 2716.53  220.28
   2   0   6 2832.52  221.38
   2   0   6 2975.90  226.48
   2   0   6 2600.94  226.38
   2   0   6 2745.23  220.68
   2   0   6 2980.50  220.08
  -3   0  -6   45.20   23.80
  -3   0  -6   63.29   33.90
   3   0   6   30.50   19.00
   3   0   6   44.10   23.70
   3   0   6   56.49   33.80
   3   0   6   27.60   64.69
   3   0   6   38.70   53.19
  -4   0  -6  457.95   56.09
   4   0   6  375.96   70.99
   4   0   6  306.97   50.39
   4   0   6  320.87  108.99
   4   0   6  316.07   61.89
   5   0   6   60.09   78.69
   5   0   6  -21.90   65.99
   5   0   6  -50.09  137.69
   5   0   6   45.70   39.50
   6  -1  -6  128.09   45.40
   6  -1  -6  153.68   54.99
  -6   1   6  106.79   52.29
  -6   1   6   43.80  144.59
   5  -1  -6  197.98   44.50
   5  -1  -6  144.99   41.20
  -5   1   6  185.48   41.40
  -5   1   6  376.36  107.79
   4  -1  -6  375.76   53.69
   4  -1  -6  345.47   53.59
   4  -1  -6  308.47   35.70
   4  -1  -6  257.37   93.29
   4  -1  -6  275.97   42.30
   4  -1  -6  211.88   42.60
  -4   1   6  415.36   85.39
  -4   1   6  449.36   53.39
   3  -1  -6   51.29   57.89
   3  -1  -6   20.00   20.20
   3  -1  -6   16.90   15.50
   3  -1  -6   10.50   18.00
   3  -1  -6   21.80   14.30
  -3   1   6   31.60   23.50
  -3   1   6   26.00   16.80
  -3   1   6    6.50   21.00
  -3   1   6   53.69   42.00
   2  -1  -6 1431.16  107.19
   2  -1  -6 1356.36  121.99
   2  -1  -6 1447.06  108.59
   2  -1  -6 1449.06  110.89
  -2   1   6 1339.67  119.49
  -2   1   6 1254.37  111.69
  -2   1   6 1227.58  111.19
  -2   1   6 1390.56  107.29
   1  -1  -6  472.85   58.09
   1  -1  -6  542.55   47.50
   1  -1  -6  507.35   49.90
   1  -1  -6  551.24   44.30
   1  -1  -6  528.95   48.60
  -1   1   6  427.56   57.29
  -1   1   6  556.34   49.70
  -1   1   6  537.15   42.90
  -1   1   6  509.55   50.29
   0  -1  -6 1323.07  107.69
   0  -1  -6 1399.46  110.09
   0  -1  -6 1346.97  110.79
   0  -1  -6 1280.57  107.99
   0   1   6 1383.96  104.19
   0   1   6 1361.16  108.59
   0   1   6 1250.67  115.39
   0   1   6 1395.66  108.89
  -1  -1  -6  187.48   32.50
  -1  -1  -6  153.58   28.60
   1   1   6  219.18   44.40
   1   1   6  164.18   27.80
   1   1   6  219.78   44.40
  -2  -1  -6 1174.58   93.59
   2   1   6 1097.29   93.49
   2   1   6 1149.69   94.59
   2   1   6  948.31   93.39
   2   1   6 1010.70   96.99
   2   1   6 1151.38  105.79
   2   1   6 1060.89  110.29
  -3  -1  -6   33.20   26.90
   3   1   6   54.99   23.50
   3   1   6   33.70   64.69
   3   1   6   68.29   37.50
   3   1   6   57.29   90.49
   3   1   6  -22.00   27.60
   3   1   6    8.30   30.60
  -4  -1  -6  150.28   42.50
   4   1   6  117.59   54.89
   4   1   6   59.29   48.40
   4   1   6  233.78  118.29
   4   1   6  159.58   39.20
   5   1   6  131.79   42.20
   5   1   6  138.09   66.89
   5   1   6  -42.80   87.19
   6  -2  -6   74.29   41.80
   6  -2  -6  113.49   49.90
  -6   2   6   26.90   41.30
  -6   2   6  -38.00  139.49
   5  -2  -6  255.87   41.90
   5  -2  -6  221.58   48.20
  -5   2   6  126.59   99.99
  -5   2   6  168.28   38.30
   4  -2  -6   49.60   17.40
   4  -2  -6   48.10   24.90
   4  -2  -6   76.49   33.60
   4  -2  -6   48.70   19.90
   4  -2  -6   96.89   29.50
   4  -2  -6  120.69   98.89
  -4   2   6   60.69   24.30
  -4   2   6  -39.00   71.49
   3  -2  -6  221.88   37.60
   3  -2  -6  248.48   38.10
   3  -2  -6  188.48   64.29
   3  -2  -6  250.47   30.50
   3  -2  -6  288.27   30.30
  -3   2   6  236.08   37.40
  -3   2   6  220.48   40.50
   2  -2  -6  637.04   77.59
   2  -2  -6  615.54   55.59
   2  -2  -6  520.05   55.99
  -2   2   6  553.24   55.59
  -2   2   6  662.43   70.49
   1  -2  -6 2115.29  167.78
   1  -2  -6 1960.30  155.78
   1  -2  -6 2004.90  156.08
   1  -2  -6 1957.00  157.38
  -1   2   6 1954.10  164.68
  -1   2   6 1984.20  156.58
  -1   2   6 1963.70  156.88
   0  -2  -6   47.30   18.90
   0  -2  -6   29.80   15.10
   0  -2  -6   31.40   15.50
   0  -2  -6   34.80   27.50
   0   2   6   37.30   15.10
   0   2   6   44.10   30.60
   0   2   6   52.39   11.70
   0   2   6   21.30   15.80
  -1  -2  -6  400.86   45.20
  -1  -2  -6  445.36   48.60
   1   2   6  377.26   49.60
   1   2   6  508.25   46.20
   1   2   6  447.66   64.19
   1   2   6  425.76   58.59
   1   2   6  377.16   46.90
   1   2   6  494.75   45.40
  -2  -2  -6  378.36   46.90
   2   2   6  284.87   46.90
   2   2   6  330.67   46.30
   2   2   6  362.86   68.49
   2   2   6  405.76   48.40
   2   2   6  377.66   71.59
   2   2   6  385.76   45.50
   2   2   6  386.76   57.29
   2   2   6  266.97   46.50
  -3  -2  -6  488.75   56.29
   3   2   6  626.14  115.39
   3   2   6  422.96   65.79
   3   2   6  341.67   60.79
   3   2   6  351.76   54.39
  -4  -2  -6   34.30   42.50
   4   2   6  149.39  128.79
   4   2   6  -13.50   56.09
   4   2   6   78.99   44.10
   4   2   6  -14.00   65.19
   6  -3  -6  -16.80   48.00
   6  -3  -6   33.30   38.70
  -6   3   6    3.50   38.70
   5  -3  -6  200.58   43.90
   5  -3  -6  164.58   38.80
   5  -3  -6  159.98   28.90
   5  -3  -6  264.07   39.10
  -5   3   6  325.17  105.99
  -5   3   6  207.28   37.20
   4  -3  -6   -3.80   17.50
   4  -3  -6   19.90   19.30
   4  -3  -6  -21.90   21.10
   4  -3  -6   36.00   32.90
   4  -3  -6   -1.90   26.10
  -4   3   6  -35.60   69.59
  -4   3   6  -25.50   22.20
   3  -3  -6 1509.25  121.99
   3  -3  -6 1420.76  126.39
   3  -3  -6 1562.74  129.19
   3  -3  -6 1699.73  126.09
   3  -3  -6 1792.02  123.29
  -3   3   6 1478.55  128.59
  -3   3   6 1661.63  147.59
  -3   3   6 1335.07  128.99
   2  -3  -6   94.59   48.70
   2  -3  -6    1.30   18.10
   2  -3  -6   15.00   13.50
   2  -3  -6   10.30   16.90
  -2   3   6  -21.80   16.60
  -2   3   6   -7.30   15.80
  -2   3   6   42.80   42.00
   1  -3  -6 2732.43  207.08
   1  -3  -6 2545.35  205.78
   1  -3  -6 2663.93  204.78
   1  -3  -6 2671.13  217.18
  -1   3   6 2610.74  216.58
  -1   3   6 2684.93  206.88
  -1   3   6 2601.34  205.28
   0  -3  -6   56.49   33.30
   0  -3  -6   45.10   18.70
   0  -3  -6   56.29   18.40
   0   3   6   51.29   22.30
   0   3   6   75.79   19.00
   0   3   6  117.29   40.80
   0   3   6   37.00   20.20
  -1  -3  -6  677.53   60.79
  -1  -3  -6  767.22   65.49
   1   3   6  673.33   59.09
   1   3   6  649.24   58.69
   1   3   6  674.83   75.69
   1   3   6  726.93   87.69
   1   3   6  628.44   82.39
   1   3   6  629.34   65.19
   1   3   6  513.85   58.49
  -2  -3  -6  113.29   26.50
   2   3   6  107.19   31.30
   2   3   6   59.49   30.00
   2   3   6   93.59   24.40
   2   3   6  104.39   71.29
   2   3   6   97.49   30.40
   2   3   6  117.99   32.40
  -3  -3  -6  382.36   58.39
   3   3   6  531.15  116.49
   3   3   6  350.06   54.39
   3   3   6  321.87   52.49
   3   3   6  441.36   60.89
  -4  -3  -6  153.78   53.99
   4   3   6   58.69   73.79
   4   3   6   91.09   65.09
   4   3   6  -31.20  146.99
   4   3   6   61.59   50.99
   6  -4  -6  -40.20   49.30
   6  -4  -6  -32.00   36.40
  -6   4   6  -38.30   40.10
  -6   4   6  -34.90  137.59
   5  -4  -6  150.38   35.10
   5  -4  -6  138.09   32.10
   5  -4  -6  204.08   30.00
   5  -4  -6  159.98   40.90
   5  -4  -6   80.79   45.30
  -5   4   6  153.68   34.60
  -5   4   6  117.09  114.29
   4  -4  -6   78.09   21.70
   4  -4  -6  107.19   25.80
   4  -4  -6   55.99   21.90
   4  -4  -6   88.49   31.90
  -4   4   6   44.20   23.20
   3  -4  -6 1768.12  139.09
   3  -4  -6 1682.73  130.29
   3  -4  -6 1627.94  137.39
   3  -4  -6 1877.11  136.69
   3  -4  -6 1550.44  167.78
  -3   4   6 1430.36  139.79
  -3   4   6 1894.31  164.78
  -3   4   6 1623.24  138.09
   2  -4  -6  178.48   56.09
   2  -4  -6   72.49   19.10
   2  -4  -6   35.80   23.30
  -2   4   6  153.98   53.79
  -2   4   6   71.99   22.40
  -2   4   6   71.09   21.80
   1  -4  -6  474.15   49.30
   1  -4  -6  546.25   51.59
   1  -4  -6  508.75   76.09
  -1   4   6  455.75   73.79
  -1   4   6  344.67   55.29
  -1   4   6  459.15   51.99
  -1   4   6  515.85   51.89
   0  -4  -6   99.39   42.50
   0  -4  -6   75.49   20.60
   0  -4  -6   77.09   24.60
   0   4   6   48.00   33.20
   0   4   6  113.19   50.69
   0   4   6   48.40   22.00
   0   4   6   91.39   24.70
  -1  -4  -6  546.65   52.59
   1   4   6  441.36   47.90
   1   4   6  420.56   48.00
   1   4   6  443.66   49.40
   1   4   6  540.75   93.49
   1   4   6  542.45   60.69
   1   4   6  480.15   93.19
  -2  -4  -6  197.68   34.10
   2   4   6  142.19   34.40
   2   4   6  149.79   42.50
   2   4   6  160.08   38.80
   2   4   6  212.58  100.89
   2   4   6  187.88   35.10
  -3  -4  -6  454.55   65.19
   3   4   6  322.97   63.59
   3   4   6  499.15   76.19
   3   4   6  322.47   58.19
   3   4   6  558.44  145.59
   6  -5  -6  184.58   37.10
   6  -5  -6   70.49   53.49
   6  -5  -6  154.98   41.40
  -6   5   6   65.49   39.40
  -6   5   6    4.60  158.08
   5  -5  -6   63.29   41.50
   5  -5  -6  126.09   35.70
   5  -5  -6  122.49   29.10
   5  -5  -6   14.20   36.50
   5  -5  -6   85.99   26.70
  -5   5   6  100.69   29.00
  -5   5   6  -35.70  115.89
   4  -5  -6  297.17   46.10
   4  -5  -6  360.56   44.30
   4  -5  -6  312.97   48.70
   4  -5  -6  307.87   40.30
  -4   5   6  303.87   51.99
   3  -5  -6  511.65   50.49
   3  -5  -6  352.76   54.29
   3  -5  -6  466.15   55.39
  -3   5   6  332.47   52.99
  -3   5   6  486.05   54.79
   2  -5  -6   96.39   25.40
   2  -5  -6   90.69   24.70
   2  -5  -6  -16.90   66.69
  -2   5   6  108.89   31.70
  -2   5   6  167.88   31.30
  -2   5   6   94.89   59.59
  -2   5   6  117.59   27.10
   1  -5  -6   75.69   21.40
   1  -5  -6  173.58   29.00
   1  -5  -6   89.59   54.79
  -1   5   6   39.70   24.70
  -1   5   6  126.79   25.20
   0  -5  -6  473.55   50.89
   0   5   6  516.55   91.89
   0   5   6  372.76   52.19
   0   5   6  444.16   59.79
  -1  -5  -6  484.35   55.89
   1   5   6  458.95   57.59
   1   5   6  559.14   65.19
   1   5   6  515.45   54.09
   1   5   6  705.93  122.49
  -2  -5  -6  133.59   36.70
   2   5   6  131.59   39.80
   2   5   6   64.09   40.60
   2   5   6   59.89   55.09
   2   5   6  285.37  116.29
  -3  -5  -6  154.88   47.90
   3   5   6  338.87  155.08
   3   5   6   84.79   54.39
   3   5   6  197.88   62.39
   6  -6  -6  339.17   65.09
   6  -6  -6  224.38   46.70
  -6   6   6  -99.09  173.78
   5  -6  -6  -16.30   28.90
   5  -6  -6   15.50   28.50
   5  -6  -6   22.90   41.80
  -5   6   6   26.50  139.39
  -5   6   6  -29.40   32.80
   4  -6  -6  448.26   49.40
   4  -6  -6  315.27   50.49
   4  -6  -6  349.47   44.20
   4  -6  -6  310.57   54.59
  -4   6   6  286.67   53.69
  -4   6   6  334.07   47.30
   3  -6  -6  239.78   37.90
   3  -6  -6  191.58   36.10
  -3   6   6  152.98   96.59
  -3   6   6  310.57   51.19
   2  -6  -6  310.67   49.50
   2  -6  -6  326.37   44.40
  -2   6   6  289.77   43.60
  -2   6   6  337.47   54.39
  -2   6   6  235.78   78.19
   1  -6  -6  115.29   26.90
  -1   6   6   57.29   30.50
  -1   6   6  166.08   80.59
   0  -6  -6  741.33   68.79
   0   6   6  801.32  129.79
   0   6   6  630.74   73.09
   0   6   6  556.34   56.49
   0   6   6  558.24   56.69
  -1  -6  -6  192.98   36.40
   1   6   6  211.98   35.30
   1   6   6  273.27  119.49
   1   6   6   94.59   38.90
  -2  -6  -6  221.08   42.90
   2   6   6  229.08   50.59
   2   6   6  161.38   51.39
   2   6   6  237.68  158.68
   6  -7  -6  320.07   70.09
   6  -7  -6  318.97   55.99
  -6   7   6   72.99  202.58
   5  -7  -6   23.90   31.00
   5  -7  -6   44.90   36.90
   5  -7  -6    3.30   48.50
  -5   7   6   85.29   33.40
  -5   7   6   16.20  160.38
   4  -7  -6  173.38   43.60
   4  -7  -6  202.18   37.90
  -4   7   6  149.39  115.89
  -4   7   6  178.18   43.60
   3  -7  -6   60.09   28.20
   3  -7  -6   71.89   31.60
  -3   7   6  120.69   39.30
  -3   7   6  179.28  100.39
   2  -7  -6  715.33   73.19
   2  -7  -6  579.34   75.29
  -2   7   6  626.74  134.19
  -2   7   6  656.13   79.09
   1  -7  -6   46.20   29.10
  -1   7   6  198.38   97.49
  -1   7   6   30.30   32.80
   0  -7  -6  662.43   72.89
   0   7   6  674.63  145.99
   0   7   6  536.65   77.69
  -1  -7  -6    0.40   35.60
   1   7   6   59.99  137.69
   1   7   6  -13.70   31.70
   1   7   6  -55.49   48.20
  -2  -7  -6  231.38   52.99
   2   7   6  122.39  168.48
   2   7   6  136.99   62.79
   5  -8  -6  -10.10   53.79
   5  -8  -6   62.89   44.00
  -5   8   6   67.49  174.48
  -5   8   6   24.80   42.80
   4  -8  -6   94.49   38.50
   4  -8  -6  107.19   42.50
  -4   8   6  117.49   46.80
  -4   8   6  330.27  165.78
   3  -8  -6   28.10   31.10
   3  -8  -6   56.19   40.40
  -3   8   6   86.49  132.79
  -3   8   6  142.19   44.00
   2  -8  -6  470.15   66.89
  -2   8   6  469.95   66.19
  -2   8   6  509.75  130.19
   1  -8  -6   88.59   38.80
  -1   8   6  246.48  129.99
  -1   8   6  -10.80   38.20
   0  -8  -6  253.57   51.39
   0   8   6  177.78   50.09
   0   8   6  306.17  155.68
  -1  -8  -6    4.10   56.69
   1   8   6   74.89   54.89
   1   8   6   80.69  170.58
   5  -9  -6  147.19   55.19
   5  -9  -6   85.99   57.69
  -5   9   6  223.38  218.38
   4  -9  -6   42.50   46.30
   4  -9  -6   25.40   45.60
  -4   9   6   94.79   53.59
  -4   9   6  160.58  168.28
   3  -9  -6  258.07   56.09
   3  -9  -6  175.78   53.89
  -3   9   6  278.07   59.89
  -3   9   6  258.67  169.18
   2  -9  -6   65.29   48.50
  -2   9   6  244.28  157.68
  -2   9   6  116.39   49.40
   1  -9  -6  100.09   54.29
  -1   9   6   81.89   50.79
  -1   9   6  248.38  169.28
   0  -9  -6  -46.70   55.49
   0   9   6  -17.50   49.70
   0   9   6 -126.39  173.08
   3 -10  -6  156.28   52.49
  -3  10   6  288.67  201.38
  -3  10   6   98.49   65.69
   2 -10  -6   -4.00   45.80
  -2  10   6  100.39   55.39
  -2  10   6  248.78  194.68
   0  10  -7  -63.09  166.58
   0  10  -7    3.10   68.49
   0 -10   7   76.29   67.69
   0 -10   7  -28.30   71.49
  -1  10  -7  134.19   69.49
   1 -10   7  302.37   82.29
   1 -10   7  221.08   64.19
  -2  10  -7  200.88   78.99
   2 -10   7    4.00   61.69
   1   9  -7  302.37   78.19
   1   9  -7  224.48  130.29
  -1  -9   7   99.59   73.49
  -1  -9   7  433.26   64.39
   0   9  -7 -109.69  105.19
   0   9  -7  115.49   58.29
   0  -9   7   -8.20   58.39
   0  -9   7   54.59   45.30
  -1   9  -7  115.69   93.39
  -1   9  -7  121.09   58.99
   1  -9   7  192.18   57.19
   1  -9   7  164.18   51.39
  -2   9  -7   20.00  156.78
  -2   9  -7   43.00   65.59
   2  -9   7    9.30   62.89
   2  -9   7   77.09   45.90
   2  -9   7   86.79   54.29
  -3   9  -7   82.19   76.49
   3  -9   7  219.98   63.59
   3  -9   7   72.69   72.69
   2   8  -7  364.66  125.99
   2   8  -7  234.38   66.49
  -2  -8   7  190.88   74.39
  -2  -8   7  228.28   51.69
   1   8  -7  112.09   99.69
   1   8  -7  135.59   58.29
  -1  -8   7  173.88   63.89
  -1  -8   7  109.19   44.60
   0   8  -7  222.48   60.19
   0   8  -7  330.17   88.89
   0  -8   7  313.37   51.49
   0  -8   7  159.28   52.09
  -1   8  -7   74.79   48.30
  -1   8  -7   94.19   72.39
   1  -8   7  103.29   40.90
   1  -8   7  131.19   44.80
   1  -8   7  136.39   45.40
  -2   8  -7   56.69   77.09
  -2   8  -7   60.99   54.19
   2  -8   7  134.09   42.20
   2  -8   7  149.39   36.60
   2  -8   7   57.09   45.50
  -3   8  -7  351.76   76.19
   3  -8   7   82.59   64.69
   3  -8   7  158.58   54.49
  -4   8  -7  236.08   86.99
   4  -8   7   71.89   74.59
   4  -8   7   68.39   52.49
   3   7  -7   55.59   67.59
  -3  -7   7   63.29   72.29
   2   7  -7  266.07  108.39
   2   7  -7  264.67   62.09
  -2  -7   7  193.78   75.59
  -2  -7   7  309.97   48.50
   1   7  -7   50.29   46.70
   1   7  -7   31.10   67.89
   1   7  -7   71.09   73.69
  -1  -7   7  150.98   49.99
  -1  -7   7   65.49   37.00
   0   7  -7  164.28   55.49
   0   7  -7  170.18   53.79
   0   7  -7  266.47   66.99
   0  -7   7  261.17   43.30
   0  -7   7  243.38   52.19
  -1   7  -7   85.99   57.39
  -1   7  -7   -7.00   38.80
  -1   7  -7  -21.20   40.90
   1  -7   7   54.29   35.90
   1  -7   7  -48.90   50.09
   1  -7   7    3.60   33.60
   1  -7   7   87.39   32.00
   1  -7   7    0.70   32.30
  -2   7  -7  575.94   94.39
  -2   7  -7  377.26   50.69
  -2   7  -7  386.86   66.09
   2  -7   7  439.76   58.19
   2  -7   7  366.96   60.19
   2  -7   7  397.56   58.29
   2  -7   7  306.97   69.99
  -3   7  -7  200.78   82.69
  -3   7  -7  197.98   63.69
   3  -7   7  179.88   58.49
   3  -7   7  147.99   41.00
  -4   7  -7  203.38   73.19
   4  -7   7  215.68   69.79
   4  -7   7  215.08   51.09
   4   6  -7   -2.70   74.59
   4   6  -7   72.49  144.49
  -4  -6   7  191.98   79.89
   3   6  -7   -9.20   98.89
   3   6  -7   91.49   60.19
  -3  -6   7  -90.99   56.59
   2   6  -7  265.27   87.29
   2   6  -7  286.57   49.90
  -2  -6   7  232.68   42.40
  -2  -6   7  162.28   55.19
   1   6  -7   22.60   37.70
   1   6  -7   67.79   57.49
   1   6  -7    6.30   53.39
  -1  -6   7   71.99   41.40
  -1  -6   7   55.69   29.70
  -1  -6   7   62.39   28.40
   0   6  -7  948.51  105.79
   0   6  -7  935.61   96.89
   0   6  -7  976.50   91.29
   0   6  -7 1081.59  101.19
   0  -6   7 1112.29   91.79
   0  -6   7  781.52   92.09
   0  -6   7 1142.09   99.09
  -1   6  -7   74.79   47.20
  -1   6  -7   59.39   38.10
  -1   6  -7   13.50   32.10
   1  -6   7   11.50   30.40
   1  -6   7   12.10   37.30
   1  -6   7   50.19   25.40
   1  -6   7   34.40   27.20
  -2   6  -7 1039.60   98.39
  -2   6  -7 1047.80   88.29
  -2   6  -7  869.11  100.89
   2  -6   7  817.32   87.09
   2  -6   7  896.61  100.19
   2  -6   7  949.21  102.19
   2  -6   7  915.71   85.89
  -3   6  -7   61.69   47.10
  -3   6  -7  -74.39   65.19
   3  -6   7  -18.60   25.60
   3  -6   7   -5.80   45.90
  -4   6  -7  195.48   72.09
  -4   6  -7  188.98  116.39
   4  -6   7  305.57   51.99
   4  -6   7  238.38   69.29
  -5   6  -7 -242.18  122.19
   5  -6   7   55.19   76.39
   5  -6   7   28.60   47.70
   4   5  -7  191.58  117.29
   4   5  -7   73.39   64.29
  -4  -5   7  154.58   62.69
   3   5  -7  198.08   88.89
   3   5  -7  218.18   52.49
   2   5  -7  443.86   85.49
   2   5  -7  332.17   75.89
   2   5  -7  405.36   54.99
   2   5  -7  501.35   61.69
  -2  -5   7  441.26   59.19
  -2  -5   7  376.86   62.39
  -2  -5   7  333.77   60.49
   1   5  -7  213.18   39.30
   1   5  -7  157.08   50.79
   1   5  -7  160.48   49.40
   1   5  -7  112.59   27.80
  -1  -5   7   58.29   28.10
  -1  -5   7   93.19   35.10
   0   5  -7  973.70   90.59
   0   5  -7 1009.90   96.79
   0   5  -7 1043.90  102.39
   0   5  -7 1007.10   96.09
   0   5  -7 1008.20   92.09
   0  -5   7 1178.98   98.39
   0  -5   7 1110.19   92.09
   0  -5   7 1007.30   95.19
  -1   5  -7   -4.70   32.80
  -1   5  -7   59.89   26.70
  -1   5  -7   55.99   36.10
   1  -5   7   20.60   24.20
   1  -5   7  -18.30   21.90
   1  -5   7   20.10   27.40
  -2   5  -7  522.05   67.09
  -2   5  -7  407.16   57.79
  -2   5  -7  556.04   78.79
   2  -5   7  499.75   56.09
   2  -5   7  533.95   72.89
   2  -5   7  525.75   69.19
   2  -5   7  480.85   56.69
  -3   5  -7   50.99   42.70
  -3   5  -7   25.10   65.49
   3  -5   7   16.00   63.99
   3  -5   7   32.30   25.80
   3  -5   7   85.69   41.80
  -4   5  -7  278.07   73.19
  -4   5  -7  212.08   95.69
   4  -5   7  276.47   45.70
   4  -5   7  362.76   66.39
  -5   5  -7  115.19   74.49
   5  -5   7   33.00   45.30
   5  -5   7  -24.70   69.49
   5   4  -7  223.88   70.69
   5   4  -7   17.00   51.69
  -5  -4   7  100.19   70.29
  -5  -4   7   43.90  132.79
   4   4  -7  -19.80   50.79
   4   4  -7   45.90   36.30
  -4  -4   7 -100.49   51.39
  -4  -4   7   29.70   94.09
   3   4  -7  187.68   34.10
  -3  -4   7  208.08   44.20
  -3  -4   7  223.48   52.39
   2   4  -7   14.40   23.80
   2   4  -7   34.40   56.09
   2   4  -7   58.49   31.60
   2   4  -7   38.10   45.30
  -2  -4   7   57.49   34.70
  -2  -4   7   24.40   30.80
  -2  -4   7   32.90   25.30
   1   4  -7 1097.49  101.29
   1   4  -7 1151.28  103.79
   1   4  -7 1128.09  101.89
   1   4  -7 1073.29   92.59
   1   4  -7 1073.89   95.49
  -1  -4   7 1059.59   93.79
  -1  -4   7 1073.99   98.99
   0   4  -7  490.85   55.99
   0   4  -7  554.84   49.80
   0   4  -7  482.25   59.29
   0   4  -7  453.35   53.49
   0  -4   7  534.45   58.89
   0  -4   7  516.25   52.29
   0  -4   7  392.96   55.49
   0  -4   7  590.74   57.99
  -1   4  -7  389.96   51.49
  -1   4  -7  475.45   54.89
  -1   4  -7  456.15   53.99
   1  -4   7  470.65   48.30
   1  -4   7  407.06   53.29
   1  -4   7  380.96   54.09
   1  -4   7  426.46   49.40
  -2   4  -7   96.89   40.80
  -2   4  -7   68.39   23.30
  -2   4  -7   52.89   30.40
   2  -4   7   93.29   34.60
   2  -4   7   26.40   20.30
   2  -4   7   14.70   34.70
   2  -4   7   20.20   19.70
  -3   4  -7  386.26   64.19
  -3   4  -7  480.15   81.19
   3  -4   7  246.68   44.10
   3  -4   7  420.16   85.09
   3  -4   7  293.57   56.99
  -4   4  -7  140.49   90.19
  -4   4  -7  326.27   62.49
   4  -4   7  232.48   43.60
   4  -4   7  193.88   61.59
  -5   4  -7   22.60   76.99
   5  -4   7  130.79   44.90
   5  -4   7  113.09   72.19
   5   3  -7  250.17   69.39
   5   3  -7  106.19   49.60
  -5  -3   7  163.48   58.69
  -5  -3   7  113.09  117.59
   4   3  -7   18.70   44.10
   4   3  -7  -25.20   28.90
  -4  -3   7  135.09   45.80
  -4  -3   7  -47.00   88.39
   3   3  -7 1162.78  125.79
  -3  -3   7  944.71   92.29
  -3  -3   7  783.62  100.09
  -3  -3   7  863.81   76.19
   2   3  -7   73.39   49.99
   2   3  -7   43.50   20.20
   2   3  -7   89.69   28.60
   2   3  -7    3.50   33.10
  -2  -3   7   34.40   28.30
  -2  -3   7   66.19   21.80
  -2  -3   7   27.10   33.30
  -2  -3   7   45.00   34.60
  -2  -3   7   67.19   28.30
   1   3  -7 2520.85  205.78
   1   3  -7 2483.65  203.28
   1   3  -7 2443.46  200.48
   1   3  -7 2772.12  205.58
   1   3  -7 2616.54  202.58
  -1  -3   7 2724.23  206.48
  -1  -3   7 2425.56  202.38
  -1  -3   7 2596.24  202.98
  -1  -3   7 2723.63  201.18
   0   3  -7   10.80   17.00
   0   3  -7   13.00   20.80
   0   3  -7   -7.50   23.70
   0   3  -7   10.20   18.70
   0  -3   7   12.10   17.40
   0  -3   7   13.10   21.20
   0  -3   7   13.40   21.70
  -1   3  -7  444.96   50.29
  -1   3  -7  496.25   51.19
  -1   3  -7  440.06   51.39
  -1   3  -7  521.15   52.39
   1  -3   7  426.26   49.90
   1  -3   7  507.45   48.50
   1  -3   7  402.16   52.09
  -2   3  -7   15.30   33.80
  -2   3  -7  -22.50   19.40
  -2   3  -7    1.20   27.30
  -2   3  -7    6.80   25.40
   2  -3   7   17.20   31.50
   2  -3   7   -5.40   17.50
   2  -3   7    9.50   28.00
   2  -3   7   -0.20   16.40
  -3   3  -7  370.66   79.49
   3  -3   7  350.46   45.40
   3  -3   7  422.36   73.49
   3  -3   7  379.86   50.59
   3  -3   7  433.06   50.89
  -4   3  -7   99.49   53.59
  -4   3  -7  100.19   90.49
   4  -3   7   92.09   52.89
   4  -3   7  175.28   32.60
  -5   3  -7  382.16   87.99
   5  -3   7  268.57   79.39
   5  -3   7  461.55   70.29
   5   2  -7  411.56   70.29
   5   2  -7  281.57   54.29
  -5  -2   7  357.76   71.19
  -5  -2   7  438.36  118.99
   4   2  -7  172.38   45.30
  -4  -2   7  314.57   83.39
   3   2  -7  414.56   96.79
   3   2  -7  634.44   62.89
   3   2  -7  771.92   66.69
  -3  -2   7  604.14   80.19
  -3  -2   7  649.24   75.89
  -3  -2   7  659.63   57.39
  -3  -2   7  543.25   70.39
  -3  -2   7  643.04   80.19
   2   2  -7   12.30   30.20
   2   2  -7   71.79   44.80
   2   2  -7   27.70   21.70
   2   2  -7   21.90   18.90
   2   2  -7   16.90   21.40
  -2  -2   7   74.29   26.40
  -2  -2   7   41.70   30.10
  -2  -2   7   27.50   25.70
  -2  -2   7   21.50   23.00
   1   2  -7  742.03   72.29
   1   2  -7  824.62   66.19
   1   2  -7  700.33   65.49
   1   2  -7  786.52   66.69
   1   2  -7  667.93   64.89
  -1  -2   7  754.02   69.19
  -1  -2   7  639.84   63.79
  -1  -2   7  764.02   68.09
  -1  -2   7  715.23   65.89
   0   2  -7  160.08   28.50
   0   2  -7  178.58   29.20
   0   2  -7  127.89   24.60
   0   2  -7  139.69   27.80
   0  -2   7  155.88   26.80
   0  -2   7  153.88   24.70
   0  -2   7  122.09   26.40
  -1   2  -7  779.92   70.79
  -1   2  -7  847.02   71.99
  -1   2  -7  778.72   71.69
  -1   2  -7  818.82   71.79
   1  -2   7  761.12   72.99
   1  -2   7  785.82   69.79
   1  -2   7  810.52   70.79
  -2   2  -7  260.27   43.50
  -2   2  -7  164.68   31.20
  -2   2  -7  233.78   38.50
   2  -2   7  162.38   37.50
   2  -2   7  193.38   40.20
   2  -2   7  171.98   44.30
   2  -2   7  205.98   28.70
  -3   2  -7  930.81   85.99
  -3   2  -7  634.84   98.19
  -3   2  -7  727.93   74.59
   3  -2   7  774.62   90.89
   3  -2   7  716.73   68.69
   3  -2   7  720.93   70.89
   3  -2   7  783.62  102.49
  -4   2  -7   85.49   93.19
  -4   2  -7  144.09   54.89
   4  -2   7  159.58   51.89
   4  -2   7   95.09   28.80
   4  -2   7  127.79   32.40
  -5   2  -7  303.97  152.58
   5  -2   7  433.26   86.69
   5  -2   7  534.65   67.19
   6   1  -7  -10.50   55.89
   6   1  -7  128.09   69.89
  -6  -1   7 -127.89  138.49
  -6  -1   7   61.89   59.99
   5   1  -7  129.39   53.09
   5   1  -7  128.99   43.50
  -5  -1   7  195.98  109.99
  -5  -1   7  114.29   53.49
   4   1  -7  420.36   66.99
  -4  -1   7  661.53  104.49
   3   1  -7   74.99   37.50
   3   1  -7  226.88   37.40
   3   1  -7  142.89   26.70
   3   1  -7  247.38   74.69
   3   1  -7  147.19   24.30
  -3  -1   7   75.39   30.60
  -3  -1   7  177.48   52.19
  -3  -1   7  210.38   38.20
  -3  -1   7  119.59   33.40
   2   1  -7  604.44   79.99
   2   1  -7  644.34   59.19
   2   1  -7  774.02   58.39
   2   1  -7  631.24   58.89
   2   1  -7  665.83   68.59
  -2  -1   7  704.73   66.89
  -2  -1   7  632.24   63.59
  -2  -1   7  618.44   61.19
  -2  -1   7  573.24   67.39
   1   1  -7  639.84   60.59
   1   1  -7  656.63   59.39
   1   1  -7  674.73   59.99
   1   1  -7  677.53   59.19
   1   1  -7  687.43   64.89
  -1  -1   7  629.64   58.39
  -1  -1   7  670.63   63.49
  -1  -1   7  722.73   63.29
  -1  -1   7  605.04   60.79
   0   1  -7  750.02   63.69
   0   1  -7  653.93   61.89
   0   1  -7  688.43   61.89
   0   1  -7  664.93   61.09
   0  -1   7  685.03   63.39
   0  -1   7  657.13   63.79
   0  -1   7  714.53   60.89
  -1   1  -7 1267.27  107.49
  -1   1  -7 1305.67  106.89
  -1   1  -7 1457.65  108.39
  -1   1  -7 1234.88  105.69
   1  -1   7 1337.67  105.99
   1  -1   7 1218.78  104.89
   1  -1   7 1378.96  106.29
   1  -1   7 1182.48  102.99
  -2   1  -7  379.76   46.10
  -2   1  -7  330.57   43.00
   2  -1   7  454.55   61.79
   2  -1   7  272.57   47.00
   2  -1   7  309.57   46.90
   2  -1   7  351.56   54.59
   2  -1   7  329.27   40.90
  -3   1  -7  296.17   52.99
  -3   1  -7  355.96   47.50
   3  -1   7  381.76   56.99
   3  -1   7  281.47   39.80
   3  -1   7  276.67   74.99
   3  -1   7  321.77   44.70
  -4   1  -7    7.20   53.09
  -4   1  -7   67.39   36.60
   4  -1   7   48.60   26.80
   4  -1   7  -87.19   46.70
   4  -1   7   20.00   93.29
   5  -1   7  240.68   52.59
   5  -1   7  182.68   85.89
   5  -1   7  109.39  142.49
   5  -1   7  388.26   80.59
   6   0  -7  320.87   71.09
   6   0  -7  356.76   67.39
  -6   0   7  291.37   65.69
  -6   0   7  230.68  136.99
   5   0  -7  116.69   47.30
   5   0  -7  157.58   42.20
  -5   0   7   59.29   42.50
  -5   0   7   22.10  100.39
   4   0  -7  243.98   43.10
   4   0  -7  232.28   36.70
  -4   0   7  317.47   48.10
  -4   0   7  330.37   56.59
   3   0  -7   17.40   19.70
   3   0  -7    6.80   30.00
   3   0  -7   12.30   19.80
   3   0  -7   27.20   17.30
   3   0  -7   18.90   56.99
  -3   0   7    5.10   23.00
  -3   0   7  -29.00   27.90
  -3   0   7    7.40   47.20
  -3   0   7   -9.20   21.40
   2   0  -7  698.63   64.09
   2   0  -7  612.74   79.59
   2   0  -7  595.44   68.29
   2   0  -7  721.53   62.39
   2   0  -7  818.52   62.89
  -2   0   7  776.12   70.09
  -2   0   7  723.73   74.69
  -2   0   7  777.52   67.29
  -2   0   7  696.63   63.09
   1   0  -7  366.66   43.30
   1   0  -7  359.16   44.80
   1   0  -7  389.16   39.90
   1   0  -7  390.16   40.40
   1   0  -7  345.47   37.30
  -1   0   7  394.46   42.40
  -1   0   7  297.27   49.99
  -1   0   7  367.56   45.70
  -1   0   7  352.66   36.00
   0   0  -7  875.31   74.09
   0   0  -7  946.91   75.89
   0   0  -7  790.82   70.89
   0   0  -7  851.61   73.49
   0   0   7  783.12   75.09
   0   0   7  904.41   71.19
   0   0   7  880.61   75.59
   0   0   7  821.62   74.39
  -1   0  -7  392.46   48.30
  -1   0  -7  400.66   45.00
  -1   0  -7  345.67   42.80
  -1   0  -7  336.87   38.80
   1   0   7  430.76   61.39
   1   0   7  380.86   47.40
   1   0   7  250.07   44.30
   1   0   7  340.27   39.30
   1   0   7  392.76   41.60
  -2   0  -7  766.22   67.59
  -2   0  -7  731.23   68.29
   2   0   7  698.13   69.49
   2   0   7  774.52   79.79
   2   0   7  764.82   67.69
   2   0   7  570.44   69.49
   2   0   7  668.23   83.29
  -3   0  -7  100.59   31.30
  -3   0  -7   94.89   39.90
   3   0   7  106.09   43.70
   3   0   7  130.59   29.40
   3   0   7   33.90   60.29
   3   0   7  108.49   30.60
   3   0   7   64.69   73.39
  -4   0  -7  267.27   52.69
   4   0   7  233.18   59.69
   4   0   7  372.86  119.59
   4   0   7  283.97   44.40
   4   0   7  256.57   66.89
   6  -1  -7  349.67   61.79
   6  -1  -7  250.27   52.89
  -6   1   7  221.68   56.09
  -6   1   7  -54.19  142.29
   5  -1  -7   26.70   30.50
   5  -1  -7   65.39   38.40
  -5   1   7   83.09  101.39
  -5   1   7   17.60   37.90
   4  -1  -7  155.08   26.00
   4  -1  -7   32.60  123.49
   4  -1  -7  246.68   41.30
   4  -1  -7  138.49   36.20
   4  -1  -7  245.88   42.20
  -4   1   7  142.49   34.20
  -4   1   7  215.88   74.29
   3  -1  -7    4.10   16.80
   3  -1  -7  147.29   62.49
   3  -1  -7    7.20   17.70
   3  -1  -7   -7.70   24.10
   3  -1  -7    8.10   21.30
  -3   1   7  -21.20   48.10
  -3   1   7    7.80   23.10
  -3   1   7   10.40   24.50
  -3   1   7   29.70   24.40
   2  -1  -7 2837.02  224.18
   2  -1  -7 2976.00  208.88
   2  -1  -7 2747.72  211.88
   2  -1  -7 2790.02  214.48
   2  -1  -7 2791.42  210.58
  -2   1   7 2635.44  219.58
  -2   1   7 2674.33  208.48
  -2   1   7 2639.64  214.68
  -2   1   7 2474.65  213.68
   1  -1  -7  434.96   44.10
   1  -1  -7  535.05   47.70
   1  -1  -7  438.66   59.69
   1  -1  -7  489.95   48.80
   1  -1  -7  521.55   50.99
  -1   1   7  511.75   50.19
  -1   1   7  408.06   56.49
  -1   1   7  490.75   41.30
  -1   1   7  524.25   51.89
   0  -1  -7 3157.48  255.87
   0  -1  -7 3287.57  258.27
   0  -1  -7 3313.87  257.57
   0  -1  -7 3438.56  256.57
   0  -1  -7 2970.60  252.37
   0   1   7 3605.14  252.47
   0   1   7 3316.87  261.57
   0   1   7 3451.35  257.47
   0   1   7 3398.46  256.67
  -1  -1  -7   82.69   21.80
  -1  -1  -7   73.69   22.20
  -1  -1  -7   53.09   20.60
   1   1   7   37.80   22.40
   1   1   7  129.99   22.90
   1   1   7   69.69   19.80
   1   1   7  144.49   44.20
   1   1   7  136.89   37.20
  -2  -1  -7 1088.39   92.49
  -2  -1  -7 1178.18   92.79
   2   1   7  832.22  110.39
   2   1   7 1119.59   93.59
   2   1   7 1026.70  108.39
   2   1   7 1031.40   93.59
  -3  -1  -7   16.70   28.30
   3   1   7   12.90   24.30
   3   1   7    2.20   38.40
   3   1   7  -39.70   42.20
   3   1   7 -104.09   73.59
  -4  -1  -7  193.78   49.10
   4   1   7  167.08  136.79
   4   1   7  219.98   62.09
   4   1   7  290.17   66.89
   4   1   7  251.57   45.70
   6  -2  -7  146.89   45.30
   6  -2  -7  212.58   57.99
  -6   2   7  171.88  137.89
  -6   2   7  142.29   48.50
   5  -2  -7   71.29   31.20
   5  -2  -7   44.00   40.40
   5  -2  -7  104.89   37.90
  -5   2   7   63.09   96.09
  -5   2   7  126.39   38.80
   4  -2  -7  237.18   43.10
   4  -2  -7  246.18   33.00
   4  -2  -7  217.28   42.20
   4  -2  -7  273.67   43.70
  -4   2   7  236.28   75.49
  -4   2   7  275.77   43.20
   3  -2  -7   86.99   21.20
   3  -2  -7   90.29   27.50
   3  -2  -7  162.68   26.40
   3  -2  -7   95.59   25.70
  -3   2   7   49.80   30.40
  -3   2   7   80.79   25.80
   2  -2  -7 3102.89  224.88
   2  -2  -7 3097.29  239.58
   2  -2  -7 2653.33  225.58
   2  -2  -7 2829.42  224.08
  -2   2   7 2925.21  227.18
  -2   2   7 2764.62  232.88
  -2   2   7 2893.91  226.68
   1  -2  -7  248.38   48.40
   1  -2  -7  258.57   37.40
   1  -2  -7  252.17   33.30
   1  -2  -7  308.37   40.20
  -1   2   7  249.78   35.10
  -1   2   7  270.87   47.20
  -1   2   7  225.48   40.00
   0  -2  -7  926.31   85.39
   0  -2  -7 1012.70   87.89
   0  -2  -7 1034.90   90.59
   0  -2  -7 1007.30   93.99
   0   2   7 1010.50   99.29
   0   2   7 1061.09   87.69
   0   2   7 1005.10   80.19
   0   2   7 1086.79   88.59
  -1  -2  -7   35.90   20.20
  -1  -2  -7   48.10   24.50
   1   2   7  107.19   52.09
   1   2   7  103.59   42.10
   1   2   7   47.80   21.00
   1   2   7  112.99   25.60
   1   2   7   72.59   28.80
   1   2   7   42.50   21.50
   1   2   7   52.19   20.40
  -2  -2  -7  371.16   47.80
   2   2   7  433.96   92.59
   2   2   7  375.06   52.99
   2   2   7  299.87   53.49
   2   2   7  517.85   88.79
   2   2   7  447.36   56.59
  -3  -2  -7  114.69   37.60
   3   2   7  121.29   38.70
   3   2   7  137.09   50.99
   3   2   7  201.18  102.79
   3   2   7  109.39   42.70
  -4  -2  -7  262.67   58.39
   4   2   7  136.99   63.29
   4   2   7  373.46  150.78
   4   2   7  222.48   70.99
   4   2   7  176.88   51.09
   6  -3  -7  111.89   40.90
   6  -3  -7  -10.00   49.20
  -6   3   7   19.80   43.70
  -6   3   7  -47.00  132.49
   5  -3  -7   37.60   55.29
   5  -3  -7  125.19   42.60
   5  -3  -7  141.79   29.00
   5  -3  -7  174.48   34.70
  -5   3   7  113.09  112.59
  -5   3   7  157.38   37.40
   4  -3  -7  193.98   29.00
   4  -3  -7  174.98   29.40
   4  -3  -7  125.29   37.50
   4  -3  -7  135.29   35.00
   4  -3  -7  222.68   40.20
  -4   3   7  239.58   36.90
  -4   3   7  136.39   81.29
   3  -3  -7  572.74   61.79
   3  -3  -7  582.24   53.19
   3  -3  -7  657.63   63.19
   3  -3  -7  530.15   56.19
  -3   3   7  599.84   62.99
   2  -3  -7  219.08   56.29
   2  -3  -7  264.47   43.30
   2  -3  -7  310.67   40.70
   2  -3  -7  314.17   36.30
  -2   3   7  253.37   39.30
  -2   3   7  172.18   50.79
  -2   3   7  300.77   38.50
   1  -3  -7  469.25   58.99
   1  -3  -7  531.35   56.19
   1  -3  -7  531.85   51.89
   1  -3  -7  504.45   74.99
  -1   3   7  571.94   56.69
  -1   3   7  427.06   71.19
  -1   3   7  598.44   55.49
   0  -3  -7  331.47   59.89
   0  -3  -7  325.77   40.40
   0  -3  -7  353.66   46.00
   0   3   7  316.77   46.20
   0   3   7  405.26   69.19
   0   3   7  313.77   46.90
   0   3   7  382.36   46.80
  -1  -3  -7  345.87   50.19
  -1  -3  -7  221.58   36.10
   1   3   7  264.47   40.30
   1   3   7  219.28   40.80
   1   3   7  343.17   72.19
   1   3   7  277.47   38.30
   1   3   7  272.57   59.49
   1   3   7  255.97   39.60
  -2  -3  -7  117.39   28.70
   2   3   7   89.69   29.90
   2   3   7  129.29   39.50
   2   3   7   94.49   33.80
   2   3   7   25.70   28.60
   2   3   7   79.29   85.59
   2   3   7   86.99   34.30
  -3  -3  -7  212.68   44.60
   3   3   7  178.78   52.99
   3   3   7  235.18   53.09
   3   3   7  350.96  128.79
   3   3   7  223.28   54.29
  -4  -3  -7   66.49   61.79
   4   3   7  110.09   80.79
   4   3   7   81.19   74.99
   4   3   7  111.79   63.89
   4   3   7  175.58  171.38
   6  -4  -7    9.60   50.39
   6  -4  -7  -32.40   37.20
  -6   4   7  101.79  152.78
  -6   4   7  -86.89   40.70
   5  -4  -7  414.86   53.99
   5  -4  -7  372.36   62.29
   5  -4  -7  397.96   70.39
   5  -4  -7  394.36   51.29
  -5   4   7  434.96  126.49
  -5   4   7  341.47   52.19
   4  -4  -7   49.10   21.40
   4  -4  -7   47.90   32.30
   4  -4  -7   76.69   36.30
   4  -4  -7   89.39   24.50
   4  -4  -7   31.60   28.90
  -4   4   7  148.89   88.69
  -4   4   7   74.69   27.60
   3  -4  -7 1241.68  100.99
   3  -4  -7 1101.69  107.19
  -3   4   7 1205.68  104.19
   2  -4  -7   16.20   17.80
   2  -4  -7  -50.49   27.00
   2  -4  -7   35.40   23.70
   2  -4  -7   58.59   53.79
  -2   4   7   50.49   49.99
  -2   4   7  -11.10   19.80
  -2   4   7   20.90   25.30
   1  -4  -7  632.74   63.29
   1  -4  -7  669.43   86.89
   1  -4  -7  628.94   67.29
  -1   4   7  623.84   67.69
  -1   4   7  699.03   68.59
  -1   4   7  659.53   90.19
   0  -4  -7  110.49   48.10
   0  -4  -7   86.39   24.00
   0  -4  -7  134.69   30.10
   0   4   7  120.79   59.99
   0   4   7   75.39   25.70
   0   4   7  104.69   28.80
  -1  -4  -7  414.46   47.10
  -1  -4  -7  369.06   63.59
   1   4   7  375.56   45.90
   1   4   7  277.57   41.60
   1   4   7  244.68   45.70
   1   4   7  393.36   58.19
   1   4   7  442.86   91.39
  -2  -4  -7    2.50   28.70
   2   4   7  -25.50   31.30
   2   4   7   26.50   33.40
   2   4   7   28.50   36.50
   2   4   7  -13.00   34.30
   2   4   7   -6.00   33.20
   2   4   7  130.09  109.69
  -3  -4  -7  247.58   49.60
   3   4   7  337.97   63.19
   3   4   7  236.48   59.59
   3   4   7  209.68  149.29
   3   4   7  233.58   57.69
   6  -5  -7   41.70   51.59
   6  -5  -7    3.90   41.40
   6  -5  -7  -26.80   34.50
  -6   5   7 -137.99  156.88
  -6   5   7  -53.19   40.30
   5  -5  -7  444.86   77.19
   5  -5  -7  453.05   57.89
   5  -5  -7  412.76   56.39
  -5   5   7  403.46   68.19
  -5   5   7  293.67  133.29
   4  -5  -7  116.99   36.90
   4  -5  -7   32.50   29.20
   4  -5  -7   90.29   22.50
   4  -5  -7   79.89   26.60
  -4   5   7   54.49   28.70
  -4   5   7  129.39  102.69
   3  -5  -7  392.46   48.80
  -3   5   7  324.27   54.69
   2  -5  -7  127.49   70.69
   2  -5  -7   11.20   24.90
   2  -5  -7    1.80   19.30
  -2   5   7  136.29   67.39
  -2   5   7   12.80   30.70
  -2   5   7   48.70   28.70
   1  -5  -7  548.35   66.79
   1  -5  -7  551.14   57.49
  -1   5   7  628.74   98.09
  -1   5   7  502.65   64.89
   0  -5  -7  349.17   47.90
   0  -5  -7  381.76   58.59
   0   5   7  316.77   55.49
   0   5   7  381.66   58.79
   0   5   7  435.06   95.59
  -1  -5  -7  476.55   57.29
   1   5   7  445.96   54.29
   1   5   7  763.02  149.09
   1   5   7  510.35   53.69
   1   5   7  395.56   62.99
   1   5   7  443.96   70.49
  -2  -5  -7   -1.00   32.60
   2   5   7   73.49  126.49
   2   5   7   17.90   40.70
   2   5   7    0.60   36.80
  -3  -5  -7  191.48   55.09
   3   5   7  156.58   58.99
   3   5   7  254.37  178.18
   3   5   7  276.67   62.89
   6  -6  -7   44.60   54.19
   6  -6  -7  137.99   42.00
  -6   6   7 -189.68  163.08
   5  -6  -7   90.59   49.90
   5  -6  -7   94.79   32.80
   5  -6  -7  101.79   34.50
  -5   6   7   65.49  153.38
  -5   6   7  128.59   36.60
   4  -6  -7   38.50   26.60
   4  -6  -7   79.99   38.00
  -4   6   7  121.49  115.69
  -4   6   7   63.19   35.60
   3  -6  -7  107.79   35.40
   3  -6  -7   27.20   29.60
  -3   6   7   98.59   38.00
  -3   6   7  140.79  103.49
   2  -6  -7   98.09   31.40
   2  -6  -7  109.29   34.50
  -2   6   7  -19.30   84.39
  -2   6   7  153.98   39.80
  -2   6   7  108.99   38.00
   1  -6  -7  484.25   58.69
   1  -6  -7  582.74   67.39
  -1   6   7  378.76   66.39
  -1   6   7  491.25   63.89
  -1   6   7  549.54  117.39
   0  -6  -7  330.57   49.80
   0   6   7  300.97  117.39
   0   6   7  382.16   57.89
  -1  -6  -7  267.67   46.40
   1   6   7  302.37   44.30
   1   6   7  255.07  131.59
   1   6   7  289.77   58.89
  -2  -6  -7  -30.60   43.50
   2   6   7   42.30   45.90
   2   6   7   85.39  147.89
   6  -7  -7  131.59   63.19
  -6   7   7 -225.88  193.88
   5  -7  -7   58.89   48.10
   5  -7  -7   53.59   38.20
  -5   7   7   61.29   41.30
  -5   7   7  112.29  177.58
   4  -7  -7   94.69   36.60
   4  -7  -7  162.98   41.30
  -4   7   7  296.37  126.29
  -4   7   7  156.28   49.30
   3  -7  -7  -23.80   25.50
   3  -7  -7  -21.70   34.70
  -3   7   7  -13.50   40.30
  -3   7   7  118.49  103.29
   2  -7  -7  344.87   54.69
   2  -7  -7  391.86   58.59
  -2   7   7  313.57  109.69
  -2   7   7  381.36   60.29
   1  -7  -7  154.18   37.20
  -1   7   7   81.39  117.19
  -1   7   7  131.19   39.80
   0  -7  -7  293.07   49.10
   0   7   7  217.58   51.49
   0   7   7  269.97  131.59
  -1  -7  -7  -38.20   41.10
   1   7   7  156.28  163.88
   1   7   7   21.80   47.60
   5  -8  -7  -43.30   51.39
   5  -8  -7   53.29   49.40
  -5   8   7   49.60   47.60
  -5   8   7  -98.09  181.68
   4  -8  -7  120.09   48.00
   4  -8  -7   70.99   47.80
  -4   8   7  288.57  168.98
  -4   8   7  167.58   49.60
   3  -8  -7  -33.30   36.20
   3  -8  -7   18.80   44.10
  -3   8   7  -60.79   46.50
  -3   8   7  132.69  137.89
   2  -8  -7  636.44   83.59
  -2   8   7  637.84   91.69
  -2   8   7  668.83  150.08
   1  -8  -7   -2.80   38.90
  -1   8   7  -76.19   41.20
  -1   8   7  -45.80  135.79
   0  -8  -7  161.08   58.39
   0   8   7  300.27   62.89
   0   8   7  220.48  156.88
   4  -9  -7  135.19   53.59
   4  -9  -7  106.39   59.99
  -4   9   7  164.28  194.58
  -4   9   7  128.19   59.39
   3  -9  -7   63.19   60.19
   3  -9  -7   47.00   50.19
  -3   9   7   16.90   55.39
  -3   9   7   97.29  171.48
   2  -9  -7  391.76   75.59
  -2   9   7  426.96   76.19
  -2   9   7  629.24  179.78
   1  -9  -7   43.40   54.29
  -1   9   7  -40.40   46.20
  -1   9   7  -18.40  161.58
   1   9  -8  254.27   79.39
   1   9  -8  273.97  154.78
  -1  -9   8  399.06   68.89
  -1  -9   8  264.37   86.99
   0   9  -8  -45.60   57.29
   0  -9   8   34.90   64.79
   0  -9   8   23.00   56.79
  -1   9  -8  289.57   70.89
   1  -9   8  316.67   69.69
   1  -9   8  167.38   64.09
  -2   9  -8   18.00   69.19
   2  -9   8   -7.20   60.19
   2  -9   8   35.70   66.09
  -3   9  -8  107.99   91.29
   3  -9   8  112.19   54.09
   3  -9   8  243.08   75.79
   2   8  -8  -63.09  129.69
   2   8  -8   -6.50   72.99
  -2  -8   8   16.80   51.49
  -2  -8   8  -24.40   69.69
   1   8  -8   49.50   99.89
   1   8  -8  331.77   80.69
  -1  -8   8  161.08   52.19
  -1  -8   8  152.78   69.29
   0   8  -8   41.60   57.29
   0   8  -8   99.09   80.39
   0  -8   8   -9.60   39.30
   0  -8   8   19.50   49.60
  -1   8  -8  227.08   97.29
  -1   8  -8  260.97   67.59
   1  -8   8  380.06   59.69
   1  -8   8  148.29   49.99
   1  -8   8  237.98   50.99
  -2   8  -8  -17.50   62.69
   2  -8   8   31.90   41.00
   2  -8   8  107.89   43.10
   2  -8   8   62.79   52.99
  -3   8  -8  177.58   77.09
   3  -8   8  265.77   62.99
   3  -8   8  395.46   76.99
   3   7  -8    4.30   70.89
   3   7  -8 -133.19  141.89
  -3  -7   8   71.89   79.59
   2   7  -8  -51.69  101.19
  -2  -7   8   64.99   68.79
  -2  -7   8  172.08   45.60
   1   7  -8   82.59   72.69
   1   7  -8  172.28   54.29
  -1  -7   8  115.59   53.19
  -1  -7   8  140.49   42.60
   0   7  -8  181.48   66.29
   0   7  -8  156.68   47.70
   0  -7   8  146.59   48.60
   0  -7   8  169.98   41.90
  -1   7  -8  355.06   69.09
  -1   7  -8  312.67   57.89
   1  -7   8  413.46   58.29
   1  -7   8  258.37   43.30
   1  -7   8  229.58   45.30
  -2   7  -8   35.60   52.69
  -2   7  -8   78.59   70.59
   2  -7   8   36.50   33.30
   2  -7   8   81.89   34.70
   2  -7   8   93.69   51.69
  -3   7  -8  581.34   98.29
   3  -7   8  348.27   61.09
   3  -7   8  274.77   65.79
  -4   7  -8  -39.70   78.49
   4  -7   8   23.20   73.49
   4  -7   8   26.00   47.00
   4   6  -8   85.79   79.39
   4   6  -8  -27.20  147.39
  -4  -6   8  -45.40   95.69
   3   6  -8  151.88  106.29
   3   6  -8   56.69   64.09
  -3  -6   8  -18.70   66.29
   2   6  -8  229.78   54.59
   2   6  -8  367.16   83.99
   2   6  -8  335.87   85.39
  -2  -6   8  144.39   45.50
  -2  -6   8  164.78   53.69
  -2  -6   8  222.48   60.59
   1   6  -8    5.50   32.50
   1   6  -8  112.49   63.99
   1   6  -8   13.90   57.79
   1   6  -8  113.99   42.70
  -1  -6   8   65.29   42.60
  -1  -6   8   22.00   36.00
  -1  -6   8   60.59   29.50
   0   6  -8  389.96   68.99
   0   6  -8  377.36   77.89
   0   6  -8  447.16   66.89
   0   6  -8  390.76   63.09
   0  -6   8  463.45   61.99
   0  -6   8  423.76   58.79
  -1   6  -8  381.46   62.69
  -1   6  -8  313.87   44.70
  -1   6  -8  218.88   54.29
  -1   6  -8  297.47   56.29
   1  -6   8  310.77   47.50
   1  -6   8  247.68   42.00
  -2   6  -8  403.86   72.59
  -2   6  -8  389.06   69.79
  -2   6  -8  505.05   63.79
   2  -6   8  333.57   49.99
   2  -6   8  377.16   59.39
   2  -6   8  549.54   71.59
   2  -6   8  393.66   81.89
  -3   6  -8  201.28   63.69
   3  -6   8  136.79   54.09
  -4   6  -8   89.69   66.09
   4  -6   8  103.89   63.39
   4  -6   8   53.89   45.20
   4   5  -8   36.30   68.59
   4   5  -8   62.09   49.40
   4   5  -8  199.08  117.19
  -4  -5   8  129.59   66.09
   3   5  -8   14.80   37.90
   3   5  -8  -88.09   49.99
   3   5  -8  -13.30   87.89
  -3  -5   8   46.60   61.49
   2   5  -8 1199.38  124.29
   2   5  -8 1139.69  124.99
   2   5  -8 1221.58  107.59
   2   5  -8  967.10  100.39
  -2  -5   8  902.21  117.29
   1   5  -8   45.30   38.50
   1   5  -8   -7.20   53.49
   1   5  -8   59.59   46.70
   1   5  -8   15.20   28.60
  -1  -5   8   62.59   38.40
  -1  -5   8  -28.30   30.50
  -1  -5   8   44.20   26.50
   0   5  -8 1371.76  128.19
   0   5  -8 1361.06  115.59
   0   5  -8 1445.96  123.79
   0   5  -8 1367.46  119.09
   0  -5   8 1606.44  124.99
   0  -5   8 1243.98  123.09
   0  -5   8 1345.47  117.69
  -1   5  -8   44.10   34.60
  -1   5  -8   44.00   38.50
   1  -5   8  -22.60   26.80
   1  -5   8   -4.50   21.50
  -2   5  -8  513.55   68.39
  -2   5  -8  617.44   77.69
   2  -5   8  688.73   64.39
   2  -5   8  603.34   67.49
   2  -5   8  616.74   87.69
  -3   5  -8   33.40   48.20
  -3   5  -8   -9.80   61.59
   3  -5   8   32.00   48.80
   3  -5   8   76.19   31.90
  -4   5  -8  105.29   74.29
   4  -5   8  307.17   73.99
   4  -5   8  252.37   52.39
   5   4  -8   41.90   75.19
   5   4  -8   26.40   54.49
  -5  -4   8   10.10   79.49
  -5  -4   8 -172.88  128.69
   4   4  -8  185.98   61.19
   4   4  -8  177.98   52.69
  -4  -4   8  282.77   70.59
  -4  -4   8  130.79   97.09
   3   4  -8  115.69   33.10
   3   4  -8   19.80   86.89
   3   4  -8  186.28   65.39
   3   4  -8  164.58   46.80
  -3  -4   8   22.40   44.10
   2   4  -8  959.80   85.79
   2   4  -8  903.71   96.99
   2   4  -8  919.71  109.49
   2   4  -8  788.52   81.39
  -2  -4   8  741.13   91.89
  -2  -4   8  689.73   77.79
  -2  -4   8  936.41  101.79
   1   4  -8   16.40   23.10
   1   4  -8   26.20   42.90
   1   4  -8   43.10   30.10
   1   4  -8   -9.10   40.10
  -1  -4   8   58.49   32.40
  -1  -4   8    6.00   23.30
  -1  -4   8   21.20   32.20
   0   4  -8 1061.49   97.69
   0   4  -8 1065.39   95.39
   0   4  -8 1160.48  100.29
   0  -4   8  877.41   97.69
   0  -4   8 1040.50  100.79
   0  -4   8 1172.58   94.29
   0  -4   8 1183.38   97.79
  -1   4  -8  150.88   36.80
  -1   4  -8  111.39   33.20
  -1   4  -8  123.29   34.10
   1  -4   8  111.69   27.30
   1  -4   8  133.39   27.80
  -2   4  -8  401.56   58.59
  -2   4  -8  476.15   63.79
   2  -4   8  369.06   50.29
   2  -4   8  370.26   49.60
  -3   4  -8   74.79   46.70
  -3   4  -8  118.19   62.69
   3  -4   8   83.59   30.80
   3  -4   8   78.09   27.30
   3  -4   8  115.39   28.80
   3  -4   8  158.48   50.29
  -4   4  -8  296.47   73.09
   4  -4   8  362.76   55.09
   4  -4   8  349.77   70.49
   5   3  -8    0.30   50.79
   5   3  -8  -14.10   63.39
  -5  -3   8  -46.80   64.79
  -5  -3   8  -28.70  127.99
   4   3  -8   71.69   53.49
   4   3  -8   65.99   35.20
  -4  -3   8   15.60   46.10
  -4  -3   8   23.90   89.49
   3   3  -8  393.46   88.29
   3   3  -8  435.26   56.59
  -3  -3   8  396.06   49.99
  -3  -3   8  453.85   67.29
   2   3  -8  332.37   43.20
   2   3  -8  354.36   47.40
   2   3  -8  347.97   67.49
  -2  -3   8  254.77   46.00
  -2  -3   8  307.17   46.80
  -2  -3   8  267.37   51.49
  -2  -3   8  242.18   48.50
  -2  -3   8  260.17   49.10
   1   3  -8  424.26   51.79
   1   3  -8  402.96   47.70
   1   3  -8  355.86   57.39
   1   3  -8  434.96   50.89
   1   3  -8  441.56   50.59
   1   3  -8  469.95   50.79
  -1  -3   8  416.66   53.29
  -1  -3   8  338.67   56.69
  -1  -3   8  419.16   56.09
   0   3  -8  519.55   56.89
   0   3  -8  505.85   63.39
   0   3  -8  461.95   52.19
   0   3  -8  530.65   54.99
   0  -3   8  476.45   54.99
   0  -3   8  481.65   60.69
   0  -3   8  509.35   57.19
  -1   3  -8 1022.70   89.19
  -1   3  -8 1006.30   87.59
  -1   3  -8 1011.30   85.99
  -1   3  -8  911.71   87.99
   1  -3   8  835.92   87.79
   1  -3   8 1025.40   86.59
  -2   3  -8  177.18   38.80
  -2   3  -8  101.89   27.80
  -2   3  -8  186.98   36.70
   2  -3   8  109.49   27.20
  -3   3  -8  217.68   53.99
   3  -3   8  132.79   31.40
   3  -3   8  214.88   79.29
   3  -3   8  217.08   31.60
   3  -3   8  136.29   32.70
   3  -3   8  202.28   52.19
  -4   3  -8   98.69   63.59
  -4   3  -8  -10.50  109.69
   4  -3   8  141.99   58.29
   4  -3   8  160.88   39.50
   5   2  -8  161.18   49.20
  -5  -2   8  276.77   67.49
   4   2  -8   63.09   37.30
   4   2  -8   59.39   43.00
  -4  -2   8  112.79   46.00
  -4  -2   8  150.08   82.59
   3   2  -8 1541.75  116.59
   3   2  -8 1255.87  112.29
  -3  -2   8 1083.39  126.09
  -3  -2   8 1345.27  127.39
  -3  -2   8 1336.67  109.19
   2   2  -8   19.90   24.50
   2   2  -8   11.30   20.70
   2   2  -8   -6.70   23.10
   2   2  -8   50.59   58.89
   2   2  -8   21.50   50.29
  -2  -2   8   30.30   30.30
  -2  -2   8  -11.40   24.60
  -2  -2   8   20.90   32.20
  -2  -2   8   40.50   32.10
   1   2  -8  458.65   49.99
   1   2  -8  510.05   49.90
   1   2  -8  396.16   46.30
   1   2  -8  411.46   59.49
   1   2  -8  447.46   46.00
  -1  -2   8  420.56   51.39
  -1  -2   8  395.56   54.89
  -1  -2   8  422.46   48.60
   0   2  -8  263.77   41.30
   0   2  -8  197.48   31.80
   0   2  -8  246.08   36.70
   0   2  -8  241.28   34.40
   0  -2   8  222.08   34.10
   0  -2   8  152.18   33.70
   0  -2   8  218.38   36.90
  -1   2  -8 1333.77  110.29
  -1   2  -8 1252.67  109.59
  -1   2  -8 1293.07  111.39
  -1   2  -8 1330.47  110.09
   1  -2   8 1257.17  108.99
   1  -2   8 1364.26  109.29
  -2   2  -8   13.70   21.60
  -2   2  -8   46.90   29.80
  -2   2  -8    5.50   31.80
   2  -2   8   28.90   38.40
   2  -2   8   17.30   42.40
   2  -2   8   31.10   31.60
   2  -2   8   41.20   22.00
  -3   2  -8  329.17   47.80
   3  -2   8  191.68   52.19
   3  -2   8  221.48   34.80
   3  -2   8  234.68   59.29
   3  -2   8  289.37   76.79
   3  -2   8  237.98   38.40
  -4   2  -8  125.89   64.29
   4  -2   8   65.69   43.60
   4  -2   8   83.79   56.99
   4  -2   8  -21.70   83.39
   4  -2   8   78.29   32.80
   6   1  -8   35.60   55.39
   6   1  -8   58.69   76.69
  -6  -1   8    1.30   60.69
  -6  -1   8  -18.70  149.39
   5   1  -8  574.24   93.09
  -5  -1   8  507.35   78.69
  -5  -1   8  697.93  132.89
   4   1  -8   73.89   40.20
   4   1  -8   45.80   33.70
  -4  -1   8   75.89   43.80
  -4  -1   8   54.49   77.79
   3   1  -8  495.55   90.99
   3   1  -8  423.76   51.69
   3   1  -8  388.56   52.89
   3   1  -8  548.75   54.89
  -3  -1   8  542.85   74.49
  -3  -1   8  381.16   59.99
  -3  -1   8  503.15   66.99
   2   1  -8    5.30   20.00
   2   1  -8   30.30   44.30
   2   1  -8  -41.70   31.00
   2   1  -8    3.70   17.50
   2   1  -8  -20.70   20.80
  -2  -1   8   14.50   20.20
  -2  -1   8  -22.00   34.30
  -2  -1   8   36.80   31.10
   1   1  -8  692.83   71.69
   1   1  -8  711.33   65.99
   1   1  -8  749.62   63.99
   1   1  -8  713.13   64.09
   1   1  -8  767.92   66.09
  -1  -1   8  730.03   63.69
  -1  -1   8  731.73   68.29
  -1  -1   8  627.24   62.29
  -1  -1   8  719.93   71.29
   0   1  -8  754.62   72.29
   0   1  -8  743.33   67.79
   0   1  -8  772.82   70.59
   0   1  -8  708.63   68.69
   0  -1   8  784.52   71.29
   0  -1   8  788.02   73.09
   0  -1   8  757.72   67.79
  -1   1  -8 2056.89  157.68
  -1   1  -8 1968.20  158.68
  -1   1  -8 2186.58  160.08
  -1   1  -8 1867.41  155.68
   1  -1   8 2001.50  157.18
   1  -1   8 1709.23  153.68
  -2   1  -8   46.40   26.10
  -2   1  -8   -2.60   21.50
   2  -1   8   18.20   47.40
   2  -1   8  101.19   45.70
   2  -1   8   10.60   26.90
   2  -1   8   -8.70   30.50
   2  -1   8    3.80   21.10
  -3   1  -8  325.07   49.80
  -3   1  -8  314.27   57.59
   3  -1   8  166.38   77.49
   3  -1   8  290.77   56.29
   3  -1   8  321.97   49.40
   3  -1   8  269.07   71.59
   3  -1   8  251.57   41.40
  -4   1  -8   21.90   44.60
  -4   1  -8  117.89   61.99
   4  -1   8   50.79  100.49
   4  -1   8   -6.40   30.60
   4  -1   8   -7.10   50.89
   6   0  -8   -5.60   66.19
   6   0  -8   25.40   55.89
  -6   0   8   81.79   61.19
  -6   0   8  -81.99  143.89
   5   0  -8  289.87   51.69
   5   0  -8  365.16   60.99
  -5   0   8  233.48  113.99
  -5   0   8  271.97   58.29
   4   0  -8  370.66   64.09
   4   0  -8  315.97   45.90
   4   0  -8  473.85   55.59
  -4   0   8  250.67   63.19
  -4   0   8  385.96   87.49
  -4   0   8  413.96   69.29
   3   0  -8  191.08   67.09
   3   0  -8   48.40   22.20
   3   0  -8  104.39   26.40
  -3   0   8  167.68   54.59
  -3   0   8   84.89   28.30
   2   0  -8  300.57   40.80
   2   0  -8  302.87   38.20
   2   0  -8  261.97   38.60
   2   0  -8  413.96   64.89
   2   0  -8  301.17   49.10
  -2   0   8  375.16   56.89
  -2   0   8  326.67   37.70
  -2   0   8  260.17   52.89
  -2   0   8  267.17   43.80
   1   0  -8 1217.88  111.19
   1   0  -8 1321.57  110.39
   1   0  -8 1334.37  111.89
   1   0  -8 1352.16  108.79
   1   0  -8 1333.27  106.29
  -1   0   8 1438.46  112.29
  -1   0   8 1326.07  105.69
  -1   0   8 1279.97  112.89
   0   0  -8  343.97   43.40
   0   0  -8  311.47   42.30
   0   0  -8  334.47   39.00
   0   0  -8  406.96   49.30
   0   0   8  365.66   43.50
   0   0   8  329.27   49.20
   0   0   8  320.47   45.80
   0   0   8  360.86   37.30
   0   0   8  367.06   39.10
  -1   0  -8  755.52   68.69
  -1   0  -8  815.52   77.39
  -1   0  -8  711.33   67.69
  -1   0  -8  747.73   73.39
   1   0   8  724.83   68.59
   1   0   8  642.04   72.79
   1   0   8  772.82   66.69
   1   0   8  823.82   84.89
  -2   0  -8   -6.10   27.40
  -2   0  -8   27.10   22.50
   2   0   8   39.70   51.99
   2   0   8  -16.90   30.90
   2   0   8   20.50   29.50
   2   0   8  -56.79   51.39
   2   0   8   20.50   22.90
  -3   0  -8  237.48   44.10
  -3   0  -8  214.08   52.29
   3   0   8  340.27   53.09
   3   0   8   23.60   84.19
   3   0   8  177.28   50.59
   3   0   8  303.17   79.19
  -4   0  -8   53.79   48.00
   4   0   8   14.40   39.70
   4   0   8   59.69   69.69
   4   0   8  -31.80   50.09
   6  -1  -8  299.37   58.59
   6  -1  -8  235.48   66.79
  -6   1   8  173.68   53.59
  -6   1   8   29.40  149.49
   5  -1  -8  164.18   44.50
   5  -1  -8  145.09   44.80
  -5   1   8  125.19  103.79
  -5   1   8  153.28   44.90
   4  -1  -8  323.77   50.39
   4  -1  -8  382.46   60.89
   4  -1  -8  343.27   44.50
  -4   1   8  401.66   55.09
  -4   1   8  398.16   84.39
   3  -1  -8  -40.00   73.89
   3  -1  -8   41.70   21.40
   3  -1  -8  170.98   70.89
   3  -1  -8  -13.00   23.40
   3  -1  -8   15.70   22.40
  -3   1   8   90.49   25.70
  -3   1   8  128.69   53.09
  -3   1   8  -19.80   22.70
   2  -1  -8  837.02   77.59
   2  -1  -8  910.51   79.29
   2  -1  -8 1049.70  101.09
   2  -1  -8  830.22   84.69
   2  -1  -8  967.10   74.49
  -2   1   8  834.62   73.79
  -2   1   8  994.80   91.19
  -2   1   8  738.33   86.59
  -2   1   8  802.02   81.59
   1  -1  -8  368.76   61.39
   1  -1  -8  395.46   46.20
   1  -1  -8  441.36   43.30
   1  -1  -8  464.55   49.50
   1  -1  -8  452.65   51.59
  -1   1   8  462.25   54.19
  -1   1   8  361.66   56.09
  -1   1   8  432.06   48.20
  -1   1   8  455.45   39.50
   0  -1  -8  278.97   44.40
   0  -1  -8  252.17   36.30
   0  -1  -8  229.88   38.90
   0  -1  -8  193.48   31.00
   0  -1  -8  339.07   44.40
   0   1   8  265.27   36.80
   0   1   8  184.28   34.20
   0   1   8  198.58   29.40
   0   1   8  281.87   50.59
  -1  -1  -8  310.47   50.29
  -1  -1  -8  242.78   39.10
   1   1   8  256.57   55.49
   1   1   8  352.16   59.69
   1   1   8  285.07   38.00
   1   1   8  341.97   43.80
   1   1   8  332.07   68.19
  -2  -1  -8  369.36   49.30
  -2  -1  -8  414.16   53.29
   2   1   8  406.36   75.19
   2   1   8  418.36   77.29
   2   1   8  365.76   55.49
  -3  -1  -8  163.78   39.70
   3   1   8  169.78   57.19
   3   1   8  155.48   89.89
   3   1   8  152.98   40.80
   3   1   8   98.19   48.10
  -4  -1  -8  121.79   50.59
   4   1   8   30.90   67.79
   4   1   8  149.59   49.40
   4   1   8  118.79   62.79
   4   1   8  198.88  132.69
   6  -2  -8  192.98   57.09
   6  -2  -8  195.18   55.09
  -6   2   8  361.26  147.99
  -6   2   8  214.18   53.29
   5  -2  -8   60.49   38.50
   5  -2  -8   28.30   36.50
   5  -2  -8  118.39   31.30
  -5   2   8    9.20   36.20
  -5   2   8  -78.49  101.29
   4  -2  -8  462.35   54.99
   4  -2  -8  619.74   63.59
   4  -2  -8  545.35   66.49
   4  -2  -8  414.76   53.59
  -4   2   8  406.16   65.49
   3  -2  -8   19.50   71.99
   3  -2  -8   20.20   18.90
   3  -2  -8   -1.80   20.60
   3  -2  -8    3.90   23.30
   3  -2  -8    8.60   25.40
  -3   2   8   17.40   52.59
  -3   2   8  -36.50   24.90
   2  -2  -8 2756.92  204.18
   2  -2  -8 2604.64  217.58
   2  -2  -8 2464.35  201.78
  -2   2   8 2648.33  205.88
  -2   2   8 2756.22  213.88
  -2   2   8 2278.87  207.18
   1  -2  -8   78.49   42.70
   1  -2  -8  187.28   29.00
   1  -2  -8  170.58   35.20
   1  -2  -8  180.88   26.50
  -1   2   8  129.39   26.10
  -1   2   8  122.29   41.60
  -1   2   8  101.69   31.10
   0  -2  -8  421.36   46.70
   0  -2  -8  408.26   53.09
   0  -2  -8  360.46   60.99
   0  -2  -8  406.06   60.59
   0   2   8  384.66   52.99
   0   2   8  422.76   71.59
   0   2   8  431.36   39.10
   0   2   8  455.65   51.09
  -1  -2  -8   36.50   21.40
  -1  -2  -8   51.79   31.30
   1   2   8  157.58   60.19
   1   2   8   64.39   46.80
   1   2   8   62.89   23.10
   1   2   8   23.90   27.60
   1   2   8  108.39   30.10
   1   2   8   84.59   29.80
  -2  -2  -8  685.83   68.99
   2   2   8  640.84  109.69
   2   2   8  603.84   72.39
   2   2   8  723.63   76.99
   2   2   8  601.44  103.99
   2   2   8  652.43   71.29
  -3  -2  -8   56.09   35.60
   3   2   8   57.59   43.10
   3   2   8  103.09   49.80
   3   2   8  111.39   55.29
   3   2   8  100.19  119.69
  -4  -2  -8  264.17   67.19
   4   2   8   67.99   71.89
   4   2   8  111.79   77.89
   4   2   8  128.09   57.19
   6  -3  -8  133.69   52.29
   6  -3  -8  156.88   42.90
  -6   3   8  112.09   53.59
  -6   3   8   54.49  142.29
   5  -3  -8   71.99   50.49
   5  -3  -8   60.89   29.30
   5  -3  -8   89.09   39.50
   5  -3  -8   83.79   33.10
  -5   3   8   93.19   39.80
  -5   3   8   78.99  110.19
   4  -3  -8  607.44   63.39
   4  -3  -8  646.54   63.89
   4  -3  -8  712.23   79.19
   4  -3  -8  699.53   68.49
  -4   3   8  675.63  117.39
  -4   3   8  596.24   75.69
   3  -3  -8   88.49   77.79
  -3   3   8  118.09   63.59
   2  -3  -8  966.70   90.89
   2  -3  -8 1029.90   94.89
   2  -3  -8 1084.09  121.09
  -2   3   8 1088.49   95.69
  -2   3   8 1152.18  112.99
   1  -3  -8   62.09   26.90
   1  -3  -8   82.39   43.70
   1  -3  -8   26.60   20.30
  -1   3   8   75.69   44.10
  -1   3   8   26.00   30.50
  -1   3   8   33.20   21.80
   0  -3  -8  205.68   37.10
   0  -3  -8  213.08   52.39
   0  -3  -8  202.98   33.20
   0   3   8  274.37   44.10
   0   3   8  154.78   33.80
   0   3   8  230.68   62.89
  -1  -3  -8  248.28   41.90
  -1  -3  -8  186.78   31.30
   1   3   8  196.18   32.10
   1   3   8  224.28   34.30
   1   3   8  117.99   63.09
   1   3   8  198.38   77.19
  -2  -3  -8  733.33   72.99
   2   3   8  634.04  130.49
   2   3   8  653.03   74.39
   2   3   8  733.33   80.09
   2   3   8  611.44   85.19
   2   3   8  562.04   77.79
  -3  -3  -8  131.49   41.10
   3   3   8   -6.40   49.70
   3   3   8  155.78   51.19
   3   3   8  177.28  134.99
   3   3   8  110.79   54.29
   6  -4  -8   97.49   42.80
   6  -4  -8   97.09   49.99
  -6   4   8  129.49  154.08
  -6   4   8   88.89   49.10
   5  -4  -8  114.99   40.80
   5  -4  -8   69.09   29.70
   5  -4  -8   85.69   29.00
  -5   4   8   12.60   34.30
  -5   4   8   44.60  117.99
   4  -4  -8  209.48   39.50
   4  -4  -8  195.68   31.30
   4  -4  -8  158.98   29.00
   4  -4  -8   91.49   30.90
  -4   4   8   60.49   90.39
  -4   4   8  163.78   36.30
   3  -4  -8  144.29  104.49
   3  -4  -8  210.18   41.30
   3  -4  -8  120.49   29.40
  -3   4   8  175.38   38.00
  -3   4   8  254.77   77.69
   2  -4  -8  121.19   68.39
   2  -4  -8   87.39   24.70
   2  -4  -8  148.89   31.30
  -2   4   8   43.70   68.79
   1  -4  -8  308.57   44.00
   1  -4  -8  298.07   42.60
   1  -4  -8  266.47   65.49
  -1   4   8  315.47   54.29
  -1   4   8  272.17   46.10
  -1   4   8  388.86   77.29
   0  -4  -8  244.18   37.50
   0  -4  -8  176.48   61.59
   0  -4  -8  267.77   43.00
   0   4   8  159.38   36.40
   0   4   8  233.58   75.59
   0   4   8  131.99   40.80
  -1  -4  -8  583.84   81.49
  -1  -4  -8  574.44   61.99
   1   4   8  505.05   57.59
   1   4   8  634.14   60.59
   1   4   8  736.73  126.09
   1   4   8  534.45   71.69
  -2  -4  -8  260.37   44.40
   2   4   8  280.87   45.90
   2   4   8  298.77  134.69
   2   4   8  192.48   47.10
  -3  -4  -8   90.69   52.49
   3   4   8   49.30   52.69
   3   4   8   91.09   55.19
   3   4   8   22.60  166.48
   3   4   8   98.49   55.39
   6  -5  -8   -7.70   49.80
   6  -5  -8  -26.30   38.60
  -6   5   8   45.80   48.00
  -6   5   8 -129.89  159.78
   5  -5  -8  250.87   40.80
   5  -5  -8  209.68   50.49
   5  -5  -8  209.58   39.80
  -5   5   8  206.88   42.70
  -5   5   8  161.48  131.39
   4  -5  -8   86.99   36.10
   4  -5  -8   28.90   24.20
  -4   5   8    7.60   33.80
  -4   5   8  -34.50   97.49
   3  -5  -8  543.45   72.09
   3  -5  -8  570.14   59.79
  -3   5   8  409.26  108.79
  -3   5   8  408.86   72.49
   2  -5  -8    7.30   21.90
   2  -5  -8    9.80   30.50
  -2   5   8   22.80   66.69
  -2   5   8   -5.20   34.10
   1  -5  -8  454.15   54.09
   1  -5  -8  401.86   61.89
  -1   5   8  270.57   51.59
  -1   5   8  332.77   51.39
  -1   5   8  501.25   97.39
   0  -5  -8  242.48   40.50
   0  -5  -8  292.77   46.30
   0   5   8  306.27   99.49
  -1  -5  -8  570.14   63.99
   1   5   8  526.45   78.29
   1   5   8  504.45   59.59
   1   5   8  407.96   78.19
  -2  -5  -8   74.09   40.20
   2   5   8  -42.10   48.70
   2   5   8   45.40   48.60
   2   5   8 -206.38  142.19
   6  -6  -8   99.49   57.99
   6  -6  -8   21.50   42.90
  -6   6   8  -48.70  170.28
   5  -6  -8   86.39   35.70
   5  -6  -8  109.19   47.80
  -5   6   8  326.87  163.38
  -5   6   8   93.09   38.00
   4  -6  -8   32.60   39.20
   4  -6  -8   59.69   28.90
  -4   6   8   25.00  119.09
  -4   6   8   41.10   36.70
   3  -6  -8  551.04   70.99
   3  -6  -8  380.86   61.79
  -3   6   8  450.15   70.39
   2  -6  -8   95.39   37.60
   2  -6  -8  -18.00   25.10
  -2   6   8    9.40   98.39
  -2   6   8   52.69   38.00
   1  -6  -8  599.74   78.19
   1  -6  -8  513.25   66.89
  -1   6   8  650.03  122.49
  -1   6   8  571.04   75.69
   0  -6  -8  160.58   49.50
   0  -6  -8   70.49   34.60
   0   6   8  125.19   36.50
   0   6   8  -93.99  108.09
   0   6   8  112.39   71.19
  -1  -6  -8  602.44   75.19
   1   6   8  463.85   75.89
   1   6   8  516.95  152.08
  -2  -6  -8   40.30   54.89
   2   6   8  -34.80   55.09
   2   6   8  185.58  174.68
   5  -7  -8   86.59   48.40
   5  -7  -8   86.09   44.70
  -5   7   8   50.99  174.28
  -5   7   8  -25.90   42.00
   4  -7  -8  235.58   50.79
   4  -7  -8  202.38   53.99
  -4   7   8  242.08   62.59
  -4   7   8   77.69  139.09
   3  -7  -8  445.86   76.79
   3  -7  -8  347.17   55.89
  -3   7   8  341.77   68.09
  -3   7   8  205.78  126.39
   2  -7  -8   42.00   35.60
   2  -7  -8   47.30   45.90
  -2   7   8  -72.49  114.09
  -2   7   8  112.99   42.50
   1  -7  -8  304.07   51.59
  -1   7   8  352.46  122.29
  -1   7   8  217.98   49.90
   0  -7  -8   58.59   47.80
   0   7   8  -28.60   51.19
   0   7   8   19.10  132.89
  -1  -7  -8  183.98   63.89
   1   7   8  179.08   53.89
   1   7   8  475.45  171.38
   5  -8  -8  -37.20   54.99
   5  -8  -8   16.90   54.79
  -5   8   8   88.49  193.38
  -5   8   8   24.10   51.29
   4  -8  -8  219.68   61.49
   4  -8  -8  159.88   60.19
  -4   8   8  213.68   60.99
  -4   8   8  560.04  185.18
   3  -8  -8   71.49   49.60
   3  -8  -8  165.08   53.79
  -3   8   8  131.89   59.49
  -3   8   8  207.98  146.69
   2  -8  -8   91.79   46.80
  -2   8   8   53.89   50.19
  -2   8   8   50.29  138.39
   1  -8  -8   61.39   54.59
  -1   8   8 -109.39  145.79
  -1   8   8   81.59   46.40
   0  -8  -8   52.19   58.39
   0   8   8   33.30   56.79
   0   8   8   33.10  159.28
  -4   9   8   -7.60  216.38
   3  -9  -8   19.80  107.79
   3  -9  -8   80.39   52.59
  -3   9   8    9.90  174.08
  -3   9   8   97.59   64.19
   2  -9  -8  244.08   60.69
  -2   9   8  463.25  166.18
  -2   9   8  202.28   61.99
   0   9  -9   46.70   68.69
   0  -9   9    2.00   67.39
   0  -9   9   79.49   66.39
  -1   9  -9  219.78   76.49
   1  -9   9   90.59   67.59
   1  -9   9  158.78   62.29
   1  -9   9  194.08   69.29
  -2   9  -9 -113.79   89.09
   2  -9   9   30.90   58.69
   2  -9   9   77.39   67.39
   2   8  -9  -96.29   77.09
  -2  -8   9   42.10   70.59
  -2  -8   9  -76.79   75.99
   1   8  -9  223.18   69.39
  -1  -8   9  209.78   67.99
  -1  -8   9  323.07   61.79
   0   8  -9  -44.20   54.39
   0  -8   9  -41.40   45.80
   0  -8   9  -30.90   52.59
  -1   8  -9  429.56   78.49
   1  -8   9  422.86   66.49
   1  -8   9  558.74   79.99
   1  -8   9  338.27   76.59
  -2   8  -9   10.60   65.19
   2  -8   9   23.40   56.89
   2  -8   9  -11.00   47.30
  -3   8  -9  240.18   82.39
   3  -8   9   61.29   69.19
   3  -8   9   99.09   47.40
   3   7  -9  110.99  139.69
   3   7  -9   44.10   77.79
  -3  -7   9  113.29   94.19
   2   7  -9  -14.10  101.59
  -2  -7   9   -6.90   48.90
  -2  -7   9  -41.00   64.49
   1   7  -9  257.87   85.79
   1   7  -9  312.17   53.59
   1   7  -9  449.76   70.29
  -1  -7   9  343.17   53.99
  -1  -7   9  275.37   65.69
   0   7  -9  113.69   52.49
   0  -7   9  103.29   52.29
   0  -7   9  118.19   36.60
  -1   7  -9  606.44   84.09
   1  -7   9  626.04   75.99
  -2   7  -9   -4.70   52.89
   2  -7   9   80.79   59.39
   2  -7   9   21.80   34.20
   2  -7   9   63.09   40.50
  -3   7  -9  321.07   75.89
   3  -7   9  375.06   75.59
   3  -7   9  235.58   60.29
   3   6  -9   74.49   63.29
   3   6  -9  149.79  115.49
  -3  -6   9  -66.19   66.19
   2   6  -9   50.59   44.50
   2   6  -9  138.99   80.59
   2   6  -9  177.48   55.09
  -2  -6   9  154.28   62.89
  -2  -6   9  176.18   45.80
   1   6  -9  258.17   48.20
   1   6  -9  229.18   69.89
  -1  -6   9  429.96   62.09
  -1  -6   9  306.87   59.49
   0   6  -9   32.20   44.90
   0   6  -9   49.99   46.90
   0   6  -9   46.00   41.40
   0  -6   9   13.20   37.90
   0  -6   9   85.39   33.40
   1  -6   9  287.37   49.70
   1  -6   9  405.96   54.89
  -2   6  -9  107.99   48.70
   2  -6   9   89.59   54.89
   2  -6   9   -3.90   33.10
   2  -6   9   15.80   33.50
  -3   6  -9  309.07   71.19
   3  -6   9  382.46   71.89
   3  -6   9  226.98   54.29
  -4   6  -9   15.30   76.69
   4  -6   9   70.69   46.70
   4  -6   9  -36.20   70.19
   4   5  -9  200.68   75.99
   4   5  -9   98.49  118.69
   4   5  -9  112.69   56.59
  -4  -5   9   52.79   74.29
   3   5  -9   49.20   56.79
   3   5  -9   -7.40   89.79
   3   5  -9   12.80   48.50
  -3  -5   9   78.69   59.69
   2   5  -9  494.95  100.69
   2   5  -9  334.07   73.09
  -2  -5   9  260.17   58.99
  -2  -5   9  280.57   45.10
   1   5  -9  355.76   74.69
   1   5  -9  278.17   45.70
   1   5  -9  245.78   60.89
   1   5  -9  386.46   58.59
  -1  -5   9  341.57   63.49
  -1  -5   9  485.65   54.79
   0   5  -9  266.77   45.80
   0   5  -9  266.77   53.99
   0  -5   9  296.97   50.39
   0  -5   9  283.37   42.00
  -1   5  -9   61.99   39.80
  -1   5  -9   85.49   42.60
   1  -5   9  101.49   33.90
  -2   5  -9  199.58   52.09
  -2   5  -9  204.28   40.80
   2  -5   9  342.97   54.69
   2  -5   9  295.07   64.29
   2  -5   9  233.88   40.70
  -3   5  -9  246.68   62.09
   3  -5   9  174.08   41.30
   3  -5   9  201.08   62.19
  -4   5  -9  157.88   72.79
   4  -5   9  107.69   66.29
   4  -5   9  164.98   55.89
   4   4  -9  383.96  103.39
   4   4  -9  164.78   56.59
  -4  -4   9  169.08   70.39
   3   4  -9   52.09   38.70
   3   4  -9  102.49   64.79
   3   4  -9   67.89   50.79
   3   4  -9  153.68   97.49
  -3  -4   9   78.79   52.19
   2   4  -9  929.61  105.59
   2   4  -9 1042.70  100.69
   2   4  -9 1006.40   96.39
   2   4  -9 1075.39  121.49
  -2  -4   9  876.11   92.29
  -2  -4   9 1218.38  114.59
   1   4  -9   -0.40   28.20
   1   4  -9   38.60   37.20
   1   4  -9   57.69   38.30
   1   4  -9   -0.90   35.40
  -1  -4   9    4.50   33.00
  -1  -4   9   68.19   25.60
   0   4  -9  402.36   59.69
   0   4  -9  391.26   63.49
   0   4  -9  444.46   62.49
   0  -4   9  388.46   55.09
   0  -4   9  433.06   59.69
  -1   4  -9   47.90   37.90
  -1   4  -9   95.29   36.80
  -1   4  -9  101.19   36.80
   1  -4   9   47.10   27.60
   1  -4   9   40.70   26.50
  -2   4  -9  745.73   83.49
  -2   4  -9  755.82   87.49
   2  -4   9  799.22   75.99
   2  -4   9  712.63   76.69
  -3   4  -9  -27.90   52.29
   3  -4   9   69.89   31.50
   3  -4   9   56.39   33.20
   3  -4   9   90.69   55.19
  -4   4  -9  265.77   77.99
   4  -4   9  373.66   60.09
   4  -4   9  294.07   72.99
   5   3  -9  -30.50   50.89
   5   3  -9    0.30   68.49
  -5  -3   9  -37.40   68.99
  -5  -3   9   81.29  131.99
   4   3  -9  255.57   52.59
   4   3  -9  428.26   70.19
  -4  -3   9  286.17  108.19
  -4  -3   9  324.47   66.69
   3   3  -9  117.29   36.70
   3   3  -9  127.89   48.70
   3   3  -9  -17.70   88.69
  -3  -3   9   80.89   59.49
  -3  -3   9   36.90   43.20
  -3  -3   9   55.29   29.10
   2   3  -9  512.05   87.39
   2   3  -9  599.24   65.49
   2   3  -9  548.25   72.39
   2   3  -9  490.55   62.89
  -2  -3   9  593.74   63.89
  -2  -3   9  610.44   79.89
   1   3  -9   63.29   26.90
   1   3  -9   58.69   25.20
   1   3  -9  141.19   33.30
  -1  -3   9  -13.50   59.39
  -1  -3   9  146.29   38.30
  -1  -3   9   45.70   29.90
   0   3  -9  391.56   53.19
   0   3  -9  276.97   52.59
   0   3  -9  307.97   44.20
   0   3  -9  295.27   45.70
   0  -3   9  302.47   55.69
   0  -3   9  347.47   50.19
  -1   3  -9   30.00   31.70
  -1   3  -9   72.99   34.10
  -1   3  -9   75.49   33.40
  -1   3  -9   38.20   23.20
   1  -3   9   77.59   28.00
  -2   3  -9  684.13   83.89
  -2   3  -9  846.92   76.99
  -2   3  -9  674.33   87.19
   2  -3   9  794.62   75.49
  -3   3  -9  136.19   53.19
   3  -3   9   84.49   30.70
   3  -3   9   91.39   30.00
   3  -3   9  155.78   80.39
   3  -3   9  161.78   54.59
  -4   3  -9  139.49   73.89
   4  -3   9  275.07   56.19
   4  -3   9  215.18   71.79
   5   2  -9   12.90   49.00
   5   2  -9  106.69   66.79
  -5  -2   9  285.57  127.49
  -5  -2   9   89.09   60.49
   4   2  -9  223.58   52.49
   4   2  -9  132.19   38.00
  -4  -2   9  194.48   90.09
  -4  -2   9   33.30   44.80
   3   2  -9  345.07   87.59
   3   2  -9  433.36   59.19
   3   2  -9  420.06   56.09
  -3  -2   9  464.65   77.99
  -3  -2   9  402.66   62.29
   2   2  -9  109.29   54.09
   2   2  -9  104.29   32.40
   2   2  -9   41.50   25.60
   2   2  -9  109.99   28.50
  -2  -2   9   22.90   34.80
  -2  -2   9   67.79   35.90
  -2  -2   9   87.99   31.60
   1   2  -9  979.30  110.29
   1   2  -9  817.52   75.39
   1   2  -9  897.61   77.79
   1   2  -9  780.62   76.39
  -1  -2   9  814.82   96.19
  -1  -2   9  745.93   75.89
   0   2  -9  206.48   35.70
   0   2  -9  176.88   39.00
   0   2  -9  155.48   30.50
   0   2  -9  147.79   32.10
   0  -2   9  158.98   31.30
  -1   2  -9  768.02   82.49
  -1   2  -9  786.42   84.29
  -1   2  -9  815.62   76.09
  -1   2  -9  801.12   77.49
   1  -2   9  702.93   77.79
   1  -2   9  923.71   77.49
  -2   2  -9  180.08   45.30
  -2   2  -9  308.37   46.00
  -2   2  -9  228.58   46.70
   2  -2   9  200.18   37.20
  -3   2  -9   -1.30   29.80
  -3   2  -9  139.19   52.99
   3  -2   9   -1.90   62.89
   3  -2   9    1.70   52.79
   3  -2   9   30.70   32.60
  -4   2  -9  154.88   70.99
   4  -2   9  196.48   51.99
   4  -2   9  120.19   68.59
   5   1  -9  177.08   49.80
  -5  -1   9  183.98   64.39
  -5  -1   9  375.46  119.99
   4   1  -9  -22.70   30.50
   4   1  -9   -8.30   43.10
  -4  -1   9   16.00   44.10
  -4  -1   9   81.59   78.49
   3   1  -9  577.74   65.49
   3   1  -9  523.55   97.19
   3   1  -9  630.04   65.19
   3   1  -9  518.45   62.19
  -3  -1   9  530.05   79.69
  -3  -1   9  501.05   70.09
  -3  -1   9  537.35   76.79
   2   1  -9  -13.60   21.90
   2   1  -9    1.60   25.30
   2   1  -9   19.30   24.10
   2   1  -9  -13.10   46.20
  -2  -1   9  -35.70   26.10
  -2  -1   9  -21.10   34.80
  -2  -1   9   18.60   26.90
   1   1  -9 1059.99   95.39
   1   1  -9 1137.29  103.99
   1   1  -9 1185.48   94.69
   1   1  -9 1119.99   95.49
  -1  -1   9 1242.98   99.89
  -1  -1   9  892.71  105.19
  -1  -1   9 1063.49   92.69
   0   1  -9    9.40   23.40
   0   1  -9   44.20   30.30
   0   1  -9   -5.10   23.90
   0   1  -9   23.80   20.60
   0  -1   9   48.10   23.70
   0  -1   9  -12.10   24.40
  -1   1  -9  948.51   97.29
  -1   1  -9  967.40   85.79
  -1   1  -9  908.71   85.79
  -1   1  -9  909.01   91.29
   1  -1   9  935.61   83.29
   1  -1   9  965.00   86.29
  -2   1  -9  120.49   31.30
  -2   1  -9  132.89   34.80
   2  -1   9   49.80   53.79
   2  -1   9   78.49   37.70
   2  -1   9   95.69   58.49
   2  -1   9  154.48   33.80
  -3   1  -9  180.28   39.90
  -3   1  -9  135.79   55.79
   3  -1   9  174.18   73.59
   3  -1   9  188.58   56.19
   3  -1   9   92.49   53.39
   3  -1   9  170.08   41.20
  -4   1  -9  287.77   73.89
  -4   1  -9  256.97   69.49
   4  -1   9  106.29   66.79
   6   0  -9   35.70   70.09
   6   0  -9  -22.80   55.39
  -6   0   9  -16.50   59.99
  -6   0   9 -112.79  147.49
   5   0  -9  125.59   48.30
  -5   0   9  201.88   58.69
  -5   0   9  269.87  119.99
   4   0  -9   20.30   31.00
   4   0  -9   73.99   34.70
   4   0  -9   43.00   28.50
  -4   0   9   19.00   38.90
  -4   0   9   83.59   78.99
   3   0  -9  318.17   85.79
   3   0  -9  403.06   50.99
   3   0  -9  493.05   53.59
   3   0  -9  479.65   59.79
  -3   0   9  436.56   77.59
  -3   0   9  481.55   67.39
  -3   0   9  447.36   59.59
   2   0  -9   99.79   28.70
   2   0  -9  200.48   30.80
   2   0  -9  144.99   26.70
   2   0  -9  173.38   54.89
  -2   0   9  194.98   34.90
  -2   0   9  243.68   43.80
  -2   0   9  106.89   33.70
   1   0  -9 1579.34  148.59
   1   0  -9 1773.82  143.79
   1   0  -9 1770.62  143.59
   1   0  -9 1782.72  140.19
   1   0  -9 1886.41  142.69
  -1   0   9 1915.51  146.69
  -1   0   9 1753.42  138.99
  -1   0   9 1655.03  144.89
   0   0  -9  126.19   38.50
   0   0  -9  160.88   32.70
   0   0  -9  200.18   31.30
   0   0  -9  213.58   34.10
   0   0   9  233.98   38.10
   0   0   9  144.59   29.30
   0   0   9  235.08   35.30
  -1   0  -9 1057.49   91.99
  -1   0  -9 1037.50  110.89
  -1   0  -9  941.31   92.19
  -1   0  -9 1093.69   99.99
   1   0   9 1130.49   96.69
   1   0   9 1022.50   89.59
   1   0   9 1028.80   94.19
   1   0   9 1108.49  106.29
  -2   0  -9  -21.40   32.10
  -2   0  -9  -11.80   24.00
   2   0   9  -41.20   60.89
   2   0   9   88.99   55.59
   2   0   9  -17.20   27.40
   2   0   9   42.10   36.20
  -3   0  -9  355.26   56.39
   3   0   9  245.38   49.80
   3   0   9  332.27   63.29
   3   0   9  288.97   89.79
  -4   0  -9   -8.40   64.09
   4   0   9  104.99   82.69
   4   0   9   76.19   57.69
   4   0   9   55.79   64.49
   6  -1  -9   67.39   64.99
   6  -1  -9   56.09   50.19
  -6   1   9   67.79  153.88
  -6   1   9   39.00   54.89
   5  -1  -9  185.28   50.79
  -5   1   9   60.69  108.59
  -5   1   9  102.59   47.30
   4  -1  -9  133.39   30.20
   4  -1  -9  110.69   36.90
   4  -1  -9  154.08   34.40
  -4   1   9  171.58   82.19
  -4   1   9   40.80   34.90
  -4   1   9  126.09   47.10
   3  -1  -9  476.95   61.49
   3  -1  -9  476.25   51.59
   3  -1  -9  475.75   92.39
   3  -1  -9  368.56   51.09
  -3   1   9  370.26   81.49
  -3   1   9  522.25   55.49
  -3   1   9  434.26   61.49
   2  -1  -9  398.36   42.70
   2  -1  -9  376.46   51.29
   2  -1  -9  369.16   45.20
   2  -1  -9  346.67   73.29
  -2   1   9  291.17   53.39
  -2   1   9  373.66   42.30
  -2   1   9  355.76   61.29
   1  -1  -9  767.72   83.39
   1  -1  -9  796.22   68.79
   1  -1  -9  784.32   71.39
   1  -1  -9  805.12   76.39
  -1   1   9  883.71   78.59
  -1   1   9  749.73   66.09
   0  -1  -9    5.90   26.20
   0  -1  -9   33.90   20.60
   0  -1  -9   41.60   22.20
   0   1   9   10.90   39.50
   0   1   9   42.30   19.70
   0   1   9   54.19   22.90
   0   1   9   -5.40   29.60
  -1  -1  -9  627.04   70.29
  -1  -1  -9  444.66   54.39
  -1  -1  -9  501.95   55.39
   1   1   9  534.05   81.89
   1   1   9  572.54   62.29
   1   1   9  445.16   51.29
   1   1   9  420.96   67.59
  -2  -1  -9   21.80   27.00
   2   1   9  109.49   65.59
   2   1   9   44.70   32.10
   2   1   9    1.80   37.50
   2   1   9   18.90   73.59
  -3  -1  -9  477.95   72.29
   3   1   9  422.06   67.09
   3   1   9  447.66  117.59
   3   1   9  423.46   80.39
   3   1   9  274.07   66.49
   6  -2  -9  179.68   62.89
   6  -2  -9  111.79   56.49
  -6   2   9   34.30  148.29
  -6   2   9   95.79   56.19
   5  -2  -9   72.69   39.80
   5  -2  -9   31.60   32.80
   5  -2  -9   44.00   41.10
  -5   2   9   -7.60  105.79
  -5   2   9   10.80   37.00
   4  -2  -9  294.17   47.60
   4  -2  -9  287.57   45.90
   4  -2  -9  225.68   36.70
   4  -2  -9  213.68   46.30
  -4   2   9  309.47   48.60
  -4   2   9  405.36   94.39
   3  -2  -9  105.79   30.00
   3  -2  -9   47.60   75.79
   3  -2  -9  128.59   27.70
   3  -2  -9  101.89   26.70
  -3   2   9   95.99   58.49
  -3   2   9   85.99   35.10
   2  -2  -9  633.44   96.19
   2  -2  -9  639.24   70.19
   2  -2  -9  682.23   63.99
  -2   2   9  623.44   70.69
  -2   2   9  696.33   84.09
   1  -2  -9  467.85   49.80
   1  -2  -9  354.06   68.39
   1  -2  -9  379.36   54.89
  -1   2   9  386.66   66.19
  -1   2   9  428.16   57.19
   0  -2  -9  352.56   57.49
   0  -2  -9  337.27   56.69
   0  -2  -9  377.86   45.10
   0   2   9  275.07   36.00
   0   2   9  411.46   50.99
   0   2   9  334.17   68.49
  -1  -2  -9  221.38   47.40
  -1  -2  -9  165.28   34.60
   1   2   9  250.07   57.09
   1   2   9  158.28   40.30
   1   2   9  270.37   72.09
   1   2   9  179.48   36.90
   1   2   9  176.18   30.00
  -2  -2  -9  596.54   63.39
   2   2   9  374.66   71.59
   2   2   9  664.93  125.19
   2   2   9  470.45  108.69
   2   2   9  532.25   76.89
   2   2   9  395.76   68.49
  -3  -2  -9  204.08   47.80
   3   2   9   73.99   57.19
   3   2   9  179.88  135.19
   3   2   9  208.38   55.29
   3   2   9  128.29   62.99
   6  -3  -9  151.28   59.09
   6  -3  -9  192.18   61.79
  -6   3   9  121.69   51.69
  -6   3   9   23.20  146.79
   5  -3  -9  110.49   45.90
   5  -3  -9    3.60   38.40
   5  -3  -9   63.99   33.30
  -5   3   9   99.09  116.79
  -5   3   9   40.80   40.10
   4  -3  -9  493.05   65.29
   4  -3  -9  618.74   60.79
   4  -3  -9  611.24   80.79
  -4   3   9  481.25   79.19
  -4   3   9  758.62  130.39
   3  -3  -9   44.30   30.90
   3  -3  -9   57.09   82.89
   3  -3  -9   18.60   25.30
  -3   3   9   99.79   67.39
  -3   3   9   76.79   35.50
   2  -3  -9 1020.00  131.79
   2  -3  -9 1172.68  103.89
   2  -3  -9 1024.40   95.29
  -2   3   9 1194.28  105.39
  -2   3   9 1081.59  119.09
   1  -3  -9   69.19   30.10
   1  -3  -9   94.89   25.00
   1  -3  -9   38.40   50.49
  -1   3   9   32.70   29.00
  -1   3   9   49.90   53.99
   0  -3  -9  459.85   82.49
   0  -3  -9  482.75   57.49
   0  -3  -9  436.66   70.69
   0   3   9  516.65   95.39
   0   3   9  610.04   69.99
  -1  -3  -9  -29.80   40.40
  -1  -3  -9  -32.60   22.00
   1   3   9  -49.90   30.50
   1   3   9   53.89   39.20
   1   3   9    5.30   25.10
   1   3   9  107.79   79.19
   1   3   9   76.19   70.99
  -2  -3  -9  582.74   69.79
   2   3   9  722.63  139.29
   2   3   9  471.35   74.19
   2   3   9  759.52   90.19
  -3  -3  -9   77.49   53.29
   3   3   9  -12.30   51.19
   3   3   9   16.30   55.59
   3   3   9   -7.80  146.19
   3   3   9   76.99   59.09
   6  -4  -9  206.48   61.79
  -6   4   9   95.79   53.59
  -6   4   9  295.97  155.88
   5  -4  -9   -4.90   30.60
   5  -4  -9   55.99   38.50
   5  -4  -9   56.39   42.40
  -5   4   9   62.69   38.00
  -5   4   9  -38.40  123.89
   4  -4  -9  408.26   52.59
   4  -4  -9  287.87   53.59
  -4   4   9  172.78  106.39
  -4   4   9  343.57   54.89
   3  -4  -9    3.70   33.20
   3  -4  -9   20.10   23.20
  -3   4   9    1.80   33.00
  -3   4   9  121.09   81.09
   2  -4  -9  477.55   53.09
   2  -4  -9  509.35   67.79
  -2   4   9  325.17   51.59
  -2   4   9  394.16   79.69
   1  -4  -9  275.97   41.40
   1  -4  -9  187.58   62.19
   1  -4  -9  232.08   45.60
  -1   4   9  262.57   45.20
  -1   4   9  229.78   74.49
   0  -4  -9  725.03   85.79
   0  -4  -9  660.33   71.59
   0   4   9  743.93   84.19
   0   4   9  752.02  120.89
  -1  -4  -9   31.70   27.30
  -1  -4  -9   10.00   49.90
   1   4   9  174.18  108.99
   1   4   9   -5.50   28.40
   1   4   9   42.10   36.40
  -2  -4  -9  265.47   52.59
   2   4   9  246.98   60.59
   2   4   9  307.37   59.99
   2   4   9  271.47   52.09
   2   4   9  255.47  146.99
   6  -5  -9   28.40   70.19
  -6   5   9  -34.00   49.00
  -6   5   9  -93.79  168.08
   5  -5  -9    6.40   45.80
   5  -5  -9   52.49   34.70
  -5   5   9 -178.08  127.49
  -5   5   9  116.89   37.80
   4  -5  -9  164.38   36.00
   4  -5  -9  176.38   44.20
  -4   5   9  136.09   44.40
  -4   5   9  108.49  112.19
   3  -5  -9  356.66   54.19
   3  -5  -9  337.17   49.99
  -3   5   9  341.37   56.99
  -3   5   9  272.87  111.69
   2  -5  -9  202.68   47.50
   2  -5  -9  173.08   36.00
  -2   5   9  155.88   88.69
  -2   5   9  151.48   42.60
   1  -5  -9  640.74   68.59
   1  -5  -9  580.54   82.09
  -1   5   9  643.84  132.69
  -1   5   9  582.24   77.09
   0  -5  -9  331.77   50.09
   0  -5  -9  335.47   60.79
   0   5   9  432.26  121.49
   0   5   9  306.87   58.09
  -1  -5  -9    9.60   35.30
   1   5   9   31.30   42.60
   1   5   9  162.58  128.09
  -2  -5  -9   94.39   52.19
   2   5   9  419.16  189.88
   2   5   9   22.50   51.59
   2   5   9   42.00   53.29
   5  -6  -9  111.29   43.40
   5  -6  -9  127.99   52.79
  -5   6   9  163.08   46.50
  -5   6   9  192.48  160.38
   4  -6  -9  -31.40   47.90
   4  -6  -9    5.10   34.40
  -4   6   9  -41.30   39.30
  -4   6   9   66.09  120.59
   3  -6  -9  608.64   84.59
   3  -6  -9  408.76   64.59
  -3   6   9  429.16   67.79
   2  -6  -9    5.20   31.90
   2  -6  -9    9.20   46.30
  -2   6   9   63.49   42.40
  -2   6   9   72.19   99.09
   1  -6  -9  753.12   79.59
   1  -6  -9  602.34   94.29
  -1   6   9  746.23  137.29
  -1   6   9  570.24   89.59
   0  -6  -9    3.10   51.89
   0  -6  -9   28.10   37.60
   0   6   9    1.70   41.10
   0   6   9  226.88  132.89
  -1  -6  -9  -25.30   44.20
   1   6   9    3.80  161.78
   1   6   9   41.90   44.90
   5  -7  -9  208.28   60.29
   5  -7  -9  103.49   54.69
  -5   7   9   62.89   51.89
  -5   7   9   28.20  180.08
   4  -7  -9   31.90   47.30
   4  -7  -9   -8.60   46.90
  -4   7   9    3.00   48.70
  -4   7   9   45.90  151.58
   3  -7  -9  685.83   92.59
   3  -7  -9  471.55   71.89
  -3   7   9  429.86   75.19
  -3   7   9  230.88  147.39
   2  -7  -9   -9.20   46.00
   2  -7  -9   11.10   58.09
  -2   7   9   -0.20   47.40
  -2   7   9   47.60  130.89
   1  -7  -9  388.46   72.99
   1  -7  -9  553.64   83.59
  -1   7   9  611.64  156.98
  -1   7   9  385.66   64.19
   0  -7  -9  -17.70   52.19
   0   7   9    5.50   53.49
   0   7   9  220.88  168.18
   4  -8  -9   29.30   55.59
   4  -8  -9  -19.50   52.09
  -4   8   9  153.08  176.38
  -4   8   9   66.39   58.69
   3  -8  -9  172.08   66.99
   3  -8  -9  222.68   64.69
  -3   8   9  269.57  168.58
  -3   8   9  302.77   75.39
   2  -8  -9   34.00   68.69
   2  -8  -9   10.30   53.79
  -2   8   9   96.89   57.49
  -2   8   9  -10.40  159.88
   1  -8  -9  172.58   59.69
  -1   8   9  216.68   63.99
  -1   8   9  245.88  160.18
   1   8 -10  248.18   81.89
  -1  -8  10  252.27   65.89
  -1  -8  10  160.18   73.89
   0   8 -10   15.80   58.69
   0  -8  10  -12.00   54.49
   0  -8  10   57.89   53.59
  -1   8 -10  132.59   63.49
   1  -8  10  115.19   51.79
   1  -8  10   70.99   55.29
   1  -8  10  106.29   70.69
  -2   8 -10   83.79   75.49
   2  -8  10   81.79   54.89
   2  -8  10   77.19   69.89
   2   7 -10   67.69   70.89
  -2  -7  10   57.69   66.29
  -2  -7  10  -78.59   53.29
   1   7 -10  609.04   91.99
   1   7 -10  489.65   70.19
  -1  -7  10  375.66   63.99
  -1  -7  10  415.16   84.69
   0   7 -10   52.49   55.39
   0  -7  10   28.30   38.20
   0  -7  10   18.00   48.10
   1  -7  10  188.68   51.49
   1  -7  10  236.18   48.50
  -2   7 -10   84.79   64.39
   2  -7  10   -6.50   44.60
   2  -7  10  -44.40   46.20
   2  -7  10  -33.70   67.09
  -3   7 -10   67.39   81.79
   3  -7  10   -3.30   41.30
   3  -7  10  195.48   74.89
   3   6 -10  -10.60   59.59
   3   6 -10  127.29  126.29
   3   6 -10  104.19   69.09
  -3  -6  10   81.29   74.69
   2   6 -10   69.89   63.49
   2   6 -10  -90.59   52.09
   2   6 -10   62.49   88.69
  -2  -6  10  -70.89   55.99
  -2  -6  10   49.80   43.80
   1   6 -10  598.24   86.69
   1   6 -10  566.44   94.49
  -1  -6  10  728.03   76.29
  -1  -6  10  405.96   77.89
   0   6 -10   42.00   49.30
   0   6 -10    5.80   46.50
   0  -6  10  -75.69   32.60
   0  -6  10  -16.30   45.10
  -1   6 -10  369.86   62.89
   1  -6  10  254.07   53.79
   1  -6  10  290.07   50.09
  -2   6 -10   -6.20   57.29
   2  -6  10   56.29   63.89
   2  -6  10    3.00   42.00
   2  -6  10   -7.50   38.80
  -3   6 -10  142.89   70.39
   3  -6  10  270.07   76.99
   3  -6  10  199.48   59.09
   4   5 -10  -31.90   63.69
   4   5 -10   -6.70  132.59
   4   5 -10   53.99   79.79
  -4  -5  10   54.09   93.19
   3   5 -10  113.99   65.49
   3   5 -10   89.89   56.69
   3   5 -10  225.18   97.39
  -3  -5  10  -45.30   73.19
   2   5 -10   29.60   46.60
   2   5 -10  142.19   68.29
   2   5 -10   54.29   56.59
  -2  -5  10  118.59   56.79
  -2  -5  10   88.29   39.60
   1   5 -10  435.76   72.09
   1   5 -10  420.96   74.19
  -1  -5  10  384.76   65.29
  -1  -5  10  367.66   58.89
   0   5 -10   69.79   47.00
   0   5 -10   47.80   43.10
   0  -5  10    5.70   39.70
   0  -5  10  -49.99   26.60
  -1   5 -10  456.45   67.19
   1  -5  10  428.46   57.89
   1  -5  10  416.86   71.09
  -2   5 -10   65.09   52.09
   2  -5  10   80.19   37.30
   2  -5  10   43.40   35.40
   2  -5  10   12.30   58.39
  -3   5 -10  352.36   70.09
   3  -5  10  236.48   72.89
   3  -5  10  310.47   58.59
   4   4 -10  122.89   70.19
   4   4 -10   88.89  110.89
   4   4 -10   54.99   56.09
  -4  -4  10   43.80   68.39
   3   4 -10   98.99   46.20
   3   4 -10  158.78   74.19
   3   4 -10   82.49   54.89
  -3  -4  10   48.20   61.59
  -3  -4  10   67.19   48.20
   2   4 -10  575.64  103.79
   2   4 -10  435.56   66.79
   2   4 -10  463.25   77.39
   2   4 -10  404.86   70.19
   1   4 -10  145.79   48.50
   1   4 -10   60.69   39.00
  -1  -4  10  134.39   43.60
  -1  -4  10  101.79   32.00
   0   4 -10  313.77   60.29
   0   4 -10  411.86   68.79
   0  -4  10  402.56   55.19
   0  -4  10  331.77   47.10
  -1   4 -10   26.20   44.00
  -1   4 -10   72.89   41.50
   1  -4  10  135.89   33.10
   1  -4  10   40.90   29.80
  -2   4 -10  410.66   65.99
   2  -4  10  398.46   63.59
   2  -4  10  401.76   60.59
  -3   4 -10   53.79   54.99
   3  -4  10  112.09   46.60
   3  -4  10  155.48   65.49
   4  -4  10  147.99   54.99
   5   3 -10 -109.09   68.39
   5   3 -10  -95.29   79.79
  -5  -3  10   49.90  145.49
   4   3 -10  146.39   55.19
  -4  -3  10  174.08   69.99
  -4  -3  10  412.66  115.49
   3   3 -10   -0.90   39.20
   3   3 -10   89.39   97.99
   3   3 -10   11.50   46.90
  -3  -3  10    6.90   57.59
  -3  -3  10    3.60   50.69
  -3  -3  10   51.79   32.10
   2   3 -10  601.54   76.79
   2   3 -10  677.73   88.89
   2   3 -10  552.24   75.29
   2   3 -10  596.44   77.29
   2   3 -10  598.54   67.09
  -2  -3  10  591.44   83.59
  -2  -3  10  534.05   63.39
   1   3 -10  -26.00   31.70
   1   3 -10   31.50   38.30
   1   3 -10   13.90   26.30
  -1  -3  10    1.70   32.80
   0   3 -10 1501.65  132.39
   0   3 -10 1413.56  126.59
   0   3 -10 1555.14  130.39
   0  -3  10 1480.05  131.49
  -1   3 -10  -36.90   34.00
  -1   3 -10   27.90   37.10
  -1   3 -10  -15.70   23.50
   1  -3  10  -23.10   30.40
  -2   3 -10  726.03   75.49
  -2   3 -10  607.74   92.59
  -2   3 -10  746.13   84.39
   2  -3  10  596.64   75.29
  -3   3 -10   -5.20   54.39
   3  -3  10  -12.60   64.09
   3  -3  10   52.29   39.40
   3  -3  10   13.20   33.10
   4  -3  10  158.58   86.29
   4  -3  10  369.26   66.39
   5   2 -10  104.49   72.29
   5   2 -10  -43.00   53.29
  -5  -2  10  -35.20   61.79
  -5  -2  10  174.48  132.09
   4   2 -10  396.96   68.99
  -4  -2  10  372.06  100.19
  -4  -2  10  220.38   68.09
   3   2 -10   32.50   34.60
   3   2 -10   11.10   32.40
   3   2 -10   -4.80   42.30
   3   2 -10   56.59   82.49
  -3  -2  10  119.39   56.89
  -3  -2  10   32.10   43.00
   2   2 -10  412.26   69.39
   2   2 -10  509.55   59.89
   2   2 -10  478.55   58.69
   2   2 -10  423.06   62.79
  -2  -2  10  477.85   68.99
  -2  -2  10  394.56   66.59
   1   2 -10   30.30   30.60
   1   2 -10   61.69   32.90
   1   2 -10   35.40   26.40
  -1  -2  10   32.00   29.10
  -1  -2  10   42.30   32.40
   0   2 -10 1744.03  146.29
   0   2 -10 1800.62  146.99
   0   2 -10 1781.72  150.38
   0  -2  10 1990.30  150.28
   0  -2  10 1568.74  146.39
  -1   2 -10  187.08   34.10
  -1   2 -10  193.88   39.40
  -1   2 -10  189.68   41.50
   1  -2  10  167.08   38.80
  -2   2 -10  488.85   72.29
  -2   2 -10  551.34   66.59
   2  -2  10  540.35   70.09
  -3   2 -10   -9.30   34.70
  -3   2 -10   77.39   54.19
   3  -2  10   -4.50   37.30
   3  -2  10  -21.20   62.99
   4  -2  10  326.07   62.89
   4  -2  10  174.98   76.89
   5   1 -10   22.60   45.30
   5   1 -10  137.29   64.79
  -5  -1  10  347.97  123.69
  -5  -1  10   12.10   55.09
   4   1 -10   53.99   39.30
   4   1 -10   88.59   51.59
  -4  -1  10  149.29   50.69
  -4  -1  10   45.50   84.89
   3   1 -10  331.77   52.09
   3   1 -10  533.75  106.29
   3   1 -10  384.46   57.59
   3   1 -10  354.66   56.49
  -3  -1  10  417.36   77.09
  -3  -1  10  419.86   71.39
  -3  -1  10  291.17   52.89
   2   1 -10  181.48   55.99
   2   1 -10  184.58   37.10
   2   1 -10  165.48   30.80
   2   1 -10   97.19   33.60
  -2  -1  10  156.68   35.70
  -2  -1  10   97.49   38.60
   1   1 -10  694.13   75.59
   1   1 -10  785.32   70.49
   1   1 -10  753.42   70.19
  -1  -1  10  804.22   80.39
  -1  -1  10  621.04   67.79
   0   1 -10  814.52   79.49
   0   1 -10  987.40   89.19
   0   1 -10  857.01   80.19
   0  -1  10  785.22   79.49
   0  -1  10  871.91   87.39
  -1   1 -10  185.48   36.30
  -1   1 -10  123.89   31.30
  -1   1 -10  145.39   41.60
   1  -1  10  190.28   42.80
   1  -1  10  142.59   35.30
  -2   1 -10  216.68   46.30
  -2   1 -10  143.69   38.20
   2  -1  10  120.59   68.19
   2  -1  10  105.29   40.10
  -3   1 -10    4.10   39.20
  -3   1 -10   48.20   56.19
   3  -1  10   13.90   42.80
   3  -1  10  -51.69   61.39
   5   0 -10  174.08   54.79
  -5   0  10  245.58   62.79
  -5   0  10  244.78  126.99
   4   0 -10    6.70   33.90
   4   0 -10   -7.40   40.40
   4   0 -10   87.39   32.90
  -4   0  10   12.80   37.30
  -4   0  10   99.29   84.79
   3   0 -10  562.54   63.09
   3   0 -10  649.34   72.69
   3   0 -10  558.94  110.09
   3   0 -10  749.82   66.39
  -3   0  10  399.66   75.09
  -3   0  10  559.94   70.99
  -3   0  10  533.05   85.59
   2   0 -10   42.50   22.60
   2   0 -10   92.29   53.49
   2   0 -10   32.30   27.20
   2   0 -10  -24.70   28.50
  -2   0  10   -5.20   39.00
  -2   0  10   28.40   35.80
  -2   0  10   27.90   27.50
   1   0 -10  876.31   79.29
   1   0 -10  902.01   85.19
   1   0 -10  833.12   76.49
   1   0 -10  879.51   77.69
  -1   0  10 1032.40   91.69
  -1   0  10  726.53   83.09
  -1   0  10  836.72   74.69
   0   0 -10  398.46   50.79
   0   0 -10  500.55   59.09
   0   0 -10  422.36   51.69
   0   0  10  435.56   61.59
   0   0  10  360.46   48.60
  -1   0 -10  278.67   46.70
  -1   0 -10  295.17   50.69
  -1   0 -10  317.67   46.60
   1   0  10  342.17   51.49
   1   0  10  285.07   57.79
   1   0  10  278.27   48.90
   1   0  10  247.38   39.00
  -2   0 -10   -0.40   28.90
  -2   0 -10  -22.00   40.70
   2   0  10  133.99   75.59
   2   0  10   53.39   38.20
  -3   0 -10   57.69   46.80
   3   0  10  135.39   51.99
   3   0  10   95.09   64.79
  -6   1  10    1.80  156.28
   5  -1 -10  357.76   59.99
  -5   1  10  379.86   67.59
  -5   1  10  355.96  124.39
   4  -1 -10   19.40   38.00
   4  -1 -10   23.80   32.50
   4  -1 -10    1.10   30.50
  -4   1  10   48.30   82.29
  -4   1  10  -35.30   38.90
  -4   1  10  -48.90   47.80
   3  -1 -10  649.24  121.09
   3  -1 -10  856.51   87.29
  -3   1  10  874.81   80.89
  -3   1  10  875.21  103.09
   2  -1 -10   36.80   54.49
   2  -1 -10  125.69   30.30
   2  -1 -10  115.29   30.30
   2  -1 -10   95.39   35.30
  -2   1  10  133.49   27.80
  -2   1  10   70.99   46.40
  -2   1  10   84.09   36.30
   1  -1 -10 1072.19   92.99
   1  -1 -10 1037.50   99.19
   1  -1 -10 1135.69   99.79
   1  -1 -10  996.60   88.09
  -1   1  10 1032.80   99.29
  -1   1  10  952.30   85.49
  -1   1  10 1157.08  100.79
   0  -1 -10    0.50   34.60
   0  -1 -10   31.10   22.70
   0  -1 -10  -10.60   22.60
   0   1  10   20.80   24.80
   0   1  10   40.00   34.30
   0   1  10   48.00   32.00
   0   1  10   -1.80   39.10
  -1  -1 -10  287.27   50.79
  -1  -1 -10  311.67   54.99
  -1  -1 -10  417.16   54.19
   1   1  10  363.96   70.69
   1   1  10  271.97   43.30
   1   1  10  426.76   71.59
   1   1  10  457.35   67.79
  -2  -1 -10  -16.40   30.40
   2   1  10   65.49   43.00
   2   1  10   21.90   84.19
  -3  -1 -10  262.27   59.19
   3   1  10  189.08   66.39
   3   1  10  254.57   64.29
   3   1  10  194.48   81.59
   6  -2 -10  -10.30   78.19
   6  -2 -10  -70.19   65.59
  -6   2  10  -34.10  149.59
   5  -2 -10  486.85   76.89
   5  -2 -10  530.85   89.79
   5  -2 -10  435.06   54.29
  -5   2  10  287.07  124.29
  -5   2  10  462.15   70.79
   4  -2 -10  207.08   61.09
   4  -2 -10  137.29   35.70
   4  -2 -10  173.78   40.60
   4  -2 -10   88.79   36.10
  -4   2  10  117.49   44.80
  -4   2  10  215.88   91.89
   3  -2 -10  198.78   88.19
   3  -2 -10  151.98   34.70
   3  -2 -10  181.18   39.40
  -3   2  10  153.78   41.20
  -3   2  10  308.97   71.69
   2  -2 -10   -4.40   64.59
   2  -2 -10   36.10   26.00
   2  -2 -10   21.20   33.60
  -2   2  10    2.90   31.50
  -2   2  10  -13.90   50.19
   1  -2 -10  506.45   71.19
   1  -2 -10  485.95   70.99
   1  -2 -10  557.14   56.49
  -1   2  10  507.55   68.89
  -1   2  10  437.46   75.39
   0  -2 -10    7.70   22.80
   0  -2 -10    4.10   36.50
   0   2  10    2.00   32.70
   0   2  10  -60.59   42.00
   0   2  10  -10.10   50.79
  -1  -2 -10  632.44   82.49
  -1  -2 -10  467.35   59.49
   1   2  10  591.04   78.79
   1   2  10  417.76   78.19
   1   2  10  505.45   65.49
   1   2  10  516.45  106.89
  -2  -2 -10   56.99   35.50
   2   2  10   69.19   47.40
   2   2  10   46.10   47.30
   2   2  10  -20.90   97.19
  -3  -2 -10  217.68   63.39
   3   2  10   91.59   68.69
   3   2  10  239.78   75.89
   3   2  10  184.78   66.39
  -6   3  10 -153.18  152.68
   5  -3 -10  209.98   49.10
   5  -3 -10  121.89   51.19
   5  -3 -10  182.98   41.80
  -5   3  10  126.69   48.80
  -5   3  10  119.19  120.69
   4  -3 -10  154.88   35.80
   4  -3 -10   90.29   32.60
   4  -3 -10   73.99   36.70
  -4   3  10  257.87   99.69
  -4   3  10    7.40   43.60
   3  -3 -10   11.10   28.80
   3  -3 -10   93.59   92.59
   3  -3 -10   59.09   36.60
  -3   3  10   -4.40   37.80
  -3   3  10   84.49   76.19
   2  -3 -10  229.08   77.09
   2  -3 -10  267.17   50.29
   2  -3 -10  358.26   46.90
  -2   3  10  339.77   70.59
  -2   3  10  395.46   60.59
   1  -3 -10  249.88   48.70
   1  -3 -10  158.18   57.29
   1  -3 -10  254.17   40.90
  -1   3  10  269.67   45.40
  -1   3  10  304.57   63.79
   0  -3 -10  417.66   56.19
   0  -3 -10  465.65   78.59
   0   3  10  536.55   99.49
   0   3  10  458.65   73.69
  -1  -3 -10  118.39   32.30
  -1  -3 -10  223.18   54.19
   1   3  10  342.27  100.59
   1   3  10   90.19   46.90
   1   3  10  178.38   39.50
  -2  -3 -10  288.37   54.89
   2   3  10  206.18   57.49
   2   3  10  240.78  142.29
   2   3  10  229.88   62.79
  -6   4  10  267.97  168.08
   5  -4 -10  195.48   45.70
   5  -4 -10  133.19   51.39
  -5   4  10  122.29   48.90
  -5   4  10   82.49  137.49
   4  -4 -10  236.78   45.30
   4  -4 -10  185.18   43.80
  -4   4  10  297.57  115.59
  -4   4  10  201.68   47.40
   3  -4 -10   87.59   33.10
   3  -4 -10   -5.50   37.60
  -3   4  10  -54.69   82.79
  -3   4  10   47.40   40.60
   2  -4 -10  661.03   86.79
   2  -4 -10  596.14   69.29
  -2   4  10  494.25   81.59
  -2   4  10  686.13  115.69
   1  -4 -10  -27.70   42.30
   1  -4 -10  -24.50   60.39
   1  -4 -10   48.70   26.50
  -1   4  10    3.40   34.10
  -1   4  10   -6.80   71.29
   0  -4 -10  574.54   75.09
   0  -4 -10  805.42   95.89
   0   4  10  761.42  132.59
   0   4  10  617.04   90.29
  -1  -4 -10  -49.50   55.29
  -1  -4 -10   14.90   30.90
   1   4  10   54.89   50.59
   1   4  10  -78.49  122.39
  -2  -4 -10  139.29   55.69
   2   4  10  203.68   64.89
   2   4  10  422.56  161.08
   2   4  10  239.08   66.29
   5  -5 -10    4.40   49.99
   5  -5 -10   -1.30   39.90
  -5   5  10   26.00   45.20
  -5   5  10  -12.40  144.29
   4  -5 -10   98.69   44.20
   4  -5 -10   85.19   36.40
  -4   5  10  103.99   50.79
  -4   5  10   75.19  122.39
   3  -5 -10   19.30   30.00
   3  -5 -10   20.30   44.00
  -3   5  10   82.99   48.00
  -3   5  10  118.29  105.59
   2  -5 -10  623.94   79.79
   2  -5 -10  705.83   96.89
  -2   5  10  664.13   85.89
  -2   5  10  739.93  144.99
   1  -5 -10   40.20   33.70
   1  -5 -10  -18.20   50.29
  -1   5  10   23.40  100.99
  -1   5  10   14.30   38.80
   0  -5 -10  547.05   97.79
   0  -5 -10  484.75   70.69
   0   5  10  534.55   76.59
   0   5  10  705.63  146.29
  -1  -5 -10   44.10   45.80
   1   5  10   69.39  148.59
   1   5  10   38.40   50.79
   5  -6 -10   44.70   45.70
   5  -6 -10   28.80   52.19
  -5   6  10   94.29  170.48
  -5   6  10   41.90   49.90
   4  -6 -10   88.49   44.80
   4  -6 -10   48.70   51.19
  -4   6  10   89.39  137.49
  -4   6  10  105.39   50.79
   3  -6 -10  245.38   51.19
   3  -6 -10  229.58   59.69
  -3   6  10  203.28  134.79
  -3   6  10  204.88   60.39
   2  -6 -10  218.78   49.00
   2  -6 -10   89.39   58.69
  -2   6  10  209.78   54.49
  -2   6  10  204.28  114.49
   1  -6 -10   47.30   57.39
   1  -6 -10   -1.70   44.10
  -1   6  10   -0.50  120.79
  -1   6  10   18.40   49.00
   0  -6 -10  276.37   71.79
   0  -6 -10  304.67   61.89
   0   6  10  252.37   61.39
   0   6  10  313.87  156.88
   4  -7 -10    0.60   57.69
   4  -7 -10   32.30   55.99
  -4   7  10  154.08  177.08
  -4   7  10   55.89   56.69
   3  -7 -10  251.37   66.89
   3  -7 -10  286.27   68.49
  -3   7  10  427.26  160.88
  -3   7  10  388.86   68.29
   2  -7 -10  -95.99   61.59
   2  -7 -10   27.40   53.59
  -2   7  10  223.28  141.99
   1  -7 -10   60.99   59.29
   1  -7 -10   -9.60   72.29
  -1   7  10   39.90   46.60
  -1   7  10 -132.59  138.79
   3  -8 -10  260.67   78.09
  -3   8  10 -134.59  186.48
  -2   8  10  112.49  168.58
   0   8 -11  169.38   71.69
   2   7 -11  -43.00   86.49
   1   7 -11   72.59   62.19
   1   7 -11  137.59   69.29
  -1  -7  11  249.28   54.39
  -1  -7  11   10.90   60.09
   0   7 -11  213.98   69.29
   0  -7  11  204.18   57.19
   0  -7  11  270.57   66.39
  -1   7 -11  110.99   67.29
   1  -7  11  187.98   60.39
   1  -7  11   64.29   52.49
  -2   7 -11  129.09   70.69
   2  -7  11   98.69   85.49
   2  -7  11  152.88   53.99
   3   6 -11  195.18   86.89
   2   6 -11  -32.40   61.59
   2   6 -11  -24.30   73.29
  -2  -6  11  -40.30   67.49
  -2  -6  11   28.20   47.10
   1   6 -11  187.48   65.59
   1   6 -11  288.97   72.69
  -1  -6  11  352.26   55.69
  -1  -6  11  244.68   62.99
   0   6 -11  104.99   58.49
   0   6 -11  142.79   63.29
   0  -6  11   74.49   43.80
   0  -6  11   84.29   55.99
  -1   6 -11   87.39   57.99
   1  -6  11  174.68   50.99
   1  -6  11  108.29   53.89
  -2   6 -11  228.18   62.89
   2  -6  11  134.09   75.99
   2  -6  11  -43.90   56.19
   2  -6  11   95.99   53.69
   3   5 -11  316.27   77.79
   3   5 -11  169.28   69.89
  -3  -5  11  141.39   68.29
   2   5 -11   87.79   67.19
   2   5 -11   -2.30   51.89
  -2  -5  11   33.90   40.80
  -2  -5  11  107.79   61.69
   1   5 -11  304.97   59.39
   1   5 -11  460.35   74.19
  -1  -5  11  394.16   54.09
  -1  -5  11  360.76   73.59
   0   5 -11  -14.50   46.70
   0   5 -11  -25.10   54.79
   0  -5  11   36.80   44.80
   0  -5  11   21.10   33.80
  -1   5 -11  439.16   70.39
   1  -5  11  321.97   58.99
   1  -5  11  354.16   52.29
  -2   5 -11   36.20   57.39
   2  -5  11  -21.20   67.79
   2  -5  11  -12.30   43.10
   2  -5  11   59.69   45.20
  -3   5 -11  464.65   89.29
   3  -5  11  527.35   72.69
   3  -5  11  259.27   86.39
   4   4 -11   58.59  113.89
   4   4 -11  -75.39   74.59
   4   4 -11   14.50   67.89
  -4  -4  11   80.29   78.19
   3   4 -11  258.47   68.29
   3   4 -11   99.79   60.99
   3   4 -11  255.87   83.19
  -3  -4  11  148.19   72.69
  -3  -4  11  173.58   44.10
   2   4 -11   82.59   46.30
   2   4 -11   52.19   59.19
  -2  -4  11   41.00   34.20
  -2  -4  11  109.09   55.69
   1   4 -11  453.05   81.99
   1   4 -11  460.65   80.09
  -1  -4  11  433.16   59.89
  -1  -4  11  493.15   81.19
   0   4 -11   62.49   50.09
   0   4 -11   74.39   44.80
   0  -4  11   46.20   42.00
   0  -4  11   27.30   28.20
  -1   4 -11  391.86   67.89
  -1   4 -11  542.25   78.19
   1  -4  11  356.16   61.79
   1  -4  11  554.24   62.49
  -2   4 -11  131.39   57.89
   2  -4  11    6.90   40.30
   2  -4  11  132.79   47.70
  -3   4 -11  350.56   75.99
   3  -4  11  395.76   71.19
   3  -4  11  389.36   82.29
   4   3 -11    9.80   54.69
   4   3 -11  244.38   71.39
  -4  -3  11  139.99  106.99
  -4  -3  11  -46.70   63.49
   3   3 -11  167.28   57.49
   3   3 -11   50.99   46.80
  -3  -3  11    2.40   55.99
  -3  -3  11   90.59   41.10
   2   3 -11  222.18   41.70
   2   3 -11  297.17   62.19
   2   3 -11  211.08   51.09
   2   3 -11  197.58   52.69
  -2  -3  11  134.69   47.80
   1   3 -11  124.79   31.60
   1   3 -11   76.39   46.00
   1   3 -11   74.49   40.20
  -1  -3  11  124.09   37.90
   0   3 -11  272.87   56.79
   0   3 -11  399.46   61.79
   0   3 -11  373.36   57.29
   0  -3  11  498.45   67.49
  -1   3 -11   56.99   44.90
  -1   3 -11  158.18   45.80
  -1   3 -11   95.19   31.40
   1  -3  11  145.29   45.80
  -2   3 -11  237.68   48.30
  -2   3 -11  135.09   49.50
   2  -3  11  287.57   50.39
  -3   3 -11  246.38   64.99
   3  -3  11   66.99   48.30
   3  -3  11  -38.40   74.69
   5   2 -11  -87.29   66.59
   5   2 -11  -11.60   77.39
  -5  -2  11  181.28  145.19
   4   2 -11  179.88   57.69
   4   2 -11  353.36   69.09
  -4  -2  11  191.48   67.29
  -4  -2  11  331.57  103.59
   3   2 -11  -26.00   49.00
   3   2 -11    3.40   41.60
   3   2 -11   28.80   39.00
  -3  -2  11   71.69   58.89
  -3  -2  11   41.70   44.10
   2   2 -11  909.01   84.89
   2   2 -11  883.31   88.29
   2   2 -11  756.62   90.99
  -2  -2  11  770.82   98.49
   1   2 -11   12.70   27.80
   1   2 -11   93.89   35.80
   1   2 -11   63.19   36.10
  -1  -2  11   -2.80   33.80
  -1  -2  11  -10.00   38.70
   0   2 -11  630.14   84.09
   0   2 -11  616.14   73.89
   0   2 -11  699.93   72.19
   0  -2  11  739.23   81.29
  -1   2 -11   40.30   39.00
  -1   2 -11   32.00   41.40
  -1   2 -11   37.20   27.60
   1  -2  11   88.89   40.40
  -2   2 -11  337.47   55.29
  -2   2 -11  315.47   59.09
   2  -2  11  311.57   57.19
  -3   2 -11   82.19   64.59
  -3   2 -11   31.60   47.40
   3  -2  11   39.90   69.89
   3  -2  11   46.50   50.19
   5   1 -11    6.80   57.09
  -5  -1  11  -58.39   63.29
  -5  -1  11  -71.29  128.99
   4   1 -11  151.38   50.59
  -4  -1  11  272.07   66.59
  -4  -1  11  169.18   98.29
   3   1 -11    4.20   36.10
   3   1 -11   83.39   34.20
   3   1 -11   -3.30   96.29
   3   1 -11  142.39   43.50
  -3  -1  11   52.89   55.39
  -3  -1  11  -19.50   39.60
   2   1 -11  888.61   94.29
   2   1 -11  743.13   90.99
   2   1 -11 1024.00   84.59
   2   1 -11  996.70   82.89
  -2  -1  11  690.03   83.49
  -2  -1  11  795.02   94.69
   1   1 -11  196.28   39.10
   1   1 -11  109.19   38.80
   1   1 -11  112.19   29.40
  -1  -1  11  154.88   34.80
  -1  -1  11  127.99   45.40
   0   1 -11  485.75   60.39
   0   1 -11  410.66   57.29
   0   1 -11  455.95   70.89
   0  -1  11  307.67   58.59
   0  -1  11  530.45   71.19
  -1   1 -11  100.79   31.40
  -1   1 -11  101.59   37.80
  -1   1 -11   -2.60   39.80
   1  -1  11   63.99   39.70
  -2   1 -11  188.98   45.50
  -2   1 -11  259.17   57.09
   2  -1  11  263.17   54.59
  -3   1 -11   52.09   57.39
   3  -1  11  -13.40   51.79
   3  -1  11  -77.59   70.39
   5   0 -11    1.60   47.00
   5   0 -11   15.50   63.69
  -5   0  11 -115.89   58.69
  -5   0  11  -10.60  135.39
   4   0 -11  227.08   54.19
   4   0 -11  113.29   47.40
   4   0 -11   64.39   38.50
  -4   0  11  301.57   99.49
  -4   0  11  125.29   57.19
   3   0 -11  389.96   55.79
   3   0 -11  417.16   58.39
   3   0 -11  402.96   68.99
   3   0 -11  211.98   88.79
  -3   0  11  392.76   63.19
  -3   0  11  261.17   67.49
  -3   0  11  323.87   55.09
   2   0 -11  246.68   39.40
   2   0 -11  207.48   60.39
   2   0 -11  141.19   40.30
  -2   0  11  219.08   48.50
  -2   0  11  167.18   37.50
  -2   0  11  269.87   50.19
   1   0 -11  157.98   32.50
   1   0 -11  110.09   37.20
   1   0 -11  112.59   30.40
   1   0 -11  108.99   26.90
  -1   0  11  104.19   29.90
  -1   0  11   78.29   37.20
   0   0 -11  154.58   34.00
   0   0 -11  181.28   36.60
   0   0 -11  141.09   43.10
   0   0  11  129.69   48.70
   0   0  11  120.09   35.70
  -1   0 -11  232.28   40.50
  -1   0 -11  219.18   49.99
  -1   0 -11  225.38   42.70
   1   0  11  222.48   50.39
   1   0  11  179.28   42.10
  -2   0 -11  240.58   48.60
  -2   0 -11  157.18   55.99
   2   0  11  229.28   57.19
  -3   0 -11   53.19   56.79
   3   0  11   89.59   59.59
   3   0  11   98.19   73.59
   5  -1 -11   70.19   47.50
   5  -1 -11  182.08   65.79
  -5   1  11  101.09   52.79
  -5   1  11  204.68  132.59
   4  -1 -11  -11.70   41.10
   4  -1 -11  108.49   44.80
   4  -1 -11   73.79   32.00
  -4   1  11   24.20   90.69
  -4   1  11  -74.69   43.20
   3  -1 -11  449.76   61.49
   3  -1 -11  544.15   61.49
   3  -1 -11  412.06   72.79
  -3   1  11  493.45   75.09
  -3   1  11  604.14   92.29
  -3   1  11  440.96   65.69
   2  -1 -11  106.29   30.20
   2  -1 -11  112.69   31.80
   2  -1 -11   47.00   63.99
   2  -1 -11  101.09   38.60
  -2   1  11   86.19   37.50
  -2   1  11  133.29   30.40
  -2   1  11  138.19   50.79
   1  -1 -11  124.59   33.30
   1  -1 -11  246.38   45.70
   1  -1 -11  220.38   35.30
   1  -1 -11  179.28   43.00
  -1   1  11  202.78   32.40
  -1   1  11  195.08   44.80
  -1   1  11  288.67   55.59
   0  -1 -11   80.09   29.20
   0  -1 -11  111.59   32.30
   0  -1 -11  139.49   45.00
   0   1  11  213.08   47.80
   0   1  11  120.79   32.70
   0   1  11  151.38   49.00
   0   1  11   95.49   47.80
  -1  -1 -11  427.36   62.69
  -1  -1 -11  539.35   84.99
  -1  -1 -11  475.55   65.39
   1   1  11  519.85   92.39
   1   1  11  556.04   85.69
  -2  -1 -11  144.19   45.50
   2   1  11   50.79   54.09
   5  -2 -11  282.07   57.29
   5  -2 -11  200.98   47.50
   5  -2 -11   48.20   90.39
  -5   2  11  292.97  129.09
  -5   2  11  343.67   65.29
   4  -2 -11  100.39   45.80
   4  -2 -11  116.09   42.70
   4  -2 -11   19.20   34.70
  -4   2  11  111.39   51.79
  -4   2  11  160.88   99.29
   3  -2 -11  353.96   53.39
   3  -2 -11  480.75   70.29
   3  -2 -11  158.78   89.99
  -3   2  11  336.67   79.59
  -3   2  11  262.97   54.89
   2  -2 -11   30.80   73.29
   2  -2 -11   13.50   25.90
   2  -2 -11  -27.20   38.30
  -2   2  11   -2.70   58.99
  -2   2  11    6.70   34.50
   1  -2 -11  316.67   52.39
   1  -2 -11  264.87   54.49
   1  -2 -11  234.38   39.00
  -1   2  11  354.46   67.79
  -1   2  11  345.37   54.69
   0  -2 -11   87.69   32.20
   0  -2 -11   85.29   45.20
   0   2  11   90.29   58.49
   0   2  11   30.20   37.10
  -1  -2 -11 1049.70  110.19
  -1  -2 -11  756.02   85.19
   1   2  11  819.22  130.69
   1   2  11  781.12  102.29
   1   2  11  854.81   90.49
  -2  -2 -11  -12.90   48.30
   2   2  11   76.89   54.59
   5  -3 -11  272.67   56.39
   5  -3 -11  259.67   50.49
  -5   3  11   97.79  134.49
  -5   3  11  150.38   57.49
   4  -3 -11  104.49   44.50
   4  -3 -11   23.50   32.90
  -4   3  11  -70.19   49.50
  -4   3  11  -59.99  101.29
   3  -3 -11  112.19   44.50
   3  -3 -11   42.90   29.70
  -3   3  11   86.49   41.10
   2  -3 -11   29.40   27.90
   2  -3 -11   18.40   77.59
   2  -3 -11   24.30   45.80
  -2   3  11   19.80   68.09
  -2   3  11   76.19   43.50
   1  -3 -11  600.04   85.09
   1  -3 -11  359.26   82.99
   1  -3 -11  519.55   61.29
  -1   3  11  572.74  100.89
  -1   3  11  591.34   84.99
   0  -3 -11   81.49   33.70
   0  -3 -11  142.09   53.09
   0   3  11  193.48   75.49
   0   3  11  153.58   46.70
  -1  -3 -11  513.55   84.29
  -1  -3 -11  610.34   78.09
   1   3  11  604.54   98.79
   1   3  11  659.23  124.29
  -2  -3 -11  -27.10   52.29
   2   3  11  -63.69   59.69
   5  -4 -11   34.50   48.20
   5  -4 -11   58.89   46.80
  -5   4  11   28.90  144.29
  -5   4  11   99.09   57.79
   4  -4 -11  183.88   51.89
   4  -4 -11  163.08   44.10
  -4   4  11   51.19   51.09
  -4   4  11  183.78  116.49
   3  -4 -11    3.20   46.40
   3  -4 -11    9.40   34.20
  -3   4  11   51.39   51.59
  -3   4  11  124.59   96.49
   2  -4 -11  555.54   92.89
   2  -4 -11  434.56   61.39
  -2   4  11  435.76   99.69
  -2   4  11  418.36   69.99
   1  -4 -11  293.77   47.70
   1  -4 -11  226.58   59.79
  -1   4  11  308.37   62.29
  -1   4  11  267.87   90.69
   0  -4 -11  307.97   65.19
   0  -4 -11  210.78   51.49
   0   4  11  241.78  109.39
   0   4  11  381.86   67.49
  -1  -4 -11   93.29   44.60
   1   4  11   49.20   59.09
   1   4  11  147.29  132.69
   5  -5 -11 -101.19   51.59
   5  -5 -11  -42.40   50.89
  -5   5  11   19.90   49.00
  -5   5  11   22.90  157.98
   4  -5 -11  283.17   62.09
   4  -5 -11  395.36   67.29
  -4   5  11  156.18  136.99
  -4   5  11  345.87   66.49
   3  -5 -11    1.70   53.59
   3  -5 -11  103.09   43.00
  -3   5  11   20.50  118.19
  -3   5  11    2.40   48.40
   2  -5 -11  722.23  111.69
   2  -5 -11  721.33   84.89
  -2   5  11  659.03   95.59
  -2   5  11  552.54  134.29
   1  -5 -11   88.99   45.40
   1  -5 -11  -70.19   58.29
  -1   5  11   31.80   46.20
  -1   5  11   -8.10  108.29
   0  -5 -11  212.58   57.79
   0  -5 -11  198.18   65.59
   0   5  11  105.99   54.49
   0   5  11  308.67  135.59
   4  -6 -11  339.57   72.99
   4  -6 -11  431.26   78.59
  -4   6  11  495.75   78.59
  -4   6  11  231.78  152.78
   3  -6 -11   23.00   51.09
   3  -6 -11   55.79   62.29
  -3   6  11  117.39   60.69
  -3   6  11  131.09  147.99
   2  -6 -11  427.66   72.39
   2  -6 -11  414.66   72.49
  -2   6  11  379.06  138.79
  -2   6  11  402.36   65.19
   1  -6 -11  -12.60   52.99
   1  -6 -11  -22.60   64.39
  -1   6  11  -85.79  128.39
  -1   6  11   44.70   53.09
   0   6  11  277.67  160.78
   3  -7 -11   43.40   69.09
   3  -7 -11  149.09   56.99
  -3   7  11  156.88  172.38
  -3   7  11  218.88   68.49
   2  -7 -11   90.39   72.69
   2  -7 -11   87.59   53.59
  -2   7  11  -49.00  166.68
  -2   7  11   19.70   64.39
   1   7 -12   66.19   74.49
   0   7 -12   79.09   70.89
   0  -7  12  251.17   71.29
   0  -7  12  -10.60   60.89
   2   6 -12  186.58   75.29
   2   6 -12   11.90   67.09
  -2  -6  12   96.19   55.09
  -2  -6  12  103.39   68.49
   1   6 -12  116.99   69.39
   1   6 -12  219.78   75.29
  -1  -6  12   63.79   68.69
  -1  -6  12  143.89   51.69
   0   6 -12   86.49   68.89
   0   6 -12  182.28   73.19
   0  -6  12  105.59   62.89
   0  -6  12   58.49   52.19
  -1   6 -12  -18.40   62.19
   1  -6  12   43.50   56.69
   1  -6  12  101.19   60.89
   2  -6  12  127.99   50.09
   3   5 -12  155.68   86.29
   3   5 -12   75.09   70.89
  -3  -5  12  210.48   88.89
   2   5 -12   17.30   68.29
   2   5 -12  -83.29   57.29
  -2  -5  12  128.09   47.50
  -2  -5  12  -12.50   64.59
   1   5 -12   61.19   58.99
   1   5 -12   99.59   68.19
  -1  -5  12   99.79   43.20
  -1  -5  12  170.68   63.89
   0   5 -12   62.49   60.59
   0   5 -12    6.80   55.29
   0  -5  12   -6.00   40.60
   0  -5  12   89.09   55.09
  -1   5 -12   86.79   59.79
   1  -5  12  104.49   47.10
   1  -5  12   89.79   56.79
  -2   5 -12  -12.70   61.49
   2  -5  12    5.30   77.79
   2  -5  12   80.59   49.90
   3   4 -12  150.08   70.19
   3   4 -12  229.08   73.29
  -3  -4  12   53.89   70.69
  -3  -4  12  193.08   48.60
   2   4 -12   82.19   57.59
   2   4 -12  -23.30   52.49
  -2  -4  12   21.40   60.69
  -2  -4  12  -51.49   38.80
   1   4 -12  445.06   73.19
   1   4 -12  383.16   62.49
  -1  -4  12  278.07   63.59
  -1  -4  12  459.35   59.29
   0   4 -12   11.20   52.29
   0   4 -12  -43.60   48.00
   0  -4  12   27.40   32.90
   0  -4  12   28.70   44.20
  -1   4 -12  629.84   87.39
  -1   4 -12  446.96   78.19
   1  -4  12  617.54   78.29
   1  -4  12  534.15   74.99
  -2   4 -12   39.10   61.99
   2  -4  12   73.99   51.59
   2  -4  12  -58.79   50.69
   4   3 -12  -15.20   63.29
   4   3 -12  104.99   76.39
  -4  -3  12  -52.09   76.19
   3   3 -12  114.49   64.29
  -3  -3  12  110.19   48.60
  -3  -3  12  112.59   62.19
   2   3 -12  -14.20   37.50
   2   3 -12   13.20   50.49
   2   3 -12   -9.20   49.99
  -2  -3  12  -27.20   53.69
   1   3 -12  795.52   89.99
   1   3 -12  642.24   93.29
   1   3 -12  609.94   74.39
  -1  -3  12  598.44   84.59
   0   3 -12   60.89   48.00
   0   3 -12    1.40   32.90
   0   3 -12  108.29   44.50
   0  -3  12   61.49   47.30
  -1   3 -12  426.36   74.09
  -1   3 -12  315.17   50.49
  -1   3 -12  310.87   66.59
   1  -3  12  320.57   57.19
  -2   3 -12  -67.49   41.20
  -2   3 -12   33.70   54.39
   2  -3  12   61.29   50.09
   4   2 -12  -37.70   57.99
   4   2 -12   89.99   70.19
  -4  -2  12  114.39   64.89
  -4  -2  12   49.90  109.59
   3   2 -12    3.20   42.30
   3   2 -12  162.98   60.19
   3   2 -12   66.09   49.10
  -3  -2  12   84.69   69.49
  -3  -2  12   30.40   59.49
   2   2 -12  296.17   56.19
   2   2 -12  187.98   39.70
  -2  -2  12  117.69   51.49
   1   2 -12  284.37   51.99
   1   2 -12  178.98   50.09
   1   2 -12  208.78   41.30
  -1  -2  12  171.18   47.80
   0   2 -12  313.17   59.99
   0   2 -12  393.26   54.89
   0   2 -12  417.36   58.09
   0  -2  12  322.37   59.79
  -1   2 -12  122.69   46.90
  -1   2 -12  121.29   35.00
  -1   2 -12   71.59   53.59
   1  -2  12  132.39   47.90
  -2   2 -12   13.00   51.69
  -2   2 -12   29.70   50.59
   2  -2  12   79.29   59.09
   4   1 -12  134.59   62.29
   4   1 -12  317.27   69.89
  -4  -1  12  314.87   97.79
  -4  -1  12  269.27   69.59
   3   1 -12   -1.50   36.10
   3   1 -12   62.39   50.69
   3   1 -12    6.80   45.50
  -3  -1  12   25.40   51.99
  -3  -1  12   30.60   59.09
   2   1 -12  673.63   84.29
   2   1 -12  765.22   76.19
   2   1 -12  692.83   77.99
  -2  -1  12  432.86   76.29
  -2  -1  12  530.25   79.69
  -2  -1  12  512.95   86.79
   1   1 -12   45.70   42.60
   1   1 -12   65.19   39.20
   1   1 -12   82.59   30.80
  -1  -1  12   78.29   40.40
  -1  -1  12   48.20   37.60
   0   1 -12  528.45   70.79
   0   1 -12  476.55   67.09
   0   1 -12  478.35   65.49
   0  -1  12  429.06   67.39
   0  -1  12  552.24   85.49
  -1   1 -12   34.20   47.70
  -1   1 -12   38.10   34.40
  -1   1 -12  -54.89   39.10
   1  -1  12  -88.09   44.30
  -2   1 -12  199.48   57.69
  -2   1 -12  194.38   53.09
   2  -1  12   90.79   57.39
   5   0 -12   82.99   77.39
   5   0 -12  103.99   63.39
  -5   0  12   65.09   64.89
  -5   0  12   83.59  141.89
   4   0 -12  244.38   63.99
  -4   0  12  373.56  102.89
  -4   0  12  272.77   64.89
   3   0 -12   41.10   36.40
   3   0 -12   59.59   47.10
   3   0 -12   39.20   47.90
  -3   0  12    2.30   46.20
  -3   0  12   85.99   64.39
   2   0 -12  593.84   68.69
   2   0 -12  539.75   84.09
   2   0 -12  523.05   67.19
  -2   0  12  569.04   83.59
   1   0 -12   36.80   30.90
   1   0 -12   87.49   35.50
   1   0 -12   51.79   40.40
  -1   0  12  -37.60   30.40
  -1   0  12   60.39   38.00
   0   0 -12  401.56   60.79
   0   0 -12  371.26   54.79
   0   0 -12  395.36   61.99
   0   0  12  390.76   61.69
  -1   0 -12   51.49   44.30
  -1   0 -12   66.69   38.40
  -1   0 -12   86.19   49.80
   1   0  12   29.50   48.00
  -2   0 -12  377.76   64.79
  -2   0 -12  296.47   67.69
   2   0  12  293.47   67.89
   5  -1 -12  -10.60   60.29
  -5   1  12  206.48  142.29
  -5   1  12   14.60   60.49
   4  -1 -12  138.49   55.99
   4  -1 -12  152.18   55.69
   4  -1 -12  196.68   44.30
  -4   1  12   53.29   56.29
  -4   1  12  101.59   99.19
   3  -1 -12  158.98   45.90
   3  -1 -12   81.79   34.50
   3  -1 -12   92.09   49.70
  -3   1  12  159.78   52.69
  -3   1  12   83.29   65.59
   2  -1 -12   79.69   52.49
   2  -1 -12  243.28   40.00
   2  -1 -12  245.18   41.30
  -2   1  12  232.58   57.19
  -2   1  12  212.58   47.90
   1  -1 -12  223.98   39.70
   1  -1 -12  239.88   51.09
   1  -1 -12  131.79   36.10
  -1   1  12  253.57   60.09
  -1   1  12  254.17   50.09
   0  -1 -12  345.57   57.99
   0  -1 -12  351.76   49.20
   0  -1 -12  384.66   62.59
   0   1  12  373.26   64.59
  -1  -1 -12  145.89   47.40
  -1  -1 -12  101.99   55.89
  -1  -1 -12  200.58   81.29
   1   1  12  129.89   62.39
  -2  -1 -12  282.07   59.79
   2   1  12  216.18   74.49
   5  -2 -12   28.90   59.29
   5  -2 -12   38.40   45.30
  -5   2  12   37.20  142.19
  -5   2  12  126.49   60.99
   4  -2 -12   41.00   51.69
   4  -2 -12  -16.30   38.50
  -4   2  12   75.39   55.19
  -4   2  12  108.09  109.59
   3  -2 -12  162.18   51.69
   3  -2 -12  114.39   37.80
  -3   2  12  189.98   53.19
  -3   2  12  239.88   82.59
   2  -2 -12  101.19   34.90
   2  -2 -12   71.49   50.59
  -2   2  12  103.59   63.69
  -2   2  12   66.99   52.69
   1  -2 -12  441.26   63.19
   1  -2 -12  508.45   86.59
  -1   2  12  491.35   91.09
  -1   2  12  475.05   72.39
   0  -2 -12   97.19   39.00
   0  -2 -12   89.59   54.99
   0   2  12  103.39   93.99
   0   2  12  187.38   56.69
  -1  -2 -12  239.38   69.99
  -1  -2 -12  229.98   57.69
   1   2  12  305.47   68.29
   5  -3 -12  137.69   49.20
   5  -3 -12  -69.29   77.49
  -5   3  12  182.78   67.49
  -5   3  12  511.45  160.18
   4  -3 -12   -5.90   37.60
   4  -3 -12   46.40   52.59
  -4   3  12   54.39  120.39
  -4   3  12   20.50   51.09
   3  -3 -12  166.98   41.60
   3  -3 -12  258.37   57.99
  -3   3  12   81.59   55.19
  -3   3  12  263.27  103.79
   2  -3 -12   -8.40   54.09
   2  -3 -12  104.89   38.60
  -2   3  12   78.09   47.40
  -2   3  12  101.59   78.79
   1  -3 -12  978.70   95.29
   1  -3 -12  976.80  117.79
  -1   3  12  802.42  116.79
  -1   3  12  994.50  128.69
   0  -3 -12   37.90   38.20
   0  -3 -12    7.90   59.29
   0   3  12  -41.60   52.49
   0   3  12  117.59   82.79
  -1  -3 -12  214.48   55.19
  -1  -3 -12  221.38   75.79
   1   3  12  308.37   68.19
  -5   4  12  239.28  155.38
   4  -4 -12  -65.69   41.00
   4  -4 -12   87.89   58.49
  -4   4  12 -101.99  124.19
  -4   4  12  -45.80   52.19
   3  -4 -12  190.68   48.20
   3  -4 -12  226.28   64.59
  -3   4  12  440.46  125.99
  -3   4  12  177.68   59.29
   2  -4 -12  131.19   59.69
   2  -4 -12   18.50   42.30
  -2   4  12   49.60   53.59
  -2   4  12  164.48  105.39
   1  -4 -12  807.32  111.69
   1  -4 -12  488.85   81.39
  -1   4  12  567.34  121.79
  -1   4  12  618.44   99.59
   0  -4 -12  -41.90   38.60
   0  -4 -12   40.20   63.29
   0   4  12   91.69   57.89
   0   4  12 -101.89  109.49
   4  -5 -12   49.80   66.49
   4  -5 -12  127.19   60.49
  -4   5  12   60.49  143.09
  -4   5  12  155.88   60.89
   3  -5 -12   74.19   56.79
   3  -5 -12  138.69   68.49
  -3   5  12  106.79   57.89
  -3   5  12  128.69  147.79
   2  -5 -12  252.57   60.39
   2  -5 -12  159.88   73.59
  -2   5  12  122.19   61.29
  -2   5  12  236.68  130.79
   1  -5 -12  115.29   51.99
   1  -5 -12  178.18   70.99
  -1   5  12   75.49   56.49
  -1   5  12  109.09  117.49
   3  -6 -12  -93.99   74.89
   3  -6 -12   15.80   55.99
  -3   6  12  119.49  163.58
  -3   6  12   13.90   66.59
   2  -6 -12  118.09   57.69
   2  -6 -12  263.37   75.69
  -2   6  12  164.98  155.88
  -2   6  12  141.59   67.89
   1   6 -13   25.70   75.49
   2   5 -13  135.59   84.19
   2   5 -13   90.69   75.79
  -2  -5  13   83.99   57.19
  -2  -5  13   98.19   74.59
   1   5 -13  337.87   71.79
   1   5 -13   58.49   70.39
  -1  -5  13  141.49   70.09
  -1  -5  13  213.38   55.89
   0   5 -13  184.78   66.89
   0   5 -13  210.18   71.69
   0  -5  13  336.17   67.49
   0  -5  13  286.17   69.09
  -1   5 -13   21.20   61.69
   1  -5  13   26.20   52.99
   1  -5  13   29.60   59.19
   3   4 -13  136.39   80.49
   2   4 -13   44.60   76.69
   2   4 -13  -20.20   62.19
  -2  -4  13   38.60   67.29
  -2  -4  13   -1.70   49.70
   1   4 -13  111.59   61.59
   1   4 -13  256.77   68.39
  -1  -4  13  216.28   54.89
  -1  -4  13  216.88   67.89
   0   4 -13  172.28   63.09
   0   4 -13  276.47   61.69
   0  -4  13  199.78   53.89
   0  -4  13  181.38   61.99
  -1   4 -13  104.49   59.39
   1  -4  13  130.49   53.59
   1  -4  13  121.89   58.89
   3   3 -13  200.78   70.99
   3   3 -13  106.39   80.69
  -3  -3  13  -27.20   74.59
  -3  -3  13   78.29   54.19
   2   3 -13   64.99   45.30
   2   3 -13   20.30   58.19
   2   3 -13   86.69   64.19
  -2  -3  13   57.89   63.19
   1   3 -13  657.73   95.79
   1   3 -13  784.32  105.79
   1   3 -13  656.53   87.39
  -1  -3  13  709.13  107.49
   0   3 -13   58.19   56.89
   0   3 -13   -2.60   43.00
   0   3 -13    8.30   47.80
   0  -3  13  150.28   54.69
  -1   3 -13  256.07   72.09
  -1   3 -13  385.76   66.39
  -1   3 -13  340.67   63.59
   1  -3  13  344.67   63.19
   4   2 -13  147.49   78.09
   4   2 -13  -18.50   65.19
   3   2 -13  218.68   55.79
   3   2 -13  303.87   72.19
   3   2 -13  411.36   76.09
  -3  -2  13  169.28   68.89
   2   2 -13   64.19   56.09
   2   2 -13   41.40   40.00
   2   2 -13   90.69   57.99
  -2  -2  13   47.00   55.69
   1   2 -13  567.94   74.99
   1   2 -13  506.65   74.89
   1   2 -13  510.25   75.89
  -1  -2  13  532.75   77.49
   0   2 -13  -34.40   47.50
   0   2 -13  -35.00   37.50
   0   2 -13  -57.69   49.70
   0  -2  13    8.80   49.00
  -1   2 -13  115.79   64.59
  -1   2 -13  285.07   56.89
  -1   2 -13  227.88   54.59
   1  -2  13  295.87   72.09
  -2   2 -13   47.10   47.20
   4   1 -13  217.08   76.89
   4   1 -13   -5.00   62.89
  -4  -1  13   77.29   68.69
   3   1 -13  118.59   44.60
   3   1 -13  209.48   58.89
   3   1 -13   32.70   59.59
  -3  -1  13  173.58   65.19
   2   1 -13  143.99   56.39
   2   1 -13  271.67   52.49
   2   1 -13  132.49   42.00
  -2  -1  13   61.49   48.90
   1   1 -13  130.69   43.70
   1   1 -13   70.39   52.49
   1   1 -13  115.19   41.00
  -1  -1  13   90.19   49.50
   0   1 -13  162.38   48.90
   0   1 -13   73.69   51.79
   0   1 -13  129.29   46.00
   0  -1  13  170.48   56.49
  -1   1 -13  133.39   53.29
  -1   1 -13   75.49   59.99
  -1   1 -13  148.29   59.89
   1  -1  13  187.88   67.19
   4   0 -13  107.29   54.79
   4   0 -13  236.48   64.59
  -4   0  13  136.19   65.59
   3   0 -13   29.10   41.50
   3   0 -13   82.39   54.99
   3   0 -13  136.19   58.89
  -3   0  13  173.68   58.59
   2   0 -13  266.77   54.09
   2   0 -13  275.27   48.70
   2   0 -13  233.38   63.29
  -2   0  13  258.07   56.59
   1   0 -13   -5.10   37.60
   1   0 -13  -49.00   40.90
   1   0 -13   -6.10   51.49
  -1   0  13   73.99   50.49
   0   0 -13  304.97   56.59
   0   0 -13  231.08   59.49
   0   0 -13  263.87   55.39
   0   0  13  350.16   66.79
  -1   0 -13   53.29   62.69
  -1   0 -13   56.79   51.29
   1   0  13  175.08   62.59
   4  -1 -13  214.68   68.69
   4  -1 -13  149.79   48.70
  -4   1  13   82.09  122.29
  -4   1  13  266.77   70.39
   3  -1 -13   54.69   56.99
   3  -1 -13   57.79   41.20
  -3   1  13   -2.40  113.79
  -3   1  13   66.59   53.99
   2  -1 -13  148.69   43.50
   2  -1 -13  314.07   65.29
  -2   1  13  146.09   57.29
   1  -1 -13   17.60   40.90
   1  -1 -13   30.80   53.29
  -1   1  13   20.00   52.59
   0  -1 -13  423.96   74.59
   0  -1 -13  573.44   76.89
   0   1  13  609.54   83.99
  -1  -1 -13  105.09   47.50
  -1  -1 -13   57.89   68.79
   1   1  13   -1.40   68.69
   4  -2 -13   23.40   48.00
   4  -2 -13   67.89   67.19
  -4   2  13  137.89   64.39
  -4   2  13   -7.10  112.79
   3  -2 -13   15.00   57.39
   3  -2 -13  168.18   47.20
  -3   2  13   33.90   80.49
  -3   2  13  141.49   51.39
   2  -2 -13  119.69   60.89
   2  -2 -13  114.89   44.50
  -2   2  13  101.99   55.39
   1  -2 -13   57.49   58.19
   1  -2 -13   41.70   40.70
  -1   2  13   15.20   54.69
   0  -2 -13  447.56   71.89
   0  -2 -13  393.56   74.79
   0   2  13  530.65   80.99
  -1  -2 -13   25.40   76.19
  -1  -2 -13   81.09   42.70
   4  -3 -13  -15.50   67.19
   4  -3 -13   81.59   49.10
  -4   3  13  121.59   60.39
  -4   3  13  117.39  117.59
   3  -3 -13   85.99   48.60
   3  -3 -13  140.69   66.69
  -3   3  13  105.99   63.79
  -3   3  13   74.99  104.69
   2  -3 -13   53.09   42.50
   2  -3 -13 -108.39   66.09
  -2   3  13  331.47  111.49
  -2   3  13  106.19   58.99
   1  -3 -13  227.18   57.69
   1  -3 -13  227.48   70.09
  -1   3  13  179.28   65.69
   0  -3 -13   80.89   71.59
   0  -3 -13  190.88   49.40
   0   3  13  157.88   66.89
  -4   4  13   30.90  141.29
   3  -4 -13  150.28   71.09
   3  -4 -13  164.98   60.69
  -3   4  13  170.28   67.99
  -3   4  13   92.19  125.29
   2  -4 -13   29.00   48.60
   2  -4 -13   27.70   67.19
  -2   4  13   14.20   61.09
  -2   4  13 -185.68  116.79
   1  -4 -13  285.37   59.59
   1  -4 -13  329.27   80.69
  -1   4  13  331.57   78.19
  -3   5  13  426.56  143.79
   2  -5 -13  -95.59   74.29
  -2   5  13  -56.59  156.58
   1   4 -14  -30.40   68.69
   1   4 -14  108.49   70.39
  -1  -4  14   99.09   69.59
  -1  -4  14   72.69   68.29
   0   4 -14  255.87   65.49
   0   4 -14  137.09   71.59
   0  -4  14  292.97   69.49
   2   3 -14  -35.70   53.19
   2   3 -14  -41.80   68.59
   2   3 -14   -1.20   62.29
  -2  -3  14  207.28   68.49
   1   3 -14  176.38   63.39
   1   3 -14  181.18   61.29
   1   3 -14  134.49   56.19
  -1  -3  14   -8.80   65.09
   0   3 -14   76.49   58.99
   0   3 -14  139.09   53.59
   0   3 -14  179.08   66.89
   0  -3  14   81.69   64.59
   3   2 -14  147.69   55.39
   3   2 -14  214.28   81.69
   2   2 -14   -9.70   63.89
   2   2 -14  -18.20   61.09
   2   2 -14   59.89   48.20
  -2  -2  14   19.70   58.99
   1   2 -14  387.26   71.79
   1   2 -14  365.96   65.69
   1   2 -14  411.26   72.29
  -1  -2  14  438.66   75.19
   0   2 -14  -54.29   46.80
   0   2 -14    3.50   55.89
   0  -2  14  -36.70   67.19
   3   1 -14  196.98   69.89
   3   1 -14  221.08   57.09
  -3  -1  14  186.98   80.79
   2   1 -14    0.90   59.29
   2   1 -14   56.09   47.70
  -2  -1  14  -62.59   60.99
   1   1 -14  254.47   71.79
   1   1 -14  236.98   56.89
  -1  -1  14  257.87   62.99
   0   1 -14   26.30   47.70
   0   1 -14  -12.00   58.29
   0  -1  14  -44.10   56.09
   3   0 -14   88.39   51.39
   3   0 -14   62.49   71.39
  -3   0  14   27.90   67.49
   2   0 -14   26.00   61.99
   2   0 -14   46.40   52.39
  -2   0  14   97.09   57.89
   1   0 -14  138.09   51.89
   1   0 -14  128.09   65.19
  -1   0  14  153.18   60.99
   0   0 -14  102.79   58.69
   0   0 -14   69.19   53.79
   0   0  14  213.18   70.39
   3  -1 -14   37.80   47.90
   3  -1 -14  -80.59   67.59
  -3   1  14 -132.19   68.09
   2  -1 -14  311.17   67.39
   2  -1 -14  305.57   61.79
  -2   1  14  160.08   59.49
   1  -1 -14  128.29   65.49
   1  -1 -14   69.49   53.19
  -1   1  14  -37.30   58.69
   0  -1 -14  167.88   68.79
   0  -1 -14  314.47   58.49
   0   1  14  235.08   76.29
   3  -2 -14  -14.30   51.69
   3  -2 -14   -8.90   73.19
  -3   2  14  -51.49   64.69
   2  -2 -14  395.36   77.39
   2  -2 -14  420.76   71.59
  -2   2  14  490.85   93.49
   1  -2 -14    3.70   47.50
   1  -2 -14 -149.69   66.39
  -1   2  14   45.80   62.69
   3  -3 -14  -38.70   78.59
   2  -3 -14  191.58   77.79
   2  -3 -14  377.26   63.59
  -2   3  14  112.89  103.89
   0   0   0    0.00    0.00

_computing_structure_solution     'SHELXT 2014/5 (Sheldrick, 2014)'
;
_shelx_hkl_checksum              58304
loop_
_space_group_symop_operation_xyz
'x, y, z'
'-x, -y, -z'
loop_
_atom_site_label
_atom_site_type_symbol
_atom_site_fract_x
_atom_site_fract_y
_atom_site_fract_z
_atom_site_U_iso_or_equiv
_atom_site_adp_type
_atom_site_occupancy
_atom_site_site_symmetry_order
_atom_site_calc_flag
_atom_site_refinement_flags_posn
_atom_site_refinement_flags_adp
_atom_site_refinement_flags_occupancy
_atom_site_disorder_assembly
_atom_site_disorder_group
P1 P -1.0099(5) -0.3614(3) -0.16386(19) 0.0227(6) Uani 1 1 d . . . . .
O3 O -0.9282(18) -0.1985(9) -0.2093(7) 0.0417(19) Uani 1 1 d . . . . .
O2 O -0.7778(16) -0.3870(11) -0.0756(8) 0.048(2) Uani 1 1 d . . . . .
O1 O -1.2488(16) -0.3793(11) -0.1038(8) 0.047(2) Uani 1 1 d . . . . .
C6 C -1.112(3) -0.5231(16) -0.2851(10) 0.048(3) Uani 1 1 d . . . . .
H6A H -0.950307 -0.528950 -0.308683 0.057 Uiso 1 1 calc R U . . .
H6B H -1.189012 -0.624129 -0.253861 0.057 Uiso 1 1 calc R U . . .
F1 F -0.6678(13) -0.6862(8) -0.1312(5) 0.0399(15) Uani 1 1 d . . . . .
Zr Zr -0.500000 -0.500000 0.000000 0.0192(4) Uani 1 2 d S . P . .
C5 C -1.776(3) -0.6029(16) -0.5207(11) 0.049(3) Uani 1 1 d . . . . .
C4 C -1.312(3) -0.5127(19) -0.3968(12) 0.054(3) Uani 1 1 d . . . . .
C3 C -1.579(3) -0.6108(19) -0.4165(12) 0.057(4) Uani 1 1 d . . . . .
C2 C -0.605(5) 0.023(3) 0.3353(17) 0.102(7) Uani 1 1 d . . . . .
C1 C -0.725(3) -0.0596(17) 0.1112(14) 0.061(4) Uani 1 1 d . . . . .
N1 N -0.615(2) 0.0773(13) 0.2113(10) 0.050(3) Uani 1 1 d . . . . .
loop_
_atom_site_aniso_label
_atom_site_aniso_U_11
_atom_site_aniso_U_22
_atom_site_aniso_U_33
_atom_site_aniso_U_23
_atom_site_aniso_U_13
_atom_site_aniso_U_12
P1 0.0273(13) 0.0220(12) 0.0188(11) 0.0043(9) 0.0040(9) 0.0089(10)
O3 0.055(5) 0.030(4) 0.036(4) 0.014(3) 0.006(3) 0.009(4)
O2 0.031(4) 0.048(5) 0.062(5) -0.010(4) -0.005(4) 0.022(4)
O1 0.037(4) 0.046(5) 0.060(5) 0.002(4) 0.023(4) 0.011(4)
C6 0.062(8) 0.049(7) 0.030(6) -0.012(5) -0.001(5) 0.028(6)
F1 0.045(4) 0.034(3) 0.028(3) -0.011(3) -0.002(3) 0.006(3)
Zr 0.0221(7) 0.0218(7) 0.0126(6) 0.0018(4) 0.0015(4) 0.0075(5)
C5 0.066(8) 0.052(8) 0.031(6) -0.002(5) 0.004(5) 0.026(7)
C4 0.066(9) 0.066(9) 0.036(6) -0.005(6) 0.001(6) 0.039(8)
C3 0.048(8) 0.071(9) 0.043(7) -0.006(6) -0.007(6) 0.022(7)
C2 0.133(19) 0.132(19) 0.049(10) 0.014(11) 0.015(11) 0.058(16)
C1 0.064(9) 0.045(8) 0.062(8) -0.013(7) 0.007(7) 0.011(7)
N1 0.062(7) 0.040(6) 0.047(6) 0.009(5) 0.006(5) 0.019(5)
loop_
_atom_type_symbol
_atom_type_description
_atom_type_scat_dispersion_real
_atom_type_scat_dispersion_imag
_atom_type_scat_source
C C 0.0033 0.0016 'International Tables Vol C Tables 4.2.6.8 and 6.1.1.4'
N N 0.0061 0.0033 'International Tables Vol C Tables 4.2.6.8 and 6.1.1.4'
O O 0.0106 0.0060 'International Tables Vol C Tables 4.2.6.8 and 6.1.1.4'
F F 0.0171 0.0103 'International Tables Vol C Tables 4.2.6.8 and 6.1.1.4'
P P 0.1023 0.0942 'International Tables Vol C Tables 4.2.6.8 and 6.1.1.4'
Zr Zr -2.9673 0.5597 'International Tables Vol C Tables 4.2.6.8 and 6.1.1.4'
H H 0.0000 0.0000 'International Tables Vol C Tables 4.2.6.8 and 6.1.1.4'
loop_
_geom_angle_atom_site_label_1
_geom_angle_atom_site_label_2
_geom_angle_atom_site_label_3
_geom_angle
_geom_angle_site_symmetry_1
_geom_angle_site_symmetry_3
_geom_angle_publ_flag
O2 P1 O3 111.7(5) . . ?
O2 P1 O1 109.7(5) . . ?
O3 P1 O1 110.6(5) . . ?
O2 P1 C6 105.2(5) . . ?
O3 P1 C6 111.3(6) . . ?
O1 P1 C6 108.3(6) . . ?
P1 O2 Zr 158.3(5) . . ?
P1 O1 Zr 150.8(6) . 1_455 ?
C4 C6 P1 116.8(9) . . ?
F1 Zr F1 180.0(3) . 2_445 ?
F1 Zr O1 89.8(3) . 2_345 ?
F1 Zr O1 90.2(3) 2_445 2_345 ?
F1 Zr O1 90.2(3) . 1_655 ?
F1 Zr O1 89.8(3) 2_445 1_655 ?
O1 Zr O1 180.0 2_345 1_655 ?
F1 Zr O2 88.6(3) . 2_445 ?
F1 Zr O2 91.4(3) 2_445 2_445 ?
O1 Zr O2 88.6(4) 2_345 2_445 ?
O1 Zr O2 91.4(4) 1_655 2_445 ?
F1 Zr O2 91.4(3) . . ?
F1 Zr O2 88.6(3) 2_445 . ?
O1 Zr O2 91.4(4) 2_345 . ?
O1 Zr O2 88.6(4) 1_655 . ?
O2 Zr O2 180.0 2_445 . ?
C3 C5 C4 117.8(14) . 2_244 ?
C3 C4 C5 121.8(12) . 2_244 ?
C3 C4 C6 118.7(14) . . ?
C5 C4 C6 119.4(14) 2_244 . ?
C4 C3 C5 120.3(15) . . ?
C1 N1 C2 113.2(13) . . ?
loop_
_geom_bond_atom_site_label_1
_geom_bond_atom_site_label_2
_geom_bond_distance
_geom_bond_site_symmetry_2
_geom_bond_publ_flag
P1 O2 1.493(8) . ?
P1 O3 1.502(8) . ?
P1 O1 1.541(8) . ?
P1 C6 1.785(11) . ?
O2 Zr 2.075(8) . ?
O1 Zr 2.056(8) 1_455 ?
C6 C4 1.494(17) . ?
F1 Zr 1.987(6) . ?
C5 C3 1.419(17) . ?
C5 C4 1.45(2) 2_244 ?
C4 C3 1.38(2) . ?
C2 N1 1.50(2) . ?
C1 N1 1.486(17) . ?
