#------------------------------------------------------------------------------
#$Date: 2021-10-06 16:58:58 +0300 (Wed, 06 Oct 2021) $
#$Revision: 269652 $
#$URL: file:///home/coder/svn-repositories/cod/cif/7/12/87/7128792.cif $
#------------------------------------------------------------------------------
#
# This file is available in the Crystallography Open Database (COD),
# http://www.crystallography.net/
#
# All data on this site have been placed in the public domain by the
# contributors.
#
data_7128792
loop_
_publ_author_name
'Hoser, Anna A.'
'Sztylko, Marcin'
'Trzybi\'nski, Damian'
'Madsen, Anders \/O'
_publ_section_title
;
 Theoretically derived thermodynamic properties can be improved by the
 refinement of low-frequency modes against X-ray diffraction data.
;
_journal_issue                   74
_journal_name_full
'Chemical communications (Cambridge, England)'
_journal_page_first              9370
_journal_page_last               9373
_journal_paper_doi               10.1039/d1cc02608a
_journal_volume                  57
_journal_year                    2021
_chemical_formula_moiety         'C2 H5 N O2'
_chemical_formula_sum            'C2 H5 N O2'
_chemical_formula_weight         75.07
_space_group_crystal_system      monoclinic
_space_group_IT_number           14
_space_group_name_Hall           '-P 2yn'
_space_group_name_H-M_alt        'P 1 21/n 1'
_atom_sites_solution_hydrogens   mixed
_atom_sites_solution_primary     dual
_audit_creation_date             2021-04-03
_audit_creation_method
;
Olex2 1.2
(compiled 2018.05.29 svn.r3508 for OlexSys, GUI svn.r5506)
;
_audit_update_record
;
2021-05-13 deposited with the CCDC.	2021-08-11 downloaded from the CCDC.
;
_cell_angle_alpha                90
_cell_angle_beta                 111.983(5)
_cell_angle_gamma                90
_cell_formula_units_Z            4
_cell_length_a                   5.0867(2)
_cell_length_b                   11.7982(4)
_cell_length_c                   5.4598(2)
_cell_measurement_reflns_used    2421
_cell_measurement_temperature    100(2)
_cell_measurement_theta_max      32.1190
_cell_measurement_theta_min      3.4450
_cell_volume                     303.84(2)
_computing_cell_refinement       'CrysAlisPro 1.171.40.67a (Rigaku OD, 2019)'
_computing_data_collection       'CrysAlisPro 1.171.40.67a (Rigaku OD, 2019)'
_computing_data_reduction        'CrysAlisPro 1.171.40.67a (Rigaku OD, 2019)'
_computing_molecular_graphics    'Olex2 (Dolomanov et al., 2009)'
_computing_publication_material  'Olex2 (Dolomanov et al., 2009)'
_computing_structure_refinement  'ShelXL (Sheldrick, 2015)'
_computing_structure_solution    'ShelXT (Sheldrick, 2015)'
_diffrn_ambient_environment      N~1~
_diffrn_ambient_temperature      100(2)
_diffrn_detector                 'CCD plate'
_diffrn_detector_area_resol_mean 16.0026
_diffrn_detector_type            Eos
_diffrn_measured_fraction_theta_full 0.998
_diffrn_measured_fraction_theta_max 0.999
_diffrn_measurement_details
;
List of Runs (angles in degrees, time in seconds):

  # Type    Start    End  Width  t~exp~   \w     \q     \k     \f   Frames
#--------------------------------------------------------------------------
  1  \w   -103.00 -49.00   1.00    3.00    --  -29.20-160.00-150.00   54
  2  \w   -103.00 -49.00   1.00    3.00    --  -29.20-160.00 150.00   54
  3  \w    -61.00  44.00   1.00    3.00    --  -29.20  37.00-150.00  105
  4  \w   -100.00  -6.00   1.00    3.00    --  -29.20 -57.00  60.00   94
  5  \w   -103.00 -49.00   1.00    3.00    --  -29.20-160.00 -60.00   54
  6  \w   -100.00  -6.00   1.00    3.00    --  -29.20 -57.00-150.00   94
  7  \w   -100.00  -6.00   1.00    3.00    --  -29.20 -57.00 -60.00   94
  8  \w   -100.00  -6.00   1.00    3.00    --  -29.20 -57.00 120.00   94
  9  \w   -109.00 -81.00   1.00    3.00    --  -29.20 160.00   0.00   28
 10  \w    -35.00  -6.00   1.00    3.00    --   29.36 132.00 -14.89   29
;
_diffrn_measurement_device       'four-circle diffractometer'
_diffrn_measurement_device_type  'SuperNova, Single source at offset/far, Eos'
_diffrn_measurement_method       '\w scans'
_diffrn_orient_matrix_type
'CrysAlisPro convention (1999,Acta A55,543-557)'
_diffrn_orient_matrix_UB_11      0.1398664000
_diffrn_orient_matrix_UB_12      0.0094233000
_diffrn_orient_matrix_UB_13      0.0920511000
_diffrn_orient_matrix_UB_21      0.0331034000
_diffrn_orient_matrix_UB_22      0.0292657000
_diffrn_orient_matrix_UB_23      -0.0983003000
_diffrn_orient_matrix_UB_31      -0.0442156000
_diffrn_orient_matrix_UB_32      0.0516392000
_diffrn_orient_matrix_UB_33      0.0388900000
_diffrn_radiation_monochromator  mirror
_diffrn_radiation_probe          x-ray
_diffrn_radiation_type           MoK\a
_diffrn_radiation_wavelength     0.71073
_diffrn_reflns_av_R_equivalents  0.0265
_diffrn_reflns_av_unetI/netI     0.0198
_diffrn_reflns_Laue_measured_fraction_full 0.998
_diffrn_reflns_Laue_measured_fraction_max 0.999
_diffrn_reflns_limit_h_max       7
_diffrn_reflns_limit_h_min       -7
_diffrn_reflns_limit_k_max       16
_diffrn_reflns_limit_k_min       -16
_diffrn_reflns_limit_l_max       7
_diffrn_reflns_limit_l_min       -7
_diffrn_reflns_number            4778
_diffrn_reflns_point_group_measured_fraction_full 0.998
_diffrn_reflns_point_group_measured_fraction_max 0.999
_diffrn_reflns_theta_full        25.242
_diffrn_reflns_theta_max         30.505
_diffrn_reflns_theta_min         3.454
_diffrn_source                   'micro-focus sealed X-ray tube'
_diffrn_source_type              'SuperNova (Mo) X-ray Source'
_exptl_absorpt_coefficient_mu    0.146
_exptl_absorpt_correction_T_max  1.00000
_exptl_absorpt_correction_T_min  0.82282
_exptl_absorpt_correction_type   multi-scan
_exptl_absorpt_process_details
;
CrysAlisPro 1.171.40.67a (Rigaku Oxford Diffraction, 2019)
Empirical absorption correction using spherical harmonics,
 implemented in SCALE3 ABSPACK scaling algorithm.
;
_exptl_crystal_colour            colourless
_exptl_crystal_colour_primary    colourless
_exptl_crystal_density_diffrn    1.641
_exptl_crystal_description       block
_exptl_crystal_F_000             160
_exptl_crystal_size_max          0.26
_exptl_crystal_size_mid          0.12
_exptl_crystal_size_min          0.10
_refine_diff_density_max         0.504
_refine_diff_density_min         -0.309
_refine_diff_density_rms         0.058
_refine_ls_extinction_method     none
_refine_ls_goodness_of_fit_ref   1.078
_refine_ls_hydrogen_treatment    mixed
_refine_ls_matrix_type           full
_refine_ls_number_parameters     55
_refine_ls_number_reflns         932
_refine_ls_number_restraints     3
_refine_ls_restrained_S_all      1.081
_refine_ls_R_factor_all          0.0386
_refine_ls_R_factor_gt           0.0317
_refine_ls_shift/su_max          0.001
_refine_ls_shift/su_mean         0.000
_refine_ls_structure_factor_coef Fsqd
_refine_ls_weighting_details
'w=1/[\s^2^(Fo^2^)+(0.0351P)^2^+0.1369P] where P=(Fo^2^+2Fc^2^)/3'
_refine_ls_weighting_scheme      calc
_refine_ls_wR_factor_gt          0.0779
_refine_ls_wR_factor_ref         0.0841
_reflns_Friedel_coverage         0.000
_reflns_number_gt                809
_reflns_number_total             932
_reflns_threshold_expression     'I > 2\s(I)'
_cod_data_source_file            d1cc02608a2.cif
_cod_data_source_block           2015_09_09_dt_alpha-gly_d
_cod_depositor_comments
'Adding full bibliography for 7128792--7128793.cif.'
_cod_original_sg_symbol_H-M      'P 21/n'
_cod_database_code               7128792
_shelx_shelxl_version_number     2016/4
_shelx_space_group_comment
;
The symmetry employed for this shelxl refinement is uniquely defined
by the following loop, which should always be used as a source of
symmetry information in preference to the above space-group names.
They are only intended as comments.
;
_reflns_odcompleteness_completeness 100.00
_reflns_odcompleteness_iscentric 1
_reflns_odcompleteness_theta     30.44
_olex2_refinement_description
;
1. Fixed Uiso
 At 1.2 times of:
  All C(H,H) groups, All O(H,H,H) groups
2. Restrained distances
 N1-H1B
 0.87 with sigma of 0.01
 N1-H1A
 0.87 with sigma of 0.01
 N1-H1C
 0.87 with sigma of 0.01
3.a Secondary CH2 refined with riding coordinates:
 C2(H2B,H2A)
;
_shelx_res_file
;
TITL 2015_09_09_dt_alpha-gly_d_a.res in P2(1)/n
 2015_09_09_dt_alpha-gly_d.res created by SHELXL-2016/4 at 14:09:19 on 03-Apr-2021
REM Old TITL 2015_09_09_DT_ALPHA-GLY_D in P2(1)/n
REM SHELXT solution in P2(1)/n
REM R1 0.096, Rweak 0.263, Alpha 0.014, Orientation as input
REM Formula found by SHELXT: C2 N O2
CELL 0.71073 5.0867 11.7982 5.4598 90 111.983 90
ZERR 4 0.0002 0.0004 0.0002 0 0.005 0
LATT 1
SYMM 0.5-X,0.5+Y,0.5-Z
SFAC C H N O
UNIT 8 20 4 8
DFIX 0.87 0.01 N1 H1b
DFIX 0.87 0.01 N1 H1a
DFIX 0.87 0.01 N1 H1c

L.S. 99
PLAN  20
BOND $H
list 4
conf
fmap 2 53
acta
OMIT 0 2 1
REM <olex2.extras>
REM <HklSrc "%.\\2015_09_09_DT_ALPHA-GLY_D.hkl">
REM </olex2.extras>

WGHT    0.035100    0.136900
FVAR      12.53525
C1    1    0.569628    0.625021    0.565859    11.00000    0.01053    0.00645 =
         0.00826   -0.00099    0.00434   -0.00115
C2    1    0.558378    0.645804    0.285957    11.00000    0.00837    0.01149 =
         0.00808    0.00104    0.00398    0.00189
AFIX  23
H2B   2    0.379772    0.617813    0.159667    11.00000   -1.20000
H2A   2    0.567251    0.726645    0.257616    11.00000   -1.20000
AFIX   0
N1    3    0.795572    0.588709    0.240482    11.00000    0.00972    0.01211 =
         0.00739    0.00056    0.00406    0.00148
O1    4    0.802488    0.593740    0.736398    11.00000    0.01054    0.01387 =
         0.00812    0.00108    0.00347    0.00168
O2    4    0.345100    0.642364    0.606467    11.00000    0.00941    0.01615 =
         0.01121   -0.00166    0.00575   -0.00009
H1A   2    0.788971    0.515959    0.271752    11.00000   -1.20000
H1B   2    0.962823    0.614833    0.346238    11.00000   -1.20000
H1C   2    0.788551    0.598025    0.075703    11.00000   -1.20000
HKLF 4




REM  2015_09_09_dt_alpha-gly_d_a.res in P2(1)/n
REM R1 =  0.0317 for     809 Fo > 4sig(Fo)  and  0.0386 for all     932 data
REM     55 parameters refined using      3 restraints

END

WGHT      0.0351      0.1367

REM Highest difference peak  0.504,  deepest hole -0.309,  1-sigma level  0.058
Q1    1   0.5692  0.6326  0.4239  11.00000  0.05    0.50
Q2    1   0.6837  0.6232  0.2742  11.00000  0.05    0.32
Q3    1   0.4550  0.6478  0.5868  11.00000  0.05    0.17
Q4    1   0.6955  0.7247  0.0394  11.00000  0.05    0.15
Q5    1   0.8057  0.5622  0.8729  11.00000  0.05    0.14
Q6    1   0.2482  0.6614  0.4468  11.00000  0.05    0.14
Q7    1   0.7293  0.5019  0.5580  11.00000  0.05    0.13
Q8    1   0.8787  0.5594  0.6264  11.00000  0.05    0.13
Q9    1   0.1443  0.6999  0.4399  11.00000  0.05    0.13
Q10   1   0.3448  0.7429  0.4427  11.00000  0.05    0.13
Q11   1   0.3030  0.7014  0.5317  11.00000  0.05    0.12
Q12   1   0.7297  0.5754  0.5737  11.00000  0.05    0.12
Q13   1   0.6821  0.7465  0.2537  11.00000  0.05    0.12
Q14   1   0.4443  0.5210  0.1250  11.00000  0.05    0.12
Q15   1   0.3432  0.6610  0.0942  11.00000  0.05    0.12
Q16   1   0.7056  0.5007  0.4547  11.00000  0.05    0.12
Q17   1   0.3557  0.5846  0.7055  11.00000  0.05    0.12
Q18   1   0.7623  0.5230  0.1136  11.00000  0.05    0.12
Q19   1   0.7378  0.4999 -0.0599  11.00000  0.05    0.11
Q20   1   0.6879  0.7528  0.4529  11.00000  0.05    0.11
;
_shelx_res_checksum              59376
_shelx_hkl_file
;
   0   0  -1 17.8672 18.9841   3
   0   0   1 45.0015 32.5426   8
   0   0   1 17.2649 29.5518   2
   0   0  -1 23.1913 27.0947   7
   0   0   2 268755. 2082.35   8
   0   0   2 264539. 1993.83   2
   0   0  -2 266207. 2041.50   7
   0   0  -2 269980. 1726.82   3
   0   0  -3 49.2504 41.7483   3
   0   0  -3 68.7882 79.8312   7
   0   0   3 0.20078 51.4159   8
   0   0   3-16.0766 64.2435   2
   0   0   4 28182.9 928.028   2
   0   0  -4 27977.4 801.432   3
   0   0  -4 28817.0 982.707   7
   0   0   4 26468.1 917.869   8
   0   0   4 27288.4 715.941   4
   0   0  -5 98.5342 71.2849   3
   0   0  -5 29.6143 104.490   7
   0   0   5 142.830 101.278   8
   0   0   5 263.585 169.000   1
   0   0  -6 64130.8 1909.78   7
   0   0   6 64987.6 2234.91   1
   0   0   6 63635.2 1802.72   8
   0   0  -7-191.093 180.672   7
   0   0   7 235.842 216.675   1
   0  -1   0 4.50102 4.39667  10
   0  -1   0-2.14969 4.00000   4
   0   1   0 1.98597 4.40805   5
   0  -1  -1 126826. 686.794   3
   0   1   1 128492. 1083.61   2
   0   1   1 127170. 697.794   5
   0   1   1 121647. 1174.63   1
   0  -1  -1 127640. 808.336  10
   0   1  -1 125364. 992.122   7
   0   1   1 128068. 822.140   8
   0   1  -1 124965. 982.621   3
   0  -1   1 125770. 1162.10   8
   0  -1  -1 124328. 967.036   7
   0   1  -2 79989.8 1107.52   7
   0  -1  -2 78050.1 1092.03   7
   0  -1  -2 78019.2 752.730  10
   0   1   2 78492.8 1131.05   2
   0   1   2 77459.7 1295.84   1
   0   1  -2 79590.3 1026.82   3
   0   1   2 76962.8 1004.18   8
   0  -1  -2 76542.9 853.559   3
   0  -1   2 78524.1 1209.44   8
   0   1   3 9549.80 561.098   1
   0   1   3 9131.44 469.257   2
   0   1  -3 8829.04 410.756   3
   0  -1   3 8578.29 482.077   8
   0   1   3 9822.79 452.128   8
   0  -1  -3 8958.46 280.046  10
   0  -1   3 9186.22 469.212   2
   0  -1  -3 9502.47 374.936   3
   0  -1  -3 8515.34 459.927   7
   0   1  -3 8869.00 464.534   7
   0  -1  -4 15547.6 568.450   3
   0   1  -4 16127.1 738.463   7
   0   1   4 16190.5 499.448   4
   0  -1   4 16625.9 717.957   2
   0   1   4 16295.2 868.947   1
   0  -1  -4 16977.7 760.405   7
   0   1   4 16710.6 729.409   2
   0  -1   4 16049.6 617.809   4
   0   1  -4 16739.6 655.727   3
   0   1   4 16202.8 687.153   8
   0  -1   4 17285.8 779.216   8
   0   1  -5 740.185 201.221   7
   0  -1   5 551.361 163.549   8
   0   1  -5 531.089 145.632   3
   0   1   5 445.214 143.703   2
   0  -1  -5 520.393 184.905   7
   0   1   5 499.745 213.594   1
   0   1   5 891.269 189.393   8
   0   1   6 1000.33 230.521   8
   0   1  -6 886.037 239.228   7
   0   1   6 1158.36 324.793   1
   0  -1  -6 1109.51 282.785   7
   0  -1   6 879.404 228.749   8
   0  -1   6 939.011 298.000   1
   0  -1   7 7463.94 706.129   8
   0  -1  -7 8492.25 784.888   7
   0   1   7 8060.76 888.109   1
   0   1  -7 6164.77 660.986   7
   0  -1   7 8088.78 896.261   1
   0  -2   0 23840.9 411.855   4
   0   2   0 24241.9 387.996   5
   0   2   0 24146.7 351.941   3
   0  -2   0 23643.6 381.094  10
   0  -2   0 23641.1 372.527   8
   0   2  -1 4978.73 226.021   3
   0   2   1 5308.27 184.029   9
   0   2  -1 4824.20 208.292   7
   0   2   1 5214.15 265.941   1
   0  -2  -1 5358.27 132.197   4
   0   2   1 4989.81 189.063   5
   0  -2  -1 5037.93 127.919   3
   0  -2  -1 4999.71 206.271  10
   0   2  -1 4881.90 165.062   5
   0  -2   1 5013.64 260.631   8
   0   2  -2 27075.1 653.045   3
   0   2   2 27195.2 722.390   2
   0   2  -2 27921.9 671.677   7
   0  -2  -2 27504.8 535.521  10
   0   2  -2 29049.6 354.049   5
   0  -2  -2 27898.7 668.488   7
   0  -2   2 27149.1 764.102   8
   0  -2  -2 28624.2 461.923   3
   0   2   2 28095.3 543.865   8
   0   2   2 28114.6 798.422   1
   0   2  -3 96553.3 1527.61   7
   0   2   3 94901.6 1315.51   8
   0  -2   3 93256.3 1673.41   8
   0  -2  -3 93800.9 1516.62   7
   0  -2  -3 96075.1 1105.33   3
   0   2   3 99215.6 1825.98   1
   0  -2  -3 94793.1 1074.42  10
   0   2  -3 95354.9 1437.25   3
   0   2   3 91571.3 1568.05   2
   0  -2   4 9459.11 515.375   4
   0  -2  -4 9778.05 589.406   7
   0   2   4 9743.21 512.825   8
   0  -2   4 9044.91 586.779   8
   0  -2   4 9867.41 568.106   2
   0   2  -4 10157.1 534.682   3
   0   2  -4 9941.20 580.220   7
   0   2   4 10637.6 607.025   2
   0  -2  -4 10761.8 438.601   3
   0   2   4 10197.0 686.689   1
   0   2   5 589.230 163.881   8
   0  -2  -5 546.590 175.947   7
   0   2  -5 725.040 193.200   7
   0   2  -5 530.768 142.468   3
   0   2   5 528.728 208.205   1
   0   2   5 415.986 153.760   2
   0  -2   5 435.486 168.722   8
   0   2   6 1164.95 325.662   1
   0   2  -6 2072.41 349.198   7
   0  -2   6 2169.24 367.809   8
   0  -2  -6 1580.35 330.375   7
   0   2  -6 1766.33 286.598   3
   0   2   7 1871.47 431.041   1
   0  -2   7 1751.94 359.256   8
   0  -2  -7 2292.03 424.808   7
   0  -2   7 1916.96 455.634   1
   0   2  -7 1373.39 337.012   7
   0   3   0 17.5294 24.9732   3
   0   3   0 1.28793 21.9054   5
   0  -3   0-10.3308 31.4976  10
   0  -3   0 4.02619 30.5774   8
   0  -3   0-14.2154 25.1093   4
   0  -3  -1 150590. 946.376   4
   0  -3   1 151350. 1565.57   8
   0  -3   1 145544. 1515.53   4
   0  -3   1 151874. 1009.73  10
   0   3  -1 149763. 1377.52   3
   0  -3  -1 145763. 1311.97  10
   0   3  -1 150813. 1145.88   5
   0   3   1 146076. 1564.95   1
   0   3  -1 150357. 1271.76   7
   0   3   1 144527. 1242.56   5
   0   3   2 55786.9 791.791   5
   0   3  -2 59153.1 671.531   5
   0   3  -2 57609.2 990.068   7
   0  -3  -2 57920.5 598.282   3
   0  -3   2 55252.6 1181.21   8
   0  -3  -2 57542.3 892.635  10
   0  -3  -2 54921.9 976.137   7
   0   3   2 58868.1 1201.16   1
   0   3   2 59771.6 772.414   9
   0   3  -2 58038.5 1019.87   3
   0   3   3 10950.5 416.574   8
   0  -3   3 10634.0 591.215   8
   0  -3   3 11005.7 540.512   4
   0  -3  -3 10486.3 522.261   7
   0   3   3 10633.5 614.541   1
   0  -3  -3 10082.8 333.399   3
   0  -3  -3 10569.7 406.939  10
   0   3  -3 10573.3 514.063   7
   0   3  -3 11060.6 516.848   3
   0  -3  -4 2151.09 292.450   7
   0   3   4 1930.98 314.279   1
   0  -3   4 1874.92 287.483   8
   0   3  -4 1576.00 224.402   3
   0  -3  -4 1938.46 173.822   3
   0   3   4 2285.38 237.004   8
   0   3  -4 1550.79 242.121   7
   0  -3   4 2075.19 255.694   4
   0  -3   4 2032.90 278.655   2
   0   3   5 1887.02 251.851   8
   0   3   5 1374.72 304.970   1
   0   3  -5 1798.65 296.823   7
   0  -3   5 1545.31 239.565   4
   0  -3  -5 1692.37 315.210   7
   0  -3   5 1565.00 290.105   8
   0   3  -5 1231.25 225.668   3
   0   3  -6 1493.86 311.691   7
   0   3  -6 1476.30 267.162   3
   0  -3  -6 1437.39 325.242   7
   0  -3   6 1973.43 357.454   8
   0   3   6 1573.15 368.103   1
   0  -3   7 8483.49 796.385   8
   0  -3  -7 8273.66 801.992   7
   0  -3   7 9187.76 953.250   1
   0   3   7 8737.36 927.306   1
   0   3  -7 8471.32 775.393   7
   0  -4   0 946867. 3694.22   4
   0  -4   0 948001. 3430.57  10
   0   4   0 957288. 3504.37   5
   0   4   0 963105. 3132.34   3
   0   4   1 763.460 128.442   1
   0  -4  -1 668.380 79.8883   4
   0   4  -1 948.099 126.481   3
   0  -4   1 656.196 85.1485  10
   0  -4   1 889.866 136.671   4
   0   4  -1 736.967 97.8279   5
   0   4   1 641.621 97.9340   5
   0  -4   1 558.415 111.130   8
   0  -4  -1 752.757 68.4958   8
   0  -4  -1 659.697 105.168  10
   0   4  -2 43562.8 897.813   7
   0   4  -2 41968.8 933.076   3
   0  -4   2 41960.2 1010.26   4
   0   4   2 40929.2 723.837   9
   0  -4  -2 41654.7 836.636  10
   0  -4  -2 43084.6 501.316   3
   0   4   2 40559.5 1065.03   1
   0  -4  -2 41835.4 891.840   7
   0  -4   2 39357.6 1051.08   8
   0   4  -2 40515.6 677.822   5
   0   4   2 41130.3 768.834   5
   0  -4  -2 41334.0 500.938   4
   0   4  -3 13957.6 602.968   7
   0  -4   3 15314.3 742.172   8
   0   4   3 13522.7 714.490   1
   0  -4  -3 14465.2 365.093   3
   0  -4  -3 14666.6 624.229   7
   0   4  -3 13514.4 605.154   3
   0  -4   3 14534.3 664.646   4
   0  -4  -3 12933.2 496.804  10
   0   4   4 3073.80 398.572   1
   0  -4  -4 3292.40 354.415   7
   0  -4   4 3317.53 394.969   8
   0  -4   4 3663.63 365.140   4
   0  -4  -4 3745.52 288.718  10
   0   4  -4 3258.96 335.096   3
   0   4  -4 3420.80 352.389   7
   0  -4   5 124.454 119.200   8
   0   4  -5 370.608 137.380   3
   0   4   5 137.866 136.774   1
   0   4  -5 308.369 139.139   7
   0  -4  -5 571.073 197.914   7
   0  -4   5 455.851 138.495   4
   0   4  -6 32801.1 1368.56   7
   0  -4   6 33361.7 1481.51   8
   0   4  -6 33997.0 1317.24   3
   0   4   6 33902.1 1641.87   1
   0  -4  -6 33925.6 1451.65   7
   0   4   7 1020.61 331.275   1
   0   4  -7 703.236 234.936   7
   0  -4   7 1100.95 306.077   8
   0  -4  -7 692.182 249.518   7
   0   5   0 59.7581 51.5423   5
   0  -5   0 21.0956 47.6931   4
   0  -5   0 65.4570 48.5072  10
   0   5   0 27.3581 35.7215   3
   0  -5   0 96.8118 55.0678   8
   0   5  -1 18988.3 582.610   3
   0  -5  -1 19164.4 372.004   8
   0  -5  -1 19233.6 491.725   4
   0   5   1 19505.0 578.790   5
   0  -5   1 19170.3 645.313   8
   0  -5   1 18102.5 650.004   4
   0   5  -1 19424.7 546.421   5
   0  -5   1 19533.4 505.515  10
   0  -5  -1 19879.8 597.629  10
   0  -5  -2 34080.3 850.276   7
   0   5   2 33590.1 1025.07   1
   0   5   2 32607.7 708.350   9
   0  -5   2 33731.0 985.418   4
   0   5  -2 32506.3 878.689   3
   0   5  -2 34042.3 841.185   7
   0  -5  -2 31782.2 457.577   3
   0  -5  -2 33988.8 534.048   4
   0  -5  -2 33076.6 817.999  10
   0   5   2 32813.1 770.285   5
   0   5  -2 32729.5 691.512   5
   0  -5   2 34933.9 1030.45   8
   0   5  -3 460.893 81.1892   5
   0  -5   3 645.486 162.655   4
   0  -5  -3 214.360 86.8388  10
   0   5   3 206.700 138.854   1
   0  -5   3 141.532 114.913   8
   0  -5  -3 215.048 97.1541   7
   0   5  -3 382.326 111.995   7
   0  -5  -3 335.327 55.3871   3
   0   5  -3 118.692 80.5947   3
   0   5  -4 34287.5 1121.79   3
   0  -5   4 31314.5 1122.16   4
   0   5  -4 30870.8 1054.72   7
   0   5   4 31375.5 1275.06   1
   0  -5   4 33028.6 1260.91   8
   0  -5  -4 29733.5 857.043  10
   0  -5  -4 31611.3 1098.97   7
   0  -5   5 181.642 111.193   4
   0   5  -5 436.568 157.436   3
   0   5  -5 566.388 165.363   7
   0  -5   5 751.896 219.861   8
   0   5   5 614.206 233.149   1
   0  -5  -5 537.259 203.819   7
   0   5  -6 9862.64 738.782   3
   0  -5   6 10076.8 840.600   8
   0  -5  -6 8642.14 756.617   7
   0   5  -6 9739.64 755.284   7
   0   5   6 7812.66 814.879   1
   0  -6   0 30338.2 754.073  10
   0  -6   0 30676.9 811.646   4
   0  -6   0 30951.6 710.220   8
   0   6   0 30932.9 779.807   5
   0  -6  -1 10895.0 310.587   8
   0   6   1 10909.0 478.182   5
   0  -6   1 10268.6 504.008   8
   0  -6   1 10140.1 524.037   4
   0   6  -1 10797.4 472.925   3
   0  -6   1 9754.36 399.448  10
   0   6  -1 10739.6 452.077   5
   0  -6  -1 10869.8 415.898   4
   0  -6  -1 11097.3 486.114  10
   0   6   2 63748.6 1492.01   1
   0  -6  -2 62117.1 824.982   4
   0   6  -2 60029.0 1047.06   5
   0   6   2 61577.6 1152.59   5
   0  -6   2 60534.9 1409.63   4
   0   6  -2 60936.4 1275.18   3
   0   6   2 61646.6 1068.32   9
   0  -6   2 65560.5 1471.44   8
   0  -6  -2 62366.9 1213.52  10
   0  -6  -3 35739.1 1042.73   7
   0  -6  -3 33892.8 943.417  10
   0   6   3 35766.0 1259.58   1
   0   6   3 34186.5 815.216   9
   0  -6   3 32749.7 1174.82   8
   0  -6   3 34748.5 1154.94   4
   0   6  -3 34439.9 762.030   5
   0   6  -3 34068.2 1055.38   3
   0   6  -3 32802.0 982.886   7
   0   6  -4 37247.5 1184.89   7
   0  -6   4 35444.6 1255.44   4
   0  -6   4 39159.0 1422.61   8
   0  -6  -4 34534.8 994.511  10
   0   6   4 39427.7 1478.88   1
   0   6  -4 35077.3 1186.79   3
   0  -6  -4 37397.1 1217.29   7
   0  -6   5 2345.28 392.044   8
   0  -6  -5 2050.92 347.367   7
   0   6  -5 2492.55 352.690   3
   0   6  -5 2001.24 314.871   7
   0   6   5 1943.71 385.430   1
   0  -6   5 1752.88 307.718   4
   0  -6   6 6284.91 692.776   8
   0   6   6 6441.63 756.428   1
   0   6  -6 6233.97 600.429   3
   0   6  -6 5814.05 588.884   7
   0  -6  -6 5702.56 629.222   7
   0   7   0 52.8679 60.8848   5
   0  -7   0 72.3420 58.3484   8
   0  -7   0 45.3117 58.7842  10
   0  -7   0 18.4207 63.4978   4
   0   7  -1 58310.5 1170.52   3
   0  -7  -1 61575.4 1084.77   4
   0   7   1 59704.7 1201.74   5
   0  -7   1 61973.1 1378.90   4
   0  -7   1 59907.7 1083.13  10
   0  -7  -1 60638.5 806.025   8
   0  -7   1 60771.4 1287.62   8
   0   7  -1 61731.6 1185.78   5
   0  -7  -1 61006.8 1229.89  10
   0   7   2 9772.08 460.367   9
   0  -7   2 9606.02 596.450   4
   0  -7  -2 9649.37 376.429   4
   0   7  -2 9915.68 542.986   3
   0  -7  -2 9990.07 522.597  10
   0   7   2 9300.25 598.018   1
   0   7  -2 10790.1 484.315   5
   0  -7   2 9211.90 579.837   8
   0   7   2 10508.0 519.464   5
   0   7   3 5323.22 347.281   9
   0  -7  -3 5145.70 396.819  10
   0   7  -3 5267.28 329.924   5
   0  -7   3 5704.20 516.307   8
   0  -7  -3 5108.70 415.440   7
   0   7   3 5711.01 534.178   1
   0  -7   3 4939.35 462.459   4
   0   7  -3 5754.67 459.652   3
   0  -7   4-60.4485 78.2415   4
   0  -7   4 101.642 118.823   8
   0  -7  -4-69.1309 83.3253   7
   0   7   4 59.4053 116.015   1
   0  -7  -4-117.946 78.0441  10
   0   7  -4 174.965 124.265   3
   0   7  -4 4.75590 81.4489   7
   0  -7  -5 1512.90 293.051   7
   0   7  -5 1693.74 307.421   3
   0   7  -5 2201.17 341.857   7
   0   7   5 1348.78 346.134   1
   0  -7   5 2149.10 389.435   8
   0  -7   5 1863.41 332.325   4
   0   7   6 4833.88 671.044   1
   0   7  -6 5433.56 582.764   3
   0   7  -6 4491.50 527.732   7
   0  -7   6 4231.13 582.667   8
   0  -7  -6 4611.33 579.364   7
   0  -8   0 74371.0 1457.60   4
   0  -8   0 75873.7 1269.42   8
   0   8   0 76415.0 1445.67   5
   0  -8   0 72335.0 1375.44  10
   0   8   1 892.428 169.568   5
   0  -8   1 937.726 180.689   8
   0  -8   1 665.585 167.111   4
   0   8  -1 876.871 162.167   3
   0  -8  -1 909.661 110.273   8
   0  -8  -1 861.742 164.758  10
   0  -8  -1 755.276 136.804   4
   0   8  -1 1060.06 172.767   5
   0  -8   1 896.775 151.189  10
   0   8  -2 2761.80 304.371   3
   0  -8   2 2972.79 349.300   8
   0  -8   2 2512.60 327.046   4
   0   8  -2 2808.46 271.143   5
   0  -8  -2 2999.19 305.786  10
   0   8   2 2522.01 276.269   5
   0  -8  -2 2660.06 217.872   4
   0   8  -3 20728.1 902.651   3
   0  -8  -3 21143.8 848.093  10
   0   8  -3 21494.3 728.628   5
   0  -8   3 19908.3 986.058   8
   0  -8   3 20492.0 986.337   4
   0  -8  -3 21730.5 891.487   7
   0   8   3 21323.5 738.584   9
   0   8   3 21309.0 1051.44   1
   0   8  -4 3026.92 386.116   3
   0  -8   4 3544.46 443.151   4
   0  -8  -4 2481.01 305.465  10
   0  -8   4 2924.99 424.225   8
   0   8   4 2630.03 420.701   1
   0  -8  -4 2037.55 312.000   7
   0   8  -5 1209.86 261.602   7
   0  -8  -5 1328.30 287.556   7
   0  -8   5 1529.53 335.810   8
   0   8  -5 1300.70 273.013   3
   0  -8   5 1433.34 312.177   4
   0   8   6 2642.04 507.363   1
   0  -8  -6 4615.56 586.571   7
   0   8  -6 3988.84 514.788   3
   0   8  -6 3853.56 504.256   7
   0  -8   6 3714.55 561.054   8
   0  -9   0 87.4676 82.4210   4
   0  -9   0 162.677 81.6683   8
   0   9   0 118.072 96.5303   5
   0  -9   0 142.118 92.0520  10
   0  -9   1 1240.57 210.280   8
   0  -9   1 983.115 210.363   4
   0  -9  -1 1087.17 196.514  10
   0   9  -1 1130.96 187.007   3
   0  -9   1 983.148 173.382  10
   0   9   1 1302.18 211.125   5
   0   9  -1 882.273 172.016   5
   0  -9  -1 1337.50 190.838   4
   0   9   2 7308.10 497.550   5
   0  -9   2 7302.45 581.636   4
   0   9  -2 7491.03 517.092   3
   0  -9  -2 7111.93 502.221  10
   0   9  -2 7188.32 460.971   5
   0  -9  -2 6578.58 371.542   4
   0  -9   2 7032.61 553.416   8
   0   9   3 1099.55 187.207   9
   0  -9   3 789.824 214.675   4
   0  -9  -3 1151.11 218.815  10
   0   9  -3 791.146 155.761   5
   0  -9  -3 927.718 204.675   7
   0  -9   3 791.496 230.777   8
   0   9  -3 1307.71 249.528   3
   0   9   3 1237.44 273.993   1
   0   9  -4 29119.5 1220.43   3
   0  -9   4 28857.9 1308.41   4
   0   9   4 29437.7 1414.32   1
   0  -9  -4 29732.0 1196.48   7
   0  -9   4 27672.2 1317.58   8
   0  -9  -5 482.419 189.120   7
   0   9  -5 325.534 167.670   3
   0  -9   5 351.365 165.285   4
   0   9   5 647.108 251.344   1
   0  -9   5 368.360 220.223   8
   0  -9  -6 12838.6 981.916   7
   0   9  -6 12049.5 922.181   3
   0  -9   6 12995.1 1068.63   8
   0   9   6 12025.7 1082.54   1
   0  -9   6 12597.7 951.271   4
   0 -10   0 542.250 126.465   8
   0 -10   0 376.347 132.128   4
   0  10   0 752.365 171.755   5
   0 -10   0 498.862 146.856  10
   0 -10   1 1645.64 255.843   8
   0 -10  -1 1831.76 264.643  10
   0 -10  -1 1527.33 217.779   4
   0  10   1 1736.29 264.463   5
   0  10  -1 1441.96 232.649   5
   0 -10   1 1822.49 290.219   4
   0 -10   2 15391.7 836.231   8
   0 -10   2 14104.2 841.643   4
   0  10  -2 13902.7 736.536   3
   0 -10  -2 14125.2 592.041   4
   0  10  -2 14161.1 690.378   5
   0 -10  -2 12732.5 707.218  10
   0  10   2 14509.2 742.659   5
   0 -10  -3 10064.6 657.105  10
   0  10  -3 11203.0 728.825   3
   0  10   3 10368.7 586.188   9
   0 -10   3 10919.7 780.593   8
   0 -10  -3 11964.4 732.595   7
   0 -10   3 10770.8 786.479   4
   0 -10   4 18613.8 1108.89   8
   0 -10   4 15960.8 1014.31   4
   0 -10  -4 15483.5 904.941   7
   0  10   4 17665.1 1141.53   1
   0  10  -4 17636.9 987.695   3
   0  10  -5 2593.11 419.856   3
   0  10   5 3117.10 524.530   1
   0 -10  -5 2744.53 422.923   7
   0 -10   5 2392.01 443.082   8
   0 -10   5 3460.70 489.193   4
   0 -11   0 496.907 153.132  10
   0 -11   0 295.823 135.490   4
   0  11   0 776.532 206.926   5
   0 -11  -1 15311.1 722.310   4
   0 -11   1 17013.1 812.439   8
   0 -11   1 18387.6 928.487   4
   0  11   1 17248.8 845.653   5
   0 -11  -1 16586.8 822.090  10
   0  11  -1 16814.9 813.210   5
   0  11  -2 380.737 126.957   5
   0 -11  -2 356.391 138.699  10
   0 -11   2 358.887 154.336   8
   0  11  -2 439.598 145.601   3
   0 -11   2 276.932 146.336   4
   0 -11   3 1258.19 285.615   4
   0 -11  -3 1401.36 268.494  10
   0 -11   3 1258.97 284.528   8
   0 -11  -3 1468.51 275.400   7
   0  11   3 1113.93 211.670   9
   0  11  -3 1237.44 259.081   3
   0  11  -4 233.839 144.166   3
   0 -11   4-4.11925 89.5370   4
   0 -11  -4-2.41457 83.3146   7
   0 -11   4-143.030 142.977   8
   0  11  -5 1132.06 290.468   3
   0 -11   5 1509.70 361.094   4
   0 -11   5 2129.26 426.105   8
   0  11   5 2014.90 446.709   1
   0 -11  -5 1175.81 296.873   7
   0 -12   0 1536.85 275.680   4
   0  12   0 1449.06 269.941   5
   0 -12  -1 1371.19 261.120  10
   0  12  -1 1757.60 284.230   5
   0 -12   1 1406.81 254.097   8
   0 -12  -1 1403.66 241.107   4
   0 -12   1 1089.84 243.016   4
   0  12   1 1287.62 259.947   5
   0  12  -2 27394.8 1085.58   5
   0 -12   2 27071.9 1182.90   8
   0 -12  -2 26473.4 1138.87  10
   0 -12   2 26863.6 1256.15   4
   0  12   3 18340.0 878.674   9
   0 -12   3 17563.0 1051.17   8
   0  12  -3 17096.6 964.260   3
   0 -12  -3 17611.6 973.100   7
   0 -12   3 18194.4 1105.72   4
   0 -12   4 12154.1 951.984   8
   0  12  -4 12783.5 909.480   3
   0 -12   4 12393.3 966.250   4
   0 -12  -4 14469.7 950.590   7
   0 -12   5 2848.15 520.571   8
   0 -12   5 2519.70 476.498   4
   0 -12  -5 2702.11 444.808   7
   0  13   0 662.322 188.063   5
   0 -13   0 468.491 156.733   4
   0 -13   1-103.652 100.326   4
   0 -13  -1-38.7647 70.2317   4
   0  13  -1-40.4102 91.1098   5
   0 -13   2 2960.67 406.906   8
   0 -13   2 2082.98 376.372   4
   0  13   2 2199.94 331.677   9
   0 -13   3 2950.79 460.028   8
   0 -13  -3 3162.52 431.724   7
   0  13   3 3031.13 382.554   9
   0 -13   3 2939.27 474.118   4
   0 -13  -4 13947.7 964.480   7
   0 -13   4 12951.9 1012.79   8
   0 -13   4 12219.5 990.476   4
   0 -14   0 8662.49 679.920   4
   0 -14   1 1584.96 321.356   4
   0 -14  -1 1693.31 289.723   4
   0 -14   2 21.8505 106.947   4
   0  14   2 123.068 126.533   9
   0 -14  -3 1592.08 321.274   7
   0  14   3 1537.86 291.400   9
   0 -14   3 2032.03 390.733   8
   0 -14   3 1496.20 366.107   4
   0 -14  -4 914.276 263.256   7
   0 -14   4 1347.71 345.416   8
   0 -14   4 542.209 232.754   4
   0 -15   0 173.282 126.413   4
   0 -15   1 5030.46 573.533   4
   0  15   2-95.1104 108.594   9
   0 -15   2 86.6381 135.035   4
   0  15   3-77.5957 111.229   9
   0 -15  -3 10.2684 104.312   7
   0 -15   3-12.5236 112.933   8
   0 -15   3 91.1884 116.341   4
   0 -16   0 5155.60 578.581   4
   0 -16   1 1227.81 299.860   4
   0 -16   2 19699.9 1251.66   4
   0  16   2 20812.7 1140.94   9
   1   0  -7 1398.03 324.064   7
  -1   0   7 2065.58 430.391   1
  -1   0   6 310.373 141.300   8
  -1   0   6-164.891 148.647   1
   1   0  -6 147.723 115.617   7
  -1   0   6-103.007 110.483   2
  -1   0   5 106.283 122.062   1
   1   0  -5 92.1382 58.6445   3
  -1   0   5 50.1741 81.1520   8
  -1   0   5 38.4226 117.767   2
   1   0  -5 123.328 132.371   7
  -1   0   4-9.72896 23.2879   4
  -1   0   4 72.4374 101.426   1
   1   0  -4 307.351 84.7811   3
  -1   0   4-20.2325 113.037   2
  -1   0   4 16.6665 70.3203   8
   1   0  -4 100.850 106.922   7
  -1   0   3 22099.8 815.052   2
   1   0  -3 21570.9 689.555   7
  -1   0   3 20908.2 687.691   8
  -1   0   3 20659.9 752.027   1
   1   0  -3 21221.5 532.209   3
  -1   0   3 21220.3 445.684   4
  -1   0   2 15.5843 18.5724   4
   1   0  -2-13.0867 45.1880   7
  -1   0   2-1.93282 41.0361   1
  -1   0   2 17.7787 47.7833   8
  -1   0   2 80.3924 91.1521   2
  -1   0   1 24026.9 383.548   1
   1   0  -1 23344.3 383.536   7
  -1   0   1 24367.3 414.772   4
  -1   0   1 23916.8 577.118   2
   1   0  -1 22985.5 527.073   6
  -1   0   0-1.26382 22.3225   3
   1   0   0-0.16546 30.2602   6
  -1   0  -1 232005. 1473.24   7
   1   0   1 228990. 1980.42   8
  -1   0  -2 133.759 68.9368   7
  -1   0  -2 18.1702 45.9927   3
   1   0   2 5.56637 52.9331   8
   1   0   2 17.5271 27.5825   2
  -1   0  -3 814.048 165.217   7
   1   0   3 856.184 170.527   8
   1   0   3 543.700 96.5583   2
  -1   0  -3 677.490 140.189   3
   1   0   4-96.3760 92.4249   8
  -1   0  -4-53.7358 69.8164   3
   1   0   5 2242.62 408.329   1
  -1   0  -5 2247.53 299.141   3
   1   0   5 2511.77 346.488   8
  -1   0  -5 2794.65 377.532   7
   1   0   6 253.098 198.806   1
  -1   0  -6-119.722 143.745   7
  -1   1   7 478.966 199.546   1
   1  -1  -7 766.902 260.972   7
  -1  -1   7-12.4918 93.4177   1
  -1  -1   7 331.195 169.352   8
   1   1  -7 268.500 170.686   7
  -1  -1   6 2554.70 401.143   2
   1   1  -6 2910.85 394.897   7
   1  -1  -6 3335.71 439.735   7
  -1  -1   6 2761.94 388.302   8
  -1  -1   6 3788.48 525.556   1
  -1   1   6 2619.11 400.837   2
  -1   1   6 3930.55 533.536   1
   1  -1  -5 7881.72 576.939   7
   1   1  -5 8468.25 487.025   3
   1   1  -5 7872.99 571.784   7
  -1  -1   5 9133.93 702.785   1
  -1  -1   5 8176.45 641.639   2
  -1   1   5 7780.00 622.511   2
  -1   1   5 8103.74 661.446   1
  -1   1   5 9408.06 603.540   8
  -1  -1   5 9113.29 628.861   8
  -1  -1   4 15046.0 706.523   8
  -1   1   4 14493.0 762.776   1
  -1   1   4 15349.4 780.463   2
  -1   1   4 14003.4 640.197   8
  -1   1   4 14829.1 324.636   4
  -1  -1   4 14183.6 497.739   4
   1  -1  -4 14588.5 472.063   3
   1   1  -4 13884.2 661.885   7
  -1  -1   4 15114.6 777.533   2
   1   1  -4 14928.8 567.726   3
   1  -1  -4 13721.5 656.669   7
   1  -1  -3 61166.0 1150.31   7
   1   1  -3 63153.8 1011.64   3
  -1   1   3 63146.0 1163.75   8
  -1   1   3 62763.6 1321.27   1
  -1  -1   3 58394.7 1202.86   8
  -1  -1   3 60952.0 911.664   4
  -1  -1   3 59783.9 1366.17   2
  -1   1   3 60855.8 1353.93   2
  -1   1   3 63286.1 587.468   4
   1   1  -3 63901.4 1183.90   7
   1  -1  -2 4427.75 248.467   7
  -1  -1   2 4187.36 269.891   8
  -1   1   2 3708.61 291.799   2
   1   1  -2 3763.62 235.536   7
  -1   1   2 4104.27 268.748   1
  -1  -1   2 4346.30 212.815   4
  -1   1   2 4113.60 144.493   4
  -1  -1   1 1260.70 106.086   4
   1   1  -1 1157.88 98.2782   7
  -1   1   1 1129.28 134.807   2
   1   1  -1 1226.24 123.811   6
   1  -1  -1 1145.95 83.8738   7
  -1   1   1 1085.03 101.349   1
   1   1   0 53520.5 520.169   1
   1  -1   0 52065.4 695.324   6
   1   1   0 54107.9 737.372   6
  -1   1   0 53214.8 679.552   3
  -1   1   0 53861.2 613.721   2
  -1   1   0 51618.3 557.044   9
  -1  -1   0 53312.5 694.108   4
  -1  -1  -1 18319.5 446.534   7
   1  -1   1 19730.1 632.993   8
   1   1   1 19044.5 514.371   8
  -1   1  -1 19837.0 431.380   7
  -1   1  -1 19537.6 524.074   3
  -1  -1  -1 19543.4 482.567   3
   1  -1   1 19464.2 495.776   6
   1  -1   2 27639.6 456.902   2
   1  -1   2 26765.7 832.441   8
  -1  -1  -2 25757.3 682.574   7
  -1   1  -2 25394.5 709.936   3
  -1   1  -2 26554.8 682.847   7
  -1  -1  -2 26572.2 669.174   3
   1   1   2 26662.6 418.473   5
   1   1   2 26869.2 715.514   8
   1   1   3 44104.5 1068.52   8
   1   1   3 44620.1 430.230   5
   1  -1   3 43118.9 1193.27   8
  -1  -1  -3 41913.1 1070.39   7
  -1   1  -3 42903.4 1059.12   3
   1  -1   3 44525.4 780.462   2
  -1  -1  -3 44915.6 1016.08   3
  -1   1  -3 43695.7 1072.44   7
  -1  -1  -4 1092.41 183.465   3
   1   1   4 1146.70 274.810   1
  -1   1  -4 917.662 203.711   7
   1   1   4 1118.51 198.457   8
  -1  -1  -4 1090.59 225.796   7
   1  -1   4 955.583 213.467   8
  -1   1  -4 784.105 170.558   3
   1   1   5 4977.01 591.355   1
   1   1   5 4452.32 429.046   8
  -1   1  -5 4577.22 472.258   7
  -1   1  -5 4877.32 447.702   3
  -1  -1  -5 4834.28 497.440   7
  -1  -1  -5 5326.04 437.174   3
   1  -1   5 4786.38 492.238   8
  -1  -1  -6 7956.71 717.856   7
   1   1   6 8203.45 853.119   1
   1  -1   6 7341.16 654.140   8
  -1   1  -6 8230.63 715.935   7
   1  -1   6 7981.98 851.582   1
  -1   2   7-17.1860 144.923   1
   1  -2  -7 68.4309 147.225   7
  -1  -2   7 9.64642 103.067   1
   1   2  -7-47.3578 122.063   7
  -1  -2   7 356.007 174.332   8
  -1  -2   6 1257.24 306.425   2
  -1  -2   6 1293.07 311.755   1
  -1   2   6 1759.35 371.144   1
   1   2  -6 2203.70 353.643   7
   1  -2  -6 1381.15 302.621   7
  -1  -2   6 1523.49 295.363   8
   1   2  -6 1277.72 220.549   3
  -1   2   6 1959.29 355.100   2
   1   2  -5 123.099 110.886   7
  -1  -2   5-26.6786 111.903   2
  -1   2   5 130.961 124.264   2
   1   2  -5 179.089 84.5775   3
   1  -2  -5 105.000 131.241   7
  -1  -2   5 381.222 152.207   8
  -1   2   5 77.2426 122.179   1
  -1   2   4 22782.9 965.966   2
  -1   2   4 20432.5 907.252   1
  -1  -2   4 20775.3 923.812   2
   1  -2  -4 21289.8 820.283   7
  -1  -2   4 22334.3 889.549   8
   1   2  -4 21412.7 401.315   5
   1   2  -4 21518.6 728.754   3
  -1  -2   4 21236.7 670.665   4
   1   2  -4 21133.7 825.099   7
  -1  -2   3 3731.35 318.402   8
  -1  -2   3 3922.64 260.528   4
  -1   2   3 3580.41 327.826   1
   1   2  -3 3636.16 293.441   7
   1   2  -3 3817.20 273.354   3
   1  -2  -3 3510.67 283.995   7
  -1   2   3 4268.74 375.212   2
  -1   2   2 428013. 3193.04   2
   1   2  -2 431560. 2584.46   7
  -1  -2   2 432713. 2411.08   4
  -1  -2   2 422685. 2802.54   8
   1  -2  -2 428456. 2430.23   7
  -1   2   2 424234. 2900.18   1
  -1   2   1 22.8160 48.0984   2
   1  -2  -1-10.6816 22.0694   7
  -1  -2   1-6.48189 29.5504   4
   1   2  -1 11.8000 40.8282   6
  -1   2   1 20.2904 20.2771   3
  -1  -2   1 5.75884 30.2629   8
  -1   2   1 24.3678 25.9864   9
  -1   2   1 55.5603 41.1216   1
   1   2   0 194835. 1436.14   6
   1  -2   0 197628. 1331.22   6
  -1  -2   0 196605. 1427.26   4
  -1   2   0 196031. 1285.17   9
   1   2   0 200021. 1148.78   1
  -1   2   0 197043. 1384.47   3
   1   2   1 8013.93 294.809   8
  -1   2  -1 7694.32 273.258   7
   1  -2   1 7517.25 422.239   8
   1  -2   1 7732.07 293.223   6
  -1  -2  -1 8367.12 314.048   3
  -1   2  -1 7073.42 336.109   3
   1   2   1 7660.13 360.216   1
  -1  -2  -1 7366.31 286.227   4
   1  -2   2 47969.8 1177.93   8
   1   2   2 48331.9 670.572   5
  -1  -2  -2 47600.6 955.718   7
  -1  -2  -2 48612.7 879.118   3
   1   2   2 46377.9 1118.09   1
  -1   2  -2 46476.1 996.129   3
   1   2   2 46256.4 850.126   8
  -1   2  -2 46828.7 902.819   7
   1   2   3 160.822 114.801   1
  -1  -2  -3 212.531 80.9001   3
   1  -2   3 17.2915 78.5013   8
   1   2   3 132.005 70.0202   8
  -1  -2  -3 80.6853 87.1350   7
   1  -2   3 122.535 61.6757   2
  -1   2  -3 146.998 92.3656   7
  -1   2  -3 176.183 92.3258   3
   1   2   3 95.8085 32.1231   5
  -1  -2  -4 180459. 2225.45   3
  -1   2  -4 178600. 2489.49   3
   1   2   4 179806. 3072.11   1
  -1   2  -4 175243. 2504.00   7
   1  -2   4 179177. 2836.22   8
   1   2   4 183305. 2312.77   8
  -1  -2  -4 179491. 2621.49   7
   1  -2   5 49.4380 113.496   8
  -1   2  -5 19.1689 112.379   7
  -1  -2  -5 58.9184 135.863   7
  -1   2  -5-33.3306 66.2934   3
   1   2   5 144.815 131.379   1
  -1   2  -6 26217.1 1167.42   3
   1  -2   6 27642.1 1317.32   8
  -1   2  -6 26424.5 1260.92   7
  -1  -2  -6 26415.3 1300.58   7
   1   2   6 27557.8 1542.78   1
  -1   3   7 1136.91 338.969   1
  -1  -3   7 1017.85 334.225   1
  -1  -3   7 1376.60 322.801   8
   1   3  -7 1518.12 340.843   7
   1  -3  -7 872.258 277.868   7
  -1  -3   6 555.905 205.216   8
   1  -3  -6 701.702 224.262   7
   1   3  -6 330.821 128.637   3
   1   3  -6 497.141 192.802   7
  -1   3   6 309.153 163.544   2
  -1  -3   6 75.5915 150.241   2
  -1   3   6 359.421 190.081   1
  -1   3   5 1045.58 248.420   1
   1   3  -5 974.808 219.492   7
  -1   3   5 1032.26 244.920   2
   1   3  -5 1081.26 198.176   3
  -1  -3   5 1087.49 247.266   8
  -1  -3   5 1002.81 265.337   2
   1  -3  -5 1325.00 258.583   7
  -1  -3   5 1295.75 201.426   4
   1  -3  -4 801.370 181.304   7
  -1   3   4 1015.82 227.435   1
   1   3  -4 997.562 196.557   7
  -1  -3   4 1039.63 211.547   8
   1   3  -4 675.172 81.7526   5
  -1  -3   4 948.726 163.449   4
   1   3  -4 788.100 153.544   3
  -1   3   4 712.043 197.368   2
   1   3  -3 25072.6 520.667   5
  -1  -3   3 25404.3 855.042   8
  -1   3   3 26841.8 920.319   1
  -1   3   3 24795.7 922.780   2
   1  -3  -3 24195.9 742.643   7
   1   3  -3 24002.0 759.939   7
   1   3  -3 25687.9 755.811   3
  -1  -3   3 24858.3 726.973   4
  -1   3   2 32082.3 930.740   2
   1  -3  -2 33121.0 678.433   7
  -1  -3   2 34663.0 842.510   8
  -1  -3   2 31812.3 754.247   4
   1   3  -2 33847.6 767.049   7
  -1   3   2 33888.0 883.138   1
  -1  -3   1 3982.43 227.761   8
  -1  -3   1 3851.04 232.629   4
  -1   3   1 3806.16 149.092   3
  -1   3   1 3444.84 272.556   2
   1   3  -1 3551.15 194.323   6
  -1   3   1 3803.09 219.340   9
   1  -3  -1 3935.34 171.643   7
   1   3   0 192151. 1460.71   6
   1   3   0 194776. 1479.87   5
  -1  -3   0 195695. 1529.68   4
   1  -3   0 194236. 1295.33   6
   1  -3   0 189791. 1997.32   8
  -1   3   0 190022. 1484.17   3
   1   3   1 98.5121 62.6008   1
  -1   3  -1 105.285 58.0353   3
  -1  -3  -1 19.6569 31.8230   4
   1  -3   1 43.2056 70.0679   8
   1   3   1 22.5761 26.5547   5
  -1   3  -1-13.7089 26.7651   7
   1   3   1-16.5230 23.9341   8
   1  -3   1-0.93728 24.5021   6
  -1  -3  -2 14652.4 554.584   7
   1   3   2 14865.6 422.765   8
   1  -3   2 15261.1 697.672   8
  -1  -3  -2 15884.9 495.878   3
   1   3   2 14648.5 641.754   1
  -1   3  -2 15292.8 521.616   7
  -1   3  -2 15005.5 592.814   3
   1   3   2 16298.3 448.182   5
   1   3   2 15965.5 300.948   9
  -1   3  -3 13816.3 641.479   3
  -1   3  -3 15577.1 642.308   7
   1   3   3 14717.8 425.605   5
   1   3   3 15184.0 774.926   1
  -1  -3  -3 14724.6 548.452   3
  -1  -3  -3 14502.8 649.173   7
   1   3   3 15022.3 527.610   8
   1  -3   3 16175.1 802.577   8
  -1   3  -4 195.653 124.868   7
  -1  -3  -4 469.384 117.437   3
   1   3   4 148.494 132.433   1
   1   3   4 165.470 84.3062   8
   1  -3   4 176.162 139.367   8
  -1  -3  -4 549.314 163.373   7
  -1   3  -4 175.070 113.810   3
   1  -3   5 2848.86 410.489   8
   1   3   5 3772.19 514.901   1
  -1  -3  -5 3833.70 455.902   7
  -1   3  -5 3261.44 386.259   3
  -1   3  -5 3591.11 422.240   7
  -1   3  -6 7791.65 657.370   3
  -1   3  -6 7402.91 671.970   7
  -1  -3  -6 8025.40 747.425   7
   1   3   6 7222.18 800.557   1
   1  -3   6 8866.62 782.714   8
  -1   4   7 2370.14 481.787   1
  -1  -4   7 2074.77 471.975   1
   1   4  -7 1919.26 362.736   7
  -1  -4   7 1957.81 395.378   8
   1  -4  -7 2093.93 394.595   7
   1  -4  -6 20374.3 1079.35   7
   1   4  -6 21289.2 1075.59   7
  -1  -4   6 18818.2 1098.84   8
  -1   4   6 19480.2 1200.37   1
   1   4  -6 20166.6 959.567   3
  -1  -4   5 60.1861 77.4151   4
  -1  -4   5 73.9554 89.3374   8
   1  -4  -5 91.1080 107.160   7
   1   4  -5 86.7758 76.8897   3
  -1   4   5 50.3306 130.977   1
   1   4  -5 78.2296 114.663   7
  -1   4   5 78.9331 112.240   2
   1  -4  -5 12.2218 41.6578  10
  -1  -4   5 364.534 168.323   2
   1   4  -4 21034.4 844.166   7
  -1  -4   4 22381.2 952.857   8
   1  -4  -4 21294.8 838.052   7
  -1   4   4 21422.4 992.973   1
  -1   4   4 20913.1 991.138   2
   1   4  -4 21385.4 511.513   5
  -1  -4   4 20789.6 788.892   4
   1  -4  -4 21517.2 701.975  10
   1   4  -4 21891.9 824.822   3
  -1  -4   3 17801.8 669.947   4
   1  -4  -3 19932.6 680.532   7
   1   4  -3 17792.9 684.940   7
  -1   4   3 18874.5 845.242   2
  -1  -4   3 18286.0 753.732   8
  -1   4   3 18173.5 807.943   1
   1   4  -3 18346.2 492.715   5
   1   4  -3 18095.8 674.339   3
  -1   4   2 42897.9 854.660   9
  -1   4   2 43934.1 1083.50   1
  -1   4   2 42689.0 1150.93   2
   1  -4  -2 45507.2 832.100   7
   1   4  -2 42023.9 761.110   5
   1   4  -2 44595.2 808.425   6
   1   4  -2 44682.6 937.946   7
  -1  -4   2 44221.4 958.617   4
  -1  -4   2 44241.3 1000.45   8
  -1  -4   1 40973.6 773.068   8
  -1   4   1 40075.5 779.422   9
   1   4  -1 41089.8 637.233   6
   1   4  -1 38932.9 731.552   5
  -1  -4   1 40766.7 835.076   4
  -1   4   1 40798.7 532.082   3
   1  -4   0 180955. 2076.83   8
   1   4   0 185008. 1473.99   6
   1  -4   0 181010. 1264.64   6
   1   4   0 186293. 1628.52   5
  -1  -4   0 179993. 1619.44   4
  -1   4   0 184578. 1557.92   3
   1   4   1 81032.2 1286.26   1
  -1  -4  -1 80048.7 1064.20   4
   1  -4   1 78824.4 1524.66   8
  -1   4  -1 80726.7 1234.44   3
  -1   4  -1 79019.4 958.872   7
   1   4   1 79854.2 1089.81   5
   1   4   2 49424.3 674.195   9
  -1  -4  -2 48306.2 1062.19   7
   1   4   2 48539.0 876.651   5
  -1  -4  -2 48609.4 872.168   3
   1  -4   2 48946.9 1309.22   8
  -1   4  -2 47908.4 942.493   7
  -1   4  -2 48143.1 1100.43   3
   1   4   2 48239.0 1200.56   1
   1   4   2 49018.3 600.238   8
   1   4   3 1727.16 276.416   1
  -1  -4  -3 1729.13 235.934   7
  -1   4  -3 1630.37 217.846   7
   1   4   3 1736.19 166.958   5
   1  -4   3 1720.64 286.502   8
  -1  -4  -3 2234.38 211.651   3
   1   4   3 1869.57 166.569   8
  -1   4  -3 1583.78 231.384   3
   1   4   4 4180.33 478.730   1
  -1  -4  -4 3241.67 371.578   7
  -1   4  -4 3868.61 400.382   3
   1  -4   4 4092.69 468.821   8
  -1   4  -4 3970.44 384.786   7
   1  -4   5 3794.82 441.060   4
  -1   4  -5 3877.84 436.816   3
  -1  -4  -5 3754.05 455.155   7
  -1   4  -5 3786.44 437.642   7
   1   4   5 4869.31 591.528   1
   1  -4   5 3933.02 497.987   8
  -1   4  -6 6429.27 626.198   7
   1  -4   6 6142.77 668.384   8
  -1   4  -6 4467.61 521.714   3
   1   4   6 5085.36 681.489   1
  -1  -4  -6 5421.06 608.922   7
  -1  -5   7-92.5948 147.141   8
   1  -5  -7 78.5920 146.594   7
   1   5  -7 297.729 196.494   7
  -1   5   7 193.648 163.247   1
   1  -5  -6 5775.02 595.538   7
  -1  -5   6 6003.88 638.439   8
  -1   5   6 6147.69 694.902   1
   1   5  -6 5176.99 545.581   7
   1  -5  -5 6087.56 535.973   7
   1   5  -5 6479.31 522.465   3
  -1  -5   5 6489.92 600.632   8
   1   5  -5 6112.21 526.234   7
  -1   5   5 6845.03 656.962   1
  -1  -5   5 6983.55 522.463   4
   1  -5  -5 6867.02 441.916  10
   1   5  -4 12787.6 443.761   5
  -1   5   4 13109.9 804.912   1
   1  -5  -4 12178.4 649.877   7
   1  -5  -4 11943.0 564.495  10
   1   5  -4 12215.4 648.355   3
   1   5  -4 13960.0 707.656   7
  -1  -5   4 12682.2 743.998   8
  -1  -5   4 13726.1 681.869   4
  -1   5   3 29681.5 1078.70   1
   1  -5  -3 29671.6 852.866   7
  -1  -5   3 29402.9 931.321   4
   1   5  -3 29788.9 915.463   7
   1   5  -3 30465.8 704.317   5
  -1  -5   3 29788.8 999.736   8
   1   5  -3 29295.1 907.688   3
   1  -5  -2 40030.3 827.989   7
  -1   5   2 37316.0 1063.46   1
   1   5  -2 37326.6 716.666   6
  -1   5   2 40995.0 883.336   9
   1  -5  -2 40065.4 644.127   4
   1   5  -2 40150.7 812.467   5
  -1  -5   2 38997.5 983.980   4
  -1  -5   2 39727.8 994.800   8
   1   5  -1 6845.16 341.313   5
   1   5  -1 7128.10 260.800   6
  -1  -5   1 6732.73 372.986   4
  -1   5   1 6720.71 347.968   9
  -1   5   1 7185.08 252.593   3
  -1  -5   1 7222.45 345.840   8
   1  -5   0 102.863 77.7103   8
  -1  -5   0-48.9931 44.1857   4
   1   5   0 62.3054 40.0277   6
   1   5   0 11.2505 38.0371   5
   1  -5   0 26.8574 29.9475   6
  -1   5   0 68.1114 51.8851   3
   1  -5   1 6612.87 471.087   8
  -1  -5  -1 8020.66 356.650   4
   1   5   1 7527.27 420.886   1
   1   5   1 7750.66 377.681   5
  -1   5  -1 7532.63 399.214   3
  -1   5  -2 9373.10 431.264   7
   1   5   2 8870.17 540.426   1
  -1  -5  -2 9576.69 386.990   3
   1  -5   2 9504.18 607.437   8
   1   5   2 9123.67 418.495   5
   1   5   2 9225.16 339.493   9
  -1  -5  -2 9005.07 374.116   4
  -1   5  -2 9217.67 506.743   3
   1  -5   2 10031.6 326.832  10
   1   5   3 41949.8 905.991   5
  -1  -5  -3 39623.0 1137.34   7
   1   5   3 39641.9 1315.36   1
   1  -5   3 43721.8 1430.99   8
  -1   5  -3 40998.4 1191.74   3
  -1  -5  -3 41189.8 877.047   3
  -1   5  -3 41138.1 1065.50   7
  -1   5  -4 1167.94 213.813   7
   1   5   4 834.019 227.018   1
   1  -5   4 960.859 250.989   8
  -1   5  -4 913.853 210.393   3
  -1  -5  -4 1020.73 217.382   7
  -1  -5  -5 4597.71 521.110   7
  -1   5  -5 4694.57 497.030   3
   1   5   5 4978.81 600.948   1
  -1   5  -5 4751.29 483.710   7
   1  -5   5 4510.18 550.463   8
   1  -5   5 5884.87 564.214   4
   1   5   6 3847.48 602.510   1
  -1   5  -6 4095.30 510.421   3
  -1  -5  -6 5090.48 603.309   7
   1  -5   6 5403.20 651.648   8
  -1   5  -6 4253.63 514.922   7
   1  -6  -7 167.644 188.035   7
  -1  -6   7 424.473 209.505   8
   1   6  -7 84.9033 140.586   7
  -1   6   7 161.364 157.638   1
  -1  -6   6-93.3458 140.571   8
   1  -6  -6-30.4747 108.169   7
  -1   6   6 3.42437 129.959   1
   1   6  -6 44.4991 103.140   7
   1  -6  -5 187.845 101.728  10
  -1  -6   5 187.966 111.017   4
   1   6  -5 68.8187 90.2656   3
   1   6  -5 358.805 160.649   7
  -1  -6   5 36.6144 90.3055   8
  -1   6   5 300.237 178.080   1
   1  -6  -5 50.1351 101.057   7
   1   6  -4-161.384 107.250   7
  -1   6   4 61.5255 97.5874   1
  -1  -6   4 4.31360 81.0387   8
   1   6  -4 55.1681 84.5451   3
   1  -6  -4 99.0150 98.8908   7
   1   6  -4-3.17075 38.6114   5
   1  -6  -4 50.9537 70.5642  10
  -1  -6   4-53.5140 77.9888   4
  -1   6   3 7500.42 574.020   1
   1  -6  -3 8416.68 472.745   7
   1   6  -3 7935.70 502.901   3
   1   6  -3 7711.71 388.620   6
  -1  -6   3 7601.29 529.722   8
   1   6  -3 8132.69 501.218   7
  -1   6   3 7646.17 430.016   9
   1  -6  -3 7858.88 466.460  10
  -1  -6   3 7943.55 512.865   4
   1   6  -3 8272.37 401.855   5
   1  -6  -2 52275.7 1013.22   7
  -1  -6   2 53054.4 1230.34   4
   1   6  -2 51684.3 764.294   6
   1  -6  -2 49809.0 841.956   4
  -1  -6   2 49980.7 1164.41   8
   1   6  -2 49708.5 991.385   5
  -1   6   2 52492.3 1068.55   9
   1   6  -1 2054.89 140.126   6
   1  -6  -1 2013.93 230.176   8
   1   6  -1 2113.30 212.016   5
  -1  -6   1 2108.87 201.073   8
  -1   6   1 2205.68 157.811   3
  -1  -6   1 1945.14 218.185   4
   1  -6   0 1886.45 130.846   6
   1  -6   0 2349.07 265.411   8
   1   6   0 2148.30 212.853   5
  -1   6   0 2279.36 201.745   3
  -1  -6   0 2184.45 149.027   8
  -1  -6   0 2349.62 220.079   4
   1  -6   1 36003.8 783.503  10
  -1  -6  -1 33215.3 772.562   4
   1   6   1 33293.0 854.828   5
   1   6   1 32652.7 946.760   1
  -1   6  -1 34087.7 896.853   3
   1  -6   1 33291.1 1081.52   8
   1   6   2 1177.87 220.353   1
  -1   6  -2 1054.13 158.176   7
  -1  -6  -2 1126.15 138.456   3
   1  -6   2 830.520 112.867  10
   1  -6   2 538.555 175.799   8
  -1   6  -2 1059.34 191.324   3
   1   6   2 918.542 150.438   5
  -1  -6  -2 1360.00 153.992   4
   1   6   3 1497.91 188.512   5
  -1  -6  -3 972.983 198.570   7
  -1   6  -3 1084.10 185.307   7
  -1   6  -3 1087.21 219.600   3
   1   6   3 1342.33 261.825   1
   1  -6   3 1144.61 252.705   8
  -1  -6  -3 1163.82 151.198   3
  -1  -6  -4 51007.2 1499.45   7
  -1   6  -4 47988.0 1352.93   7
   1  -6   4 49241.3 1705.90   8
   1   6   4 49900.2 1716.19   1
  -1   6  -4 48421.1 1476.37   3
  -1  -6  -5 376.557 171.279   7
  -1   6  -5 393.066 153.557   7
   1   6   5 41.1235 117.392   1
   1  -6   5 377.680 187.840   8
  -1   6  -5 474.116 172.550   3
   1  -6   5 173.285 128.915   4
   1  -6   6 3856.56 573.312   8
  -1   6  -6 3289.88 469.763   3
  -1   6  -6 3690.87 480.086   7
   1   6   6 3077.57 543.999   1
  -1  -6  -6 4067.84 555.298   7
  -1   7   6 7772.57 815.749   1
   1  -7  -6 8972.82 761.069   7
  -1  -7   6 8466.96 800.143   8
   1   7  -6 8907.75 739.586   7
  -1  -7   5 692.954 235.786   8
   1  -7  -5 681.901 200.728   7
   1   7  -5 528.950 180.332   7
   1  -7  -5 879.367 177.171  10
   1   7  -5 409.487 150.037   3
  -1  -7   5 404.850 152.561   4
  -1   7   5 682.328 244.419   1
  -1  -7   4 3415.71 385.889   4
  -1   7   4 3725.91 462.218   1
   1   7  -4 3238.75 369.293   3
   1   7  -4 3833.79 292.071   5
  -1  -7   4 3860.69 441.806   8
   1   7  -4 3614.60 389.464   7
   1  -7  -4 3521.55 346.130  10
   1  -7  -4 3015.07 346.408   7
  -1  -7   3 4728.34 422.663   4
   1   7  -3 4977.99 342.002   5
   1   7  -3 5041.95 290.837   6
  -1  -7   3 5355.20 462.723   8
   1  -7  -3 5981.33 432.223  10
  -1   7   3 5235.93 372.512   9
   1  -7  -3 5134.68 388.134   7
  -1   7   3 5578.74 518.160   1
  -1  -7   2 42430.0 1171.26   4
   1   7  -2 41756.1 624.034   6
   1  -7  -2 42731.6 1108.42  10
  -1   7   2 42746.3 1021.42   9
   1   7  -2 41495.2 989.173   5
   1  -7  -2 43855.3 861.603   4
  -1  -7   2 41530.3 1111.75   8
  -1  -7   1 155.587 68.4619   8
  -1  -7   1 222.417 88.8809   4
   1  -7  -1 183.123 81.2592   4
   1   7  -1 161.280 71.8623   5
  -1   7   1 189.120 57.4552   3
   1   7  -1 170.918 45.7739   6
   1  -7  -1 97.2629 84.0868   8
   1  -7   0 104446. 1816.40   8
   1  -7   0 109498. 950.526   6
   1  -7   0 105961. 1569.32  10
  -1   7   0 105392. 1437.57   3
  -1  -7   0 105422. 1583.40   4
  -1  -7   0 107214. 1123.25   8
   1   7   0 107835. 1622.44   5
   1  -7   1 1811.47 196.902  10
  -1  -7  -1 2090.11 208.852   4
   1   7   1 2191.14 241.134   5
  -1   7  -1 2100.75 238.948   3
   1  -7   1 1827.34 273.956   8
   1   7   2 5210.60 454.496   1
   1  -7   2 6063.60 320.856  10
   1  -7   2 6083.87 532.056   8
  -1  -7  -2 5534.89 329.574   4
   1   7   2 6257.70 408.313   5
  -1   7  -2 6049.05 451.633   3
  -1   7  -3 3562.62 379.909   3
   1  -7   3 3381.41 431.820   8
   1   7   3 2826.68 282.638   5
   1   7   3 2747.82 376.562   1
  -1   7  -3 2783.51 301.478   7
  -1  -7  -3 3020.00 349.545   7
  -1   7  -4 117.938 95.1387   7
   1  -7   4 519.565 209.420   8
   1   7   4 445.012 191.554   1
   1  -7   4-60.8430 88.5763   4
  -1   7  -4 550.535 193.061   3
  -1  -7  -4 299.308 152.485   7
  -1   7  -5 860.437 232.064   3
  -1   7  -5 416.282 161.688   7
  -1  -7  -5 332.903 164.714   7
   1  -7   5 629.490 237.455   8
   1   7   5 792.200 258.850   1
   1  -7   5 644.810 222.480   4
   1  -7   6 4822.31 648.932   8
  -1   7  -6 3372.41 501.904   3
  -1   7  -6 3670.08 484.737   7
  -1  -7  -6 4773.26 609.031   7
   1   7   6 4495.14 665.396   1
  -1   8   6 31038.2 1668.52   1
   1   8  -6 33736.0 1467.64   7
   1  -8  -6 33449.7 1483.10   7
  -1  -8   6 34346.0 1636.91   8
  -1  -8   6 31030.2 1347.17   4
  -1   8   5-25.8491 111.532   1
   1  -8  -5 71.3458 124.547   7
  -1  -8   5 132.868 83.0510   4
   1   8  -5-63.9737 105.814   7
  -1  -8   5 167.135 134.637   8
   1  -8  -5 50.1286 68.9980  10
  -1   8   4 18689.9 1072.62   1
   1  -8  -4 20597.4 904.907   7
  -1  -8   4 19354.6 1008.59   8
   1  -8  -4 19165.5 854.598  10
  -1  -8   4 19393.4 958.614   4
  -1  -8   3 1274.05 242.645   8
   1  -8  -3 1422.81 227.976  10
  -1  -8   3 1018.27 222.497   4
  -1   8   3 1099.82 186.249   9
   1  -8  -3 1429.59 217.120   7
   1   8  -3 1320.23 193.875   5
  -1   8   2 20626.5 764.801   9
   1  -8  -2 22097.0 671.397   4
   1  -8  -2 22065.7 848.250  10
   1  -8  -2 20576.3 716.766   8
   1   8  -2 20285.5 743.255   5
  -1  -8   2 21170.2 830.903   8
  -1  -8   2 21532.6 886.972   4
   1  -8  -1 10795.0 561.723   8
  -1  -8   1 10766.8 577.063   4
   1   8  -1 10652.3 546.200   5
  -1   8   1 11183.0 425.268   3
   1  -8  -1 11114.3 551.138   4
  -1  -8   1 11898.6 520.650   8
   1  -8  -1 11382.1 580.429  10
   1   8   0 107117. 1747.25   5
  -1   8   0 106643. 1537.99   3
   1  -8   0 107623. 1694.11  10
   1  -8   0 106049. 890.983   6
   1  -8   0 106044. 1910.43   8
   1  -8   0 106909. 1913.65   4
  -1  -8   0 103738. 1675.42   4
  -1  -8   0 109675. 1199.26   8
  -1  -8  -1 21693.3 716.743   4
   1   8   1 21045.6 783.491   5
  -1   8  -1 23456.5 819.994   3
   1  -8   1 21289.1 717.744  10
   1  -8   1 21780.5 940.027   8
   1  -8   2 32034.7 804.440  10
   1   8   2 33047.6 1002.90   5
  -1  -8  -2 31510.9 832.717   4
   1  -8   2 30861.2 1216.47   8
  -1   8  -2 31828.3 1062.27   3
   1   8   2 31850.4 1178.75   1
  -1  -8  -3 170.002 107.857   7
   1  -8   3 343.446 160.828   4
   1   8   3 223.578 164.899   1
   1  -8   3 60.8719 121.735   8
  -1   8  -3 223.807 112.159   3
   1   8   3 166.013 99.0912   5
   1  -8   4 1720.78 339.886   4
  -1  -8  -4 1146.39 252.968   7
  -1   8  -4 1306.07 240.298   7
   1   8   4 1091.12 286.094   1
  -1   8  -4 974.075 245.176   3
   1  -8   4 1466.99 319.551   8
   1  -8   5 4239.80 576.225   8
   1   8   5 2894.09 500.939   1
  -1   8  -5 3472.02 472.721   3
   1  -8   5 3636.27 511.619   4
  -1   8  -5 3379.84 426.115   7
  -1  -8  -5 4018.83 515.791   7
   1  -9  -6 137.049 198.195   7
  -1  -9   6 635.683 215.317   4
  -1   9   6 119.700 148.232   1
  -1  -9   5 2757.76 407.681   4
  -1  -9   5 2543.66 424.846   8
   1  -9  -5 2932.09 404.186   7
   1  -9  -5 3120.76 375.180  10
  -1   9   5 2476.02 456.234   1
  -1  -9   4 520.839 191.265   8
   1  -9  -4 451.593 151.158   7
  -1  -9   4 484.719 175.741   4
   1  -9  -4 661.412 174.518  10
  -1   9   4 429.358 180.932   1
  -1   9   3 12518.9 642.927   9
   1  -9  -3 12246.8 650.386   7
   1   9  -3 12765.1 630.068   5
   1  -9  -3 13161.2 717.492  10
  -1  -9   3 12270.4 752.593   4
  -1  -9   3 12446.1 750.586   8
  -1   9   2 18986.4 777.239   9
   1  -9  -2 18366.0 819.054  10
   1   9  -2 17801.5 741.203   5
  -1  -9   2 18432.5 867.107   4
  -1  -9   2 17996.0 790.359   8
   1  -9  -2 18694.1 664.420   4
  -1   9   1 1482.49 168.583   3
   1  -9  -1 1796.12 240.646   4
  -1  -9   1 1607.67 209.186   8
   1  -9  -1 1945.72 254.995   8
   1   9  -1 1559.79 231.791   5
  -1  -9   1 1515.25 232.508   4
   1  -9  -1 1246.60 211.178  10
   1  -9   0 184.989 106.946   4
  -1  -9   0 111.364 77.5545   4
  -1   9   0 318.716 101.895   3
   1   9   0 55.1165 68.8075   5
   1  -9   0 206.915 101.615  10
  -1  -9   0 145.685 57.8341   8
   1  -9   0 340.141 121.545   8
   1  -9   1 1985.17 308.754   4
  -1   9  -1 1751.07 242.584   3
  -1  -9  -1 1985.18 238.647   4
   1  -9   1 1696.77 221.955  10
   1   9   1 1615.49 241.662   5
   1  -9   1 1598.12 278.588   8
   1  -9   2 916.091 243.993   8
   1  -9   2 806.120 219.455   4
   1   9   2 639.097 160.478   5
  -1  -9  -2 879.615 150.693   4
  -1   9  -2 763.471 191.601   3
   1  -9   2 935.978 155.782  10
  -1  -9  -3 23984.3 1050.15   7
   1  -9   3 22937.3 1187.77   8
   1   9   3 23708.5 1173.40   1
  -1   9  -3 24453.4 1076.64   3
   1   9   3 23328.6 910.721   5
   1  -9   3 22703.4 1164.57   4
   1  -9   4 996.840 291.241   8
   1   9   4 1342.29 324.129   1
  -1  -9  -4 1455.79 302.928   7
  -1   9  -4 938.463 243.638   3
   1  -9   4 1353.55 314.306   4
   1  -9   5 2788.75 458.515   4
  -1  -9  -5 2817.41 452.223   7
   1  -9   5 2908.97 504.500   8
  -1   9  -5 2592.66 424.796   3
   1   9   5 2995.04 518.399   1
  -1 -10   6 1314.67 348.694   8
  -1 -10   6 522.371 185.959   4
  -1  10   6 611.697 274.545   1
   1 -10  -6 1268.22 316.680   7
  -1 -10   5 285.033 184.097   8
   1 -10  -5-16.6092 125.896   7
  -1 -10   5-24.8796 71.4560   4
  -1  10   5 497.758 214.293   1
   1 -10  -5 220.817 114.874  10
   1 -10  -4 11812.5 737.871   7
  -1 -10   4 12238.9 856.621   8
  -1 -10   4 11535.2 814.296   4
   1 -10  -4 11921.8 741.986  10
  -1  10   4 11043.8 652.856   9
   1 -10  -3 5981.50 481.147   7
   1 -10  -3 6515.65 531.642  10
   1  10  -3 6802.24 491.239   5
  -1 -10   3 6020.52 547.389   8
  -1  10   3 6270.15 481.962   9
  -1 -10   3 6518.45 580.032   4
  -1 -10   2 85.4412 84.5750   8
   1 -10  -2 187.858 77.6102   4
  -1 -10   2 130.868 102.990   4
  -1  10   2 135.549 96.3776   9
   1  10  -2 192.809 103.574   5
   1 -10  -2 114.252 102.812  10
   1  10  -1 1385.40 231.461   5
  -1 -10   1 1070.21 213.858   4
  -1 -10   1 1201.03 190.712   8
   1 -10  -1 1355.84 236.010  10
   1 -10  -1 1328.89 218.369   8
   1 -10  -1 1212.07 211.730   4
  -1 -10   0 8368.22 541.221   4
   1 -10   0 7753.74 518.369  10
  -1  10   0 8279.18 480.811   3
   1 -10   0 8474.42 603.862   4
   1 -10   0 8596.67 582.425   8
   1  10   0 7168.47 518.647   5
  -1 -10  -1 25040.6 880.942   4
   1 -10   1 24440.3 869.276  10
  -1  10  -1 23673.5 908.863   3
   1  10   1 24709.2 964.657   5
   1 -10   1 22870.8 1034.60   8
   1 -10   1 24555.4 1104.11   4
  -1 -10  -2 27221.6 866.428   4
   1 -10   2 25110.2 828.259  10
  -1  10  -2 27183.4 1072.33   3
   1  10   2 25221.9 989.342   5
   1 -10   2 26940.4 1228.16   8
   1 -10   2 26839.8 1241.98   4
   1 -10   3 1423.45 313.823   8
   1 -10   3 1541.89 333.446   4
  -1  10  -3 1919.59 323.573   3
   1  10   3 1516.68 320.553   1
  -1 -10  -3 1468.47 286.394   7
   1  10   3 1842.54 273.728   5
   1 -10   4 1081.61 307.800   8
   1  10   4 1443.53 358.410   1
  -1  10  -4 621.984 214.365   3
   1 -10   4 1158.96 299.003   4
  -1 -10  -4 980.839 252.006   7
   1 -10   5 913.338 312.230   8
  -1  10  -5 473.186 202.109   3
   1 -10   5 806.307 287.206   4
  -1 -10  -5 1005.50 280.972   7
   1  10   5 1074.77 351.538   1
   1 -11  -5 5806.02 604.110   7
   1 -11  -5 5053.19 527.517  10
  -1 -11   5 5143.41 598.086   4
  -1 -11   5 5278.98 644.887   8
   1 -11  -4 6646.34 586.852  10
   1 -11  -4 6354.74 564.682   7
  -1  11   4 6441.66 528.321   9
  -1 -11   4 7315.94 682.566   8
  -1 -11   4 6857.90 657.883   4
  -1 -11   3 155.315 121.017   8
  -1 -11   3-75.7789 97.6435   4
   1 -11  -3 90.7573 95.6032   7
  -1  11   3 92.2909 83.0456   9
   1 -11  -3 141.142 100.078  10
   1  11  -3 136.926 87.6819   5
  -1 -11   2 19411.9 980.837   4
  -1  11   2 18594.2 870.053   9
   1 -11  -2 20818.6 965.703  10
   1 -11  -2 18245.4 751.470   4
  -1 -11   2 19597.0 889.496   8
   1  11  -2 19440.1 879.989   5
  -1 -11   1 113.236 80.5978   8
  -1 -11   1 55.4517 74.4574   4
   1 -11  -1-101.432 92.6633   4
   1 -11  -1 65.2705 79.0921  10
   1  11  -1-59.9455 76.3698   5
  -1  11   0 45598.4 1186.08   3
   1 -11   0 45100.6 1312.74  10
   1  11   0 44170.2 1349.41   5
   1 -11   0 45462.0 1374.98   8
   1 -11   0 43981.6 1428.80   4
  -1 -11   0 44074.4 1307.83   4
   1 -11   1 5761.25 562.944   4
  -1  11  -1 6066.61 480.054   3
   1 -11   1 6158.87 465.520  10
   1 -11   1 5601.23 538.293   8
  -1 -11  -1 5527.35 442.080   4
   1  11   1 6022.20 507.218   5
   1 -11   2 684.980 229.375   4
   1  11   2 526.416 158.478   5
   1 -11   2 551.858 215.294   8
  -1  11  -2 414.532 153.660   3
   1 -11   3 20.7217 104.994   8
  -1 -11  -3 17.0426 98.0282   7
   1 -11   3 50.8891 108.899   4
  -1  11  -3 40.0050 85.9606   3
   1  11   3 173.460 106.799   5
   1 -11   4-77.5751 124.497   8
  -1 -11  -4 167.744 157.065   7
  -1  11  -4 118.036 110.855   3
   1 -11   4-296.373 180.074   4
   1  11   4 283.568 181.344   1
  -1 -12   5-25.3005 127.788   8
  -1 -12   5-3.17603 86.3736   4
   1 -12  -5-106.719 151.785   7
   1 -12  -5-245.484 150.356  10
  -1 -12   4 3599.99 496.218   8
   1 -12  -4 4151.09 477.272   7
  -1  12   4 2932.55 376.744   9
   1 -12  -4 3114.55 426.276  10
  -1 -12   4 3854.00 517.787   4
  -1 -12   3 318.307 155.550   8
  -1 -12   3 175.989 109.411   4
   1  12  -3 428.412 149.649   5
   1 -12  -3 454.483 180.312  10
   1 -12  -3 253.722 128.004   7
  -1  12   3 219.575 123.326   9
  -1 -12   2 649.418 170.401   8
  -1 -12   2 1106.96 246.729   4
   1  12  -2 609.850 171.719   5
   1 -12  -2 1082.53 234.919  10
  -1  12   2 1118.06 232.095   9
   1 -12  -1 6555.40 554.550  10
   1  12  -1 5683.22 510.311   5
  -1 -12   1 5795.39 527.704   4
   1 -12  -1 5901.62 503.925   4
  -1 -12   0 15513.9 820.966   4
   1 -12   0 15927.4 903.792   4
   1 -12   0 16726.3 847.940  10
   1  12   0 17242.7 892.922   5
   1 -12   0 17651.7 881.901   8
  -1 -12  -1 3090.53 355.058   4
   1 -12   1 2777.56 413.655   4
   1  12   1 2801.10 369.360   5
   1 -12   1 2387.66 360.084   8
   1 -12   1 3387.14 370.664  10
  -1  12  -1 2842.19 351.084   3
   1 -12   2 3042.42 468.270   4
  -1  12  -2 3082.09 396.718   3
   1 -12   2 3251.01 454.097   8
   1  12   2 2923.18 378.452   5
   1 -12   3-140.436 151.380   8
  -1  12  -3 1.99935 73.3719   3
   1 -12   3 68.1848 115.700   4
  -1 -12  -3-96.0478 125.203   7
   1  12   3 150.849 117.937   5
   1 -12   4 1847.40 413.017   8
   1 -12   4 2309.20 433.298   4
  -1  12  -4 1606.40 344.586   3
  -1 -12  -4 1415.58 329.807   7
  -1 -13   4 736.753 244.661   8
  -1 -13   4 814.350 268.132   4
  -1  13   4 1029.65 252.100   9
   1 -13  -4 1127.08 271.150   7
   1 -13  -4 1080.50 268.286  10
  -1 -13   3 3513.82 455.143   8
   1 -13  -3 3675.88 437.843   7
  -1 -13   3 3209.05 465.446   4
   1  13  -3 3236.66 397.353   5
   1 -13  -3 3240.67 432.228  10
  -1  13   3 3660.95 439.336   9
   1 -13  -2 8884.09 693.313  10
   1  13  -2 8019.64 635.281   5
  -1  13   2 8248.60 647.743   9
  -1 -13   2 8189.01 699.200   4
  -1 -13   1 774.844 212.305   4
   1 -13  -1 722.320 209.976   4
   1  13  -1 646.489 201.568   5
   1 -13  -1 176.815 110.562  10
   1 -13   0 91.2451 101.057   4
  -1 -13   0 312.813 127.130   4
   1  13   0 332.015 149.656   5
   1 -13   0 94.6904 100.457  10
  -1  13  -1 104.057 98.7771   3
   1 -13   1 125.882 121.481   8
  -1 -13  -1 237.078 116.718   4
   1 -13   1 136.308 130.975   4
   1 -13   1 259.185 126.715  10
   1  13   1-61.4175 88.7602   5
   1 -13   2-122.810 127.211   8
   1 -13   2-95.8058 122.069   4
  -1  13  -2 40.6824 89.5088   3
   1  13   2 47.9813 102.503   5
  -1 -13  -3 9597.93 804.704   7
  -1  13  -3 9702.52 791.503   3
   1 -13   3 10105.2 889.989   8
   1 -13   3 9103.83 867.652   4
   1 -13   4 912.554 297.819   8
  -1 -13  -4 604.987 238.735   7
  -1  13  -4 1227.33 322.313   3
   1 -13   4 920.645 285.130   4
  -1 -14   4 14714.2 1081.77   4
   1 -14  -4 14183.8 947.145   7
   1 -14  -4 16864.8 1067.58  10
  -1  14   4 15842.2 941.125   9
  -1 -14   4 15808.5 1092.72   8
  -1 -14   3 1967.80 362.822   8
   1 -14  -3 2602.88 387.712   7
  -1 -14   3 1933.76 389.819   4
   1 -14  -3 2257.53 381.108  10
   1  14  -3 2203.13 349.420   5
  -1  14   3 2288.86 361.610   9
   1  14  -2 5254.53 539.616   5
  -1  14   2 6351.06 591.873   9
   1 -14  -2 5247.02 559.650  10
  -1 -14   2 5487.41 598.903   4
   1 -14  -1 974.916 238.144  10
  -1 -14   1 1060.18 256.465   4
   1 -14  -1 1085.81 240.964   4
   1  14  -1 1155.45 259.810   5
   1  14   0 10029.9 752.125   5
   1 -14   0 10371.3 737.494  10
  -1 -14   0 10182.3 731.978   4
   1 -14   0 8838.60 732.069   4
  -1 -14  -1 13831.2 814.285   4
   1 -14   1 14644.4 1013.10   4
   1 -14   1 13767.3 814.982  10
   1  14   1 12822.4 861.153   5
   1 -14   2 29975.6 1529.12   4
  -1  14  -2 31537.8 1348.65   3
   1  14   2 30617.3 1345.39   5
   1 -14   2 32408.3 1513.93   8
  -1 -14  -3 1686.13 358.810   7
   1 -14   3 1641.07 375.547   4
  -1  14  -3 1411.85 317.974   3
   1 -14   3 1689.62 403.367   8
   1 -15  -3 135.475 122.069   7
  -1 -15   3 596.182 231.717   4
   1 -15  -3 585.521 218.502  10
   1  15  -3 245.557 130.274   5
  -1  15   3 521.128 189.938   9
   1 -15  -2 1701.96 335.988  10
  -1 -15   2 1562.56 336.658   4
   1  15  -2 1543.88 323.492   5
  -1  15   2 2232.98 378.215   9
  -1  15   1 9.74666 108.055   9
   1 -15  -1-1.56688 102.486  10
   1  15  -1 72.7473 111.143   5
  -1 -15   1 99.2064 102.467   4
  -1 -15   0 10628.6 788.581   4
   1 -15   0 10414.1 775.291  10
   1  15   0 9886.08 788.168   5
   1 -15   0 11187.1 847.693   4
   1  15   1 6529.48 653.203   5
   1 -15   1 5950.55 664.098   4
   1 -15   2 348.086 186.981   4
   1  15   2 325.769 176.612   5
  -1 -16   2 2418.95 436.184   4
   1 -16  -2 2699.84 439.378  10
   1  16  -2 2723.18 427.768   5
  -1  16   2 2372.47 405.193   9
   1 -16  -1 2246.40 395.351  10
  -1 -16   1 2535.54 426.461   4
  -1  16   1 3262.76 472.397   9
   1  16  -1 3087.79 463.253   5
  -1 -16   0-116.994 99.8013   4
   1 -16   0-308.794 162.611   4
   1  16   0-151.467 137.559   5
   1 -16   1 672.229 244.501   4
   1  16   1 456.272 191.486   5
  -2   0   7 461.649 210.612   2
  -2   0   7 71.2066 152.317   1
   2   0  -6 10115.3 717.558   7
  -2   0   6 9043.92 790.908   2
  -2   0   6 8943.53 750.430   1
   2   0  -5-263.678 132.535   7
  -2   0   5-139.221 151.835   2
  -2   0   5 99.6171 113.939   1
   2   0  -4 484.097 134.850   7
  -2   0   4 782.239 109.413   4
  -2   0   4 802.668 177.899   1
  -2   0   4 345.719 152.289   2
   2   0  -3 14.6300 55.7534   7
  -2   0   3-29.9490 34.7818   4
  -2   0   3 22.7228 94.0265   2
  -2   0   3-24.1874 53.3854   1
  -2   0   2 955.912 121.454   4
   2   0  -2 1149.46 179.881   6
  -2   0   2 1278.07 204.390   2
   2   0  -2 1073.85 118.164   7
  -2   0   2 1081.32 118.149   1
  -2   0   1 1.70568 35.6267   4
   2   0  -1-5.42117 50.8646   6
  -2   0   1-10.1319 59.2528   2
  -2   0   0 70451.7 1098.94   3
   2   0   0 70206.4 1158.41   6
  -2   0   0 71792.9 932.240   2
  -2   0  -1 37.7406 34.6091   7
   2   0   1-4.28594 47.3817   6
   2   0   1 107.798 90.3148   8
  -2   0  -1 15.5100 44.1830   3
  -2   0  -2 130197. 1648.63   7
   2   0   2 126034. 2067.91   8
  -2   0  -2 131370. 1890.25   3
  -2   0  -3-131.002 95.1637   3
  -2   0  -3 0.25837 68.3855   7
   2   0   3 150.547 98.6346   8
  -2   0  -4 26433.5 1043.77   7
  -2   0  -4 26001.3 1037.40   3
   2   0   4 26742.0 1109.52   8
  -2   0  -5-231.868 156.969   7
   2   0   5 31.3317 133.369   1
   2   0   5 114.921 96.5163   8
  -2   0  -5-28.9337 81.0276   3
  -2   0  -6 4628.91 565.272   7
   2   0   6 4615.96 676.208   1
  -2   1   7-58.7064 142.191   1
  -2  -1   7 224.224 169.358   2
   2   1  -7-56.2987 132.959   7
  -2  -1   7-127.209 145.627   1
  -2   1   7-164.462 151.610   2
   2  -1  -7-120.217 134.766   7
   2   1  -6 5687.42 541.839   7
   2  -1  -6 6004.84 555.623   7
  -2  -1   6 5789.40 603.420   1
  -2  -1   6 5771.51 638.765   2
  -2   1   6 4785.13 582.152   2
  -2   1   6 5757.36 604.301   1
  -2   1   5 1520.30 322.380   2
   2   1  -5 1148.72 227.676   7
   2  -1  -5 1210.40 234.236   7
  -2  -1   5 1416.39 266.071   1
  -2   1   5 1483.39 275.603   1
  -2  -1   5 858.362 245.102   2
  -2  -1   4 2088.61 191.679   4
  -2   1   4 1724.50 253.022   1
   2  -1  -4 2096.22 257.436   7
   2   1  -4 2083.75 254.349   7
  -2  -1   4 1936.73 268.124   1
  -2   1   4 2089.74 153.233   4
  -2  -1   4 1596.51 290.535   2
  -2   1   4 1569.76 285.093   2
   2   1  -3 1143.31 161.347   7
  -2   1   3 1501.22 196.408   1
   2   1  -3 1105.39 189.099   6
  -2   1   3 1204.74 223.824   2
  -2  -1   3 1231.66 168.901   1
  -2   1   3 1151.53 119.500   4
   2  -1  -3 1237.05 161.636   7
  -2  -1   3 1516.40 266.296   2
  -2  -1   3 1218.55 142.529   4
  -2  -1   2 30794.4 715.916   4
   2   1  -2 30808.2 663.416   7
   2  -1  -2 30738.1 889.499   6
   2   1  -2 31097.3 867.593   6
  -2   1   2 32016.1 954.892   2
  -2  -1   2 31982.6 571.374   1
  -2   1   2 33200.2 703.291   1
   2  -1  -2 31747.4 609.269   7
  -2  -1   1 7162.98 345.457   4
   2  -1  -1 7158.15 384.166   6
   2   1  -1 6969.92 376.121   6
  -2   1   1 7399.17 390.078   2
  -2   1   0 32830.3 392.090   7
   2  -1   0 33257.4 790.355   6
   2   1   0 31883.7 792.462   6
  -2   1   0 31420.0 734.331   3
  -2   1   0 31825.4 610.961   2
  -2  -1  -1 23721.8 589.207   7
  -2   1  -1 23309.5 530.943   7
   2  -1   1 25965.9 740.017   6
   2   1   1 24999.6 758.275   6
  -2  -1  -1 24147.2 712.545   3
  -2   1  -1 25636.5 757.145   3
   2  -1   1 23000.9 865.250   8
   2   1   1 23964.5 805.676   8
  -2   1  -2 418.314 125.372   3
  -2  -1  -2 409.600 116.650   3
  -2  -1  -2 205.263 81.3624   7
  -2   1  -2 352.339 100.785   7
   2   1   2 244.375 115.386   8
   2  -1   2 328.776 134.546   8
  -2  -1  -3 89.1137 102.246   7
  -2   1  -3 258.591 119.413   7
   2   1   3 171.069 99.1463   8
  -2  -1  -3 318.095 123.453   3
  -2   1  -3 395.404 144.674   3
   2  -1   3 155.759 124.019   8
  -2   1  -4 10251.4 640.513   7
  -2  -1  -4 10861.5 682.369   7
   2   1   4 9424.57 761.522   1
  -2  -1  -4 11056.5 665.645   3
  -2   1  -4 11679.3 709.166   3
   2  -1   4 11362.7 756.758   8
   2   1   4 9749.20 631.178   8
   2  -1   5 173.891 128.013   8
  -2   1  -5 158.536 118.280   3
  -2  -1  -5 71.4153 126.219   7
  -2   1  -5 152.581 127.497   7
   2   1   5-107.815 132.974   1
  -2   1  -6 65.8856 115.068   7
   2  -1   6 282.474 219.337   1
   2   1   6 2.44119 134.951   1
  -2  -1  -6 300.248 177.303   7
   2  -2  -7 10637.8 823.272   7
   2   2  -7 9948.06 798.634   7
  -2  -2   7 9967.35 886.821   1
  -2  -2   7 10875.0 937.855   2
  -2   2   7 10028.2 920.329   2
  -2   2   7 9188.98 866.538   1
  -2   2   6 1273.71 321.109   2
  -2   2   6 961.036 265.762   1
   2  -2  -6 1300.42 279.888   7
  -2  -2   6 1218.34 296.464   1
   2   2  -6 1305.93 270.982   7
  -2  -2   6 1418.89 330.388   2
   2   2  -5 4464.23 432.188   7
  -2  -2   5 4863.75 342.156   4
  -2  -2   5 3849.88 433.078   1
  -2  -2   5 4502.62 525.624   2
  -2   2   5 4269.55 507.565   2
   2  -2  -5 4601.69 431.079   7
  -2   2   5 4213.28 461.684   1
  -2  -2   5 5383.83 506.090   8
  -2  -2   4 10259.6 466.354   4
   2  -2  -4 9904.10 538.114   7
   2   2  -4 9284.30 538.136   7
  -2  -2   4 10564.8 727.890   2
  -2   2   4 10805.5 723.279   2
  -2   2   4 10274.5 616.145   1
  -2  -2   3 1494.22 174.112   4
  -2   2   3 1803.17 280.021   2
   2  -2  -3 1518.79 176.319   7
   2   2  -3 1662.53 199.891   7
  -2   2   3 1347.33 195.289   1
   2   2  -3 1757.73 239.223   6
  -2  -2   2 60294.4 1021.60   4
   2  -2  -2 59512.9 817.638   7
  -2   2   2 58801.7 1035.23   1
   2   2  -2 60078.5 999.116   7
   2   2  -2 58267.4 1172.99   6
   2  -2  -2 56604.6 1221.28   6
  -2   2   2 59483.4 1321.42   2
  -2  -2   1 20555.2 606.509   4
   2  -2  -1 20262.2 648.730   6
   2   2  -1 20159.8 630.681   6
  -2   2   1 20063.4 523.023   3
  -2   2   1 20328.6 660.185   2
   2  -2  -1 21533.1 261.702   7
  -2  -2   0 40019.6 867.727   4
  -2   2   0 40784.9 765.263   2
   2  -2   0 41656.4 876.760   6
   2   2   0 41775.2 919.569   6
  -2   2   0 39436.2 841.751   3
   2   2   0 42222.3 624.454   1
  -2   2   0 40248.4 701.798   9
   2  -2   1 28961.2 1012.72   8
  -2   2  -1 29062.4 570.940   7
   2   2   1 28726.5 775.967   1
  -2   2  -1 29506.3 543.906   9
  -2  -2  -1 29334.1 784.094   3
   2  -2   1 30786.8 785.514   6
   2   2   1 28984.7 830.628   6
  -2   2  -1 28194.1 812.585   3
   2   2   1 28902.4 828.084   8
  -2  -2  -2 9439.12 470.601   7
  -2   2  -2 9793.39 442.776   7
   2   2   2 10189.1 519.085   8
   2   2   2 9440.70 557.459   1
  -2  -2  -2 9558.73 493.530   3
  -2   2  -2 9441.75 278.411   9
  -2   2  -2 9012.27 522.685   3
   2  -2   2 8525.08 593.845   8
  -2  -2  -3 11692.9 614.141   7
  -2   2  -3 11430.1 579.021   7
   2   2   3 11245.2 587.919   8
   2   2   3 12180.2 741.458   1
  -2  -2  -3 11493.0 604.268   3
  -2   2  -3 11553.8 658.225   3
   2  -2   3 11595.6 735.942   8
  -2  -2  -4 7612.64 580.420   7
  -2   2  -4 6016.90 490.074   7
   2   2   4 6370.24 627.595   1
  -2  -2  -4 7660.38 546.190   3
   2  -2   4 6622.92 598.252   8
  -2   2  -4 6613.92 549.809   3
  -2  -2  -5 7172.50 646.650   7
   2   2   5 7519.94 767.526   1
  -2   2  -5 7745.88 645.127   3
   2  -2   5 7282.59 681.202   8
  -2   2  -5 6812.43 589.417   7
  -2  -2  -6 2725.55 445.389   7
  -2   2  -6 1969.43 359.373   7
   2  -2   6 2073.44 485.626   1
   2   2   6 2375.31 492.525   1
  -2   3   7 145.377 201.769   2
   2   3  -7 204.172 148.576   7
   2  -3  -7 62.6205 156.848   7
  -2   3   7 128.533 139.683   1
  -2  -3   7 20.0394 133.189   1
  -2  -3   7-6.23285 229.046   2
   2   3  -6 11228.5 763.831   7
   2  -3  -6 13196.5 825.559   7
  -2  -3   6 11213.2 843.787   1
  -2  -3   6 12651.2 951.966   2
  -2   3   6 12010.1 934.966   2
  -2   3   6 11644.8 880.209   1
  -2  -3   6 12469.7 875.268   8
  -2  -3   5 4596.47 360.652   4
   2   3  -5 4598.33 438.897   7
  -2  -3   5 4046.01 505.971   2
  -2  -3   5 4748.14 489.864   8
  -2   3   5 5241.49 565.509   2
   2  -3  -5 5686.07 476.033   7
  -2   3   5 4152.37 466.760   1
  -2  -3   4 30771.5 876.608   4
   2   3  -4 31039.0 998.784   7
   2  -3  -4 33314.0 983.412   7
  -2  -3   4 33142.3 1140.47   8
  -2   3   4 31594.8 1124.45   1
  -2   3   4 33560.3 1287.83   2
  -2   3   3 73.4626 111.733   2
   2  -3  -3 322.823 101.080   7
  -2  -3   3 142.841 62.0818   4
   2   3  -3 147.417 79.9536   7
  -2   3   3 243.221 113.488   1
   2   3  -3 197.807 98.3345   6
   2  -3  -2 104577. 1697.58   6
  -2  -3   2 103443. 1429.20   4
   2  -3  -2 103193. 1098.69   7
   2   3  -2 104941. 1541.72   6
  -2   3   2 103165. 1027.91   3
  -2   3   2 105358. 1819.22   2
  -2  -3   1 31971.2 783.646   4
   2  -3  -1 31046.9 812.293   6
   2   3  -1 30268.7 774.267   6
  -2   3   1 31791.8 659.733   3
   2  -3  -1 32185.2 322.925   7
  -2   3   1 31832.4 883.623   2
  -2   3   1 30984.4 722.251   9
  -2  -3   0 76219.1 1234.65   4
   2  -3   0 72319.7 1143.31   6
   2   3   0 75863.2 1247.80   6
  -2   3   0 72881.1 1175.52   3
  -2   3   0 73025.1 1039.13   9
   2   3   0 71325.8 884.027   1
  -2   3  -1 39277.0 649.694   7
  -2  -3  -1 40017.0 919.078   3
  -2   3  -1 39493.4 719.632   9
   2  -3   1 38628.3 862.694   6
   2   3   1 40186.5 1002.35   6
  -2   3  -1 38801.6 981.140   3
   2   3   1 39187.0 905.646   1
   2   3   1 38051.1 890.836   8
   2  -3   1 36690.1 1194.06   8
  -2   3  -2 14674.1 535.156   7
   2   3   2 13568.2 552.109   8
  -2  -3  -2 13477.8 582.005   3
   2   3   2 13807.1 676.649   1
  -2   3  -2 13968.4 667.253   3
  -2  -3  -2 13573.8 584.722   7
   2   3   2 13796.5 473.858   5
  -2   3  -2 13676.3 410.804   9
   2  -3   2 13400.4 766.640   8
  -2  -3  -3 34.2115 72.3083   3
  -2   3  -3 162.517 115.354   3
  -2   3  -3 277.118 116.762   7
   2   3   3 51.3126 106.996   1
  -2  -3  -3 342.237 126.113   7
   2   3   3 241.711 92.8535   8
   2  -3   3-64.2701 107.205   8
   2  -3   4 455.232 179.493   8
  -2   3  -4 285.464 146.677   3
  -2  -3  -4 549.347 184.039   7
  -2   3  -4 500.110 174.903   7
   2   3   4 521.391 192.792   1
  -2  -3  -4 665.278 159.516   3
   2  -3   5 1418.81 333.913   8
  -2   3  -5 937.195 239.688   7
  -2   3  -5 480.909 184.979   3
  -2  -3  -5 883.294 254.122   7
   2   3   5 701.485 252.559   1
   2  -3   6 519.235 225.623   8
  -2  -3  -6 372.336 195.825   7
  -2   3  -6 222.547 145.905   3
  -2   3  -6 137.023 158.274   7
   2   3   6 507.390 250.349   1
   2  -4  -7 1914.23 368.772   7
   2   4  -7 1848.10 361.890   7
  -2   4   7 1578.25 413.190   2
  -2  -4   7 2370.05 460.557   1
  -2   4   7 2034.38 425.781   1
  -2  -4   7 1453.35 397.633   2
   2  -4  -6 4122.74 476.462   7
  -2   4   6 4504.37 591.995   2
   2   4  -6 3727.02 449.775   7
  -2  -4   6 4419.68 582.698   2
  -2   4   6 3800.93 519.553   1
  -2  -4   6 4614.81 545.723   8
  -2  -4   5 8170.17 513.803   4
  -2  -4   5 8617.90 669.091   8
  -2   4   5 7743.80 657.544   1
   2   4  -5 8387.45 600.802   7
   2  -4  -5 7631.18 562.669   7
  -2   4   5 7636.23 695.102   2
  -2   4   4 447.076 167.694   1
  -2   4   4 537.163 196.861   2
   2  -4  -4 862.315 178.176   7
  -2  -4   4 825.286 164.767   4
   2   4  -4 959.749 191.167   7
   2   4  -4 734.123 179.362   6
  -2  -4   4 433.744 157.096   8
  -2  -4   3 342.970 119.518   8
  -2   4   3 293.988 115.563   1
  -2   4   3 475.233 179.146   2
   2  -4  -3 153.137 76.6234   7
  -2  -4   3 311.030 97.4484   4
  -2   4   3 316.049 40.6032   3
   2   4  -3 103.704 73.3769   7
   2   4  -3 267.714 113.213   6
  -2   4   2 396.576 67.4676   3
   2  -4  -2 361.341 73.1252   7
  -2   4   2 398.374 139.495   2
  -2  -4   2 318.648 95.7046   4
   2  -4  -2 413.773 119.688   6
   2   4  -2 397.217 108.336   6
  -2   4   1 391.881 84.3262   3
   2  -4  -1 332.746 44.9189   7
  -2  -4   1 262.852 86.5395   4
   2  -4  -1 259.955 88.6416   6
   2   4  -1 266.100 83.0998   6
  -2   4   1 324.939 90.6216   9
   2   4   0 8885.61 351.071   1
  -2  -4   0 9164.52 446.280   4
   2  -4   0 8591.14 396.898   6
   2   4   0 9416.88 448.384   6
  -2   4   0 8930.06 428.605   3
  -2   4   0 9063.44 399.583   9
   2  -4   0 8904.76 579.388   8
  -2  -4  -1 10926.7 491.565   4
  -2   4  -1 10934.2 347.517   7
   2  -4   1 11470.2 453.024   6
   2   4   1 10532.8 523.189   6
  -2   4  -1 11186.0 549.949   3
   2   4   1 10108.8 434.431   5
   2   4   1 10642.9 490.832   1
  -2   4  -1 10766.6 421.895   9
   2   4   1 11435.9 449.360   8
   2  -4   1 9763.74 640.890   8
  -2  -4  -2 46780.5 1137.29   7
   2  -4   2 47273.8 1491.68   8
  -2   4  -2 47785.1 956.212   7
  -2  -4  -2 47396.8 1095.75   3
  -2   4  -2 47857.8 1262.17   3
   2   4   2 48218.1 1272.68   1
   2   4   2 48100.2 957.980   5
   2   4   2 46277.8 900.666   8
  -2  -4  -3 31.4600 64.4734   7
  -2   4  -3-50.1803 72.4389   7
  -2   4  -3-34.2225 87.5383   3
  -2  -4  -3-32.2564 64.8652   3
   2   4   3 53.1114 113.159   1
   2  -4   3-87.3096 125.837   8
  -2  -4  -4 10398.3 694.894   7
  -2   4  -4 10643.3 641.216   7
   2   4   4 10957.0 816.391   1
  -2   4  -4 10845.5 729.025   3
   2  -4   4 11969.3 859.406   8
   2   4   5 1549.52 365.830   1
  -2   4  -5 1445.55 296.314   3
  -2  -4  -5 1457.57 311.632   7
  -2   4  -5 1460.64 283.571   7
   2  -4   5 1852.23 381.672   8
  -2  -5   7-118.437 135.939   8
   2  -5  -7 228.580 134.114   7
  -2  -5   7 121.549 153.017   1
  -2   5   7 210.554 183.589   1
   2   5  -7 140.368 142.543   7
  -2  -5   6 432.125 204.686   8
  -2   5   6 422.116 212.630   1
   2  -5  -6 541.226 189.951   7
   2   5  -6 448.002 172.651   7
  -2   5   6 606.608 239.097   2
   2   5  -6 107.292 120.449   6
  -2  -5   6 847.828 283.772   2
  -2   5   5-60.3387 100.558   1
  -2  -5   5-11.6081 51.3347   4
   2   5  -5-3.81892 82.1799   7
  -2   5   5 108.391 156.743   2
  -2  -5   5 38.9311 122.947   8
   2   5  -5 27.9045 88.1031   6
   2  -5  -5 14.9051 90.2863   7
   2   5  -4 11486.3 644.273   7
  -2  -5   4 10634.1 592.899   4
  -2   5   4 11334.1 731.917   1
   2   5  -4 12181.4 644.166   6
   2  -5  -4 10494.0 576.897   7
   2   5  -4 11385.0 489.432   5
  -2   5   4 11413.3 801.295   2
  -2  -5   4 11290.2 701.951   8
  -2  -5   3 5746.00 410.321   4
  -2   5   3 6625.47 500.008   1
   2  -5  -3 6442.12 375.384   7
   2   5  -3 6407.23 417.084   6
  -2   5   3 5780.84 525.895   2
  -2  -5   3 6857.43 487.361   8
  -2  -5   2 1949.00 228.222   4
   2  -5  -2 2070.03 256.617   6
   2   5  -2 1906.08 205.751   6
  -2   5   2 1859.96 279.435   2
   2  -5  -2 1839.55 160.571   7
  -2   5   2 2013.22 144.135   3
  -2   5   2 1774.60 209.445   9
   2  -5  -1 838.473 78.1528   7
  -2   5   1 764.346 116.706   3
  -2  -5   1 916.845 151.124   4
   2  -5  -1 940.040 151.482   6
   2   5  -1 838.533 137.749   6
  -2   5   1 872.153 141.783   9
  -2   5   0 87.1134 62.5904   3
  -2  -5   0 42.4093 61.1571   4
  -2   5   0-16.4297 39.8826   9
   2  -5   0 34.0420 39.8376   6
   2   5   0 75.5148 56.1999   6
   2   5   0 65.0038 53.8366   5
   2  -5   0 63.3406 115.227   8
  -2  -5  -1 5777.65 370.491   4
   2  -5   1 5109.69 291.548   6
  -2   5  -1 5191.95 386.532   3
   2   5   1 4701.71 322.640   5
   2   5   1 4865.37 260.808   8
   2  -5   1 5180.46 490.981   8
   2   5   1 5360.14 365.281   1
  -2  -5  -2 13069.7 625.733   7
  -2   5  -2 12304.5 493.976   7
   2   5   2 11895.8 649.323   1
  -2  -5  -2 11399.9 541.575   3
   2  -5   2 13732.7 832.896   8
  -2   5  -2 11357.2 634.324   3
   2   5   2 12582.6 529.516   5
  -2   5  -3 606.339 179.325   3
  -2  -5  -3 853.359 192.467   7
   2   5   3 615.797 192.247   1
   2  -5   3 1005.07 263.272   8
   2   5   3 780.040 137.478   5
  -2   5  -3 498.319 134.335   7
  -2  -5  -3 543.704 132.780   3
  -2  -5  -4 23417.2 1061.36   7
  -2   5  -4 24266.4 967.025   7
  -2   5  -4 24827.9 1125.02   3
   2   5   4 23133.6 1208.72   1
   2  -5   4 24406.3 1267.55   8
  -2  -5  -5 625.715 217.614   7
  -2   5  -5 752.779 225.425   3
   2   5   5 1227.24 334.733   1
  -2   5  -5 765.688 207.939   7
   2  -5   5 1314.12 334.719   8
   2  -6  -7 9022.36 795.154   7
   2   6  -7 8868.47 792.149   7
  -2  -6   7 11144.5 963.927   8
  -2   6   7 9130.76 926.593   1
   2  -6  -6 3312.84 438.490   7
   2   6  -6 3485.91 457.740   7
  -2   6   6 2921.01 476.152   1
  -2  -6   6 3152.46 509.932   2
  -2  -6   6 4620.93 574.939   8
  -2  -6   5 1550.62 298.463   8
   2  -6  -5 1596.54 276.900   7
  -2  -6   5 1300.46 241.708   4
   2   6  -5 1516.25 274.985   7
   2   6  -5 1297.96 241.420   6
  -2   6   5 1710.77 338.295   1
  -2   6   4 25677.1 1149.22   1
   2  -6  -4 24876.8 902.615   7
   2   6  -4 26394.6 928.878   6
   2   6  -4 25603.1 779.789   5
  -2   6   4 26575.2 1259.05   2
  -2  -6   4 26651.5 1100.87   8
  -2  -6   4 24206.6 944.483   4
   2  -6  -3 1402.56 186.828   7
  -2  -6   3 1342.13 213.957   4
  -2  -6   3 1097.47 211.953   8
   2   6  -3 1437.51 193.938   6
   2   6  -3 1188.97 172.566   5
  -2  -6   2 115642. 1849.97   4
   2  -6  -2 119975. 1347.57   7
   2   6  -2 118009. 1566.49   6
  -2   6   2 121276. 1787.33   9
  -2   6   2 117228. 1098.71   3
   2   6  -2 117570. 1669.06   5
  -2  -6   2 113905. 1779.70   8
   2  -6  -2 116278. 1889.02   6
  -2  -6   1 8220.03 469.543   4
   2  -6  -1 8443.33 439.795   6
   2   6  -1 8083.75 397.531   6
  -2   6   1 8363.31 381.083   3
   2   6  -1 8743.46 458.319   5
  -2   6   1 8785.13 465.155   9
  -2  -6   0 59753.4 1229.95   4
   2  -6   0 61879.4 1632.92   8
   2  -6   0 60327.7 1016.02   6
   2   6   0 62264.8 1180.52   6
  -2   6   0 59623.2 1190.24   3
   2   6   0 60705.5 1209.85   5
  -2   6   0 60530.4 1201.73   9
   2   6   1 5822.97 406.664   1
  -2  -6  -1 6615.59 414.108   4
   2  -6   1 6002.11 545.759   8
   2   6   1 6292.69 239.898   8
   2  -6   1 6543.32 316.628   6
  -2   6  -1 6246.48 433.868   3
   2   6   1 5829.17 380.984   5
  -2  -6  -2 17602.5 669.920   4
  -2   6  -2 19323.4 637.486   7
  -2  -6  -2 19048.4 705.473   3
   2  -6   2 18571.2 997.917   8
  -2   6  -2 20121.7 862.758   3
   2   6   2 18122.8 679.171   5
   2   6   2 18242.4 836.082   1
  -2   6  -3 8574.21 500.085   7
  -2  -6  -3 8672.89 593.644   7
  -2  -6  -3 8217.79 495.625   3
   2   6   3 9116.25 678.474   1
  -2   6  -3 9357.76 650.793   3
   2   6   3 8549.17 472.569   5
   2  -6   3 9533.55 760.154   8
  -2  -6  -4 27508.9 1178.22   7
  -2   6  -4 26927.4 1027.13   7
   2   6   4 26213.9 1296.93   1
  -2   6  -4 25952.2 1184.69   3
   2  -6   4 26876.6 1367.04   8
   2  -6   5 3358.80 531.121   8
  -2  -6  -5 3654.38 495.796   7
  -2   6  -5 2971.38 444.687   3
   2   6   5 3455.01 537.100   1
  -2  -7   7-6.70995 69.9133   8
   2  -7  -7 82.1276 143.983   7
   2   7  -7-153.182 134.211   7
  -2   7   7-130.220 164.683   1
  -2  -7   6 1445.32 344.472   8
  -2   7   6 787.714 251.288   1
   2  -7  -6 1387.43 302.305   7
  -2  -7   6 1293.20 267.179   4
   2   7  -6 1462.97 308.394   7
  -2   7   5 7422.83 711.879   1
   2  -7  -5 7137.18 571.895   7
  -2  -7   5 7519.99 672.998   8
   2  -7  -5 7242.12 543.475  10
  -2  -7   5 6981.94 562.032   4
   2  -7  -4 20022.1 828.640   7
  -2   7   4 19975.1 1051.40   1
  -2  -7   4 20350.6 991.370   8
   2   7  -4 20839.7 747.224   5
  -2  -7   4 21190.1 933.162   4
  -2  -7   3 970.043 206.706   8
   2  -7  -3 998.376 160.012   7
  -2  -7   3 698.914 171.766   4
  -2   7   3 1070.58 189.147   9
   2   7  -3 1513.46 197.323   6
   2   7  -3 844.479 150.924   5
  -2  -7   2 24691.1 902.750   4
   2  -7  -2 24611.8 656.812   7
   2  -7  -2 25683.0 905.054   6
   2   7  -2 26278.9 718.025   6
  -2   7   2 25811.9 867.817   9
   2   7  -2 24857.5 813.667   5
  -2   7   2 25309.4 537.954   3
  -2  -7   2 25770.3 867.250   8
  -2  -7   1 9122.08 524.495   4
   2  -7  -1 9372.03 468.661   6
   2   7  -1 9173.07 424.684   6
  -2   7   1 8436.41 400.166   3
   2   7  -1 8789.15 486.799   5
  -2   7   1 8197.92 479.245   9
   2  -7  -1 9010.81 621.481   8
   2  -7   0 7340.34 350.956   6
   2   7   0 7527.64 419.219   6
  -2   7   0 8173.50 457.623   3
   2   7   0 6986.93 441.007   5
  -2   7   0 7801.84 461.923   9
   2  -7   0 7544.93 595.569   8
  -2  -7   0 7432.27 455.574   4
  -2  -7  -1 12817.1 599.450   4
   2   7   1 14439.0 676.156   1
   2  -7   1 12616.1 429.352   6
  -2   7  -1 13502.3 660.512   3
   2   7   1 13421.9 619.275   5
   2  -7   1 12980.7 820.854   8
  -2  -7  -2 15336.6 640.013   4
   2  -7   2 14751.5 919.150   8
  -2  -7  -2 15523.2 651.975   3
  -2   7  -2 16872.2 813.387   3
   2   7   2 15673.7 677.533   5
   2   7   2 16498.9 822.496   1
   2   7   3 110.115 110.819   1
  -2  -7  -3 5.56377 77.3879   7
  -2   7  -3 87.1929 104.607   3
  -2   7  -3-79.4535 77.9787   7
   2  -7   3-19.6029 104.215   8
   2   7   3 85.8204 70.6858   5
  -2  -7  -4 126.121 101.622   7
  -2   7  -4 76.3478 102.937   3
   2   7   4 378.827 185.131   1
   2  -7   5 450.655 232.583   8
   2  -7   5 755.529 253.634   4
  -2  -7  -5 470.611 196.321   7
  -2   7  -5 451.126 186.942   3
   2   7   5 325.035 203.819   1
  -2  -8   6 14.2514 128.667   8
   2  -8  -6 219.136 143.579   7
  -2  -8   6-88.7686 102.355   4
  -2   8   6-0.72490 130.440   1
   2  -8  -5 12585.3 773.983   7
  -2   8   5 11486.6 912.172   1
   2  -8  -5 13121.1 766.074  10
  -2  -8   5 13860.4 931.997   8
  -2  -8   5 11775.0 772.043   4
  -2  -8   4 8289.37 617.158   4
   2  -8  -4 8435.44 553.708   7
   2   8  -4 8177.01 500.849   5
  -2  -8   4 8868.99 673.121   8
   2  -8  -3-6.98538 51.7503   7
  -2  -8   3 10.7713 59.9518   4
   2   8  -3 118.343 73.0582   5
  -2  -8   3 32.4413 86.4592   8
  -2   8   3 42.3477 65.5566   9
  -2  -8   2 2852.20 333.590   4
   2  -8  -2 3100.15 250.524   7
   2  -8  -2 2891.36 312.268   6
   2   8  -2 3121.25 244.402   6
   2   8  -2 2759.49 295.765   5
  -2   8   2 2711.45 189.053   3
  -2   8   2 2649.38 295.918   9
  -2  -8   2 2875.54 302.505   8
  -2   8   1 109.818 51.3469   3
  -2  -8   1 121.572 74.6178   4
   2  -8  -1 77.0749 70.7319   6
   2   8  -1 174.136 65.9789   6
   2   8  -1 200.644 93.3038   5
  -2   8   1 67.4881 67.9910   9
   2  -8  -1 174.943 119.943   8
  -2  -8   0 8424.07 509.591   4
   2  -8   0 7913.65 354.520   6
  -2   8   0 7390.23 453.838   3
   2   8   0 7037.76 471.761   5
   2  -8   0 7252.66 603.922   8
  -2  -8  -1 9173.55 526.575   4
   2  -8   1 8870.78 697.356   8
  -2   8  -1 9305.45 568.657   3
   2   8   1 9003.86 539.049   5
  -2  -8  -2-30.3197 53.3075   3
  -2   8  -2 246.416 126.826   3
  -2  -8  -2 24.4015 56.6680   4
   2   8   2 219.091 114.333   1
   2   8   2 91.1871 85.0957   5
   2  -8   2 129.412 134.784   8
   2   8   3 20.0430 62.5432   5
  -2  -8  -3-153.262 108.266   7
  -2   8  -3 46.1029 96.1146   3
   2   8   3 152.255 114.008   1
   2  -8   3 118.172 131.295   8
   2  -8   4-81.2783 157.488   8
  -2  -8  -4 108.425 110.637   7
  -2   8  -4 1.54088 114.756   3
   2   8   4 114.293 150.849   1
   2  -8   5 3832.88 595.928   8
   2   8   5 4321.64 624.077   1
   2  -8   5 4016.77 567.238   4
  -2  -8  -5 3390.57 491.651   7
  -2   8  -5 4488.81 580.068   3
  -2  -9   6 7602.58 689.907   4
   2  -9  -6 8129.51 720.351   7
  -2   9   6 7916.17 854.169   1
  -2  -9   6 8074.50 812.057   8
  -2  -9   5 366.834 181.613   8
   2  -9  -5 884.587 223.235   7
  -2  -9   5 335.012 163.014   4
   2  -9  -5 381.664 153.899  10
   2  -9  -4 21771.6 907.232   7
   2  -9  -4 22111.0 1001.58  10
   2   9  -4 23353.5 888.237   5
  -2  -9   4 21677.9 1078.70   8
  -2  -9   4 22491.1 1065.47   4
   2  -9  -3 8752.90 507.759   7
   2   9  -3 7866.03 515.708   5
  -2   9   3 8620.81 565.598   9
  -2  -9   3 9091.48 626.878   8
  -2  -9   3 8797.85 635.022   4
   2  -9  -2 15805.7 606.431   7
   2  -9  -2 14103.9 691.923   6
   2   9  -2 14642.3 710.507   5
  -2   9   2 15587.5 744.867   9
   2  -9  -2 13407.5 762.158   8
  -2  -9   2 14670.3 777.321   4
   2  -9  -2 15803.4 707.557   4
  -2  -9   2 13994.9 683.540   8
  -2  -9   1 4470.66 417.494   4
   2  -9  -1 4908.19 340.219   6
   2   9  -1 5343.68 325.697   6
   2   9  -1 5056.04 422.029   5
  -2   9   1 4961.44 336.860   3
  -2   9   1 5039.27 422.214   9
   2  -9  -1 4473.92 468.333   8
  -2  -9   0 8692.70 548.129   4
   2  -9   0 9095.61 694.828   8
  -2   9   0 9261.51 525.716   3
   2   9   0 9475.67 578.304   5
  -2   9  -1 13.0061 79.3629   3
  -2  -9  -1 30.1823 64.0998   4
   2  -9   1 135.863 73.3746  10
   2   9   1 30.0151 76.9142   5
   2  -9   1 30.8954 125.133   8
  -2  -9  -2 11839.0 612.393   4
   2   9   2 13798.0 820.689   1
  -2   9  -2 15285.5 829.717   3
   2   9   2 13402.0 706.535   5
   2  -9   2 13072.9 918.590   8
  -2   9  -3 757.456 217.512   3
  -2  -9  -3 933.130 240.937   7
   2  -9   3 911.843 291.598   8
   2   9   3 750.073 233.695   1
   2   9   3 669.366 168.588   5
   2   9   4 23679.4 1326.09   1
  -2  -9  -4 21849.8 1158.70   7
  -2   9  -4 22417.1 1202.60   3
   2  -9   4 23195.8 1392.10   8
   2  -9   4 22323.3 1315.46   4
  -2 -10   6 1584.48 370.415   8
   2 -10  -6 1677.50 351.103   7
  -2 -10   6 1883.88 355.107   4
  -2 -10   5-112.961 126.173   8
   2 -10  -5 4.43511 108.613   7
  -2 -10   5 20.1785 61.0231   4
   2 -10  -5-10.4997 70.3013  10
   2 -10  -4 16629.2 820.249   7
   2  10  -4 17040.3 802.505   5
   2 -10  -4 17284.8 932.593  10
  -2 -10   4 16305.0 950.342   4
  -2 -10   4 18647.6 1031.12   8
  -2 -10   3 783.886 205.725   8
   2 -10  -3 721.320 157.289   7
  -2 -10   3 688.251 194.404   4
  -2  10   3 1058.68 218.092   9
   2  10  -3 771.007 176.462   5
   2 -10  -3 714.586 203.153  10
  -2 -10   2 66521.6 1726.85   4
   2 -10  -2 65782.1 1308.42   7
   2 -10  -2 65006.9 1498.58   6
   2 -10  -2 60808.4 1663.91   8
   2 -10  -2 63435.9 1655.60  10
   2  10  -2 67608.5 1611.96   5
  -2  10   2 67090.5 1627.42   9
   2 -10  -2 64449.3 1504.71   4
  -2 -10   2 67809.9 1547.34   8
  -2 -10   1 2785.68 345.369   4
   2  10  -1 2918.75 340.129   5
  -2  10   1 2543.67 256.234   3
  -2  10   1 2701.85 332.113   9
   2 -10  -1 1734.82 307.855   8
  -2 -10   0 21360.0 904.607   4
   2  10   0 23892.3 973.709   5
  -2  10   0 22904.6 864.411   3
   2 -10   0 22150.8 900.698  10
   2 -10   0 21786.5 1095.79   8
  -2  10  -1 22.9466 66.1663   3
  -2 -10  -1 147.693 91.4336   4
   2 -10   1 190.895 90.9226  10
   2  10   1-92.3892 87.4438   5
   2 -10   1 149.293 148.584   8
  -2  10  -2 6321.58 557.560   3
   2  10   2 5369.08 476.400   5
   2 -10   2 5746.71 630.957   8
  -2 -10  -3 4766.56 527.617   7
   2  10   3 5722.18 603.837   1
  -2  10  -3 5596.82 570.852   3
   2  10   3 5064.15 466.537   5
   2 -10   3 5270.03 640.347   8
  -2 -10  -4 16821.3 1058.71   7
   2  10   4 16248.6 1134.82   1
  -2  10  -4 16596.1 1066.09   3
   2 -10   4 16309.8 1190.87   8
   2 -10   4 19830.8 1280.62   4
  -2 -11   5 4263.87 567.656   8
   2 -11  -5 4813.49 526.870   7
   2 -11  -5 5530.22 570.180  10
  -2 -11   5 5227.23 596.693   4
  -2 -11   4 3406.56 462.134   8
   2 -11  -4 2821.63 360.892   7
  -2 -11   4 3401.25 461.241   4
   2  11  -4 3225.09 372.784   5
   2 -11  -4 3197.10 427.023  10
  -2 -11   3-12.0144 86.2659   8
   2 -11  -3 127.065 83.2336   7
  -2 -11   3 150.685 120.557   4
  -2  11   3 223.393 126.492   9
   2 -11  -3 121.223 99.8403  10
   2  11  -3 250.867 127.361   5
  -2 -11   2 518.613 145.760   8
   2  11  -2 364.025 143.089   5
   2 -11  -2 584.986 168.058   4
  -2 -11   2 478.648 165.030   4
   2 -11  -2 730.661 210.239  10
  -2  11   2 573.187 172.035   9
   2 -11  -1 1312.14 261.794   4
  -2 -11   1 1254.59 249.862   4
  -2  11   1 1300.50 192.024   3
   2 -11  -1 1021.90 220.776  10
  -2  11   1 1587.27 274.837   9
   2  11  -1 1243.79 242.628   5
   2 -11  -1 1184.11 272.341   8
   2 -11   0 716.292 229.227   4
  -2  11   0 904.680 186.629   3
  -2 -11   0 1392.03 247.821   4
   2 -11   0 1210.66 235.382  10
   2  11   0 1244.63 243.090   5
   2 -11   0 673.722 214.154   8
  -2 -11  -1 4610.94 432.437   4
   2 -11   1 4621.94 547.737   8
   2  11   1 4483.12 452.238   5
   2 -11   1 5287.24 446.870  10
  -2  11  -1 4782.29 460.687   3
   2  11   2 10602.5 702.069   5
   2 -11   2 10272.0 860.609   8
   2 -11   2 10439.0 864.369   4
  -2  11  -2 10993.0 758.394   3
   2 -11   3-54.5419 145.798   8
   2 -11   3-43.9135 120.050   4
  -2 -11  -3 1.05836 59.0437   7
  -2  11  -3 15.6720 64.4364   3
   2  11   3 33.8240 81.7922   5
   2  11   4 647.263 287.281   1
   2 -11   4 841.989 312.272   4
  -2 -11  -4 1121.30 297.629   7
  -2  11  -4 1165.46 313.131   3
   2 -11   4 660.090 271.511   8
  -2 -12   5 8360.66 774.259   4
   2 -12  -5 7604.88 669.928   7
   2 -12  -5 7988.92 706.276  10
  -2 -12   5 8261.80 798.704   8
  -2 -12   4 12191.4 894.339   4
   2 -12  -4 11064.2 816.775  10
   2  12  -4 11791.0 743.956   5
  -2  12   4 11337.9 766.393   9
  -2 -12   4 11973.1 876.960   8
  -2 -12   3-208.877 132.455   8
  -2  12   3 10.1451 78.0657   9
  -2 -12   3 183.481 120.233   4
   2 -12  -3 99.7110 114.529  10
   2  12  -3-167.580 107.203   5
   2  12  -2 1654.66 282.574   5
  -2 -12   2 1313.98 281.452   4
   2 -12  -2 1374.97 274.852  10
  -2  12   2 1179.13 258.169   9
   2 -12  -1-15.0554 70.5669   4
  -2 -12   1-192.835 110.771   4
   2 -12  -1-142.760 104.973  10
  -2  12   1-177.632 117.096   9
   2  12  -1 66.7873 92.6047   5
   2 -12  -1 31.2339 94.8001   8
  -2 -12   0 19823.9 960.883   4
   2 -12   0 20362.2 1105.19   8
   2  12   0 18281.4 948.048   5
   2 -12   0 18098.4 908.438  10
   2 -12   0 19710.4 1094.27   4
  -2  12   0 19256.0 865.335   3
  -2 -12  -1 6399.92 535.452   4
   2 -12   1 6475.30 521.654  10
   2  12   1 5777.54 543.790   5
  -2  12  -1 5822.92 528.673   3
   2 -12   1 6061.48 645.734   8
   2 -12   1 6736.92 685.990   4
  -2  12  -2 7953.46 673.430   3
   2  12   2 7450.18 623.885   5
   2 -12   2 8623.31 815.265   8
   2 -12   2 7076.22 741.392   4
   2 -12   3 56.2749 149.810   8
   2 -12   3 79.1110 134.185   4
  -2 -12  -3 48.6531 99.1538   7
  -2  12  -3 252.594 153.445   3
   2  12   3 25.6646 72.6354   5
  -2 -13   4 7448.14 733.800   4
  -2  13   4 8821.29 707.956   9
   2 -13  -4 8379.70 741.125  10
   2  13  -4 8207.44 652.219   5
  -2 -13   4 10329.6 839.398   8
  -2 -13   3 6086.65 634.917   4
   2 -13  -3 5844.26 602.154  10
   2  13  -3 5631.20 548.223   5
  -2  13   3 6513.50 603.054   9
  -2 -13   2 6125.83 610.891   4
   2 -13  -2 6663.37 617.220  10
   2  13  -2 6874.88 604.904   5
  -2  13   2 7252.13 628.952   9
  -2 -13   1 7481.17 641.333   4
   2 -13  -1 7676.07 641.419  10
   2  13  -1 8099.42 660.919   5
  -2  13   1 7512.62 637.284   9
   2 -13  -1 7475.49 650.866   4
  -2 -13   0 6175.93 568.440   4
   2 -13   0 5993.43 551.403  10
   2  13   0 6954.47 621.035   5
  -2  13   0 5791.91 563.139   9
  -2  13   0 6383.95 521.042   3
   2 -13   0 7100.93 664.678   8
   2 -13   0 6148.13 644.017   4
   2 -13   1 650.531 235.585   4
  -2 -13  -1 680.776 204.305   4
  -2  13  -1 311.692 142.616   3
   2  13   1 697.004 209.209   5
   2 -13   1 755.345 203.657  10
   2 -13   1 810.367 259.911   8
   2 -13   2 3618.84 542.579   8
   2 -13   2 3887.78 570.989   4
  -2  13  -2 3485.00 462.979   3
   2  13   2 3799.57 466.821   5
   2 -13   3 294.266 186.487   8
   2 -13   3-89.6724 141.328   4
  -2 -13  -3 436.816 203.448   7
  -2  13  -3 548.859 215.816   3
   2  13   3 289.980 145.486   5
  -2 -14   4 3112.30 495.291   4
   2 -14  -4 2701.26 451.195  10
  -2  14   4 2026.88 353.782   9
  -2 -14   3 19.9524 94.2288   4
   2 -14  -3-10.1774 77.3584  10
  -2  14   3 121.151 120.432   9
   2  14  -3 194.080 122.128   5
  -2 -14   2 14678.2 981.460   4
   2 -14  -2 14591.2 952.257  10
   2  14  -2 14554.1 922.632   5
  -2  14   2 14646.8 925.543   9
  -2  14   1 380.365 180.363   9
   2 -14  -1 388.711 172.902   4
  -2 -14   1 519.623 186.424   4
   2 -14  -1 626.384 196.941  10
   2  14  -1 354.000 175.779   5
   2 -14   0 1240.77 299.067   4
  -2 -14   0 903.504 237.949   4
   2 -14   0 973.479 239.281  10
  -2  14   0 958.724 243.777   9
   2  14   0 1047.32 270.060   5
   2 -14   1 2634.83 453.085   8
   2 -14   1 3087.13 511.281   4
  -2  14  -1 2553.01 391.306   3
   2  14   1 2683.19 422.631   5
   2 -14   2 64.2847 146.024   8
   2 -14   2 136.201 156.104   4
  -2  14  -2-27.7842 103.025   3
   2  14   2 41.8458 102.941   5
  -2 -15   3 393.945 193.150   4
  -2  15   3 112.641 140.663   9
   2 -15  -3-107.047 121.805  10
   2  15  -3 279.453 157.312   5
  -2 -15   2 1173.53 305.037   4
   2  15  -2 2141.46 378.458   5
   2 -15  -2 1464.44 320.537  10
  -2  15   2 1569.46 325.461   9
   2 -15  -1-274.602 160.085   4
  -2 -15   1-22.5652 94.1402   4
  -2  15   1 197.998 146.651   9
   2 -15  -1 134.338 117.429  10
   2  15  -1 6.61048 96.0651   5
  -2 -15   0 5533.10 579.868   4
   2 -15   0 5983.10 595.527  10
   2  15   0 6258.46 650.072   5
  -2  15   0 5352.37 592.503   9
   2 -15   0 5625.32 654.334   4
   2 -15   1 367.971 202.779   4
  -2  15  -1 754.374 222.138   3
   2  15   1 354.940 187.214   5
  -2 -16   1-79.4190 121.266   4
  -2  16   1-24.3131 88.6132   9
   2 -16  -1-197.374 140.455  10
   2  16  -1 238.326 144.654   5
  -2 -16   0 9426.20 789.118   4
   2 -16   0 8619.99 739.821  10
   2  16   0 8163.32 767.966   5
  -2  16   0 8405.06 775.027   9
   2 -16   0 8768.57 843.270   4
  -3   0   7 1008.40 299.473   2
  -3   0   7 679.071 246.245   1
   3   0  -7 965.052 255.988   7
  -3   0   6-108.171 175.243   2
  -3   0   6-17.9031 91.2666   1
   3   0  -6 191.698 123.260   7
   3   0  -5 32631.7 1095.01   7
   3   0  -5 33445.2 1378.96   6
  -3   0   5 33974.1 1480.24   2
  -3   0   5 32950.3 1166.30   1
   3   0  -4-18.6808 71.3443   7
  -3   0   4 23.8155 53.2181   4
  -3   0   4-15.5262 75.0802   1
   3   0  -4 16.5376 110.437   6
  -3   0   4 92.1076 138.366   2
  -3   0   3 29573.1 808.659   4
   3   0  -3 29021.1 748.387   7
   3   0  -3 28526.6 1061.14   6
  -3   0   3 28581.9 1131.30   2
  -3   0   3 28669.5 723.768   1
  -3   0   2 43.7070 56.5265   4
  -3   0   2 99.7386 134.558   2
   3   0  -2 20.9007 80.7574   6
   3   0  -1 40947.3 1102.77   6
  -3   0   1 43857.2 1088.08   2
   3   0   0-13.6579 59.1247   6
  -3   0   0 6.40864 57.0540   2
  -3   0   0-5.24546 55.3488   3
  -3   0  -1 8.51794 39.2685   7
   3   0   1 25.6989 65.8787   6
   3   0   1 223.578 124.951   8
  -3   0  -1 53.3941 94.9707   3
  -3   0  -2 16.5747 74.1146   3
  -3   0  -2-11.4780 57.4099   7
   3   0   2-22.9235 87.3405   8
  -3   0  -3 6262.99 469.770   7
  -3   0  -3 5997.61 520.870   3
   3   0   3 6355.40 573.325   8
   3   0   4-175.579 125.570   8
  -3   0  -4 163.068 123.789   3
  -3   0  -4 105.444 103.362   7
  -3   0  -5 2599.65 411.664   3
  -3   0  -5 2553.29 400.584   7
   3   0   5 2366.30 477.177   1
   3  -1  -7 17120.0 1014.89   7
   3   1  -7 16790.1 1008.30   7
  -3  -1   7 18762.8 1306.66   2
  -3   1   7 16437.5 1230.33   2
  -3  -1   7 16364.5 1075.32   1
  -3   1   7 16995.9 1116.70   1
   3  -1  -6 13370.2 801.647   7
   3   1  -6 12632.4 788.900   7
   3   1  -6 13195.2 951.169   6
  -3  -1   6 13424.7 1035.69   2
  -3   1   6 12980.0 1008.74   2
  -3  -1   6 12456.5 826.575   1
  -3   1   6 12867.6 852.638   1
  -3   1   5 58.9087 133.733   2
   3  -1  -5 270.466 125.755   7
   3   1  -5 164.826 113.795   7
  -3  -1   5 359.750 143.659   1
  -3   1   5 15.0081 95.7971   1
   3   1  -5 416.904 197.678   6
  -3  -1   5 70.1153 154.927   2
  -3  -1   4 134450. 1780.93   4
   3  -1  -4 133830. 1890.17   7
   3   1  -4 131323. 1939.05   7
   3  -1  -4 136980. 2552.69   6
   3   1  -4 134475. 2440.95   6
  -3  -1   4 140283. 2758.25   2
  -3   1   4 132541. 2675.14   2
  -3  -1   4 130780. 1894.06   1
  -3   1   4 131355. 2030.30   1
  -3  -1   3 4826.97 341.091   4
  -3   1   3 5056.34 329.665   1
   3  -1  -3 5091.39 307.649   7
   3   1  -3 4546.44 314.561   7
   3  -1  -3 4779.18 442.663   6
   3   1  -3 4941.47 432.937   6
  -3  -1   3 5015.54 491.955   2
  -3   1   3 5257.15 491.975   2
  -3  -1   3 4721.79 277.432   1
  -3  -1   2 96588.5 1528.53   4
   3  -1  -2 95216.0 1789.95   6
   3   1  -2 96625.5 1757.22   6
  -3   1   2 96747.6 1841.15   2
   3  -1  -1 32065.7 975.496   6
   3   1  -1 32083.1 974.475   6
  -3   1   1 31280.4 852.784   3
  -3   1   1 30018.1 891.817   2
  -3   1   0 24189.1 437.908   7
   3  -1   0 25120.5 849.213   6
   3   1   0 24326.2 854.802   6
  -3  -1   0 23385.8 795.191   3
  -3   1   0 24103.5 805.100   3
  -3   1   0 23728.9 628.209   2
  -3  -1  -1-13.0217 39.7577   7
  -3   1  -1-2.70623 36.9622   7
  -3   1  -1 43.3035 91.8842   3
   3  -1   1-14.5756 65.1864   6
   3   1   1-6.17795 64.7554   6
  -3  -1  -1-159.336 96.0736   3
   3   1   1-114.605 115.650   8
   3  -1   1 0.39710 117.418   8
  -3  -1  -2 21406.9 752.288   7
  -3   1  -2 21230.1 709.695   7
  -3  -1  -2 21016.6 877.549   3
  -3   1  -2 20287.2 885.723   3
   3   1   2 20737.7 953.970   8
   3  -1   2 20279.4 1017.36   8
  -3  -1  -3 2159.01 318.347   3
  -3   1  -3 2675.64 361.269   3
  -3  -1  -3 2570.90 308.952   7
  -3   1  -3 2327.37 288.691   7
   3  -1   3 2613.57 386.403   8
   3   1   3 2410.58 337.306   8
   3  -1   4 3574.91 478.361   8
  -3  -1  -4 3843.28 435.451   7
  -3   1  -4 4100.57 430.488   7
  -3   1  -4 2902.24 406.666   3
  -3  -1  -4 3502.96 437.631   3
   3   1   4 2917.61 464.135   1
  -3   1  -5 2134.66 378.258   3
  -3  -1  -5 1563.20 312.791   7
   3  -1   5 1747.35 413.647   1
   3   1   5 1031.22 344.426   1
  -3   2   7 170.886 167.763   2
   3  -2  -7 199.018 141.652   7
   3   2  -7-10.4750 108.365   7
   3   2  -7 284.419 184.594   6
  -3   2   7 290.794 180.414   1
  -3  -2   7 16.0136 97.4822   1
  -3  -2   7-62.0102 180.334   2
  -3   2   6 4152.32 592.112   2
   3  -2  -6 3953.30 442.135   7
   3   2  -6 4966.09 497.399   7
   3   2  -6 3811.70 514.690   6
  -3  -2   6 4175.80 481.326   1
  -3   2   6 3635.72 470.704   1
  -3  -2   6 3839.07 564.854   2
  -3   2   5 55.8325 142.382   2
   3  -2  -5 12.6222 94.1741   7
   3   2  -5 0.99710 68.8693   7
  -3  -2   5 28.9274 69.0780   4
   3   2  -5-56.6872 109.450   6
  -3  -2   5 72.4417 81.0963   1
  -3   2   5-71.8743 84.7680   1
  -3  -2   5-105.370 178.479   2
  -3   2   4-352.019 191.923   2
   3  -2  -4 20.1774 77.7774   7
   3   2  -4 3.60695 74.6762   7
  -3  -2   4 99.6033 70.9877   4
   3  -2  -4 32.3634 125.583   6
   3   2  -4-15.1431 96.0582   6
  -3   2   4-4.09691 75.8091   1
  -3  -2   4 6.08057 53.8654   1
  -3  -2   4 122.819 204.229   2
  -3   2   3 1737.26 293.424   2
   3  -2  -3 1662.58 173.720   7
  -3   2   3 1851.89 217.642   1
  -3  -2   3 1674.72 213.899   4
   3  -2  -3 1682.81 268.833   6
   3   2  -3 2011.15 279.782   6
  -3  -2   3 1750.33 159.145   1
  -3  -2   2 79790.9 1428.41   4
   3  -2  -2 79808.3 881.408   7
   3  -2  -2 80928.6 1660.10   6
   3   2  -2 79746.7 1590.79   6
  -3   2   2 80927.5 1273.64   3
  -3   2   2 77868.9 1681.58   2
  -3  -2   1 7974.28 468.185   4
   3  -2  -1 7820.86 483.378   6
   3   2  -1 7608.13 477.186   6
  -3   2   1 8481.23 444.791   3
  -3   2   1 7577.96 458.633   2
  -3   2   0 363.452 46.7777   7
  -3   2   0 378.276 114.900   3
  -3   2   0 383.658 93.3170   2
   3   2   0 284.590 69.4334   1
  -3  -2   0 352.624 115.021   3
   3  -2   0 250.262 98.2309   6
   3   2   0 342.110 111.162   6
  -3   2  -1 370.243 138.836   3
  -3  -2  -1 657.102 126.519   7
  -3   2  -1 714.152 105.902   7
   3   2   1 612.174 137.294   1
   3  -2   1 658.930 162.065   6
   3   2   1 685.092 162.757   6
  -3  -2  -1 541.862 148.725   3
   3   2   1 667.867 167.021   8
   3  -2   1 759.239 200.481   8
  -3   2  -2 274.918 147.780   3
  -3  -2  -2 300.032 98.5261   7
  -3   2  -2 217.780 90.0971   7
   3   2   2 212.387 112.101   1
   3   2   2 215.671 108.328   8
   3  -2   2 46.5529 103.038   8
  -3  -2  -2 467.403 148.538   3
  -3  -2  -3 187.455 118.514   3
  -3   2  -3-60.3946 101.339   3
  -3  -2  -3 5.43368 76.6127   7
  -3   2  -3 196.734 99.1729   7
   3   2   3 172.263 134.630   1
   3  -2   3 66.2031 115.986   8
   3   2   3 43.3945 73.5368   8
   3  -2   4 4196.24 519.060   8
  -3  -2  -4 2607.31 375.060   3
  -3  -2  -4 3341.24 409.022   7
  -3   2  -4 2832.50 408.038   3
   3   2   4 2613.05 442.263   1
  -3   2  -5 201.606 153.572   3
  -3  -2  -5 315.141 167.990   7
   3   2   5 560.471 250.567   1
   3  -3  -7 6328.18 638.535   7
   3   3  -7 6330.38 632.994   7
   3   3  -7 6814.99 746.749   6
  -3  -3   7 6705.26 803.596   2
  -3   3   7 7427.01 846.418   2
  -3   3   7 6479.34 716.104   1
  -3   3   6-136.818 159.420   2
   3  -3  -6-226.890 136.410   7
   3   3  -6 169.705 118.761   7
   3   3  -6 40.0078 102.007   6
  -3  -3   6-3.68715 92.9767   1
  -3  -3   6 175.113 179.752   2
  -3   3   6 189.265 142.037   1
  -3   3   5 723.314 235.499   2
   3  -3  -5 541.481 156.179   7
  -3   3   5 649.379 185.897   1
   3   3  -5 415.823 151.859   7
  -3  -3   5 456.369 131.889   4
   3   3  -5 780.429 215.027   6
  -3  -3   5 662.868 173.699   1
  -3  -3   5 710.178 263.124   2
  -3   3   4 62505.5 1534.67   1
  -3  -3   4 64235.5 1373.53   4
   3  -3  -4 64513.4 1305.81   7
   3   3  -4 61786.5 1421.56   7
   3  -3  -4 65596.6 1824.65   6
   3   3  -4 63052.8 1639.22   6
  -3  -3   4 62786.5 1282.91   1
  -3   3   4 63096.1 1884.56   2
  -3  -3   3 4708.98 366.332   4
   3  -3  -3 4482.45 279.963   7
   3  -3  -3 4664.73 452.136   6
   3   3  -3 4841.21 421.034   6
  -3   3   3 4870.97 288.795   3
  -3  -3   3 4527.08 248.572   1
  -3   3   3 4833.34 484.002   2
  -3  -3   2 16867.1 685.332   4
   3  -3  -2 17217.0 373.823   7
   3  -3  -2 17159.8 770.528   6
   3   3  -2 17205.0 738.664   6
  -3   3   2 16338.7 566.581   3
  -3   3   2 17457.9 815.211   2
  -3  -3   1 9101.20 505.998   4
   3  -3  -1 8559.78 503.683   6
   3   3  -1 9322.67 523.357   6
  -3   3   1 8874.54 454.874   3
  -3   3   1 8804.73 514.830   2
  -3  -3   0 3396.36 324.202   4
   3  -3   0 3237.06 306.068   6
   3   3   0 3276.94 326.088   6
  -3   3   0 3082.53 300.932   3
   3   3   0 2988.51 198.830   1
  -3   3  -1 2629.77 176.125   7
  -3  -3  -1 2629.34 293.090   3
   3  -3   1 2483.78 272.397   6
   3   3   1 2458.37 303.264   6
  -3   3  -1 2605.55 307.013   3
   3   3   1 2376.85 250.149   1
   3   3   1 2790.06 320.049   8
   3  -3   1 2928.48 403.893   8
  -3   3  -2 1718.55 282.558   3
  -3  -3  -2 1352.69 207.586   7
  -3   3  -2 1545.11 183.825   7
   3   3   2 1232.89 228.497   1
  -3  -3  -2 1222.22 214.983   3
   3   3   2 1302.05 224.882   8
   3  -3   2 1692.47 329.626   8
  -3  -3  -3 604.012 171.392   3
  -3   3  -3 530.398 180.464   3
  -3  -3  -3 412.318 152.636   7
   3   3   3 612.598 195.584   1
   3  -3   3 749.828 238.613   8
   3  -3   4 242.982 178.655   8
  -3  -3  -4 195.319 126.944   3
  -3   3  -4 81.0521 116.358   3
  -3  -3  -4 179.558 152.541   7
   3   3   4-21.8597 118.791   1
   3  -3   5 293.651 180.106   8
  -3   3  -5 258.558 167.913   3
  -3  -3  -5 272.750 150.482   7
   3   3   5 65.1923 122.635   1
   3  -4  -7 213.855 164.016   7
  -3   4   7 512.909 242.843   2
  -3   4   7 512.178 220.095   1
   3   4  -7 159.472 139.275   7
   3   4  -7 212.509 162.314   6
  -3  -4   7 214.918 214.456   2
  -3   4   6 1341.56 362.132   2
   3  -4  -6 1102.25 240.727   7
   3   4  -6 1470.27 284.398   7
  -3   4   6 1328.48 310.520   1
   3   4  -6 1000.32 265.494   6
  -3  -4   6 1224.59 350.301   2
  -3   4   5 21935.3 1077.62   1
  -3  -4   5 23359.9 899.712   4
   3  -4  -5 21596.1 890.971   7
   3   4  -5 20573.0 942.645   7
   3   4  -5 21207.1 1030.65   6
  -3  -4   5 23366.1 973.262   1
  -3   4   5 22907.9 1262.54   2
  -3  -4   4 10981.1 600.106   4
   3  -4  -4 9924.75 519.600   7
  -3   4   4 10353.2 657.786   1
   3   4  -4 10887.0 619.612   7
   3  -4  -4 10920.8 767.796   6
   3   4  -4 10651.8 669.606   6
  -3   4   4 10233.2 783.338   2
  -3  -4   3 24116.9 853.872   4
   3  -4  -3 23214.8 635.961   7
   3  -4  -3 23155.8 1001.21   6
   3   4  -3 22654.6 892.529   6
  -3   4   3 23684.9 607.163   3
  -3   4   3 22076.3 1039.51   2
  -3  -4   2 6404.01 438.225   4
   3  -4  -2 6075.91 217.687   7
   3  -4  -2 6501.40 490.675   6
   3   4  -2 6051.34 435.518   6
  -3   4   2 6987.87 365.260   3
  -3   4   2 6036.08 496.831   2
  -3  -4   1 21479.4 799.404   4
   3  -4  -1 22227.5 813.501   6
   3   4  -1 22454.2 814.300   6
  -3   4   1 22175.8 726.486   3
  -3   4   1 20747.6 825.946   2
  -3   4   0 29457.6 794.661   9
  -3  -4   0 29009.3 943.800   4
   3  -4   0 28308.7 882.734   6
   3   4   0 28669.4 951.002   6
  -3   4   0 27659.5 899.320   3
   3   4   0 30373.8 653.575   1
  -3   4  -1-163.549 102.647   3
   3   4   1 16.6328 80.8291   1
   3  -4   1 39.1490 54.7351   6
   3   4   1-54.5269 80.1686   6
  -3   4  -1 70.7161 52.8090   9
  -3  -4  -1 35.3288 73.3767   3
   3   4   1 30.2747 68.8915   8
   3  -4   1-8.57028 134.032   8
  -3  -4  -2 35078.1 1063.48   7
  -3  -4  -2 34751.0 1120.50   3
  -3   4  -2 35424.9 1240.28   3
   3   4   2 35534.5 1165.85   1
   3   4   2 35783.1 944.627   5
   3  -4   2 35568.9 1471.76   8
  -3  -4  -3 4778.24 440.409   7
  -3  -4  -3 5131.85 467.895   3
   3   4   3 4239.08 476.497   1
  -3   4  -3 5338.99 530.323   3
   3  -4   3 4117.33 524.306   8
  -3  -4  -4 10253.1 741.284   7
   3   4   4 9988.80 829.435   1
  -3   4  -4 10599.2 805.428   3
   3  -4   5 997.157 306.603   8
   3   4   5 1682.70 380.565   1
  -3   4  -5 1165.26 281.758   3
  -3  -4  -5 1093.71 283.982   7
   3  -5  -7 19989.4 1113.26   7
   3   5  -7 19646.0 1157.34   7
  -3  -5   7 19757.7 1393.13   2
  -3   5   7 21571.7 1484.62   2
  -3   5   7 18901.3 1269.36   1
  -3   5   6 11968.9 913.031   1
   3  -5  -6 13806.4 823.564   7
   3   5  -6 13843.3 887.419   7
   3   5  -6 12282.9 864.347   6
  -3  -5   6 14814.5 1137.78   2
  -3   5   6 13322.8 1088.31   2
   3  -5  -5 675.990 178.592   7
  -3   5   5 461.456 203.681   2
  -3  -5   5 1009.94 199.385   4
   3   5  -5 716.372 197.473   7
   3   5  -5 649.792 189.110   6
  -3   5   5 740.097 214.402   1
  -3  -5   4 71166.5 1600.75   4
   3  -5  -4 69865.1 1382.59   7
  -3   5   4 67232.2 1741.09   1
   3  -5  -4 69482.4 1945.14   6
   3   5  -4 70566.5 1691.33   6
  -3   5   4 69269.6 2077.64   2
  -3  -5   3 2947.27 317.580   4
   3  -5  -3 3419.51 251.580   7
   3  -5  -3 2932.58 370.318   6
   3   5  -3 3248.58 340.973   6
  -3   5   3 3700.52 232.071   3
  -3   5   3 3604.44 443.470   2
  -3  -5   2 35391.5 1062.68   4
   3  -5  -2 35451.4 547.506   7
   3  -5  -2 36000.7 1155.90   6
   3   5  -2 34074.7 1024.04   6
  -3   5   2 35220.5 832.056   3
  -3   5   2 35873.0 1259.44   2
  -3  -5   1 26971.8 925.304   4
   3  -5  -1 27783.4 909.317   6
   3   5  -1 26836.9 894.745   6
  -3   5   1 27229.1 824.047   3
  -3   5   1 26778.2 848.191   9
  -3  -5   0 28862.6 966.080   4
   3  -5   0 30232.7 902.386   6
   3   5   0 28926.5 962.564   6
  -3   5   0 30064.4 961.608   3
   3  -5   0 29193.3 1282.96   8
  -3   5   0 29341.0 843.888   9
  -3   5  -1 1108.38 215.656   3
   3   5   1 870.435 163.103   5
  -3  -5  -1 802.102 173.098   4
   3  -5   1 956.248 170.031   6
   3   5   1 1378.59 241.585   6
   3   5   1 1016.45 173.758   1
  -3  -5  -1 989.241 189.070   3
   3   5   1 1294.98 200.007   8
   3  -5   1 1283.86 305.598   8
  -3   5  -1 1194.03 167.784   9
  -3  -5  -2 19252.8 822.909   7
  -3  -5  -2 18521.1 822.912   3
  -3   5  -2 18926.6 927.495   3
   3   5   2 18043.1 706.637   5
   3   5   2 18353.9 846.691   1
   3  -5   2 18220.6 1088.74   8
  -3  -5  -3 2869.40 358.498   7
  -3   5  -3 2218.27 355.004   3
   3   5   3 2842.54 406.061   1
  -3  -5  -3 2919.97 355.441   3
   3  -5   3 2708.04 450.141   8
   3  -5   4 2368.81 458.096   8
  -3   5  -4 2271.85 398.326   3
  -3  -5  -4 2710.14 396.618   7
   3   5   4 2185.82 396.127   1
   3  -5   5 2363.92 467.988   8
  -3   5  -5 2019.94 404.097   3
  -3  -5  -5 2512.31 419.430   7
   3   5   5 1954.20 425.337   1
  -3   6   7-157.911 159.932   1
   3  -6  -7 310.874 190.167   7
   3   6  -7 80.1226 115.325   7
  -3  -6   7 40.8882 151.267   2
  -3  -6   6 6786.99 563.504   4
  -3   6   6 7201.36 739.840   1
   3  -6  -6 5176.10 518.044   7
   3   6  -6 6414.77 624.827   7
  -3  -6   6 6609.70 785.535   2
  -3   6   6 6700.67 795.266   2
   3  -6  -5 1184.55 227.545   7
  -3  -6   5 1170.00 230.006   4
  -3   6   5 1058.08 304.093   2
   3   6  -5 1315.09 264.243   6
  -3   6   5 1460.45 307.564   1
   3   6  -5 1378.57 208.028   5
   3  -6  -4 253.256 101.039   7
  -3  -6   4 223.911 109.446   4
  -3   6   4 153.149 166.103   2
   3  -6  -4-49.1621 118.089   6
   3   6  -4 331.519 127.166   6
   3  -6  -3 1467.77 172.115   7
  -3  -6   3 1159.43 219.547   4
  -3   6   3 971.731 257.835   2
   3  -6  -3 1339.00 268.011   6
   3   6  -3 1545.13 240.833   6
  -3  -6   2 18906.1 811.506   4
   3  -6  -2 17499.4 806.686   6
   3   6  -2 18719.2 751.025   6
  -3   6   2 18959.8 618.974   3
  -3  -6   1 12341.0 653.805   4
   3  -6  -1 12338.0 606.602   6
   3   6  -1 12956.4 624.116   6
  -3   6   1 12834.8 585.119   3
  -3   6   1 13315.3 624.509   9
  -3  -6   0 6196.43 463.505   4
   3  -6   0 6233.07 407.232   6
   3   6   0 5645.03 434.933   6
  -3   6   0 5649.56 432.683   3
  -3   6   0 5557.20 393.193   9
   3  -6   0 5140.69 568.490   8
   3   6   1 145.995 83.0553   1
  -3   6  -1 108.724 112.317   3
  -3   6  -1 104.785 63.5128   9
  -3  -6  -1 216.657 112.986   4
   3  -6   1 227.218 88.9009   6
   3   6   1 56.8507 64.0249   5
   3  -6   1 225.174 166.455   8
  -3   6  -2 315.628 156.099   3
  -3  -6  -2 340.820 117.893   7
   3   6   2 711.253 178.743   1
   3   6   2 686.243 149.023   5
  -3  -6  -2 702.711 172.698   3
   3  -6   2 384.592 186.094   8
  -3   6  -3 239.241 154.157   3
  -3  -6  -3 13.7257 76.7710   7
   3   6   3 356.629 166.384   1
  -3  -6  -3 78.3912 91.8268   3
   3  -6   3 115.322 144.600   8
   3  -6   4 164.601 154.727   8
  -3   6  -4 71.0131 102.765   3
  -3  -6  -4 62.4756 111.816   7
   3   6   4 154.213 148.245   1
  -3   7   7 878.385 294.603   1
   3  -7  -7 327.981 211.380   7
  -3  -7   7 685.855 309.753   2
  -3  -7   6 11002.1 760.452   4
   3  -7  -6 10191.4 737.283   7
  -3   7   6 9130.31 846.344   1
  -3  -7   5 4127.21 452.382   4
   3  -7  -5 3617.66 389.458   7
   3   7  -5 3973.75 366.580   5
  -3  -7   4 7370.77 573.789   4
   3  -7  -4 7727.14 488.595   7
   3  -7  -4 7952.83 684.391   6
   3   7  -4 7705.10 545.822   6
   3   7  -4 8347.47 530.915   5
  -3  -7   3 1941.66 286.074   4
   3  -7  -3 2263.31 339.758   6
   3   7  -3 1962.48 259.703   6
   3   7  -3 1903.17 253.599   5
  -3  -7   2 2722.14 326.550   4
   3   7  -2 2540.76 279.700   6
   3  -7  -2 2334.37 305.627   6
  -3   7   2 2828.44 247.412   3
   3   7  -2 2973.98 317.739   5
  -3   7   2 2510.06 299.185   9
  -3   7   1 179.991 100.276   3
  -3  -7   1 99.0731 92.0037   4
   3  -7  -1 96.5498 84.8205   6
   3   7  -1 66.9541 69.8453   6
   3   7  -1 179.713 100.821   5
  -3   7   1 88.5274 71.0894   9
  -3  -7   0 27193.7 995.548   4
   3  -7   0 27070.6 829.234   6
   3  -7   0 28285.4 1337.49   8
   3   7   0 26959.5 952.582   6
  -3   7   0 26836.1 957.602   3
   3   7   0 26107.1 925.650   5
  -3   7   0 26977.6 908.211   9
  -3  -7  -1 7627.07 529.103   4
   3   7   1 7818.94 504.116   1
   3  -7   1 8361.98 758.936   8
  -3   7  -1 7457.02 555.342   3
   3   7   1 7573.37 504.843   5
  -3   7  -1 7906.00 487.485   9
  -3   7  -2 1839.21 313.633   3
   3   7   2 1819.02 290.692   1
   3   7   2 2321.90 289.098   5
  -3   7  -2 2029.12 247.292   9
  -3  -7  -2 2155.78 292.210   3
   3  -7   2 1943.93 386.974   8
  -3   7  -3 113.133 109.884   3
  -3  -7  -3 227.895 126.279   7
   3   7   3 91.3390 113.551   1
   3  -7   3 226.284 178.771   8
   3  -7   4 2575.60 480.321   8
  -3   7  -4 1286.26 299.264   3
  -3  -7  -4 2572.31 398.367   7
   3   7   4 2060.39 405.022   1
   3  -8  -6 1259.19 277.124   7
  -3  -8   6 1746.84 332.354   4
   3  -8  -6 2162.13 352.187  10
  -3  -8   5 7242.02 619.298   4
   3  -8  -5 8232.39 590.514   7
  -3  -8   4 10900.3 730.155   4
   3  -8  -4 11765.7 839.355   6
   3   8  -4 12883.6 687.016   5
  -3  -8   3 13629.2 781.084   4
   3  -8  -3 13711.2 821.371   6
   3   8  -3 13345.1 652.589   6
   3   8  -3 13509.7 700.201   5
  -3  -8   2 2124.17 307.676   4
   3  -8  -2 1723.60 260.631   6
   3   8  -2 1835.20 236.773   6
  -3   8   2 1795.88 268.762   9
  -3   8   2 2247.25 224.544   3
   3   8  -2 2104.35 277.442   5
  -3  -8   1 2461.71 320.078   4
   3  -8  -1 2547.09 282.989   6
   3   8  -1 2801.04 293.197   6
  -3   8   1 3303.85 312.325   3
   3   8  -1 2733.37 317.289   5
  -3   8   1 2879.18 322.532   9
   3  -8  -1 2350.45 395.796   8
  -3  -8   0 21818.3 925.944   4
   3   8   0 23670.5 907.167   6
  -3   8   0 22805.6 908.155   3
   3   8   0 21710.0 889.870   5
  -3   8   0 23302.9 894.234   9
   3  -8   0 21009.5 1173.91   8
  -3   8  -1-7.73477 76.7477   3
  -3  -8  -1 10.5234 68.7499   4
  -3   8  -1-66.9011 65.4191   9
   3   8   1-7.58837 56.4203   5
   3  -8   1 82.5576 129.117   8
   3   8   2 46510.0 1468.31   1
  -3  -8  -2 48570.7 1375.97   3
  -3   8  -2 47858.4 1566.47   3
   3   8   2 44905.3 1304.83   5
  -3   8  -2 46783.9 1245.69   9
   3  -8   2 44767.4 1838.10   8
  -3  -8  -3 3993.69 468.970   7
  -3   8  -3 3663.65 477.164   3
   3   8   3 3712.82 479.505   1
   3  -8   3 3756.25 567.560   8
  -3  -8  -4 15753.3 992.540   7
  -3   8  -4 14075.6 1005.00   3
   3  -8   4 14725.6 1172.35   8
   3   8   4 15446.3 1083.16   1
  -3  -9   6 810.423 236.219   4
   3  -9  -6 1054.59 261.003  10
  -3  -9   5 188.908 126.213   4
  -3  -9   4 5878.26 556.963   4
   3  -9  -4 5445.77 577.289   6
   3   9  -4 5991.95 492.917   5
  -3  -9   3 375.727 162.720   4
   3  -9  -3 426.133 160.584   6
   3   9  -3 304.122 123.309   5
  -3   9   3 472.587 156.483   9
  -3  -9   2-22.7634 85.3393   4
   3  -9  -2 88.5788 101.670   6
   3   9  -2 24.9387 62.8127   6
  -3   9   2 50.6966 91.8141   9
   3   9  -2 79.9351 83.9548   5
  -3  -9   1 17501.4 873.217   4
   3   9  -1 17280.5 731.569   6
  -3   9   1 18971.3 762.047   3
   3   9  -1 16642.1 812.663   5
  -3   9   1 18392.4 850.993   9
   3  -9  -1 16223.6 1022.32   8
  -3  -9   0 6730.47 540.391   4
  -3   9   0 7281.16 529.725   3
   3   9   0 5899.58 492.299   5
  -3   9   0 7315.23 534.169   9
   3  -9   0 6786.93 684.600   8
  -3   9  -1 760.250 194.603   3
  -3  -9  -1 976.095 215.796   4
  -3   9  -1 957.875 194.797   9
   3   9   1 1229.35 231.584   5
   3  -9   1 1149.51 325.661   8
  -3   9  -2 4569.92 503.732   3
   3   9   2 4369.71 430.200   5
  -3   9  -2 4962.02 433.244   9
   3  -9   2 3510.17 539.747   8
  -3  -9  -3 958.268 246.055   7
  -3   9  -3 935.162 266.930   3
   3  -9   3 934.666 308.453   8
   3  -9   4 0.81125 177.722   8
  -3  -9  -4 261.187 149.787   7
  -3   9  -4-97.6342 129.531   3
  -3 -10   6 6940.72 692.977   4
   3 -10  -6 6198.64 626.496  10
  -3 -10   5 2552.47 410.347   4
   3 -10  -5 2039.52 361.332  10
  -3 -10   4 722.699 217.494   4
   3 -10  -4 603.463 208.816   6
   3  10  -4 933.761 212.715   5
  -3 -10   3 1866.91 313.150   4
   3 -10  -3 1984.53 332.666   6
  -3  10   3 1662.47 279.403   9
   3  10  -3 1866.20 291.913   5
  -3 -10   2 341.563 157.715   4
   3  10  -2 121.548 109.518   5
  -3  10   2 364.881 142.610   9
   3 -10  -2-25.6811 111.340   8
  -3 -10   1 12851.8 780.591   4
   3  10  -1 12598.3 631.139   6
  -3  10   1 13223.4 654.465   3
   3  10  -1 12858.5 752.338   5
  -3  10   1 12156.4 731.626   9
   3 -10  -1 13699.7 957.558   8
  -3 -10   0 15488.7 848.960   4
  -3  10   0 15007.8 801.071   9
  -3  10   0 16228.9 809.259   3
   3  10   0 16082.3 846.979   5
   3 -10   0 15196.6 1046.43   8
  -3  10  -1 378.622 160.399   3
  -3 -10  -1-1.13318 69.3020   4
   3  10   1 140.085 105.016   5
  -3  10  -1-18.9476 68.5346   9
   3 -10   1 239.670 181.880   8
  -3  10  -2 2440.83 387.382   3
  -3  10  -2 1718.96 280.312   9
   3  10   2 2875.70 374.319   5
   3 -10   2 2019.59 422.509   8
   3 -10   3 170.767 181.899   8
  -3 -10  -3 43.3140 100.161   7
  -3  10  -3 14.8316 91.8970   3
  -3 -11   5 6613.54 681.731   4
   3 -11  -5 6887.96 721.974   6
   3 -11  -5 7096.90 677.645  10
  -3 -11   4 130.745 113.255   4
   3 -11  -4 301.394 194.816   6
   3 -11  -4 546.167 195.251  10
   3  11  -4 352.978 150.196   5
  -3 -11   3 725.373 211.331   4
   3  11  -3 989.419 222.112   5
  -3  11   3 501.319 180.223   9
  -3 -11   2 8969.14 700.858   4
   3 -11  -2 9746.27 804.526   8
   3  11  -2 9806.15 684.874   5
  -3  11   2 10093.8 707.238   9
   3  11  -1 188.659 109.364   5
  -3 -11   1 350.964 159.835   4
  -3  11   1 232.247 123.033   9
   3 -11  -1 74.0301 132.950   8
  -3 -11   0 21371.9 1033.63   4
  -3  11   0 21938.6 970.548   3
   3  11   0 20741.6 1005.97   5
  -3  11   0 20063.6 978.311   9
   3 -11   0 20931.0 1256.25   8
  -3 -11  -1 7334.56 597.529   4
  -3  11  -1 8787.70 671.877   3
   3  11   1 8478.14 654.050   5
  -3  11  -1 7872.39 613.708   9
   3 -11   1 8403.29 833.275   8
  -3  11  -2 4092.93 505.800   3
   3  11   2 4199.96 466.581   5
  -3  11  -2 3679.48 429.897   9
   3 -11   2 4088.90 614.939   8
   3 -11   3 978.384 329.438   8
  -3 -11  -3 332.027 185.241   7
  -3  11  -3 1071.96 284.829   3
  -3 -12   5 1063.40 288.994   4
   3 -12  -5 1605.39 351.131  10
  -3 -12   4 4153.01 533.698   4
   3  12  -4 4803.82 508.236   5
   3 -12  -4 4408.88 542.759  10
  -3 -12   3 5490.51 591.835   4
   3  12  -3 6408.19 586.099   5
   3 -12  -3 6268.59 624.428  10
  -3  12   3 6605.28 607.369   9
  -3 -12   2 122.796 119.554   4
   3 -12  -2 131.040 110.653  10
  -3  12   2-34.7176 86.0409   9
   3  12  -2 255.567 130.432   5
  -3 -12   1 326.273 165.699   4
   3 -12  -1 352.564 157.449  10
  -3  12   1 256.692 128.897   9
   3  12  -1 180.185 119.404   5
   3 -12  -1 11.5904 120.580   8
  -3 -12   0 6318.49 587.899   4
   3  12   0 6783.05 607.463   5
  -3  12   0 6567.71 551.953   3
   3 -12   0 6663.44 573.050  10
  -3  12   0 6844.23 600.281   9
   3 -12   0 6026.03 697.766   8
  -3  12  -1 122.291 103.424   3
  -3 -12  -1 136.496 112.878   4
  -3  12  -1-100.749 82.4631   9
   3  12   1 113.638 121.695   5
   3 -12   1 3.56369 103.903   8
  -3  12  -2 20355.5 1142.95   3
   3  12   2 19300.5 1038.89   5
  -3  12  -2 19513.4 1014.44   9
   3 -12   2 22938.0 1449.85   8
  -3 -13   4 2949.11 481.779   4
   3  13  -4 3976.73 484.586   5
   3 -13  -4 3467.63 498.249  10
  -3 -13   3 34.7289 84.0798   4
   3 -13  -3 1.68039 82.0091  10
  -3  13   3 83.1866 118.560   9
   3  13  -3-24.5267 78.7609   5
  -3 -13   2 16385.3 1027.67   4
   3  13  -2 16294.8 971.847   5
   3 -13  -2 14351.0 939.044  10
  -3  13   2 17182.2 1000.12   9
  -3 -13   1 8188.23 710.605   4
   3  13  -1 7507.49 664.605   5
   3 -13  -1 7578.67 662.993  10
  -3  13   1 9140.45 726.105   9
   3 -13  -1 8090.26 779.564   8
   3 -13  -1 8718.90 771.748   4
   3 -13   0-84.8840 130.672   4
  -3  13   0-74.1382 69.9891   3
  -3 -13   0 93.0776 90.5318   4
   3 -13   0-202.904 126.620  10
  -3  13   0 20.1010 82.2877   9
   3  13   0 149.214 126.065   5
   3 -13   0-16.9567 110.360   8
   3 -13   1 220.146 157.345   4
  -3  13  -1 176.183 125.319   3
  -3  13  -1 335.316 161.835   9
   3  13   1 388.759 163.226   5
   3 -13   1 500.360 233.312   8
   3 -13   2-258.083 219.477   8
   3 -13   2-168.141 167.254   4
  -3  13  -2 89.9220 121.543   3
  -3  13  -2-53.7415 87.5352   9
   3  13   2 109.875 125.193   5
  -3 -14   3 325.265 174.760   4
   3 -14  -3 270.619 168.418  10
  -3  14   3 321.181 161.341   9
   3  14  -3 540.126 199.153   5
  -3 -14   2 265.056 148.314   4
   3 -14  -2 28.9546 60.7428  10
  -3  14   2 345.014 202.276   9
   3  14  -2 257.489 153.662   5
  -3 -14   1 5873.94 623.639   4
   3 -14  -1 4741.20 593.238   4
   3  14  -1 5873.68 617.497   5
   3 -14  -1 5369.19 580.258  10
  -3  14   1 6042.42 625.376   9
  -3 -14   0 10429.1 819.907   4
   3 -14   0 10539.5 782.952  10
   3  14   0 11336.1 860.137   5
  -3  14   0 10645.2 818.431   9
   3 -14   0 10301.5 922.055   8
   3 -14   0 11360.7 970.844   4
   3 -14   1 124.226 140.711   4
  -3  14  -1-267.436 148.934   3
  -3  14  -1 160.524 111.958   9
   3  14   1-24.0685 77.1968   5
   3 -14   1-74.2788 162.563   8
  -3 -15   2 4695.66 596.599   4
   3  15  -2 4294.27 552.271   5
   3 -15  -2 4677.75 578.586  10
  -3  15   2 4373.24 552.624   9
   3 -15  -1 945.535 283.408   4
  -3 -15   1 548.399 207.745   4
   3 -15  -1 573.210 197.463  10
  -3  15   1 631.751 226.212   9
   3  15  -1 1002.02 279.988   5
   3 -15   0 4505.54 644.707   4
  -3 -15   0 4639.56 577.652   4
   3  15   0 5090.85 605.250   5
   3 -15   0 4410.96 525.974  10
  -3  15   0 4247.75 538.967   9
  -4   0   7-165.686 201.284   2
   4   0  -7-93.7498 113.264   7
   4   0  -7-215.387 182.032   6
   4   0  -6 188.692 113.377   7
   4   0  -6 63.3426 130.998   6
  -4   0   6 203.663 193.933   2
   4   0  -5-34.9076 65.5435   7
   4   0  -5 53.1618 148.756   6
  -4   0   5-221.847 183.937   2
   4   0  -4 71024.3 1381.58   7
   4   0  -4 72309.6 1969.09   6
   4   0  -3-321.432 152.459   6
  -4   0   3-17.7446 137.535   2
   4   0  -2 695.060 195.389   6
  -4   0   2 759.355 198.373   2
   4   0  -1 82.0142 100.296   6
  -4   0   1 45.9685 82.2895   3
  -4   0   1 27.4612 104.729   2
  -4   0   0 553.306 93.8589   7
   4   0   0 668.714 176.288   6
  -4   0   0 406.701 147.862   3
   4   0   1-35.0878 79.1166   6
   4   0   1-128.375 125.921   8
  -4   0  -1 167.360 117.933   3
  -4   0  -2 31063.4 1242.92   3
   4   0   2 31855.1 1410.56   8
  -4   0  -3 77.0453 176.943   3
   4   0   3-88.7450 121.308   8
  -4   0  -4 256.768 161.849   3
   4   0   4-13.6412 131.775   1
  -4  -1   7 271.139 248.794   2
  -4   1   7 318.242 216.153   2
   4  -1  -7 200.876 140.536   7
   4   1  -7 193.605 148.596   7
   4  -1  -7-22.1291 143.401   6
   4   1  -7 507.083 243.111   6
   4  -1  -6 35328.0 1270.42   7
   4   1  -6 33752.6 1265.81   7
   4  -1  -6 34771.5 1657.76   6
   4   1  -6 35338.5 1610.36   6
  -4  -1   6 35626.4 1780.39   2
  -4   1   6 33525.1 1707.71   2
  -4   1   5 4073.10 550.944   2
  -4  -1   5 5028.37 400.396   4
   4  -1  -5 4347.02 393.772   7
   4   1  -5 4422.26 409.430   7
   4  -1  -5 4954.92 571.936   6
   4   1  -5 4670.18 539.689   6
  -4  -1   5 4914.13 628.220   2
  -4  -1   4 16346.6 726.567   4
   4  -1  -4 15352.1 627.432   7
   4   1  -4 14775.9 657.112   7
   4  -1  -4 15132.4 913.988   6
   4   1  -4 15074.0 889.016   6
  -4  -1   4 14976.9 976.116   2
  -4   1   4 14746.2 967.545   2
  -4  -1   3 19434.6 803.753   4
   4  -1  -3 18616.9 947.008   6
   4   1  -3 15659.9 857.631   6
  -4  -1   3 18224.6 983.600   2
  -4   1   3 18551.9 989.367   2
   4  -1  -2 1491.29 264.301   6
   4   1  -2 1332.38 256.314   6
  -4  -1   2 1903.37 301.083   2
  -4   1   2 1657.73 231.842   3
  -4   1   2 1795.81 288.362   2
  -4   1   1 884.372 194.167   2
   4  -1  -1 1020.47 220.079   6
   4   1  -1 670.497 182.272   6
  -4  -1   1 1338.53 233.851   2
  -4  -1   1 986.312 205.352   3
  -4   1   1 924.063 191.035   3
   4  -1   0 91687.3 1917.54   6
   4   1   0 93050.0 1946.24   6
  -4  -1   0 91513.0 1871.07   3
  -4   1   0 94916.8 1896.70   3
  -4  -1  -1 3439.68 282.093   7
   4  -1   1 4167.57 425.021   6
   4   1   1 3061.22 374.817   6
  -4  -1  -1 3719.15 400.848   3
  -4   1  -1 4154.09 429.813   3
   4   1   1 3562.00 456.081   8
   4  -1   1 3393.21 479.351   8
  -4  -1  -2 20073.2 992.987   3
  -4   1  -2 18619.0 977.310   3
   4   1   2 21281.8 1114.35   8
   4  -1   2 20525.0 1171.06   8
   4   1   3 5081.82 568.641   1
  -4  -1  -3 5537.08 571.768   3
  -4   1  -3 5511.18 577.144   3
   4  -1   3 5787.06 637.369   8
  -4  -1  -4 1091.35 278.457   3
  -4   1  -4 1238.82 324.523   3
   4   1   4 785.609 278.399   1
   4  -2  -7 33364.1 1380.59   7
   4   2  -7 32842.0 1408.96   7
   4  -2  -7 30900.7 1718.05   6
   4   2  -7 33751.4 1699.45   6
  -4  -2   7 31591.5 1801.59   2
  -4   2   7 36272.8 1928.47   2
  -4   2   6 119.992 170.304   2
   4  -2  -6-60.5823 87.2192   7
   4   2  -6 430.832 158.279   7
   4   2  -6 361.122 193.474   6
  -4  -2   6 234.355 251.618   2
  -4   2   5-250.683 177.052   2
   4  -2  -5 4.31827 56.3370   7
   4   2  -5 90.6678 86.9169   7
  -4  -2   5-31.3138 50.4713   4
   4  -2  -5 48.1758 113.256   6
   4   2  -5 16.2203 130.728   6
  -4   2   5 96.3482 93.4777   1
  -4  -2   5-214.005 195.415   2
  -4   2   4 833.919 272.659   2
   4  -2  -4 683.532 135.269   7
  -4  -2   4 946.120 188.792   4
   4  -2  -4 501.608 206.007   6
   4   2  -4 1002.40 246.843   6
  -4  -2   4 878.401 273.260   2
  -4   2   3 209.396 157.194   2
  -4  -2   3 171.590 100.654   4
   4  -2  -3 99.7322 104.479   6
   4   2  -3 229.596 145.484   6
  -4  -2   3 4.67772 147.372   2
  -4   2   3 242.213 99.0318   3
  -4   2   2 481.850 179.083   2
  -4  -2   2 485.645 155.287   4
   4  -2  -2 182.473 133.550   6
   4   2  -2 563.027 178.569   6
  -4   2   2 543.804 148.320   3
   4  -2  -1 57993.9 1522.88   6
   4   2  -1 59486.8 1555.48   6
  -4   2   1 58878.5 1409.09   3
  -4   2   1 59589.6 1410.39   2
  -4  -2   0 2531.22 272.408   2
   4  -2   0 2439.91 319.713   6
  -4  -2   0 2505.07 315.499   3
   4   2   0 2928.24 352.892   6
  -4   2   0 2681.81 323.740   3
  -4  -2  -1 4771.76 351.134   7
   4  -2   1 5114.62 460.066   6
   4   2   1 3944.00 433.926   6
  -4  -2  -1 4692.09 457.062   3
  -4   2  -1 4587.88 459.868   3
   4   2   1 3854.32 467.249   8
   4  -2   1 3836.64 507.782   8
  -4   2  -2 508.755 194.123   3
  -4  -2  -2 574.401 145.923   7
   4   2   2 753.314 192.891   1
   4   2   2 646.838 214.067   8
   4  -2   2 512.363 223.801   8
  -4  -2  -2 468.670 171.051   3
   4   2   3 6659.36 641.584   1
  -4  -2  -3 6546.98 616.562   3
  -4   2  -3 7758.26 693.107   3
   4  -2   3 7265.84 749.805   8
   4  -2   4 1222.95 317.237   8
  -4  -2  -4 1777.30 348.447   3
  -4   2  -4 821.508 258.958   3
  -4   3   7 1130.87 373.673   2
   4  -3  -7 1175.46 267.079   7
   4   3  -7 894.646 254.971   7
   4  -3  -7 1622.43 439.586   6
   4   3  -7 1021.00 295.981   6
  -4  -3   7 777.354 342.556   2
  -4   3   6 43665.3 1599.60   1
   4  -3  -6 45437.7 1418.39   7
   4   3  -6 44299.0 1509.36   7
   4  -3  -6 42719.5 1890.12   6
   4   3  -6 47303.9 1810.73   6
  -4  -3   6 49713.3 2131.46   2
  -4   3   6 46629.3 2049.15   2
  -4  -3   5 6960.97 518.914   4
   4  -3  -5 6067.16 457.822   7
  -4   3   5 5318.36 490.936   1
   4  -3  -5 6459.33 673.851   6
   4   3  -5 4895.16 543.291   6
  -4  -3   5 5903.50 695.433   2
  -4   3   5 6164.75 700.393   2
  -4  -3   4 33889.4 1125.69   4
   4  -3  -4 33302.2 879.474   7
   4  -3  -4 35718.1 1436.32   6
   4   3  -4 32673.8 1273.31   6
  -4  -3   4 33030.1 1491.02   2
  -4   3   4 34783.5 928.957   3
  -4   3   4 33456.1 1475.75   2
  -4  -3   3 32741.4 1096.93   4
   4  -3  -3 32158.8 1267.91   6
   4   3  -3 30692.8 1183.10   6
  -4   3   3 33823.5 951.416   3
  -4   3   3 30151.7 1286.80   2
  -4  -3   2 17796.8 812.983   4
   4  -3  -2 17460.0 881.957   6
   4   3  -2 17993.6 873.982   6
  -4   3   2 17342.9 719.657   3
  -4   3   2 16265.0 853.498   2
  -4  -3   1 3424.71 367.492   4
  -4   3   1 2235.11 293.544   2
   4   3  -1 3030.24 353.238   6
  -4   3   1 2669.45 302.908   3
   4  -3  -1 2528.53 330.259   6
   4  -3   0 95065.4 1908.83   6
  -4  -3   0 94525.9 1931.39   3
   4   3   0 94145.8 1985.31   6
  -4   3   0 94836.3 1917.52   3
  -4  -3  -1 3269.36 305.337   7
   4  -3   1 3532.89 383.068   6
  -4  -3  -1 3415.20 390.082   3
   4   3   1 3219.55 394.882   6
  -4   3  -1 3940.41 432.603   3
   4   3   1 3145.33 400.480   8
   4  -3   1 3497.17 514.798   8
  -4  -3  -2 24116.2 926.802   7
  -4  -3  -2 23161.5 1052.52   3
  -4   3  -2 23943.8 1135.98   3
   4  -3   2 24912.0 1356.40   8
  -4  -3  -3 10195.3 685.239   7
  -4  -3  -3 8678.08 695.492   3
  -4   3  -3 9165.14 764.081   3
   4  -3   3 8317.99 811.011   8
  -4  -3  -4 6898.74 665.169   3
  -4   3  -4 5336.66 626.142   3
   4  -3   4 6011.06 719.923   8
  -4   4   7 802.577 331.820   2
   4  -4  -7 955.535 250.617   7
   4   4  -7 981.499 271.781   7
   4  -4  -7 943.486 329.426   6
   4   4  -7 1766.12 379.727   6
  -4  -4   7 568.919 308.120   2
  -4   4   6 85.1598 166.407   2
   4  -4  -6-264.252 134.033   7
   4   4  -6-7.34730 112.536   7
  -4   4   6 46.7916 98.0135   1
   4  -4  -6-307.597 205.616   6
   4   4  -6 82.1350 126.037   6
  -4  -4   6 24.3766 185.913   2
  -4   4   5 368.029 205.134   2
  -4  -4   5 252.168 111.155   4
   4  -4  -5 202.566 170.133   6
   4   4  -5 212.072 146.775   6
  -4  -4   5 208.980 212.998   2
  -4  -4   4 45022.6 1350.64   4
   4  -4  -4 47748.1 1694.01   6
   4   4  -4 45986.2 1510.86   6
  -4   4   4 47775.0 1784.00   2
  -4   4   3-38.5542 119.433   2
  -4  -4   3 40.1544 68.1757   4
   4  -4  -3 185.090 152.918   6
   4   4  -3-102.839 104.006   6
  -4   4   3 4.16146 52.5826   3
  -4   4   2 2479.48 343.438   2
  -4  -4   2 2297.08 312.262   4
  -4   4   2 2053.80 252.515   3
   4  -4  -2 2196.03 327.113   6
   4   4  -2 2650.23 341.787   6
  -4  -4   1 2889.06 347.732   4
  -4   4   1 2065.91 284.635   2
   4  -4  -1 2731.55 339.408   6
  -4   4   1 2500.63 299.823   3
   4   4  -1 2135.03 301.111   6
  -4   4   0 2250.37 305.882   3
   4  -4   0 1666.30 262.218   6
   4   4   0 1710.41 278.271   6
  -4  -4   0 1399.93 246.059   3
   4  -4   0 1670.87 368.055   8
  -4   4  -1 571.769 179.531   3
   4  -4   1 407.788 144.078   6
   4   4   1 354.463 153.182   6
  -4  -4  -1 703.420 187.889   3
   4   4   1 363.711 146.286   8
   4  -4   1 769.539 261.004   8
  -4  -4  -2 18599.2 843.645   7
  -4  -4  -2 19790.5 974.239   3
  -4   4  -2 18637.7 1017.10   3
   4  -4   2 19233.7 1225.76   8
  -4  -4  -3 1863.58 327.996   3
  -4   4  -3 1682.40 336.101   3
  -4  -4  -3 2807.35 371.414   7
   4  -4   3 1772.08 399.233   8
   4  -4   4 518.130 206.738   8
  -4   4  -4 94.3523 135.778   3
  -4  -4  -4 259.462 156.500   7
  -4   5   7-328.578 266.827   2
  -4   5   7 4.76571 127.970   1
   4  -5  -7-0.85980 235.864   6
  -4  -5   7 466.273 289.462   2
  -4   5   6 4392.61 665.888   2
  -4   5   6 4721.48 563.344   1
   4   5  -6 5041.26 581.161   6
   4  -5  -6 4371.36 628.147   6
  -4  -5   6 5517.23 741.400   2
  -4  -5   5 4444.87 454.354   4
  -4   5   5 4477.78 628.961   2
   4  -5  -5 3679.71 525.077   6
   4   5  -5 3658.32 461.458   6
  -4   5   4 1222.54 312.877   2
  -4  -5   4 1016.08 237.354   4
   4  -5  -4 1441.15 334.738   6
   4   5  -4 1245.56 261.905   6
  -4   5   3 1182.53 294.108   2
  -4  -5   3 1289.64 248.732   4
   4  -5  -3 1516.73 301.209   6
   4   5  -3 1671.13 284.970   6
  -4   5   3 1541.95 201.078   3
  -4  -5   2 21314.7 940.343   4
   4  -5  -2 21071.4 970.019   6
   4   5  -2 19059.0 887.685   6
  -4   5   2 18934.3 756.478   3
  -4   5   2 17851.6 952.900   2
  -4   5   1 1089.56 210.548   3
  -4  -5   1 1272.55 247.623   4
   4  -5  -1 1230.15 228.761   6
   4   5  -1 994.950 214.160   6
  -4  -5   0 19229.6 908.124   4
   4  -5   0 20318.1 869.330   6
   4   5   0 21313.4 965.175   6
  -4   5   0 20307.9 919.765   3
   4  -5   0 18546.2 1170.35   8
  -4  -5  -1 4164.71 437.088   3
   4  -5   1 4445.50 416.803   6
   4   5   1 4204.73 459.471   6
  -4   5  -1 3497.86 422.251   3
   4  -5   1 4527.62 595.315   8
  -4   5  -2 1123.45 258.791   3
  -4  -5  -2 1290.26 242.963   7
  -4  -5  -2 1776.43 296.529   3
   4  -5   2 1567.39 383.729   8
  -4  -5  -3 1141.08 273.717   3
  -4   5  -3 911.589 279.753   3
  -4  -5  -3 975.750 226.021   7
   4  -5   3 1021.67 307.103   8
   4  -5   4 2054.41 472.127   8
  -4   5  -4 2396.52 446.227   3
  -4  -5  -4 1876.47 362.074   7
  -4   6   7 16922.9 1195.31   1
   4  -6  -7 14826.7 1238.32   6
  -4  -6   7 15793.9 1326.02   2
  -4   6   7 17492.4 1429.71   2
  -4   6   6 2727.05 544.893   2
  -4  -6   6 3502.33 436.824   4
   4  -6  -6 2538.92 495.839   6
  -4  -6   6 2825.27 555.094   2
  -4   6   5 484.894 266.880   2
  -4  -6   5 842.787 216.872   4
   4  -6  -5 696.471 277.160   6
   4   6  -5 413.357 166.183   6
  -4  -6   4 7970.29 618.924   4
   4  -6  -4 7582.02 701.620   6
   4   6  -4 8104.27 629.396   6
  -4   6   4 7911.67 774.611   2
  -4  -6   3 698.510 199.136   4
  -4   6   3 1081.96 277.986   2
   4  -6  -3 571.228 202.170   6
   4   6  -3 661.220 187.448   6
  -4   6   2 715.590 147.821   3
  -4  -6   2 528.219 177.718   4
   4  -6  -2 860.593 203.146   6
   4   6  -2 781.386 187.856   6
  -4  -6   1 28238.9 1114.66   4
   4  -6  -1 26749.6 1027.62   6
   4   6  -1 29074.2 1094.32   6
  -4   6   1 28608.2 1021.34   3
  -4  -6   0 8261.52 612.341   4
   4  -6   0 8186.93 549.989   6
   4   6   0 7915.07 595.478   6
  -4   6   0 7763.96 579.561   3
   4  -6   0 8997.03 848.801   8
  -4  -6  -1 4422.18 451.659   3
   4  -6   1 4460.89 412.663   6
   4   6   1 4833.00 503.371   6
  -4   6  -1 4885.96 501.906   3
   4   6   1 4222.17 402.954   5
   4  -6   1 4915.91 639.996   8
   4   6   2 1878.23 271.921   5
  -4   6  -2 2097.56 366.292   3
  -4  -6  -2 1773.89 283.516   7
  -4  -6  -2 1418.69 264.387   3
   4  -6   2 1605.01 391.678   8
  -4  -6  -3 3697.48 460.820   3
  -4  -6  -3 3908.01 462.278   7
  -4   6  -3 3546.42 499.551   3
   4  -6   3 2765.19 524.962   8
  -4  -7   6 15873.5 959.983   4
   4  -7  -6 15074.2 1168.30   6
  -4   7   6 16160.5 1308.28   2
  -4  -7   5 6024.58 569.218   4
   4  -7  -5 5559.18 660.940   6
   4   7  -5 5877.17 572.295   6
  -4   7   5 5524.15 710.076   2
   4   7  -5 5629.37 491.306   5
  -4  -7   4 12588.8 803.021   4
   4  -7  -4 12019.4 885.970   6
   4   7  -4 12023.1 757.277   6
  -4   7   4 11789.1 967.974   2
  -4  -7   3 28823.9 1188.84   4
   4  -7  -3 27951.7 1227.65   6
   4   7  -3 28542.7 1117.62   6
  -4  -7   2 4476.44 466.122   4
   4  -7  -2 5236.41 490.704   6
   4   7  -2 4101.65 414.114   6
  -4   7   2 4575.98 384.338   3
  -4  -7   1 2992.74 382.352   4
   4  -7  -1 3029.21 352.425   6
   4   7  -1 3366.70 380.607   6
  -4   7   1 2841.14 338.662   3
  -4  -7   0 24300.3 1065.06   4
   4  -7   0 24983.4 950.632   6
   4   7   0 25168.5 1070.49   6
  -4   7   0 26106.2 1081.94   3
   4   7   0 23569.7 975.040   5
  -4   7   0 23080.0 912.078   9
   4  -7   0 24125.8 1404.91   8
  -4   7  -1 1671.81 305.239   3
   4   7   1 2054.10 294.468   5
  -4   7  -1 1576.61 231.995   9
  -4  -7  -1 1867.60 301.846   3
   4  -7   1 1661.31 401.059   8
  -4  -7  -2 3178.04 394.567   7
  -4  -7  -2 4268.88 465.999   3
  -4   7  -2 4126.74 511.287   3
   4   7   2 3809.95 399.181   5
   4  -7   2 4962.05 679.157   8
  -4  -7  -3 8691.83 698.926   7
  -4   7  -3 8918.07 801.299   3
   4  -7   3 9136.04 934.214   8
  -4  -8   6-22.7408 92.1203   4
   4  -8  -6-398.168 243.712   6
  -4  -8   5 123.995 117.510   4
   4  -8  -5 73.8605 154.059   6
   4   8  -5 124.648 103.409   5
  -4  -8   4 17107.5 970.161   4
   4  -8  -4 19624.8 1137.37   6
   4   8  -4 17982.6 898.822   5
  -4  -8   3-20.5847 73.1096   4
   4  -8  -3 98.6479 115.285   6
   4   8  -3 11.5908 73.8057   6
   4   8  -3-39.5271 84.0022   5
  -4  -8   2 4030.64 459.455   4
   4  -8  -2 4222.47 441.917   6
   4   8  -2 4120.18 413.512   6
  -4   8   2 4425.32 379.373   3
   4   8  -2 3679.60 408.391   5
  -4  -8   1 6319.60 564.723   4
   4  -8  -1 5231.70 459.588   6
   4   8  -1 5968.45 502.257   6
  -4   8   1 5786.36 485.381   3
   4   8  -1 6246.36 521.993   5
  -4   8   1 5282.57 472.327   9
   4  -8  -1 5815.45 697.919   8
  -4  -8   0 3614.94 428.472   4
   4   8   0 3643.52 416.320   6
  -4   8   0 3374.96 403.831   3
   4   8   0 3877.83 410.830   5
  -4   8   0 4254.69 414.779   9
   4  -8   0 4105.74 601.706   8
  -4   8  -1 407.033 170.755   3
   4   8   1 337.169 144.945   5
  -4   8  -1 382.680 122.688   9
  -4  -8  -1 361.975 148.690   3
   4  -8   1 667.787 271.625   8
  -4  -8  -2 3572.72 440.768   7
  -4   8  -2 3854.58 494.897   3
  -4  -8  -2 3828.41 448.275   3
   4   8   2 3541.09 404.052   5
   4  -8   2 3671.43 600.503   8
  -4  -8  -3 4763.97 536.306   7
  -4   8  -3 4534.57 590.917   3
   4  -8   3 5179.51 732.465   8
  -4  -9   6 215.534 153.688   4
   4  -9  -6 227.166 175.761   6
  -4  -9   5 2397.60 393.732   4
   4  -9  -5 3400.27 531.540   6
   4   9  -5 3158.74 397.944   5
  -4  -9   4 12098.7 845.737   4
   4  -9  -4 12474.8 914.865   6
   4   9  -4 11828.6 752.705   5
  -4  -9   3 307.645 148.418   4
   4  -9  -3 217.336 154.598   6
   4   9  -3 349.101 141.506   5
  -4  -9   2 37055.6 1424.35   4
   4  -9  -2 36641.3 1291.82   6
   4   9  -2 34248.6 1186.83   6
   4   9  -2 35753.7 1290.69   5
  -4  -9   1 3314.04 429.431   4
   4   9  -1 3672.20 398.129   6
  -4   9   1 3404.63 381.504   3
   4   9  -1 3464.98 403.606   5
  -4   9   1 3413.65 393.351   9
   4  -9  -1 3720.73 567.470   8
  -4   9   0 1599.92 294.097   3
  -4  -9   0 1043.65 253.058   4
   4   9   0 1370.91 262.948   6
   4   9   0 981.038 228.937   5
  -4   9   0 1148.26 229.384   9
   4  -9   0 856.424 296.370   8
  -4   9  -1 2368.00 378.194   3
  -4  -9  -1 2390.09 358.172   4
   4   9   1 2765.38 373.751   5
  -4   9  -1 2886.07 348.514   9
  -4  -9  -1 2428.06 353.670   3
   4  -9   1 3046.39 550.440   8
  -4   9  -2 944.762 277.560   3
  -4  -9  -2 1353.12 283.850   7
   4   9   2 1271.94 251.059   5
   4  -9   2 1674.87 424.450   8
  -4  -9  -3-241.383 147.889   7
  -4   9  -3 284.469 169.306   3
   4  -9   3-163.930 163.186   8
  -4 -10   5 1536.32 332.351   4
   4 -10  -5 1494.41 387.761   6
   4  10  -5 1403.01 274.750   5
  -4 -10   4 10919.1 838.115   4
   4 -10  -4 10326.9 837.335   6
   4  10  -4 10942.3 754.369   5
  -4 -10   3 1640.30 328.456   4
   4  10  -3 1821.29 319.467   5
  -4 -10   2 307.546 154.085   4
   4  10  -2 193.108 117.598   5
  -4  10   2 377.298 164.953   9
   4 -10  -2 337.598 201.204   8
  -4 -10   1 8287.95 694.681   4
   4  10  -1 8925.49 629.742   6
  -4  10   1 8649.27 604.932   3
   4  10  -1 8686.18 669.892   5
  -4  10   1 9068.66 665.954   9
   4 -10  -1 9321.90 904.342   8
  -4 -10   0 4441.27 502.610   4
  -4  10   0 5388.51 530.947   3
   4  10   0 5182.15 523.552   5
  -4  10   0 5234.67 501.984   9
   4 -10   0 5353.10 707.345   8
  -4  10  -1 3575.89 469.443   3
  -4 -10  -1 3034.08 419.156   4
   4  10   1 3504.17 434.398   5
  -4  10  -1 3603.48 409.820   9
  -4 -10  -1 3255.29 417.889   3
   4 -10   1 3527.45 592.241   8
  -4 -10  -2 241.283 146.283   7
  -4  10  -2 444.893 195.004   3
   4  10   2 409.422 168.177   5
   4 -10   2 328.918 220.348   8
  -4 -11   5 2910.34 475.021   4
   4 -11  -5 2148.89 432.743   6
   4  11  -5 2809.49 397.734   5
  -4 -11   4 337.468 196.457   4
   4  11  -4 155.162 110.352   5
  -4 -11   3 18417.1 1099.97   4
   4  11  -3 17806.1 993.276   5
   4 -11  -3 16435.3 1164.69   8
  -4 -11   2 1589.21 328.753   4
   4  11  -2 1540.44 298.314   5
  -4  11   2 2031.35 349.539   9
   4 -11  -2 877.714 318.185   8
  -4 -11   1 1929.65 359.970   4
   4  11  -1 2566.09 390.513   5
  -4  11   1 2827.60 392.906   9
   4 -11  -1 1681.83 408.410   8
  -4  11   0 162.624 121.801   3
  -4 -11   0 132.148 114.911   4
   4  11   0 86.5668 104.656   5
  -4  11   0-80.5719 85.0418   9
   4 -11   0-88.4010 168.433   8
  -4  11  -1 397.486 186.772   3
  -4 -11  -1 840.613 247.924   4
  -4  11  -1 479.714 170.388   9
  -4 -11  -1 531.421 192.094   3
   4  11   1 650.657 218.172   5
   4 -11   1 388.946 233.962   8
  -4 -11  -2 2077.27 383.923   7
  -4  11  -2 2399.98 428.254   3
   4  11   2 2514.64 381.171   5
   4 -11   2 2313.68 523.495   8
  -4 -12   4 3509.12 522.596   4
   4  12  -4 3808.34 484.036   5
  -4 -12   3-149.170 126.790   4
   4  12  -3 70.2808 100.582   5
  -4 -12   2 3607.44 506.546   4
   4  12  -2 4515.71 522.879   5
  -4  12   2 3991.81 493.380   9
   4 -12  -2 3518.20 572.699   8
  -4 -12   1 6440.22 655.727   4
   4  12  -1 5633.69 589.495   5
  -4  12   1 5393.18 566.725   9
   4 -12  -1 5064.34 685.375   8
  -4  12   0 2889.83 405.229   3
  -4 -12   0 2888.92 438.080   4
  -4  12   0 2801.59 398.820   9
   4  12   0 3147.39 447.041   5
   4 -12   0 2781.86 531.337   8
  -4  12  -1-261.360 147.644   3
  -4  12  -1-92.4408 98.1666   9
   4  12   1 207.948 133.719   5
   4 -12   1-0.87079 111.796   8
  -4 -13   3 1887.67 377.553   4
   4  13  -3 1821.83 341.487   5
  -4 -13   2 19915.1 1211.67   4
   4  13  -2 19462.7 1121.17   5
  -4  13   2 20797.3 1168.63   9
  -4 -13   1 5399.23 629.988   4
   4  13  -1 5149.41 586.315   5
  -4  13   1 5546.19 592.979   9
   4 -13  -1 4808.92 676.347   8
  -4 -13   0-113.390 137.386   4
  -4  13   0 2.63552 68.4416   9
   4  13   0-33.3065 96.2906   5
   4 -13   0 79.5480 160.448   8
  -4 -14   2 299.456 175.230   4
   4 -14  -2-72.5202 117.050  10
  -4  14   2 163.659 142.508   9
   4  14  -2 177.390 143.883   5
  -5   0   7 231.024 235.324   2
   5   0  -7 404.897 236.036   6
  -5   0   6-171.530 224.058   2
   5   0  -6-228.402 187.957   6
   5   0  -5 780.445 261.676   6
  -5   0   5 1299.32 361.182   2
   5   0  -4 112.153 110.227   6
  -5   0   4-186.445 194.402   2
   5   0  -3 45038.4 1609.73   6
  -5   0   3 43685.8 1644.91   2
   5   0  -2-32.9617 108.629   6
  -5   0   2 46.0894 77.5478   3
  -5   0   2 44.9096 112.469   2
   5   0  -1 1362.71 273.843   6
  -5   0   1 1832.16 308.757   3
   5   0   0 140.441 136.351   6
  -5   0   0 455.814 157.399   3
   5   0   1 128.167 120.195   6
   5   0   1 282.983 167.137   8
  -5   0  -1 335.459 153.974   3
  -5   0  -2-100.697 133.181   3
   5   0   2-34.0323 104.134   8
  -5   0  -3 20685.8 1230.73   3
  -5  -1   7 3325.22 633.318   2
  -5   1   7 2781.94 568.269   2
   5   1  -7 3667.81 471.305   7
   5  -1  -7 3254.77 608.100   6
   5   1  -7 3630.67 583.957   6
  -5   1   6 4766.59 709.802   2
   5  -1  -6 5643.56 704.864   6
   5   1  -6 5259.22 663.105   6
  -5  -1   6 6100.85 787.809   2
  -5   1   5 218.468 183.240   2
   5  -1  -5 166.779 153.513   6
   5   1  -5 77.6896 119.774   6
  -5  -1   5 57.9615 168.065   2
  -5   1   4 1656.90 366.685   2
   5  -1  -4 2604.92 433.187   6
   5   1  -4 1996.74 360.783   6
  -5  -1   4 1512.82 346.008   2
  -5   1   3 1043.77 280.421   2
   5  -1  -3 1646.58 331.275   6
   5   1  -3 1079.10 258.572   6
  -5   1   3 1376.00 246.381   3
  -5  -1   3 969.616 267.880   2
   5  -1  -2 46358.4 1600.99   6
   5   1  -2 47897.0 1611.39   6
  -5  -1   2 45962.3 1434.98   3
  -5   1   2 47355.9 1434.62   3
  -5  -1   2 44259.0 1514.08   2
  -5   1   2 47062.8 1536.24   2
   5  -1  -1 10350.0 731.738   6
   5   1  -1 10898.5 757.642   6
  -5  -1   1 9797.95 687.502   3
  -5   1   1 10279.7 695.143   3
   5  -1   0 29406.9 1235.92   6
   5   1   0 30106.2 1255.87   6
  -5  -1   0 29003.3 1224.60   3
  -5   1   0 30275.0 1247.49   3
   5  -1   1 9010.81 707.185   6
   5   1   1 10273.4 770.147   6
  -5  -1  -1 8820.01 710.402   3
  -5   1  -1 8982.36 719.932   3
   5   1   1 7834.73 766.414   8
   5  -1   1 9702.24 885.928   8
  -5  -1  -2 2631.64 417.287   3
  -5   1  -2 2497.69 417.340   3
   5  -1   2 2845.12 496.751   8
  -5  -1  -3 2788.66 465.380   3
  -5   1  -3 2423.51 446.066   3
  -5   2   7 633.897 313.589   2
   5  -2  -7 599.673 273.386   6
   5   2  -7 404.578 243.538   6
  -5  -2   7 542.039 299.494   2
  -5   2   6 545.556 294.270   2
   5  -2  -6 1052.37 337.174   6
   5   2  -6 1025.23 328.213   6
  -5  -2   6 642.291 317.240   2
  -5   2   5 299.125 192.512   2
  -5  -2   5 56.1882 110.453   4
   5  -2  -5 241.333 184.441   6
   5   2  -5 19.0446 114.900   6
  -5  -2   5-106.590 189.247   2
  -5   2   4 1249.45 323.697   2
  -5  -2   4 1413.53 265.254   4
   5  -2  -4 1560.28 336.223   6
   5   2  -4 1918.55 355.844   6
  -5  -2   4 1816.90 388.742   2
  -5   2   4 1383.30 229.689   3
  -5   2   3 966.797 264.815   2
   5  -2  -3 517.449 210.393   6
   5   2  -3 855.487 233.349   6
  -5  -2   3 628.445 243.226   2
  -5   2   3 650.381 175.668   3
  -5   2   2 718.431 212.127   2
   5  -2  -2 979.680 249.925   6
   5   2  -2 907.103 249.397   6
  -5  -2   2 725.755 219.816   2
  -5   2   2 963.026 220.228   3
   5  -2  -1-10.0056 126.588   6
   5   2  -1 103.676 125.918   6
  -5  -2   1-90.8547 107.581   3
  -5   2   1 11.8020 81.9362   3
   5  -2   0 43206.8 1475.84   6
   5   2   0 40884.3 1481.45   6
  -5  -2   0 40556.0 1455.01   3
  -5   2   0 42629.3 1478.27   3
  -5   2  -1-56.5654 115.480   3
   5  -2   1 60.8658 118.713   6
   5   2   1-63.5460 99.6125   6
   5   2   1-285.185 174.660   8
   5  -2   1-144.635 164.333   8
  -5  -2  -1-104.107 110.936   3
  -5  -2  -2 598.926 235.005   3
  -5   2  -2 477.573 230.096   3
   5  -2   2 884.618 296.245   8
  -5  -2  -3 449.623 208.226   3
  -5   2  -3 218.740 157.999   3
   5  -2   3 464.234 217.849   8
  -5   3   7 868.019 334.480   2
   5  -3  -7 832.583 318.146   6
   5   3  -7 506.856 265.182   6
  -5  -3   7 226.150 252.412   2
  -5   3   6 2769.93 556.275   2
   5  -3  -6 2065.38 442.096   6
   5   3  -6 2138.21 419.066   6
  -5  -3   6 2703.39 531.925   2
  -5   3   5-147.350 222.655   2
  -5  -3   5-26.1009 83.8194   4
   5  -3  -5-259.270 201.308   6
  -5  -3   5 107.977 186.339   2
  -5  -3   4 7370.23 593.140   4
   5  -3  -4 5817.75 628.055   6
   5   3  -4 6149.38 618.309   6
  -5  -3   4 7362.62 766.793   2
  -5   3   4 6188.11 686.316   2
  -5   3   3 52.7788 116.973   2
  -5  -3   3 189.366 122.555   4
   5  -3  -3 5.58460 141.366   6
   5   3  -3-116.378 122.134   6
  -5   3   3 32.0144 56.7616   3
   5  -3  -2 10922.7 781.427   6
   5   3  -2 10938.1 764.013   6
  -5  -3   2 11033.0 796.904   2
  -5   3   2 10950.5 677.522   3
  -5   3   2 10946.0 764.354   2
   5  -3  -1 6393.48 577.390   6
  -5  -3   1 6700.78 573.881   3
   5   3  -1 7013.42 608.172   6
  -5   3   1 5971.09 529.147   3
  -5   3   0 2872.07 394.723   3
   5  -3   0 2588.46 368.199   6
   5   3   0 3136.92 417.110   6
  -5  -3   0 2704.08 390.449   3
   5  -3   0 3042.72 522.646   8
  -5   3  -1 2544.75 401.882   3
   5  -3   1 2333.88 360.595   6
   5   3   1 2890.67 426.399   6
  -5  -3  -1 2207.00 363.574   3
   5  -3   1 3126.43 552.333   8
  -5   3  -2 1873.82 369.304   3
   5  -3   2 1476.46 384.512   8
  -5  -3  -2 1564.95 333.364   3
  -5  -3  -3 607.357 235.997   3
  -5   3  -3 848.296 281.127   3
   5  -3   3 380.336 231.245   8
  -5   4   6 4992.12 741.480   2
   5  -4  -6 5154.44 707.567   6
   5   4  -6 4142.61 564.893   6
  -5  -4   6 5210.08 758.582   2
  -5   4   5 34.5582 141.406   2
  -5  -4   5 10.0290 77.4498   4
   5  -4  -5 80.6275 145.666   6
   5   4  -5 319.983 177.425   6
  -5  -4   5 326.475 217.360   2
  -5   4   4 22.1173 136.144   2
  -5  -4   4 409.930 166.370   4
   5  -4  -4 423.695 205.149   6
   5   4  -4 533.990 196.586   6
  -5  -4   4 441.945 238.543   2
  -5  -4   3 26460.3 1146.20   4
   5  -4  -3 28564.2 1308.68   6
   5   4  -3 27778.9 1250.13   6
  -5   4   3 28257.8 1023.02   3
  -5   4   3 27408.0 1341.87   2
  -5   4   2 1732.75 321.383   2
  -5  -4   2 2262.34 349.950   4
   5  -4  -2 2258.02 367.108   6
   5   4  -2 2100.23 341.766   6
  -5   4   2 2200.08 307.572   3
  -5   4   1 609.051 188.475   3
   5  -4  -1 729.703 215.105   6
   5   4  -1 652.579 202.767   6
  -5  -4   1 598.694 193.601   3
   5  -4   0 3724.22 433.572   6
  -5  -4   0 3652.74 447.537   3
   5   4   0 3794.26 461.792   6
  -5   4   0 4414.70 494.552   3
   5  -4   0 3801.03 594.969   8
  -5   4  -1 913.216 251.977   3
   5  -4   1 367.637 156.317   6
   5   4   1 509.508 205.328   6
  -5  -4  -1 739.736 208.622   3
   5  -4   1 756.081 292.356   8
  -5   4  -2 128.331 130.948   3
   5  -4   2 213.485 176.343   8
  -5  -4  -2-15.3593 92.0807   3
   5  -5  -6 19147.0 1347.01   6
   5   5  -6 15392.9 1068.35   6
  -5  -5   6 17249.2 1368.03   2
  -5   5   6 16986.0 1356.16   2
  -5   5   5-36.0311 144.296   2
  -5  -5   5 29.3905 97.9423   4
   5  -5  -5-37.1428 170.577   6
   5   5  -5 490.443 206.357   6
  -5  -5   5-153.792 198.160   2
  -5  -5   4 6913.79 608.018   4
   5  -5  -4 7056.70 710.465   6
   5   5  -4 6255.27 619.053   6
  -5   5   4 6053.89 709.858   2
  -5   5   3 2575.21 435.187   2
  -5  -5   3 2859.69 394.915   4
   5  -5  -3 3219.76 459.028   6
   5   5  -3 2689.28 392.407   6
  -5   5   3 2269.81 300.014   3
  -5  -5   2 26311.9 1179.66   4
   5  -5  -2 28758.5 1262.94   6
   5   5  -2 29243.0 1249.78   6
  -5   5   2 30098.0 1124.47   3
  -5   5   2 30498.0 1329.28   2
   5  -5  -1 12438.6 797.230   6
   5   5  -1 11082.4 771.553   6
  -5   5   1 12324.5 766.535   3
  -5  -5   0 25783.1 1182.42   3
   5  -5   0 25625.3 1123.74   6
   5   5   0 27191.2 1232.67   6
  -5   5   0 27023.0 1209.07   3
   5  -5   0 25774.5 1564.09   8
   5  -5   1 9750.27 709.397   6
  -5  -5  -1 11134.5 803.732   3
   5   5   1 10613.7 824.454   6
  -5   5  -1 10098.2 798.388   3
   5  -5   1 10574.1 1012.61   8
  -5   5  -2 3989.15 546.551   3
  -5  -5  -2 4173.32 520.684   3
   5  -5   2 3647.30 612.257   8
  -5   6   6 1120.31 380.415   2
  -5  -6   6 1300.47 296.765   4
   5  -6  -6 1847.04 439.532   6
   5   6  -6 1981.55 397.879   6
  -5  -6   6 1247.14 407.864   2
  -5   6   5 503.086 276.059   2
  -5  -6   5 686.170 216.664   4
   5  -6  -5 524.139 265.151   6
   5   6  -5 865.420 257.147   6
  -5   6   4 339.224 223.212   2
  -5  -6   4 352.469 184.316   4
   5  -6  -4 86.6786 130.951   6
   5   6  -4 124.732 116.698   6
  -5  -6   3 4392.77 495.406   4
   5  -6  -3 4962.82 563.100   6
  -5   6   3 4313.72 571.124   2
   5   6  -3 4396.28 495.662   6
  -5   6   2 1492.22 255.118   3
  -5  -6   2 1183.12 263.002   4
   5  -6  -2 1476.98 299.461   6
   5   6  -2 1657.05 308.810   6
  -5   6   1 79.8201 107.462   3
  -5  -6   1 109.922 104.596   4
   5  -6  -1-67.9541 88.0429   6
   5   6  -1 15.0312 85.5695   6
  -5  -6   0 20643.1 1070.99   3
   5  -6   0 21668.0 1025.00   6
   5   6   0 20081.8 1072.41   6
  -5   6   0 20772.0 1082.72   3
   5  -6   0 23312.1 1511.61   8
  -5   6  -1-76.0238 126.472   3
  -5  -6  -1-20.0437 69.2277   7
   5   6   1-19.5959 66.3488   5
  -5  -6  -1 1.99155 95.1248   3
   5  -6   1 83.0768 154.887   8
  -5   6  -2-365.339 200.648   3
  -5  -6  -2-70.4070 124.002   3
  -5  -7   6 18605.0 1107.65   4
   5  -7  -6 16525.9 1269.18   6
  -5  -7   6 19417.8 1493.14   2
  -5   7   6 18003.6 1441.81   2
  -5  -7   5 336.457 172.343   4
  -5   7   5 359.780 224.717   2
   5  -7  -5-176.035 160.374   6
   5   7  -5 121.321 126.141   6
  -5  -7   4 32301.8 1406.98   4
   5  -7  -4 33220.5 1547.38   6
   5   7  -4 33028.7 1404.61   6
  -5  -7   3 508.709 189.388   4
   5  -7  -3 403.713 175.142   6
   5   7  -3 407.499 177.215   6
  -5   7   2 372.523 154.348   3
  -5  -7   2 619.250 211.060   4
   5  -7  -2 345.643 150.114   6
   5   7  -2 306.804 157.003   6
  -5  -7   1 3768.90 473.101   4
   5  -7  -1 4385.41 471.633   6
  -5   7   1 3498.68 428.624   3
   5   7  -1 2529.34 375.536   6
   5  -7  -1 3222.49 577.696   8
  -5   7   0 3647.64 465.580   3
   5   7   0 3198.94 439.065   6
   5   7   0 2845.87 382.916   5
  -5  -7   0 3695.45 467.751   3
   5  -7   0 2996.06 590.157   8
  -5   7  -1 54.5727 108.362   3
   5   7   1-49.0327 81.8409   5
  -5  -7  -1-14.7630 86.1544   3
   5  -7   1-166.897 196.569   8
  -5  -7  -2 14806.4 893.768   7
  -5  -7  -2 16037.4 1009.43   3
  -5   7  -2 14353.5 1036.73   3
   5  -7   2 14776.2 1269.89   8
  -5  -8   5 287.367 164.182   4
   5  -8  -5 282.419 223.400   6
   5   8  -5 461.182 174.309   5
  -5  -8   4 407.049 192.725   4
   5  -8  -4 663.269 237.611   6
   5   8  -4 444.468 194.041   6
  -5  -8   3 10560.9 815.833   4
   5  -8  -3 10183.2 805.312   6
   5   8  -3 10291.1 751.850   6
  -5  -8   2 4529.09 529.150   4
   5  -8  -2 4901.95 530.198   6
   5   8  -2 4161.92 480.390   6
  -5   8   1 128.310 102.271   3
  -5  -8   1 88.3842 120.602   4
   5   8  -1 84.1870 91.4331   6
   5   8  -1-11.9794 89.1989   5
   5  -8  -1 152.449 167.911   8
  -5  -8   0 8644.74 717.551   3
   5   8   0 8502.23 721.992   6
  -5   8   0 9021.71 738.288   3
   5   8   0 8324.45 667.069   5
   5  -8   0 9068.08 992.231   8
  -5   8  -1 1425.98 328.156   3
   5   8   1 2004.17 340.261   5
  -5  -8  -1 2245.31 380.515   3
   5  -8   1 1325.92 404.192   8
  -5  -9   5-98.0051 123.096   4
   5  -9  -5 115.136 175.837   6
   5   9  -5 297.196 140.998   5
  -5  -9   4 1194.77 314.820   4
   5  -9  -4 854.397 270.749   6
   5   9  -4 1498.40 310.060   5
  -5  -9   3 1178.15 300.541   4
   5  -9  -3 748.439 236.971   6
   5   9  -3 1234.77 265.533   6
   5   9  -3 848.212 224.177   5
  -5  -9   2 2208.84 393.127   4
   5   9  -2 2473.94 371.440   6
   5   9  -2 1978.55 340.754   5
   5  -9  -2 2075.57 489.136   8
  -5  -9   1 7631.45 705.255   4
   5   9  -1 8401.02 690.168   6
  -5   9   1 7217.05 624.466   3
   5   9  -1 8589.70 693.592   5
   5  -9  -1 8484.11 953.006   8
  -5  -9   0 4225.95 533.213   4
   5   9   0 4914.38 565.722   6
  -5   9   0 4863.10 547.307   3
   5   9   0 4830.34 527.362   5
   5  -9   0 4176.11 696.844   8
  -5  -9  -1 8908.27 759.902   3
  -5   9  -1 8487.70 773.291   3
   5   9   1 7793.19 674.645   5
   5  -9   1 7979.66 977.343   8
  -5 -10   5 1586.28 365.761   4
   5 -10  -5 1052.41 328.506   6
   5  10  -5 1198.35 281.847   5
  -5 -10   4 73.0729 131.766   4
   5  10  -4 630.461 207.130   5
  -5 -10   3 6929.06 712.966   4
   5  10  -3 5829.87 592.128   5
  -5 -10   2 2127.04 397.141   4
   5  10  -2 1566.30 321.421   5
   5 -10  -2 1646.50 452.959   8
  -5  10   1-65.2800 93.5221   3
  -5 -10   1 39.4919 106.721   4
   5  10  -1-54.9088 106.096   6
   5  10  -1 64.5605 107.156   5
  -5 -10   0 5029.25 594.989   4
  -5  10   0 5989.30 618.720   3
   5  10   0 6145.17 615.676   5
   5 -10   0 6857.10 890.122   8
  -5  10  -1 145.998 114.032   3
   5  10   1 178.341 136.816   5
  -5 -10  -1 123.422 147.368   3
   5 -10   1 79.8881 187.832   8
  -5 -11   4 30399.6 1557.36   4
   5  11  -4 32416.6 1446.48   5
  -5 -11   3 1156.48 318.828   4
   5  11  -3 1352.08 302.810   5
   5 -11  -3 1273.80 394.874   8
  -5 -11   2 2854.39 473.501   4
   5  11  -2 3547.57 488.939   5
   5 -11  -2 3146.55 580.448   8
  -5 -11   1 1452.78 339.840   4
   5  11  -1 2161.95 375.970   5
   5 -11  -1 1686.98 464.866   8
  -5 -11   0 6507.66 689.633   4
  -5  11   0 8025.41 722.744   3
   5  11   0 7002.75 686.018   5
   5 -11   0 7573.51 939.388   8
   5  12  -3 505.894 202.975   5
   5 -12  -3 270.105 213.873   8
  -5 -12   2 3711.13 548.887   4
   5  12  -2 2993.73 453.398   5
   5 -12  -2 4426.71 706.038   8
  -5 -12   1 321.267 191.965   4
   5  12  -1 247.898 142.248   5
   5 -12  -1 436.715 268.894   8
   6   0  -6 12870.4 1089.03   6
  -6   0   6 16313.7 1335.83   2
  -6   0   5-170.711 197.008   2
   6   0  -5 11.0905 112.474   6
  -6   0   4 4418.75 618.294   2
  -6   0   4 4554.69 498.431   3
   6   0  -4 4359.33 581.972   6
  -6   0   3-111.967 147.327   2
   6   0  -3 107.450 106.500   6
  -6   0   3-135.147 115.364   3
   6   0  -2 225.069 158.718   6
  -6   0   2 168.028 142.018   3
   6   0  -1 75.5449 108.429   6
  -6   0   1 174.873 136.721   3
   6   0   0 427.463 196.689   6
   6   0   0 453.419 233.191   8
  -6   0   0 298.150 169.576   3
  -6   0  -1 189.770 153.818   3
   6   0   1-54.6534 118.433   6
   6   0   1-274.291 232.209   8
  -6   1   6 2468.82 547.742   2
   6  -1  -6 1789.50 437.248   6
   6   1  -6 1704.71 409.528   6
  -6  -1   6 2055.24 494.243   2
  -6   1   5 871.255 325.545   2
   6  -1  -5 1017.14 302.473   6
   6   1  -5 1039.26 301.036   6
  -6  -1   5 935.624 331.843   2
  -6   1   4 308.208 232.149   2
   6  -1  -4 434.434 232.221   6
   6   1  -4 767.196 258.327   6
  -6   1   4 586.331 203.830   3
  -6  -1   4 563.751 264.143   2
  -6   1   3 1477.29 333.363   2
   6  -1  -3 1131.93 307.603   6
   6   1  -3 983.173 280.894   6
  -6  -1   3 1348.76 283.332   3
  -6   1   3 1154.09 265.867   3
  -6  -1   3 937.685 282.260   2
   6  -1  -2-13.1958 105.146   6
   6   1  -2 121.206 124.308   6
  -6  -1   2 9.52208 90.6705   3
  -6   1   2-126.907 121.362   3
   6  -1  -1 10.5048 139.073   6
   6   1  -1 143.448 143.803   6
  -6  -1   1 39.9855 107.387   3
  -6   1   1 125.243 132.280   3
   6  -1   0 119.197 161.609   6
   6   1   0 455.439 188.943   6
   6   1   0 87.9284 172.567   8
   6  -1   0 266.553 202.288   8
  -6  -1   0 10.7869 99.2455   3
  -6   1   0 233.660 144.399   3
  -6  -1  -1 177.630 156.551   3
  -6   1  -1 131.819 145.424   3
   6  -1   1-38.1574 119.679   6
   6   1   1 220.181 156.286   6
   6  -1   1-229.156 187.150   8
  -6   2   6-264.281 235.300   2
   6  -2  -6-250.864 190.078   6
   6   2  -6 132.093 171.689   6
  -6  -2   6-57.7996 176.983   2
  -6   2   5 271.126 202.933   2
   6  -2  -5 625.822 254.714   6
   6   2  -5 495.190 221.315   6
  -6  -2   5-250.535 247.454   2
  -6   2   4 1202.18 331.339   2
   6  -2  -4 1346.35 337.653   6
   6   2  -4 1024.20 287.259   6
  -6  -2   4 1125.68 355.786   2
  -6   2   4 1024.72 225.644   3
  -6   2   3 258.377 165.182   2
   6  -2  -3-98.7830 139.959   6
   6   2  -3-43.0703 115.100   6
  -6  -2   3-72.6972 92.0180   3
  -6  -2   3 62.1155 139.532   2
  -6   2   3-26.4015 74.8889   3
   6  -2  -2 1761.13 360.788   6
   6   2  -2 1188.18 299.408   6
  -6  -2   2 1371.77 306.527   3
  -6   2   2 1553.73 309.471   3
   6  -2  -1-123.862 136.129   6
   6   2  -1 103.245 126.915   6
  -6  -2   1 351.861 166.900   3
  -6   2   1 83.1666 118.171   3
  -6   2   0 63.8092 122.741   3
   6  -2   0 329.737 172.895   6
   6   2   0 230.582 155.168   6
   6   2   0 160.616 174.499   8
  -6  -2   0 43.4498 116.781   3
   6  -2   0 72.4686 181.350   8
   6  -2   1 13174.9 960.344   6
   6   2   1 13082.1 987.601   6
  -6  -2  -1 12452.6 955.068   3
  -6   2  -1 12850.3 989.817   3
   6  -2   1 12969.5 1160.56   8
   6  -3  -6 10685.3 1028.27   6
   6   3  -6 8112.90 839.910   6
  -6  -3   6 9124.73 1034.06   2
  -6   3   6 7874.93 945.134   2
  -6   3   5 6125.21 787.804   2
   6  -3  -5 6839.73 780.455   6
   6   3  -5 6326.10 716.001   6
  -6  -3   5 6718.22 832.641   2
   6  -3  -4 6527.51 732.563   6
   6   3  -4 5507.61 652.247   6
  -6  -3   4 7150.44 806.400   2
  -6   3   4 5754.59 705.691   2
  -6   3   3 3684.81 533.644   2
   6   3  -3 4467.00 569.573   6
  -6   3   3 4935.66 508.381   3
   6  -3  -3 3847.48 540.805   6
  -6  -3   3 4527.73 595.990   2
   6  -3  -2 11838.0 899.272   6
   6   3  -2 12255.7 916.678   6
  -6  -3   2 14017.0 926.109   3
  -6   3   2 13156.3 862.338   3
  -6   3   1 265.074 154.628   3
   6  -3  -1 548.699 200.377   6
   6   3  -1 298.753 144.138   6
  -6  -3   1 98.1531 133.466   3
  -6   3   0 3631.94 512.275   3
   6  -3   0 5085.83 573.081   6
   6   3   0 5146.70 596.261   6
  -6  -3   0 4341.59 553.414   3
   6  -3   0 4072.09 680.282   8
  -6   3  -1 626.708 246.004   3
   6  -3   1 459.563 205.674   6
   6   3   1 1049.14 298.676   6
   6  -3   1 997.265 341.517   8
  -6  -3  -1 691.080 247.744   3
  -6   4   6 6339.32 865.901   2
   6  -4  -6 7975.67 899.924   6
   6   4  -6 6631.86 758.799   6
  -6  -4   6 7974.19 968.016   2
  -6   4   5 252.043 224.796   2
  -6  -4   5 441.075 188.203   4
   6  -4  -5 341.950 214.341   6
   6   4  -5 340.730 200.044   6
  -6  -4   5 324.071 253.066   2
  -6   4   4 2479.55 485.285   2
  -6  -4   4 3455.42 466.935   4
   6  -4  -4 2960.16 502.884   6
   6   4  -4 2474.13 431.832   6
  -6  -4   4 3149.56 556.839   2
  -6   4   3 1846.45 387.441   2
   6  -4  -3 2962.70 462.156   6
   6   4  -3 2475.76 430.495   6
  -6  -4   3 2278.78 450.476   2
  -6   4   3 2044.21 340.833   3
   6  -4  -2 105.529 129.438   6
   6   4  -2 220.462 153.476   6
  -6  -4   2 37.7778 119.027   3
  -6   4   2 218.182 119.460   3
  -6   4   1-52.7929 140.771   3
   6  -4  -1 111.488 113.260   6
   6   4  -1 185.331 142.527   6
  -6  -4   1 10.5314 118.478   3
  -6   4   0 131.637 131.267   3
   6  -4   0 201.476 150.514   6
   6   4   0-238.943 163.928   6
  -6  -4   0 155.709 163.416   3
   6  -4   0 87.4957 240.301   8
  -6   4  -1 803.001 265.943   3
   6  -4   1 957.411 263.698   6
   6   4   1 805.809 273.066   6
  -6  -4  -1 866.673 279.478   3
   6  -4   1 969.865 344.756   8
  -6   5   5 443.627 263.060   2
  -6  -5   5 362.269 184.386   4
   6  -5  -5 292.064 218.355   6
   6   5  -5 672.554 242.576   6
  -6  -5   5 385.808 303.427   2
  -6  -5   4 5085.66 583.725   4
  -6   5   4 4382.98 644.936   2
   6  -5  -4 4324.62 594.308   6
   6   5  -4 4107.80 559.239   6
  -6  -5   4 3223.82 583.506   2
  -6   5   3 185.495 181.285   2
   6  -5  -3 82.0169 118.746   6
   6   5  -3 221.041 159.652   6
  -6  -5   3 347.496 257.357   2
   6  -5  -2 12357.6 916.757   6
   6   5  -2 12319.4 910.057   6
  -6   5   2 12093.5 827.845   3
  -6   5   1 257.716 154.583   3
   6  -5  -1 538.914 196.655   6
   6   5  -1 359.175 182.207   6
  -6  -5   1 201.295 141.846   3
   6  -5  -1 42.4473 128.123   8
   6  -5   0 15742.4 993.694   6
  -6  -5   0 15346.7 1041.07   3
   6   5   0 15267.8 1048.05   6
  -6   5   0 13936.7 991.623   3
   6  -5   0 14024.3 1280.59   8
  -6   5  -1 447.212 197.967   3
  -6  -5  -1 605.322 234.337   3
  -6   6   5 792.591 345.551   2
  -6  -6   5 684.706 222.050   4
   6  -6  -5 1098.63 355.426   6
   6   6  -5 236.788 172.503   6
  -6  -6   5 1630.41 447.900   2
  -6  -6   4 6368.32 666.885   4
  -6   6   4 5428.64 729.638   2
   6  -6  -4 6045.95 708.755   6
   6   6  -4 6370.43 687.207   6
  -6  -6   4 5483.20 767.196   2
  -6  -6   3 224.274 142.733   4
   6  -6  -3 157.120 136.249   6
   6   6  -3 4.65331 101.369   6
   6  -6  -2 6787.14 677.473   6
   6   6  -2 6618.54 677.641   6
  -6   6   2 8401.43 690.954   3
  -6   6   1-98.7484 129.287   3
   6  -6  -1-32.3176 117.780   6
   6   6  -1-112.917 124.928   6
  -6  -6   1-93.4442 119.105   3
   6  -6  -1 194.127 186.306   8
  -6   6   0 886.396 285.849   3
   6   6   0 232.583 170.007   6
  -6  -6   0 294.844 172.697   3
   6  -6   0 697.522 335.844   8
  -6  -7   5 7424.64 748.474   4
   6  -7  -5 6790.60 808.781   6
   6   7  -5 8335.21 801.521   6
  -6  -7   5 8364.48 987.797   2
  -6  -7   4 2179.79 412.687   4
   6  -7  -4 1582.71 363.345   6
   6   7  -4 1331.24 317.907   6
  -6  -7   3 5172.38 625.853   4
   6  -7  -3 5458.20 639.028   6
   6   7  -3 4570.88 563.968   6
  -6  -7   2 13927.6 1006.34   4
   6  -7  -2 15433.0 1013.78   6
   6   7  -2 14834.0 1006.43   6
  -6   7   2 16072.0 960.677   3
  -6   7   1 344.390 136.275   3
   6   7  -1 174.147 139.149   6
  -6  -7   1 182.502 140.709   3
   6  -7  -1 464.648 307.470   8
  -6   7   0 3533.35 526.721   3
   6   7   0 3478.33 521.620   6
   6   7   0 3528.89 468.885   5
  -6  -7   0 3514.65 515.494   3
   6  -7   0 4654.89 783.017   8
  -6  -8   4 321.230 203.214   4
   6  -8  -4 508.091 239.789   6
   6   8  -4 336.590 181.092   6
  -6  -8   3 4370.75 590.213   4
   6  -8  -3 4441.83 572.956   6
   6   8  -3 4311.87 548.992   6
   6   8  -2 149.648 136.235   6
   6  -8  -2-43.2036 198.529   8
  -6   8   1 400.083 187.024   3
   6   8  -1 160.907 139.777   6
   6   8  -1 220.536 148.296   5
  -6  -8   1 233.934 159.062   3
   6  -8  -1 229.814 220.262   8
  -6  -9   3-63.3851 112.423   4
   6   9  -3-24.6755 88.7361   6
   6   9  -3 82.0821 114.193   5
  -6  -9   2 22274.7 1320.42   4
   6   9  -2 19425.5 1150.00   6
   6   9  -2 20307.3 1161.48   5
   6  -9  -2 19948.2 1579.54   8
   7   0  -4-133.582 153.741   6
  -7   0   4 12.9454 93.8291   3
   7   0  -3 1616.79 391.460   6
  -7   0   3 1473.53 340.218   3
   7   0  -2-150.397 147.575   6
  -7   0   2 401.347 209.583   3
   7   0  -1 1925.55 403.689   6
  -7   0   1 2410.86 445.730   3
   7  -1  -4 647.810 291.491   6
   7   1  -4 267.572 184.388   6
  -7  -1   4 598.266 216.079   3
  -7   1   4 669.644 223.892   3
   7  -1  -3 574.985 248.258   6
   7   1  -3 23.6678 130.431   6
  -7  -1   3 374.130 188.691   3
  -7   1   3 153.058 144.725   3
   7  -1  -2 8183.00 825.807   6
   7   1  -2 10059.7 917.246   6
  -7  -1   2 8327.40 803.241   3
  -7   1   2 9180.28 830.049   3
   7  -1  -1 2631.33 473.369   6
   7   1  -1 3107.05 505.067   6
  -7  -1   1 3149.96 525.820   3
  -7   1   1 2574.94 459.387   3
   7  -2  -4 37846.5 1855.59   6
   7   2  -4 38039.9 1814.28   6
  -7  -2   4 37670.6 1614.31   3
  -7  -2   4 33558.8 1786.31   2
   7  -2  -3-162.136 159.364   6
   7   2  -3-338.432 181.599   6
  -7  -2   3-171.535 125.910   3
  -7   2   3 145.682 132.561   3
   7  -2  -2 18227.7 1223.16   6
   7   2  -2 20698.1 1308.17   6
  -7  -2   2 19354.4 1213.44   3
  -7   2   2 20156.2 1212.16   3
   7  -3  -4 3175.52 542.286   6
   7   3  -4 3853.74 596.380   6
  -7  -3   4 3329.98 509.878   3
  -7  -3   4 1787.19 436.160   2
   7  -3  -3-153.312 183.880   6
   7   3  -3 199.785 179.368   6
  -7  -3   3-16.9844 106.465   3
  -7   3   3 329.940 173.895   3
   7  -3  -2 478.830 211.905   6
   7   3  -2 309.847 179.368   6
  -7  -3   2 369.089 208.916   3
  -7   3   2 734.442 249.239   3
  -7   4   3 1130.48 290.752   3
   7  -4  -3 658.271 261.244   6
   7   4  -3 830.086 295.736   6
  -7  -4   3 606.652 237.297   3
  -7   4   2 40.0194 126.842   3
   7  -4  -2-85.7271 134.403   6
   7   4  -2 68.0932 108.926   6
  -7  -4   2 104.712 139.942   3
   0   0   0    0.00    0.00   0

TITL 2015_09_09_DT_ALPHA-GLY_D in P2(1)/n
REM P2(1)/n (#14 in standard setting)
CELL 0.71073   5.086735  11.798160   5.459805  90.0000 111.9828  90.0000
ZERR    3.00   0.000213   0.000371   0.000209   0.0000   0.0047   0.0000
LATT  1
SYMM -x+1/2, y+1/2,-z+1/2
SFAC C H N O
UNIT 6.00 15.00 3.00 6.00
TREF
HKLF 4
END
;
_shelx_hkl_checksum              15088
_olex2_date_sample_data_collection 2015-09-09
_olex2_submission_special_instructions 'No special instructions were received'
_oxdiff_exptl_absorpt_empirical_details
;
Empirical correction (ABSPACK) includes:
- Absorption correction using spherical harmonics
- Frame scaling
;
_oxdiff_exptl_absorpt_empirical_full_max 1.527
_oxdiff_exptl_absorpt_empirical_full_min 0.774
loop_
_space_group_symop_operation_xyz
'x, y, z'
'-x+1/2, y+1/2, -z+1/2'
'-x, -y, -z'
'x-1/2, -y-1/2, z-1/2'
loop_
_atom_site_label
_atom_site_type_symbol
_atom_site_fract_x
_atom_site_fract_y
_atom_site_fract_z
_atom_site_U_iso_or_equiv
_atom_site_adp_type
_atom_site_occupancy
_atom_site_site_symmetry_order
_atom_site_calc_flag
_atom_site_refinement_flags_posn
_atom_site_refinement_flags_adp
_atom_site_refinement_flags_occupancy
_atom_site_disorder_assembly
_atom_site_disorder_group
C1 C 0.5696(2) 0.62502(8) 0.56586(18) 0.00818(19) Uani 1 1 d . . . . .
C2 C 0.5584(2) 0.64580(8) 0.28596(18) 0.00905(19) Uani 1 1 d . . . . .
H2B H 0.379772 0.617813 0.159667 0.011 Uiso 1 1 calc R . . . .
H2A H 0.567251 0.726645 0.257616 0.011 Uiso 1 1 calc R . . . .
N1 N 0.79557(18) 0.58871(7) 0.24048(16) 0.00949(18) Uani 1 1 d D . . . .
O1 O 0.80249(15) 0.59374(6) 0.73640(13) 0.01085(18) Uani 1 1 d . . . . .
O2 O 0.34510(15) 0.64236(6) 0.60647(14) 0.01171(18) Uani 1 1 d . . . . .
H1A H 0.789(3) 0.5160(8) 0.272(3) 0.014 Uiso 1 1 d DR . . . .
H1B H 0.963(2) 0.6148(11) 0.346(2) 0.014 Uiso 1 1 d DR . . . .
H1C H 0.789(3) 0.5980(12) 0.0757(19) 0.014 Uiso 1 1 d DR . . . .
loop_
_atom_site_aniso_label
_atom_site_aniso_U_11
_atom_site_aniso_U_22
_atom_site_aniso_U_33
_atom_site_aniso_U_23
_atom_site_aniso_U_13
_atom_site_aniso_U_12
C1 0.0105(4) 0.0064(4) 0.0083(4) -0.0010(3) 0.0043(3) -0.0011(3)
C2 0.0084(4) 0.0115(4) 0.0081(4) 0.0010(3) 0.0040(3) 0.0019(3)
N1 0.0097(4) 0.0121(4) 0.0074(4) 0.0006(3) 0.0041(3) 0.0015(3)
O1 0.0105(3) 0.0139(3) 0.0081(3) 0.0011(2) 0.0035(3) 0.0017(3)
O2 0.0094(3) 0.0161(4) 0.0112(3) -0.0017(3) 0.0057(3) -0.0001(3)
loop_
_atom_type_symbol
_atom_type_description
_atom_type_scat_dispersion_real
_atom_type_scat_dispersion_imag
_atom_type_scat_source
C C 0.0033 0.0016 'International Tables Vol C Tables 4.2.6.8 and 6.1.1.4'
H H 0.0000 0.0000 'International Tables Vol C Tables 4.2.6.8 and 6.1.1.4'
N N 0.0061 0.0033 'International Tables Vol C Tables 4.2.6.8 and 6.1.1.4'
O O 0.0106 0.0060 'International Tables Vol C Tables 4.2.6.8 and 6.1.1.4'
loop_
_geom_angle_atom_site_label_1
_geom_angle_atom_site_label_2
_geom_angle_atom_site_label_3
_geom_angle
_geom_angle_site_symmetry_1
_geom_angle_site_symmetry_3
_geom_angle_publ_flag
O1 C1 C2 117.40(8) . . ?
O1 C1 O2 125.63(9) . . ?
O2 C1 C2 116.96(8) . . ?
C1 C2 H2B 109.3 . . ?
C1 C2 H2A 109.3 . . ?
H2B C2 H2A 108.0 . . ?
N1 C2 C1 111.52(7) . . ?
N1 C2 H2B 109.3 . . ?
N1 C2 H2A 109.3 . . ?
C2 N1 H1A 108.6(9) . . ?
C2 N1 H1B 112.1(9) . . ?
C2 N1 H1C 112.6(9) . . ?
H1A N1 H1B 108.1(13) . . ?
H1A N1 H1C 109.0(13) . . ?
H1B N1 H1C 106.3(13) . . ?
loop_
_geom_bond_atom_site_label_1
_geom_bond_atom_site_label_2
_geom_bond_distance
_geom_bond_site_symmetry_2
_geom_bond_publ_flag
C1 C2 1.5275(13) . ?
C1 O1 1.2572(11) . ?
C1 O2 1.2590(12) . ?
C2 H2B 0.9700 . ?
C2 H2A 0.9700 . ?
C2 N1 1.4817(12) . ?
N1 H1A 0.878(9) . ?
N1 H1B 0.886(9) . ?
N1 H1C 0.894(8) . ?
loop_
_geom_torsion_atom_site_label_1
_geom_torsion_atom_site_label_2
_geom_torsion_atom_site_label_3
_geom_torsion_atom_site_label_4
_geom_torsion
_geom_torsion_site_symmetry_1
_geom_torsion_site_symmetry_2
_geom_torsion_site_symmetry_3
_geom_torsion_site_symmetry_4
_geom_torsion_publ_flag
O1 C1 C2 N1 19.48(12) . . . . ?
O2 C1 C2 N1 -161.51(8) . . . . ?
