#------------------------------------------------------------------------------
#$Date: 2021-11-09 00:55:12 +0200 (Tue, 09 Nov 2021) $
#$Revision: 270527 $
#$URL: file:///home/coder/svn-repositories/cod/cif/7/12/92/7129208.cif $
#------------------------------------------------------------------------------
#
# This file is available in the Crystallography Open Database (COD),
# http://www.crystallography.net/
#
# All data on this site have been placed in the public domain by the
# contributors.
#
data_7129208
loop_
_publ_author_name
'Song, Xianheng'
'Meng, Shanshui'
'Zhang, Hong'
'Jiang, Yi'
'Chan, Albert S. C.'
'Zou, Yong'
_publ_section_title
;
 Dibrominated Addition and Substitution of Alkenes Catalyzed by Mn2(CO)10
;
_journal_name_full               'Chemical Communications'
_journal_paper_doi               10.1039/D1CC04534B
_journal_year                    2021
_chemical_formula_moiety         'C16 H14 Br2 O2'
_chemical_formula_sum            'C16 H14 Br2 O2'
_chemical_formula_weight         398.09
_space_group_crystal_system      monoclinic
_space_group_IT_number           4
_space_group_name_Hall           'P 2yb'
_space_group_name_H-M_alt        'P 1 21 1'
_atom_sites_solution_hydrogens   geom
_atom_sites_solution_primary     dual
_audit_creation_date             2021-03-01
_audit_creation_method
;
Olex2 1.3
(compiled 2020.11.12 svn.r5f609507 for OlexSys, GUI svn.r6272)
;
_audit_update_record
;
2021-05-10 deposited with the CCDC.	2021-11-08 downloaded from the CCDC.
;
_cell_angle_alpha                90
_cell_angle_beta                 93.6370(10)
_cell_angle_gamma                90
_cell_formula_units_Z            2
_cell_length_a                   7.96300(10)
_cell_length_b                   6.03520(10)
_cell_length_c                   16.0210(2)
_cell_measurement_reflns_used    11898
_cell_measurement_temperature    100.00(10)
_cell_measurement_theta_max      75.9870
_cell_measurement_theta_min      2.7460
_cell_volume                     768.391(19)
_computing_cell_refinement       'CrysAlisPro 1.171.40.84a (Rigaku OD, 2020)'
_computing_data_collection       'CrysAlisPro 1.171.40.84a (Rigaku OD, 2020)'
_computing_data_reduction        'CrysAlisPro 1.171.40.84a (Rigaku OD, 2020)'
_computing_molecular_graphics    'Olex2 1.3 (Dolomanov et al., 2009)'
_computing_publication_material  'Olex2 1.3 (Dolomanov et al., 2009)'
_computing_structure_refinement  'SHELXL 2018/3 (Sheldrick, 2015)'
_computing_structure_solution    'SHELXT 2018/2 (Sheldrick, 2018)'
_diffrn_ambient_environment      N~2~
_diffrn_ambient_temperature      100.00(10)
_diffrn_detector                 'Hybrid Pixel Array Detector'
_diffrn_detector_area_resol_mean 10.0000
_diffrn_detector_type            HyPix
_diffrn_measured_fraction_theta_full 1.000
_diffrn_measured_fraction_theta_max 0.968
_diffrn_measurement_details
;
List of Runs (angles in degrees, time in seconds):

  # Type    Start    End  Width  t~exp~   \w     \q     \k     \f   Frames
#--------------------------------------------------------------------------
  1  \w    113.00 139.00   0.50    0.20    --  105.44  30.00-101.00   52
  2  \w     48.00  97.00   0.50    0.05    --   46.62  30.00-101.00   98
  3  \w      4.00  29.00   0.50    0.05    --   46.62 -30.00  98.00   50
  4  \w     33.00  70.00   0.50    0.20    --  105.44-125.00  30.00   74
  5  \w     77.00 107.00   0.50    0.20    --  105.44-125.00  30.00   60
  6  \w     79.00 105.00   0.50    0.20    --  105.44 -94.00-150.00   52
  7  \w     44.00  70.00   0.50    0.20    --  105.44 -94.00-150.00   52
  8  \w     33.00  69.00   0.50    0.20    --  105.44 -61.00  60.00   72
  9  \w     35.00  72.00   0.50    0.20    --  105.44 -61.00 120.00   74
 10  \w     35.00  68.00   0.50    0.20    --  105.44 -61.00  90.00   66
 11  \w     36.00  65.00   0.50    0.20    --  105.44 -61.00 150.00   58
 12  \w     36.00  62.00   0.50    0.20    --  105.44 -61.00  30.00   52
 13  \w     35.00  63.00   0.50    0.20    --  105.44 -61.00-150.00   56
 14  \w     34.00  70.00   0.50    0.20    --  105.44 -61.00-180.00   72
 15  \w    -40.00  20.00   0.50    0.05    --  -46.62  38.00  30.00  120
 16  \w    -23.00  29.00   0.50    0.05    --  -46.62  19.00 -30.00  104
 17  \w    -33.00  27.00   0.50    0.05    --  -46.62  30.00-101.00  120
 18  \w    -66.00 -30.00   0.50    0.20    -- -100.00  61.00 -30.00   72
 19  \w    -58.00 -33.00   0.50    0.20    -- -100.00  61.00-120.00   50
 20  \w    -64.00 -38.00   0.50    0.20    -- -100.00  61.00   0.00   52
 21  \w    -55.00 -29.00   0.50    0.20    -- -100.00  61.00  30.00   52
 22  \w    -60.00 -35.00   0.50    0.20    -- -100.00  61.00  60.00   50
 23  \w    -69.00 -43.00   0.50    0.20    -- -100.00  61.00  90.00   52
 24  \w    -71.00 -33.00   0.50    0.05    --  -46.62 -30.00  98.00   76
 25  \w   -175.00 -86.00   0.50    0.20    -- -100.00 -30.00  98.00  178
 26  \w     52.00  77.00   0.50    0.05    --   46.37  30.00-101.00   50
 27  \w     23.00  80.00   0.50    0.05    --   46.37  77.00 -30.00  114
 28  \w     56.00  95.00   0.50    0.05    --   46.37  38.00 -60.00   78
 29  \w     31.00  74.00   0.50    0.05    --   46.37  57.00  60.00   86
 30  \w   -161.00-135.00   0.50    0.20    -- -100.00 -73.00   7.50   52
 31  \w   -105.00 -79.00   0.50    0.20    -- -100.00 -77.00   0.00   52
 32  \w   -105.00 -78.00   0.50    0.20    -- -100.00 -73.00   7.50   54
 33  \w   -128.00 -79.00   0.50    0.20    -- -100.00 -73.00 -22.52   98
 34  \w   -167.00 -88.00   0.50    0.20    -- -100.00 -15.00   0.00  158
 35  \w   -103.00 -77.00   0.50    0.20    -- -100.00 -77.00 -60.00   52
 36  \w   -111.00 -77.00   0.50    0.20    -- -100.00 -77.00  23.80   68
 37  \w   -111.00 -85.00   0.50    0.20    -- -100.00 -53.00  52.65   52
 38  \w   -109.00 -76.00   0.50    0.20    -- -100.00 -77.00  60.00   66
 39  \w   -111.00 -85.00   0.50    0.20    -- -100.00 -61.00  30.00   52
 40  \w   -102.00 -76.00   0.50    0.20    -- -100.00 -77.00  30.00   52
 41  \w   -144.00 -79.00   0.50    0.20    -- -100.00 -71.00  -0.31  130
 42  \w   -164.00-138.00   0.50    0.20    -- -100.00 -72.00 -12.33   52
 43  \w   -109.00 -78.00   0.50    0.20    -- -100.00 -72.00 -12.33   62
 44  \w   -171.00-145.00   0.50    0.20    -- -100.00 -54.00 -54.65   52
 45  \w   -117.00 -77.00   0.50    0.20    -- -100.00 -75.00 -25.56   80
 46  \w   -112.00 -77.00   0.50    0.20    -- -100.00 -76.00  16.00   70
 47  \w   -106.00 -81.00   0.50    0.20    -- -100.00 -67.00  64.68   50
 48  \w   -122.00 -85.00   0.50    0.20    -- -100.00 -54.00 -54.65   74
 49  \w   -154.00-128.00   0.50    0.20    -- -100.00 -77.00  60.00   52
 50  \w   -165.00 -86.00   0.50    0.20    -- -100.00 -58.00  17.24  158
 51  \w   -136.00 -82.00   0.50    0.20    -- -100.00 -61.00 -60.00  108
 52  \w   -103.00 -77.00   0.50    0.20    -- -100.00 -77.00 -30.00   52
 53  \w   -164.00-139.00   0.50    0.20    -- -100.00 -77.00  30.00   50
 54  \w     97.00 143.00   0.50    0.20    --  107.00  30.00-120.00   92
 55  \w     66.00 104.00   0.50    0.20    --  107.00 -77.00 -60.00   76
 56  \w     73.00  99.00   0.50    0.20    --  107.00 -77.00-180.00   52
 57  \w     35.00  60.00   0.50    0.20    --  107.00 -77.00-180.00   50
 58  \w     62.00  99.00   0.50    0.20    --  107.00-125.00  60.00   74
 59  \w     82.00 107.00   0.50    0.20    --  107.00 -77.00 120.00   50
 60  \w     39.00  69.00   0.50    0.20    --  107.00 -77.00 120.00   60
 61  \w     36.00  72.00   0.50    0.20    --  107.00 -61.00-120.00   72
 62  \w   -118.00 -30.00   0.50    0.05    --  -46.37 -57.00 -60.00  176
 63  \w   -118.00 -30.00   0.50    0.05    --  -46.37 -57.00  60.00  176
 64  \w   -118.00 -23.00   0.50    0.05    --  -46.37 -77.00  30.00  190
 65  \w   -118.00 -30.00   0.50    0.05    --  -46.37 -57.00-120.00  176
 66  \w   -118.00 -23.00   0.50    0.05    --  -46.37 -77.00-180.00  190
 67  \w     18.00  95.00   0.50    0.05    --   46.37-125.00  60.00  154
 68  \w     30.00  74.00   0.50    0.05    --   46.37  57.00 120.00   88
 69  \w     23.00 118.00   0.50    0.05    --   46.37  77.00-120.00  190
 70  \w     18.00  95.00   0.50    0.05    --   46.37-125.00 120.00  154
 71  \w     23.00 118.00   0.50    0.05    --   46.37  77.00 150.00  190
 72  \w    -20.00   5.00   0.50    0.05    --   46.37 -30.00  98.00   50
 73  \w   -103.00 -77.00   0.50    0.20    -- -100.00 -74.00 -16.96   52
;
_diffrn_measurement_device       'four-circle diffractometer'
_diffrn_measurement_device_type  'XtaLAB Synergy R, DW system, HyPix'
_diffrn_measurement_method       '\w scans'
_diffrn_orient_matrix_type
'CrysAlisPro convention (1999,Acta A55,543-557)'
_diffrn_orient_matrix_UB_11      -0.0304032000
_diffrn_orient_matrix_UB_12      -0.0982294000
_diffrn_orient_matrix_UB_13      0.0865203000
_diffrn_orient_matrix_UB_21      -0.1912696000
_diffrn_orient_matrix_UB_22      0.0033820000
_diffrn_orient_matrix_UB_23      -0.0218939000
_diffrn_orient_matrix_UB_31      0.0104596000
_diffrn_orient_matrix_UB_32      -0.2355930000
_diffrn_orient_matrix_UB_33      -0.0361734000
_diffrn_radiation_monochromator  mirror
_diffrn_radiation_probe          x-ray
_diffrn_radiation_type           'Cu K\a'
_diffrn_radiation_wavelength     1.54184
_diffrn_reflns_av_R_equivalents  0.0519
_diffrn_reflns_av_unetI/netI     0.0321
_diffrn_reflns_Laue_measured_fraction_full 1.000
_diffrn_reflns_Laue_measured_fraction_max 0.968
_diffrn_reflns_limit_h_max       9
_diffrn_reflns_limit_h_min       -9
_diffrn_reflns_limit_k_max       7
_diffrn_reflns_limit_k_min       -7
_diffrn_reflns_limit_l_max       18
_diffrn_reflns_limit_l_min       -20
_diffrn_reflns_number            15800
_diffrn_reflns_point_group_measured_fraction_full 0.986
_diffrn_reflns_point_group_measured_fraction_max 0.939
_diffrn_reflns_theta_full        67.684
_diffrn_reflns_theta_max         77.041
_diffrn_reflns_theta_min         2.764
_diffrn_source                   'Rotating-anode X-ray tube'
_diffrn_source_type              'Rigaku (Cu) X-ray Source'
_exptl_absorpt_coefficient_mu    6.678
_exptl_absorpt_correction_T_max  1.00000
_exptl_absorpt_correction_T_min  0.63591
_exptl_absorpt_correction_type   multi-scan
_exptl_absorpt_process_details
;
CrysAlisPro 1.171.40.84a (Rigaku Oxford Diffraction, 2020)
Empirical absorption correction using spherical harmonics,
implemented in SCALE3 ABSPACK scaling algorithm.
;
_exptl_crystal_colour            colourless
_exptl_crystal_colour_primary    colourless
_exptl_crystal_density_diffrn    1.721
_exptl_crystal_description       block
_exptl_crystal_F_000             392
_exptl_crystal_size_max          0.1
_exptl_crystal_size_mid          0.05
_exptl_crystal_size_min          0.05
_refine_diff_density_max         0.455
_refine_diff_density_min         -0.473
_refine_diff_density_rms         0.079
_refine_ls_abs_structure_details
;
 Flack x determined using 1260 quotients [(I+)-(I-)]/[(I+)+(I-)]
 (Parsons, Flack and Wagner, Acta Cryst. B69 (2013) 249-259).
;
_refine_ls_abs_structure_Flack   -0.04(2)
_refine_ls_extinction_method     none
_refine_ls_goodness_of_fit_ref   1.113
_refine_ls_hydrogen_treatment    constr
_refine_ls_matrix_type           full
_refine_ls_number_parameters     183
_refine_ls_number_reflns         3060
_refine_ls_number_restraints     1
_refine_ls_restrained_S_all      1.112
_refine_ls_R_factor_all          0.0286
_refine_ls_R_factor_gt           0.0280
_refine_ls_shift/su_max          0.001
_refine_ls_shift/su_mean         0.000
_refine_ls_structure_factor_coef Fsqd
_refine_ls_weighting_details
'w=1/[\s^2^(Fo^2^)+(0.0184P)^2^+1.1540P] where P=(Fo^2^+2Fc^2^)/3'
_refine_ls_weighting_scheme      calc
_refine_ls_wR_factor_gt          0.0673
_refine_ls_wR_factor_ref         0.0676
_reflns_Friedel_coverage         0.766
_reflns_Friedel_fraction_full    0.969
_reflns_Friedel_fraction_max     0.903
_reflns_number_gt                2989
_reflns_number_total             3060
_reflns_threshold_expression     'I > 2\s(I)'
_cod_data_source_file            d1cc04534b2.cif
_cod_data_source_block           songxh_210301
_cod_database_code               7129208
_shelx_shelxl_version_number     2018/3
_shelx_space_group_comment
;
The symmetry employed for this shelxl refinement is uniquely defined
by the following loop, which should always be used as a source of
symmetry information in preference to the above space-group names.
They are only intended as comments.
;
_shelx_estimated_absorpt_t_max   0.731
_shelx_estimated_absorpt_t_min   0.555
_reflns_odcompleteness_completeness 100.00
_reflns_odcompleteness_iscentric 1
_reflns_odcompleteness_theta     66.97
_olex2_refinement_description
;
1. Fixed Uiso
 At 1.2 times of:
  All C(H) groups
 At 1.5 times of:
  All C(H,H,H) groups
2.a Aromatic/amide H refined with riding coordinates:
 C17(H17), C18(H18), C2(H2), C15(H15), C5(H5), C3(H3), C14(H14), C6(H6)
2.b Idealised Me refined as rotating group:
 C20(H20A,H20B,H20C), C12(H12A,H12B,H12C)
;
_shelx_res_file
;
TITL songxh_210301_a.res in P2(1)
    songxh_210301.res
    created by SHELXL-2018/3 at 14:53:47 on 01-Mar-2021
REM Old TITL songxh_210301 in P2(1)
REM SHELXT solution in P2(1): R1 0.060, Rweak 0.034, Alpha 0.006
REM <I/s> 0.927 for 4 systematic absences, Orientation as input
REM Flack x = -0.033 ( 0.019 ) from 1268 Parsons' quotients
REM Formula found by SHELXT: C12 O11 Br9
CELL 1.54184 7.963 6.0352 16.021 90 93.637 90
ZERR 2 0.0001 0.0001 0.0002 0 0.001 0
LATT -1
SYMM -X,0.5+Y,-Z
SFAC C H Br O
UNIT 32 28 4 4

L.S. 4
PLAN  4
SIZE 0.05 0.05 0.1
CONF
MORE -1
BOND $H
fmap 2
acta
htab
REM <olex2.extras>
REM <HklSrc "%.\\songxh_210301.hkl">
REM </olex2.extras>

WGHT    0.018400    1.154000
FVAR       0.74328
BR10  3    1.072127    0.708318    0.904298    11.00000    0.02684    0.03406 =
         0.02337   -0.00149    0.00056    0.00057
BR9   3    1.171970    0.908582    0.730362    11.00000    0.02648    0.03435 =
         0.03043   -0.00075    0.00889   -0.00312
O19   4    0.463876    0.091306    0.931529    11.00000    0.02867    0.03110 =
         0.03026    0.00493    0.00908    0.00116
O11   4    0.691635    0.705306    0.405399    11.00000    0.04067    0.04580 =
         0.02009    0.00135    0.00247    0.01362
C16   1    0.556868    0.230076    0.886336    11.00000    0.03024    0.02794 =
         0.01821    0.00024    0.00339   -0.00145
C17   1    0.717176    0.152026    0.868662    11.00000    0.03263    0.02438 =
         0.02849    0.00288    0.00409    0.00470
AFIX  43
H17   2    0.752641    0.012214    0.886699    11.00000   -1.20000
AFIX   0
C18   1    0.821727    0.284357    0.824318    11.00000    0.02836    0.02729 =
         0.02595    0.00054    0.00784    0.00554
AFIX  43
H18   2    0.927458    0.231814    0.812575    11.00000   -1.20000
AFIX   0
C8    1    1.020090    0.731026    0.786964    11.00000    0.02687    0.02587 =
         0.02674   -0.00335    0.00375    0.00081
C2    1    0.888031    0.506245    0.600988    11.00000    0.02868    0.03190 =
         0.02356    0.00224    0.00221    0.00695
AFIX  43
H2    2    0.953068    0.385818    0.619499    11.00000   -1.20000
AFIX   0
C7    1    0.885767    0.637184    0.749284    11.00000    0.02499    0.02040 =
         0.02274   -0.00091    0.00466    0.00481
C4    1    0.738298    0.704784    0.488664    11.00000    0.02608    0.03532 =
         0.02023    0.00286    0.00459    0.00188
C13   1    0.772227    0.494037    0.796943    11.00000    0.02117    0.02964 =
         0.01650   -0.00393   -0.00169    0.00042
C1    1    0.841386    0.665934    0.658032    11.00000    0.02295    0.02804 =
         0.02246    0.00142    0.00060   -0.00263
C15   1    0.504565    0.438691    0.858105    11.00000    0.02250    0.03186 =
         0.02348   -0.00003    0.00366   -0.00035
AFIX  43
H15   2    0.398578    0.491151    0.869433    11.00000   -1.20000
AFIX   0
C5    1    0.692376    0.865033    0.545281    11.00000    0.03526    0.02892 =
         0.02454    0.00594    0.00548    0.00837
AFIX  43
H5    2    0.627351    0.985737    0.527051    11.00000   -1.20000
AFIX   0
C3    1    0.838003    0.526003    0.516850    11.00000    0.03601    0.03657 =
         0.02029   -0.00231    0.00264    0.01044
AFIX  43
H3    2    0.870890    0.419973    0.479052    11.00000   -1.20000
AFIX   0
C20   1    0.310948    0.179152    0.960397    11.00000    0.02661    0.03750 =
         0.02717    0.00336    0.00537    0.00118
AFIX 137
H20A  2    0.230620    0.199091    0.913745    11.00000   -1.50000
H20B  2    0.333306    0.319279    0.987200    11.00000   -1.50000
H20C  2    0.266364    0.077994    0.999604    11.00000   -1.50000
AFIX   0
C14   1    0.610989    0.568328    0.812988    11.00000    0.02474    0.02768 =
         0.02089    0.00266   -0.00024    0.00018
AFIX  43
H14   2    0.574598    0.706181    0.793210    11.00000   -1.20000
AFIX   0
C6    1    0.744465    0.843315    0.629341    11.00000    0.04223    0.03140 =
         0.02475   -0.00339    0.00716    0.00580
AFIX  43
H6    2    0.713383    0.950553    0.667091    11.00000   -1.20000
AFIX   0
C12   1    0.590849    0.887065    0.373794    11.00000    0.05515    0.06357 =
         0.02860    0.00922    0.00390    0.02349
AFIX 137
H12A  2    0.564243    0.866858    0.315003    11.00000   -1.50000
H12B  2    0.652084    1.022912    0.382737    11.00000   -1.50000
H12C  2    0.488683    0.893229    0.402461    11.00000   -1.50000
AFIX   0
HKLF 4




REM  songxh_210301_a.res in P2(1)
REM wR2 = 0.0676, GooF = S = 1.113, Restrained GooF = 1.112 for all data
REM R1 = 0.0280 for 2989 Fo > 4sig(Fo) and 0.0286 for all 3060 data
REM 183 parameters refined using 1 restraints

END

WGHT      0.0184      1.1521

REM Instructions for potential hydrogen bonds
EQIV $1 x, y-1, z
HTAB C17 Br10_$1
EQIV $2 x-1, y, z
HTAB C15 Br10_$2
EQIV $3 -x+1, y+1/2, -z+2
HTAB C20 O19_$3

REM Highest difference peak  0.455,  deepest hole -0.473,  1-sigma level  0.079
Q1    1   0.7995  0.0006  0.9027  11.00000  0.05    0.46
Q2    1   0.9406  0.7309  0.8602  11.00000  0.05    0.35
Q3    1   1.1895  0.6932  0.9630  11.00000  0.05    0.35
Q4    1   1.0346  0.7118  0.8203  11.00000  0.05    0.35
;
_shelx_res_checksum              10108
_shelx_hkl_file
;
   0  -7   0    1.73    3.00
   0  -7   0   -0.39    2.55
   0  -7   0    0.74    4.57
   0  -7   1   32.89    5.63
   0  -7  -1   36.12    5.93
   0  -7   1   17.15    6.87
   0  -7  -1   34.39    5.41
   0  -7  -1   36.92    7.60
   0  -7   1   27.17    4.94
   0  -7  -2  211.41   13.79
   0  -7   2  160.72   12.53
   0  -7  -2  198.81   13.04
   0  -7   2  167.01   16.63
   0  -7   2  145.77   11.61
   0  -7  -3  331.40   19.40
   0  -7   3  296.32   17.95
   0  -7   4    2.23    2.37
   0  -7   4   -0.73    4.45
   0  -7   5  106.71    8.75
   0  -7   5   86.86   11.06
   0  -7   6   15.05    3.36
   0  -7   6   21.41    5.51
   0  -7   7    2.66    1.90
   0  -7   7   -0.41    2.38
   0  -6   0  669.02   37.08
   0  -6   0  640.07   44.58
   0  -6   0  672.33   36.66
   0  -6  -1   30.07    7.18
   0  -6  -1   29.89    6.71
   0  -6   1   41.24    7.37
   0  -6   1   35.14   11.59
   0  -6  -1   42.03   11.20
   0  -6  -2  237.07   18.54
   0  -6  -2  224.78   22.79
   0  -6   2  233.66   17.85
   0  -6  -2  240.35   18.18
   0  -6  -3    8.59    4.73
   0  -6   3    1.74    3.82
   0  -6   3    3.88    5.95
   0  -6  -3   -1.03    5.49
   0  -6   3    2.38    3.65
   0  -6   3    1.32    8.11
   0  -6   4  141.32   13.34
   0  -6  -4  164.49   15.02
   0  -6   4  175.38   19.00
   0  -6   4  186.82   22.03
   0  -6   4  188.06   14.82
   0  -6  -5  262.03   19.74
   0  -6   5  264.44   18.61
   0  -6   5  278.69   24.38
   0  -6   5  264.68   18.60
   0  -6   5  267.69   26.47
   0  -6  -6  310.63   21.14
   0  -6   6  289.33   19.78
   0  -6   6  285.37   25.14
   0  -6   6  308.73   19.85
   0  -6   6  328.57   27.94
   0  -6   7  122.26   11.16
   0  -6   7  107.49   15.04
   0  -6   7  117.34   10.83
   0  -6   7  121.12   16.14
   0  -6   8   14.60    4.49
   0  -6   8   21.75    7.81
   0  -6   8   19.65    7.62
   0  -6   8   18.44    4.48
   0  -6   9  103.73    9.39
   0  -6   9  114.09   14.18
   0  -6   9   93.69   11.77
   0  -6  10  186.30   11.83
   0  -6  10  172.14   16.28
   0  -6  11  242.05   13.79
   0  -6  11  228.26   17.74
   0  -6  12    7.09    1.84
   0  -5   0   -2.65    5.63
   0  -5   0    3.79    8.05
   0  -5   0    2.27    5.90
   0  -5   0    0.58    3.09
   0  -5   0   11.94    5.96
   0  -5   0    1.08    5.14
   0  -5   0    2.45    3.84
   0  -5  -1  746.46   78.88
   0  -5   1  760.93   66.89
   0  -5  -1  942.24   72.60
   0  -5   1  723.95   72.90
   0  -5  -1  922.48   53.65
   0  -5   1  848.80   45.12
   0  -5   1  985.29   55.41
   0  -5   1  908.69   52.03
   0  -5   1  900.35   46.00
   0  -5  -1  959.42   46.72
   0  -5  -1 1062.35   57.97
   0  -5  -2  165.18   35.26
   0  -5  -2  230.22   33.47
   0  -5   2  174.68   29.55
   0  -5  -2  251.45   24.03
   0  -5  -2  233.17   18.02
   0  -5   2  242.82   17.66
   0  -5  -2  226.76   22.44
   0  -5   2  270.24   25.24
   0  -5  -3   30.76   17.05
   0  -5  -3   10.05    6.58
   0  -5   3   10.65    8.65
   0  -5  -3   11.91    6.65
   0  -5  -3    8.06    4.74
   0  -5   3    6.53    4.13
   0  -5   3   12.25   11.21
   0  -5   3    6.50    7.32
   0  -5   4  319.49   39.66
   0  -5  -4  275.28   47.62
   0  -5  -4  361.68   24.18
   0  -5   4  360.10   23.11
   0  -5  -4  335.57   27.89
   0  -5   4  369.12   31.78
   0  -5   4  324.40   52.44
   0  -5  -4  342.34   27.74
   0  -5  -5  247.16   45.81
   0  -5   5  313.36   39.37
   0  -5   5  373.22   22.82
   0  -5  -5  318.51   26.56
   0  -5  -5  313.32   22.31
   0  -5   5  293.02   50.84
   0  -5  -5  265.11   23.92
   0  -5  -5  284.70   21.36
   0  -5   6  166.16   28.94
   0  -5   6  241.97   18.39
   0  -5  -6  226.95   22.07
   0  -5  -6  262.29   19.79
   0  -5   6  274.07   27.73
   0  -5   6  228.01   47.23
   0  -5  -6  252.94   19.14
   0  -5   7  301.81   39.44
   0  -5  -7  249.72   45.63
   0  -5  -7  326.89   23.79
   0  -5  -7  365.02   28.22
   0  -5   7  409.91   24.54
   0  -5   7  349.89   57.69
   0  -5   7  357.71   32.27
   0  -5  -8   37.73    8.81
   0  -5   8   50.50    7.96
   0  -5   8   34.33   11.41
   0  -5   8   34.82   10.69
   0  -5   9  113.83   11.81
   0  -5   9  111.25   17.35
   0  -5   9  109.87   15.54
   0  -5  10  362.52   22.44
   0  -5  10  322.38   28.32
   0  -5  10  305.47   25.43
   0  -5  11   33.19    6.24
   0  -5  12  387.74   22.60
   0  -5  13   77.92    7.78
   0  -5  14    6.29    2.45
   0  -5 -14    2.97    2.66
   0  -4   0 2159.47  114.26
   0  -4   0 2090.19  128.47
   0  -4   0 2194.12   98.18
   0  -4   0 1998.74   89.37
   0  -4   0 2060.55   95.66
   0  -4   0 2093.86   97.29
   0  -4   0 2074.01   91.87
   0  -4   0 2140.66  121.73
   0  -4   1  377.92   36.42
   0  -4  -1  256.91   38.57
   0  -4   1  297.34   39.51
   0  -4  -1  301.44   19.01
   0  -4   1  326.01   19.21
   0  -4   1  351.78   25.76
   0  -4  -1  288.83   23.44
   0  -4  -1  253.11   17.87
   0  -4   1  375.05   44.09
   0  -4  -1  291.12   21.73
   0  -4  -1  274.29   19.46
   0  -4   1  346.26   25.89
   0  -4   1  336.96   21.56
   0  -4  -1  257.79   21.40
   0  -4  -1  291.11   22.84
   0  -4   1  352.43   24.97
   0  -4   2  451.21   40.88
   0  -4   2  374.18   42.99
   0  -4  -2  388.34   48.89
   0  -4  -2  460.63   30.00
   0  -4   2  449.27   31.21
   0  -4   2  434.42   24.01
   0  -4   2  464.30   30.55
   0  -4  -2  395.99   27.24
   0  -4  -2  360.46   25.88
   0  -4   2  468.87   52.43
   0  -4   2  464.98   32.09
   0  -4  -2  371.40   23.88
   0  -4   3  422.98   40.51
   0  -4  -3  413.67   51.52
   0  -4   3  301.99   37.14
   0  -4  -3  391.28   23.10
   0  -4   3  391.20   22.89
   0  -4   3  379.46   29.98
   0  -4  -3  389.68   25.18
   0  -4   3  400.83   52.01
   0  -4  -4  442.97   43.40
   0  -4   4  441.72   42.31
   0  -4   4  409.40   24.89
   0  -4  -4  485.84   26.83
   0  -4   4  390.54   53.89
   0  -4   4  421.08   30.70
   0  -4  -4  431.16   29.88
   0  -4  -5  947.90   70.35
   0  -4   5  999.57   70.77
   0  -4  -5  851.41   81.63
   0  -4   5 1026.98   48.30
   0  -4  -5  954.98   48.40
   0  -4   5 1061.23   58.91
   0  -4   5 1009.67   93.46
   0  -4   5  891.33   53.75
   0  -4  -5  887.96   51.03
   0  -4  -5 1050.60   48.56
   0  -4  -5  998.27   49.91
   0  -4   6  998.75   69.50
   0  -4  -6  863.62   81.18
   0  -4  -6  793.51   64.82
   0  -4   6  940.60   44.20
   0  -4  -6  778.90   47.75
   0  -4   6  901.13   54.11
   0  -4   6  852.76   50.29
   0  -4   6  842.05   88.22
   0  -4  -6  808.96   42.88
   0  -4  -6  832.16   45.61
   0  -4  -7  231.80   41.43
   0  -4   7  336.40   38.39
   0  -4  -7  249.71   17.65
   0  -4  -7  240.71   22.04
   0  -4   7  303.60   27.67
   0  -4   7  290.01   52.69
   0  -4  -7  245.99   18.41
   0  -4  -7  225.58   19.87
   0  -4  -7  280.98   21.55
   0  -4  -8  293.16   46.11
   0  -4   8  281.75   37.11
   0  -4  -8  302.71   24.82
   0  -4  -8  274.61   19.94
   0  -4  -8  288.91   19.68
   0  -4   8  279.50   52.52
   0  -4   8  319.55   29.08
   0  -4  -8  302.65   23.67
   0  -4  -8  262.13   21.97
   0  -4  -9  255.95   43.57
   0  -4   9  236.46   34.26
   0  -4  -9  301.34   20.55
   0  -4  -9  326.81   25.48
   0  -4  -9  290.54   20.82
   0  -4   9  282.55   28.14
   0  -4  -9  303.68   24.03
   0  -4  -9  272.49   22.50
   0  -4  10  761.29   64.78
   0  -4 -10  751.70   44.89
   0  -4 -10  770.84   41.05
   0  -4 -10  740.29   40.06
   0  -4  10  754.89   49.16
   0  -4  10  634.95   83.69
   0  -4 -10  743.16   43.29
   0  -4 -10  786.11   44.88
   0  -4 -11  254.55   20.04
   0  -4 -11  279.98   23.05
   0  -4  11  321.48   27.65
   0  -4 -11  252.12   21.60
   0  -4 -11  275.63   23.10
   0  -4 -12   68.68    9.87
   0  -4  12   73.69   12.81
   0  -4 -12   74.89   11.73
   0  -4 -13  149.20   13.86
   0  -4  14   38.28    6.45
   0  -4 -14   31.07    6.44
   0  -4  15  128.68   10.28
   0  -4 -15   95.27    9.60
   0  -4  16  350.60   18.57
   0  -4 -17  133.68    9.34
   0  -3   0   -1.79    6.93
   0  -3   0    2.09    8.09
   0  -3  -1  467.91   38.40
   0  -3   1  574.14   47.80
   0  -3   1  406.39   29.48
   0  -3   1  430.27   40.75
   0  -3   1  483.77   36.58
   0  -3  -1  509.88   46.97
   0  -3   2 1436.03   94.66
   0  -3  -2 1432.38   92.82
   0  -3   2 1452.26   85.30
   0  -3   2 1474.98   80.05
   0  -3   3 2242.59  133.47
   0  -3   3 2301.55  116.13
   0  -3   3 2295.17  113.79
   0  -3  -3 2158.55  112.36
   0  -3   4  652.22   63.00
   0  -3   4  604.91   45.74
   0  -3  -4  706.60   59.29
   0  -3  -4  640.27   47.15
   0  -3   4  571.73   42.74
   0  -3   5  463.96   55.74
   0  -3   5  476.76   30.70
   0  -3  -5  575.37   54.78
   0  -3   5  490.19   41.85
   0  -3  -5  569.29   43.80
   0  -3   6  259.49   36.95
   0  -3  -6  242.94   29.34
   0  -3  -6  276.01   37.97
   0  -3   6  280.66   30.95
   0  -3   6  294.99   30.97
   0  -3   6  250.84   20.64
   0  -3   7  136.71   28.85
   0  -3   7  128.96   18.57
   0  -3  -7  136.06   11.89
   0  -3  -7  152.72   14.76
   0  -3   7  215.93   27.11
   0  -3  -7  136.15   28.76
   0  -3   7  226.95   28.35
   0  -3   7  168.77   16.56
   0  -3   8 2165.44  118.77
   0  -3  -8 1945.46  127.02
   0  -3   8 1947.48  132.89
   0  -3   8 1974.49  107.45
   0  -3  -8 2065.23   93.90
   0  -3  -8 2103.25   93.90
   0  -3  -8 2006.10   89.41
   0  -3  -8 1860.77   88.27
   0  -3  -8 2091.21   90.71
   0  -3  -8 2137.35   95.63
   0  -3   8 2320.18  153.71
   0  -3  -9  592.38   62.86
   0  -3   9  809.31   63.49
   0  -3  -9  708.86   41.86
   0  -3  -9  729.81   42.14
   0  -3   9  552.67   67.99
   0  -3  -9  766.85   43.60
   0  -3  -9  726.31   39.45
   0  -3  -9  704.84   38.31
   0  -3   9  722.84   45.51
   0  -3   9  714.69   83.12
   0  -3  10  345.55   41.68
   0  -3 -10  214.70   36.61
   0  -3 -10  310.49   24.57
   0  -3 -10  313.41   24.62
   0  -3  10  230.83   45.22
   0  -3 -10  283.79   20.71
   0  -3 -10  320.05   22.51
   0  -3 -10  298.78   24.89
   0  -3  10  308.34   26.88
   0  -3  10  227.75   47.98
   0  -3  11   36.03   14.50
   0  -3 -11   69.75   11.47
   0  -3  11   67.78   26.01
   0  -3 -11   64.85   11.21
   0  -3 -11   74.98   10.05
   0  -3 -11   62.90   10.21
   0  -3  11   77.15   13.19
   0  -3  11   61.46   28.37
   0  -3  12  351.63   45.27
   0  -3 -12  369.01   27.97
   0  -3 -12  395.40   28.53
   0  -3  12  245.40   48.47
   0  -3 -12  355.69   24.54
   0  -3 -12  349.45   25.36
   0  -3 -12  392.83   26.70
   0  -3 -12  368.88   28.10
   0  -3  12  268.94   52.88
   0  -3  12  355.15   28.81
   0  -3 -13  230.72   19.32
   0  -3 -13  185.57   19.23
   0  -3 -13  238.29   19.75
   0  -3 -13  216.85   20.33
   0  -3 -13  231.68   21.15
   0  -3 -14 1045.97   53.74
   0  -3 -14 1016.28   53.46
   0  -3 -14 1051.43   55.85
   0  -3 -14 1067.19   56.20
   0  -3 -15   44.17    8.20
   0  -3 -15   26.68    6.63
   0  -3 -15   37.34    8.10
   0  -3 -15   35.76    8.42
   0  -3 -16   59.35    8.52
   0  -3 -16   51.18    7.79
   0  -3 -17   42.60    6.38
   0  -3  18   22.47    3.26
   0  -3 -18   19.07    3.73
   0  -2   0  714.54   37.01
   0  -2   0  812.18   48.76
   0  -2   0  760.27   48.92
   0  -2   1 2580.41  128.64
   0  -2  -1 2784.21  120.57
   0  -2  -1 2450.75  126.41
   0  -2   1 2613.63  124.34
   0  -2   2 2194.94   97.13
   0  -2  -2 2403.87  108.22
   0  -2   2 2532.85  110.00
   0  -2   2 2361.70  111.44
   0  -2   2 2381.13  122.98
   0  -2  -2 2665.44  106.55
   0  -2   3  434.82   26.08
   0  -2   3  446.07   36.98
   0  -2  -3  461.27   31.43
   0  -2  -3  378.46   37.21
   0  -2   3  467.11   31.54
   0  -2   3  487.27   32.12
   0  -2   3  489.31   44.39
   0  -2   4 2323.01  107.76
   0  -2   4 2494.60  125.33
   0  -2  -4 2266.81  111.47
   0  -2  -4 2356.65  123.96
   0  -2   4 2399.17  106.41
   0  -2   4 2493.66  113.14
   0  -2  -5  453.19   40.89
   0  -2  -5  432.61   33.36
   0  -2   5  465.19   34.99
   0  -2   5  459.56   32.74
   0  -2   5  463.56   43.04
   0  -2  -5  375.87   29.47
   0  -2   5  459.79   48.95
   0  -2   6  324.52   29.61
   0  -2  -6  269.02   31.75
   0  -2   6  242.68   24.93
   0  -2   6  263.81   34.72
   0  -2  -6  248.95   24.43
   0  -2   6  292.45   40.68
   0  -2   7 1637.24  107.84
   0  -2   7 1568.29   90.53
   0  -2  -7 1713.38  100.89
   0  -2   7 1755.45   94.24
   0  -2   7 1754.71  117.46
   0  -2   8  281.35   41.22
   0  -2   8  251.49   30.49
   0  -2  -8  287.21   16.82
   0  -2  -8  263.86   33.55
   0  -2   8  220.98   28.80
   0  -2  -8  272.62   17.95
   0  -2   8  207.32   39.28
   0  -2  -9 1479.35   66.72
   0  -2   9 1625.05   94.24
   0  -2  -9 1380.35   92.23
   0  -2   9 1643.68  114.58
   0  -2  -9 1438.61   63.70
   0  -2   9 1688.94   95.66
   0  -2  -9 1594.38   70.83
   0  -2  -9 1386.05   64.49
   0  -2  -9 1380.48   63.68
   0  -2   9 1521.60  115.97
   0  -2 -10 1010.53   49.83
   0  -2  10 1056.25   75.35
   0  -2 -10  953.78   72.53
   0  -2  10 1074.54   93.05
   0  -2  10 1029.75   74.73
   0  -2 -10  903.85   44.80
   0  -2 -10 1005.71   46.72
   0  -2 -10  996.64   51.75
   0  -2 -10  929.91   45.22
   0  -2  10  855.39   88.30
   0  -2  11  462.38   47.71
   0  -2  11  370.04   55.07
   0  -2 -11  326.06   20.83
   0  -2  11  368.38   44.73
   0  -2 -11  370.47   22.53
   0  -2 -11  359.59   26.19
   0  -2 -11  351.53   21.38
   0  -2  11  486.97   63.29
   0  -2 -12  324.25   22.35
   0  -2  12  298.73   40.70
   0  -2  12  259.95   48.30
   0  -2 -12  304.04   19.41
   0  -2  12  242.50   37.97
   0  -2 -12  316.66   20.72
   0  -2 -12  327.43   25.17
   0  -2 -12  296.82   19.60
   0  -2  12  325.42   54.17
   0  -2 -13   95.20   11.58
   0  -2  13   71.34   20.57
   0  -2  13   85.41   28.75
   0  -2 -13   91.21    9.56
   0  -2  13   59.86   19.01
   0  -2 -13   90.32   10.29
   0  -2 -13   86.85   12.61
   0  -2 -13   90.62    9.73
   0  -2  13   70.17   24.83
   0  -2  14  202.73   34.26
   0  -2  14  172.02   40.89
   0  -2 -14  210.25   19.58
   0  -2 -14  203.09   15.99
   0  -2  14  178.30   32.43
   0  -2 -14  210.54   15.08
   0  -2 -14  202.10   15.35
   0  -2 -14  210.04   18.87
   0  -2 -15  846.76   44.34
   0  -2 -15  735.17   37.68
   0  -2 -15  843.01   45.05
   0  -2 -15  751.02   39.71
   0  -2 -16  147.92   15.12
   0  -2 -16  155.96   13.03
   0  -2 -17   38.76    8.22
   0  -2 -17   52.89    8.39
   0  -2 -17   65.04    8.79
   0  -2 -18   51.38    7.62
   0  -2 -18   60.39    7.84
   0  -2 -18   62.69    7.73
   0  -2 -19   48.98    5.72
   0  -1   0    2.91    3.91
   0  -1  -1 2033.54   85.80
   0  -1   1 2108.11   93.78
   0  -1   1 2123.10   92.18
   0  -1  -1 2149.03   90.13
   0  -1   1 2066.34   89.62
   0  -1  -1 2088.23   95.82
   0  -1  -1 2323.69   90.25
   0  -1  -2  327.85   21.13
   0  -1  -2  320.09   24.81
   0  -1   2  369.16   20.35
   0  -1  -2  326.22   19.31
   0  -1   2  376.88   25.47
   0  -1  -3 1070.50   53.45
   0  -1   3 1211.22   61.97
   0  -1   3 1116.90   48.45
   0  -1  -3 1095.65   54.08
   0  -1  -3 1153.62   60.13
   0  -1   3 1110.04   65.76
   0  -1  -4 2038.70   94.67
   0  -1   4 2259.75  105.08
   0  -1  -4 1955.49   93.22
   0  -1  -4 2059.72   99.22
   0  -1   4 2060.90  108.68
   0  -1  -5 2292.05  110.05
   0  -1   5 2658.78  123.99
   0  -1  -5 2278.07  113.77
   0  -1   5 2372.65  126.00
   0  -1  -6 1251.21   70.86
   0  -1   6 1250.32   80.27
   0  -1  -6 1433.04   74.84
   0  -1   6 1263.56   83.95
   0  -1  -7 1166.50   72.45
   0  -1   7 1379.22   87.12
   0  -1  -7 1309.54   73.48
   0  -1   7 1300.05   88.16
   0  -1  -8 1967.49  101.39
   0  -1  -8 1910.27  103.62
   0  -1   8 1840.90  117.82
   0  -1   9  386.92   47.46
   0  -1  -9  372.41   22.21
   0  -1  -9  380.45   21.01
   0  -1  -9  391.02   38.28
   0  -1 -10  678.99   56.19
   0  -1 -10  733.08   36.77
   0  -1  10  817.94   64.11
   0  -1 -10  674.70   34.04
   0  -1 -10  652.57   33.23
   0  -1 -10  722.45   35.00
   0  -1 -10  684.23   34.28
   0  -1 -10  736.90   36.68
   0  -1  10  697.66   69.43
   0  -1 -11  138.14   12.78
   0  -1  11  145.70   28.01
   0  -1 -11  130.16   10.56
   0  -1 -11  118.71   10.73
   0  -1 -11  135.38   14.05
   0  -1 -11  134.70   11.28
   0  -1  11  149.40   31.93
   0  -1 -12 1407.08   66.81
   0  -1 -12 1529.03   69.48
   0  -1  12 1379.21  101.27
   0  -1 -12 1388.66   63.20
   0  -1 -12 1366.73   63.92
   0  -1 -12 1446.92   69.67
   0  -1 -12 1432.05   64.73
   0  -1  12 1352.07  109.00
   0  -1 -13  383.15   23.49
   0  -1 -13  390.03   22.88
   0  -1 -13  431.00   24.43
   0  -1  13  404.65   52.13
   0  -1 -13  369.34   27.21
   0  -1 -13  413.52   24.47
   0  -1 -13  404.63   26.14
   0  -1 -13  400.27   27.40
   0  -1 -14  331.12   20.42
   0  -1 -14  316.12   20.86
   0  -1  14  315.84   55.87
   0  -1 -14  344.58   25.20
   0  -1  14  378.79   50.08
   0  -1 -14  347.59   21.58
   0  -1 -14  348.64   22.20
   0  -1 -14  376.22   25.69
   0  -1 -15   87.25    8.96
   0  -1 -15   96.89    9.94
   0  -1 -15  103.32   10.66
   0  -1 -15  103.43   12.73
   0  -1 -15  108.24   12.85
   0  -1 -16  170.85   13.04
   0  -1 -16  142.37   14.54
   0  -1 -16  181.12   16.14
   0  -1 -16  161.69   13.33
   0  -1 -17  221.58   17.46
   0  -1 -17  230.38   15.57
   0  -1 -18  344.52   20.99
   0  -1 -19  162.57   11.64
   0  -1 -19  177.66   13.89
   0   0  -1  606.33   26.25
   0   0   1  608.59   26.38
   0   0   1  590.48   28.37
   0   0  -1  672.22   28.26
   0   0   1  597.83   26.56
   0   0  -1  578.01   27.37
   0   0  -2  436.25   20.10
   0   0   2  431.90   25.34
   0   0  -2  437.68   21.76
   0   0   2  438.25   22.12
   0   0   2  432.27   22.57
   0   0  -2  428.09   20.94
   0   0  -2  418.51   23.63
   0   0  -2  480.60   25.18
   0   0   3  588.22   30.27
   0   0   3  624.74   36.22
   0   0  -3  548.00   29.35
   0   0  -3  588.79   27.08
   0   0  -3  577.12   28.57
   0   0   3  553.52   30.40
   0   0  -3  573.24   33.40
   0   0  -3  544.39   31.65
   0   0  -4  352.61   21.64
   0   0  -4  337.10   18.38
   0   0   4  329.24   27.33
   0   0  -4  310.58   19.44
   0   0   4  324.55   22.89
   0   0   4  311.22   25.51
   0   0  -4  316.31   23.66
   0   0   5 2160.41  106.88
   0   0  -5 2073.38   89.24
   0   0  -5 2167.33   95.11
   0   0   5 2047.64   97.03
   0   0   5 1997.58  102.46
   0   0  -5 2068.31   99.07
   0   0   6 3489.12  160.61
   0   0  -6 3204.55  136.38
   0   0  -6 3426.40  144.46
   0   0   6 3280.28  147.19
   0   0   6 3044.83  153.15
   0   0  -6 3159.48  148.93
   0   0  -7  129.34   15.89
   0   0   7  158.44   24.69
   0   0  -7  126.37   11.80
   0   0  -7  120.11   18.33
   0   0   7  135.61   17.77
   0   0   7  119.54   20.51
   0   0  -8  951.28   53.78
   0   0  -8  909.12   43.51
   0   0   8  984.44   70.96
   0   0  -8  944.76   60.13
   0   0   8  973.18   58.26
   0   0   8  955.87   64.51
   0   0  -9  222.72   29.24
   0   0   9  244.76   28.86
   0   0   9  225.61   31.46
   0   0  -9  245.46   18.44
   0   0   9  311.33   40.51
   0   0  10  534.68   52.75
   0   0 -10  536.00   50.20
   0   0  10  635.34   64.19
   0   0  10  632.48   51.43
   0   0 -10  606.11   30.03
   0   0 -10  631.01   30.51
   0   0 -10  598.14   29.68
   0   0 -10  565.13   30.73
   0   0 -11 1787.45   79.19
   0   0  11 2071.59  133.80
   0   0  11 1832.36  108.74
   0   0  11 1880.40  117.06
   0   0 -11 1873.82   78.51
   0   0 -11 1713.92   77.25
   0   0 -11 1703.15   78.71
   0   0 -11 1773.57   77.11
   0   0 -12  125.81   12.20
   0   0  12  145.20   33.75
   0   0  12  104.64   22.69
   0   0  12  119.73   27.95
   0   0 -12  121.50   11.15
   0   0 -12  150.82   11.74
   0   0 -12  113.38   11.40
   0   0 -12  125.07   10.83
   0   0 -13  574.54   33.24
   0   0  13  654.75   76.31
   0   0  13  571.90   56.62
   0   0  13  533.93   61.55
   0   0 -13  551.61   30.44
   0   0 -13  527.08   29.13
   0   0 -13  514.45   30.47
   0   0 -14  103.01   12.48
   0   0  14  143.76   36.59
   0   0  14  103.88   24.24
   0   0  14  115.80   28.43
   0   0 -14  103.57   10.87
   0   0 -14  107.88   10.34
   0   0 -14   98.20   11.10
   0   0 -15   39.50    8.12
   0   0  15   36.37   15.25
   0   0  15   54.21   24.02
   0   0  15   32.47   16.58
   0   0 -15   41.23    7.03
   0   0 -15   34.50    6.74
   0   0 -15   41.40    6.31
   0   0 -16  372.22   23.72
   0   0 -16  375.59   22.14
   0   0 -16  411.36   24.42
   0   0 -16  420.38   24.44
   0   0 -16  376.25   25.02
   0   0 -17  390.66   24.21
   0   0 -17  453.49   24.61
   0   0 -17  462.77   25.47
   0   0 -17  417.20   25.79
   0   0 -17  489.43   25.97
   0   0 -18    8.36    3.09
   0   0 -18   10.35    3.63
   0   0 -18    7.30    3.63
   0   0 -18    7.90    3.37
   0   0 -19   96.46    7.82
   0   0 -19  105.96    8.26
   0   0 -19  102.52    9.71
   0   0 -20   15.70    2.98
   0   1   0    2.65    2.11
   0   1  -1 1912.66   81.28
   0   1  -1 2105.90   90.23
   0   1  -1 1758.27   75.84
   0   1  -1 1976.55   78.76
   0   1  -1 1811.36   75.81
   0   1  -2  310.66   26.75
   0   1  -2  294.53   17.77
   0   1  -2  286.63   15.77
   0   1  -2  302.12   18.01
   0   1   3  823.61   37.80
   0   1  -3  886.14   55.77
   0   1  -3  909.50   44.97
   0   1   3  927.74   41.33
   0   1  -3 1003.56   43.83
   0   1   3  828.32   38.80
   0   1   4 1968.36   86.45
   0   1  -4 2294.56   93.79
   0   1   4 2211.27  103.21
   0   1  -4 2265.46   97.06
   0   1  -4 2255.75  111.91
   0   1   4 2218.14   90.85
   0   1   4 1938.68   85.71
   0   1  -5 2515.86  104.84
   0   1   5 2248.54   95.82
   0   1   5 2223.52  115.35
   0   1   5 2343.83  107.23
   0   1   5 2359.11  101.08
   0   1   5 2137.26   97.01
   0   1  -5 2381.14  108.37
   0   1  -6 1322.67   67.13
   0   1   6 1302.29   79.42
   0   1  -6 1306.94   67.33
   0   1   6 1381.00   65.45
   0   1   6 1363.30   72.42
   0   1   6 1270.36   61.96
   0   1  -6 1283.40   72.49
   0   1  -7 1309.06   66.24
   0   1  -7 1306.62   67.97
   0   1   7 1308.29   82.59
   0   1   7 1402.67   73.42
   0   1   7 1106.35   60.71
   0   1  -7 1224.56   73.16
   0   1   8 2078.11  110.36
   0   1  -8 2015.93  111.28
   0   1  -8 2136.92  105.16
   0   1  -8 2156.32  101.75
   0   1   8 2053.15  123.65
   0   1  -9  437.98   40.36
   0   1  -9  395.80   34.26
   0   1   9  415.53   47.26
   0   1  -9  423.47   31.29
   0   1   9  360.29   36.06
   0   1  -9  376.05   20.35
   0   1  -9  361.39   20.34
   0   1  -9  388.90   20.85
   0   1  -9  358.20   20.37
   0   1  -9  385.76   20.81
   0   1  -9  358.04   20.15
   0   1 -10  700.13   57.96
   0   1 -10  735.06   52.92
   0   1 -10  660.79   45.24
   0   1  10  714.90   69.16
   0   1 -10  707.85   34.51
   0   1  10  743.69   57.66
   0   1 -10  747.44   35.55
   0   1 -10  740.72   35.32
   0   1  10  746.23   62.83
   0   1 -10  723.74   34.42
   0   1 -10  713.03   34.64
   0   1 -10  766.81   35.81
   0   1 -10  663.81   33.71
   0   1 -10  765.54   35.94
   0   1 -10  724.05   35.18
   0   1 -10  701.52   34.18
   0   1 -11  129.50   21.79
   0   1  11  112.72   28.80
   0   1  11  116.49   23.29
   0   1 -11  120.87   10.19
   0   1 -11  145.39   11.33
   0   1  11  108.18   25.07
   0   1 -11  141.08   11.34
   0   1 -11  125.06   10.93
   0   1 -11  115.89   10.28
   0   1 -11  135.45   10.57
   0   1 -11  120.97    9.85
   0   1 -11  128.25   11.17
   0   1 -11  127.07   10.13
   0   1 -11  128.06   10.79
   0   1 -11  140.06   12.37
   0   1 -12 1400.07   64.29
   0   1  12 1504.01  117.54
   0   1 -12 1322.29   61.16
   0   1  12 1392.84   94.74
   0   1 -12 1379.30   62.43
   0   1  12 1320.36  100.61
   0   1 -12 1408.01   62.96
   0   1 -12 1382.35   61.80
   0   1 -12 1271.18   60.81
   0   1 -12 1323.85   60.60
   0   1 -12 1426.91   65.18
   0   1 -12 1458.78   62.77
   0   1 -13  350.99   23.44
   0   1  13  382.55   57.24
   0   1  13  345.83   44.85
   0   1  13  334.64   48.45
   0   1 -13  354.94   21.05
   0   1 -13  353.81   21.26
   0   1 -13  384.36   23.18
   0   1 -13  406.65   24.80
   0   1 -13  319.79   19.92
   0   1 -13  363.88   22.11
   0   1 -14  352.65   23.59
   0   1  14  282.00   41.71
   0   1  14  315.90   54.40
   0   1  14  377.66   52.04
   0   1 -14  374.35   24.72
   0   1 -14  392.91   23.02
   0   1 -14  376.02   23.43
   0   1 -15  112.13   10.69
   0   1 -15  103.92   11.83
   0   1 -16  179.19   13.32
   0   1 -16  150.17   14.00
   0   1 -17  254.91   18.07
   0   1 -17  267.15   16.50
   0   1 -17  278.44   17.76
   0   1 -18  351.18   19.26
   0   1 -18  319.31   19.64
   0   1 -18  353.09   19.58
   0   1 -19  167.59   11.89
   0   1 -19  191.51   11.40
   0   2   0  657.33   33.03
   0   2   0  676.15   34.03
   0   2  -1 2303.40   99.81
   0   2  -1 2518.29  106.26
   0   2  -1 2644.02  127.57
   0   2  -2 2331.19  100.58
   0   2  -2 2250.54   93.90
   0   2  -2 2482.96  123.79
   0   2   2 2165.20   92.38
   0   2  -3  415.62   23.23
   0   2  -3  462.68   28.47
   0   2  -3  451.16   43.31
   0   2   3  388.52   24.57
   0   2   4 2261.30  102.39
   0   2  -4 2526.10  108.51
   0   2   4 2429.01  105.20
   0   2   4 2222.02  106.04
   0   2  -4 2477.76  135.42
   0   2   5  390.45   29.96
   0   2   5  397.66   26.31
   0   2   5  334.62   20.83
   0   2  -5  433.32   29.36
   0   2  -5  360.31   28.46
   0   2  -6  230.86   36.20
   0   2   6  194.68   22.72
   0   2   6  231.40   19.99
   0   2   6  239.62   30.41
   0   2  -6  275.80   23.58
   0   2  -6  212.89   23.15
   0   2   7 1616.81   89.11
   0   2  -7 1528.30  112.12
   0   2  -7 1656.26   87.87
   0   2  -7 1567.54   83.03
   0   2   7 1668.71  101.58
   0   2   7 1592.40   89.76
   0   2   7 1492.32   77.76
   0   2   8  298.74   31.54
   0   2  -8  205.12   13.91
   0   2   8  249.36   29.89
   0   2  -8  194.60   39.03
   0   2  -8  223.94   24.50
   0   2   8  268.71   37.18
   0   2  -8  217.41   25.29
   0   2  -8  234.77   14.39
   0   2  -8  216.16   14.12
   0   2  -8  217.78   13.93
   0   2  -8  216.04   15.34
   0   2  -8  224.44   14.05
   0   2  -8  231.45   14.40
   0   2   9 1673.60   95.82
   0   2   9 1545.20   95.62
   0   2  -9 1535.80   66.95
   0   2  -9 1505.10   86.49
   0   2  -9 1567.26   87.36
   0   2   9 1595.99  108.49
   0   2  -9 1538.65   66.75
   0   2  -9 1502.13   66.80
   0   2  -9 1469.49   66.32
   0   2  -9 1504.71   66.68
   0   2  -9 1480.17   68.74
   0   2  10 1017.46   72.03
   0   2 -10  934.49   44.35
   0   2  10  941.78   72.76
   0   2 -10  943.70   44.62
   0   2 -10  974.13   63.24
   0   2  10  917.76   82.83
   0   2 -10  942.48   64.12
   0   2 -10  917.17   44.35
   0   2 -10  937.57   44.65
   0   2 -10  896.05   44.03
   0   2 -10  903.24   43.93
   0   2 -10  927.31   44.53
   0   2 -10  960.82   46.86
   0   2 -11  404.15   23.37
   0   2  11  424.29   46.01
   0   2 -11  373.29   36.51
   0   2  11  377.16   55.12
   0   2 -11  418.40   40.58
   0   2  11  309.36   42.72
   0   2 -11  407.15   23.74
   0   2 -11  403.70   22.91
   0   2 -11  398.28   23.35
   0   2 -11  418.28   24.19
   0   2 -11  433.92   24.26
   0   2 -11  413.13   25.60
   0   2 -11  393.67   23.61
   0   2 -11  395.74   23.52
   0   2 -11  386.80   22.87
   0   2 -12  285.51   18.47
   0   2  12  221.01   34.93
   0   2  12  217.21   42.78
   0   2 -12  292.42   34.41
   0   2 -12  293.37   19.18
   0   2  12  224.76   38.17
   0   2 -12  264.22   17.07
   0   2 -12  270.51   18.84
   0   2 -12  296.03   19.32
   0   2 -12  270.64   17.75
   0   2 -12  300.84   18.98
   0   2 -12  277.90   18.87
   0   2 -12  308.06   21.34
   0   2 -12  277.34   18.80
   0   2 -12  284.35   18.18
   0   2  13   38.27   15.44
   0   2 -13   73.01    8.52
   0   2 -13   86.51    9.49
   0   2  13  107.61   25.83
   0   2 -13   77.28   18.41
   0   2  13   90.91   29.86
   0   2 -13   79.26    8.90
   0   2 -13   77.59    8.17
   0   2 -13   80.47    9.38
   0   2 -13   71.62    8.97
   0   2 -13   75.89   10.13
   0   2 -13   74.48    9.00
   0   2 -13   74.95    8.37
   0   2 -14  220.68   15.54
   0   2  14  215.76   35.53
   0   2  14  212.90   44.49
   0   2  14  209.86   36.84
   0   2 -14  202.61   14.62
   0   2 -14  238.35   18.52
   0   2 -14  231.66   16.55
   0   2 -14  197.20   15.13
   0   2 -14  239.67   17.03
   0   2 -15  848.40   42.44
   0   2 -15  874.66   41.71
   0   2 -15  850.02   42.98
   0   2 -16  174.24   12.95
   0   2 -16  158.08   13.14
   0   2 -17   65.78    7.02
   0   2 -17   70.91    7.67
   0   2 -18   55.32    5.78
   0   2 -18   46.27    5.59
   0   2 -18   48.97    6.38
   0   2 -19   46.88    4.53
   0   3   0   -2.73    8.84
   0   3   0    1.05    1.82
   0   3   0    1.02    3.75
   0   3  -1  472.01   32.64
   0   3   1  405.72   27.27
   0   3  -2 1436.33  100.73
   0   3  -2 1514.41   74.89
   0   3   2 1351.42   69.74
   0   3  -3 2520.94  150.36
   0   3  -3 2477.14  117.23
   0   3  -4  625.33   64.43
   0   3  -4  630.67   42.25
   0   3  -5  431.04   55.79
   0   3  -5  457.88   35.81
   0   3   5  513.58   35.40
   0   3  -6  278.13   44.52
   0   3   6  224.71   33.33
   0   3  -6  261.62   25.86
   0   3  -6  237.99   14.62
   0   3   6  212.41   22.13
   0   3   7  154.02   24.65
   0   3  -7  193.90   40.64
   0   3   7  199.64   32.71
   0   3  -7  208.20   27.96
   0   3  -7  189.99   22.86
   0   3  -7  172.89   12.42
   0   3  -7  166.54   13.50
   0   3  -7  181.40   12.47
   0   3  -7  170.48   11.99
   0   3  -7  191.60   12.94
   0   3   8 2272.43  120.13
   0   3  -8 1942.27  146.43
   0   3   8 1970.17  129.39
   0   3  -8 1780.63  103.82
   0   3  -8 2184.91  116.12
   0   3  -8 1950.28   84.65
   0   3  -8 2043.96   85.50
   0   3  -8 2026.42   85.26
   0   3  -8 1992.40   87.33
   0   3  -8 1870.66   83.84
   0   3  -8 1914.57   84.49
   0   3   9  728.09   61.37
   0   3  -9  709.58   35.48
   0   3  -9  653.49   80.75
   0   3   9  717.75   72.12
   0   3  -9  713.62   57.69
   0   3  -9  610.30   50.58
   0   3  -9  666.93   34.64
   0   3  -9  682.82   35.23
   0   3  -9  701.74   35.21
   0   3  -9  739.60   37.71
   0   3  -9  650.89   34.40
   0   3  10  251.88   37.24
   0   3  10  271.97   45.53
   0   3 -10  230.90   29.95
   0   3 -10  253.87   33.14
   0   3 -10  290.28   18.96
   0   3 -10  291.82   19.02
   0   3 -10  281.32   18.85
   0   3 -10  276.18   18.37
   0   3 -10  272.17   18.44
   0   3 -10  314.10   21.01
   0   3 -10  254.31   17.76
   0   3  11  104.09   23.69
   0   3 -11   84.81    9.49
   0   3 -11   65.74   16.25
   0   3  11   87.08   26.58
   0   3 -11   79.36    9.28
   0   3 -11   77.33   17.80
   0   3 -11   81.93    9.41
   0   3 -11   95.36    9.97
   0   3 -11   90.33    9.66
   0   3 -11   84.93    9.32
   0   3 -11   88.15   10.87
   0   3 -12  383.52   23.45
   0   3  12  307.43   43.62
   0   3 -12  392.67   23.98
   0   3 -12  384.37   23.83
   0   3 -12  309.67   37.38
   0   3 -12  328.27   37.92
   0   3  12  337.36   54.28
   0   3 -12  382.17   23.47
   0   3 -12  364.82   22.70
   0   3 -12  405.69   23.79
   0   3 -12  394.97   23.89
   0   3 -12  409.20   25.98
   0   3 -12  373.79   22.95
   0   3 -12  383.79   23.52
   0   3 -13  207.79   15.07
   0   3 -13  171.70   14.24
   0   3 -13  175.22   14.48
   0   3 -13  164.18   13.42
   0   3 -13  209.30   15.56
   0   3 -13  190.09   14.37
   0   3 -13  191.59   16.46
   0   3 -13  203.30   15.14
   0   3 -13  210.70   15.75
   0   3 -13  199.70   15.35
   0   3 -14  996.02   48.67
   0   3 -14 1063.24   50.03
   0   3 -14 1048.61   50.00
   0   3 -14  995.00   48.97
   0   3 -14 1090.62   50.00
   0   3 -14 1073.95   52.32
   0   3 -14 1003.73   48.18
   0   3 -14 1048.75   49.92
   0   3 -15   41.64    6.03
   0   3 -15   33.25    5.80
   0   3 -15   43.94    7.60
   0   3 -15   44.75    6.55
   0   3 -16   56.55    6.73
   0   3 -16   50.00    6.38
   0   3 -16   63.00    7.87
   0   3 -17   45.52    5.21
   0   3 -17   37.80    4.83
   0   3 -17   33.77    5.37
   0   3 -18   25.57    3.26
   0   3 -18   33.20    4.13
   0   4   0 2477.42  153.24
   0   4   0 2128.37  112.21
   0   4  -1  331.99   51.60
   0   4   1  339.78   49.19
   0   4   1  269.67   28.64
   0   4  -1  370.32   32.16
   0   4  -2  493.13   62.52
   0   4   2  448.97   56.67
   0   4  -2  456.87   37.11
   0   4   2  388.44   35.83
   0   4  -3  354.40   54.47
   0   4  -3  347.74   32.04
   0   4  -4  433.17   62.18
   0   4  -4  405.02   35.88
   0   4  -5  973.21   97.94
   0   4  -5 1036.70   76.22
   0   4   5  892.77   76.19
   0   4  -5  909.39   61.40
   0   4  -6  796.73   90.47
   0   4   6  721.55   70.31
   0   4  -6  854.82   59.04
   0   4  -6  823.69   39.69
   0   4  -6  843.86   40.05
   0   4   7  277.23   38.90
   0   4  -7  274.12   53.93
   0   4  -7  293.40   32.58
   0   4  -7  328.29   40.95
   0   4   7  286.88   43.94
   0   4  -7  312.64   19.05
   0   4  -7  311.75   19.13
   0   4  -7  310.56   19.53
   0   4   8  323.65   42.00
   0   4  -8  347.76   61.31
   0   4  -8  326.00   41.41
   0   4  -8  281.20   33.11
   0   4  -8  368.96   21.88
   0   4  -8  356.14   20.97
   0   4  -8  332.82   20.98
   0   4  -8  331.75   21.95
   0   4  -8  327.00   20.40
   0   4   9  263.43   38.88
   0   4  -9  296.61   19.71
   0   4  -9  251.84   53.03
   0   4  -9  258.65   36.69
   0   4  -9  293.37   33.83
   0   4  -9  307.53   19.78
   0   4  -9  296.65   19.04
   0   4  -9  282.04   20.18
   0   4  -9  290.72   18.78
   0   4  -9  281.12   18.93
   0   4  10  665.63   66.60
   0   4 -10  811.86   41.47
   0   4 -10  677.56   57.71
   0   4 -10  738.69   65.81
   0   4 -10  825.21   41.71
   0   4 -10  843.18   41.61
   0   4 -10  848.22   40.91
   0   4 -10  822.03   42.65
   0   4 -10  795.79   40.22
   0   4 -10  837.65   41.22
   0   4 -11  245.26   17.50
   0   4 -11  257.87   18.03
   0   4 -11  248.01   17.91
   0   4 -11  250.84   17.10
   0   4 -11  236.14   18.33
   0   4 -11  235.59   16.98
   0   4 -11  254.24   17.85
   0   4 -11  250.28   18.03
   0   4 -12   68.87    8.71
   0   4 -12   81.30    9.05
   0   4 -12   70.98    8.78
   0   4 -12   73.25    8.46
   0   4 -12   78.94    8.92
   0   4 -12   83.08    9.16
   0   4 -12   88.00    9.69
   0   4 -12   75.98    9.74
   0   4 -12   90.04    9.13
   0   4 -12   80.52    9.20
   0   4 -13  192.24   14.26
   0   4 -13  201.62   14.11
   0   4 -13  198.01   14.02
   0   4 -13  191.75   14.35
   0   4 -13  187.14   14.30
   0   4 -13  171.62   14.80
   0   4 -13  218.47   15.15
   0   4 -13  193.99   14.12
   0   4 -13  202.55   14.75
   0   4 -14   38.51    5.74
   0   4 -14   38.72    5.55
   0   4 -14   43.98    6.08
   0   4 -14   39.38    6.35
   0   4 -15  125.63    9.51
   0   4 -15  118.15    9.03
   0   4 -15  122.98   10.23
   0   4 -16  279.69   14.65
   0   4 -16  285.76   15.80
   0   5   0    5.33    9.26
   0   5   0    8.73    8.75
   0   5  -1  731.38   65.91
   0   5   1  679.75   61.68
   0   5  -1  698.78   84.17
   0   5  -2  224.22   36.32
   0   5  -2  278.23   52.04
   0   5  -3    5.86   14.37
   0   5  -3    3.24    7.95
   0   5  -4  259.28   53.00
   0   5  -4  310.25   42.62
   0   5  -5  345.55   61.65
   0   5  -5  332.29   45.31
   0   5  -5  358.52   21.10
   0   5  -6  175.50   32.20
   0   5  -6  144.32   40.77
   0   5  -6  220.57   15.42
   0   5  -6  199.76   14.33
   0   5  -7  384.22   64.61
   0   5  -7  312.05   42.95
   0   5  -7  364.34   21.90
   0   5  -7  352.43   21.24
   0   5  -7  312.00   19.83
   0   5  -8   45.65    7.00
   0   5  -8   37.07    6.14
   0   5  -8   40.87    5.86
   0   5  -8   49.22    7.19
   0   5  -9  123.50   11.34
   0   5  -9  116.94   10.58
   0   5  -9   87.37    9.22
   0   5  -9   89.74    8.95
   0   5  -9  124.41   11.08
   0   5 -10  318.49   19.93
   0   5 -10  343.46   21.11
   0   5 -10  322.69   20.34
   0   5 -10  286.21   18.79
   0   5 -10  338.77   20.53
   0   5 -10  350.79   21.19
   0   5 -11   25.04    5.27
   0   5 -11   25.39    4.91
   0   5 -11   32.72    5.74
   0   5 -11   22.51    4.27
   0   5 -11   18.61    4.87
   0   5 -11   27.35    5.19
   0   5 -12  366.93   21.08
   0   5 -12  355.15   20.30
   0   5 -12  360.93   20.67
   0   5 -12  376.40   21.10
   0   5 -12  369.40   20.99
   0   5 -12  379.58   21.30
   0   5 -12  376.18   20.90
   0   5 -13   76.74    7.15
   0   5 -13   84.32    7.53
   0   5 -13   83.59    7.53
   0   5 -13   62.15    6.58
   0   5 -13   72.08    7.18
   0   5 -14    6.71    2.25
   0   5 -14    5.90    2.24
   0   6  -5  260.29   16.66
   0   6  -6  275.13   17.05
   0   6  -6  276.57   17.49
   0   6  -7  110.38    9.57
   0   6  -7  127.19   10.72
   0   6  -7  122.29   10.20
   0   6  -8    9.73    3.00
   0   6  -8    9.78    3.59
   0   6  -8   17.46    4.14
   0   6  -8   12.80    3.39
   0   6  -9  101.47    9.38
   0   6  -9   93.42    7.97
   0   6  -9  113.07    9.47
   0   6  -9  118.88    9.37
   0   6  -9  109.40    8.77
   0   6  -9  113.08    9.38
   0   6 -10  187.33   12.07
   0   6 -10  182.62   11.96
   0   6 -10  178.13   11.48
   0   6 -10  194.25   12.00
   0   6 -10  176.47   11.07
   0   6 -11  224.87   13.08
   0   6 -11  202.14   12.61
   0   6 -11  220.35   13.02
   0   6 -11  224.93   12.70
   0   6 -11  243.36   13.19
   0   7  -4    1.21    1.52
   0   7  -5   68.39    5.79
   0   7  -5   69.04    6.06
   0   7  -6    9.57    2.30
   0   7  -6   12.27    2.69
  -1  -7   7   65.74    7.10
  -1  -7   6    4.50    2.12
  -1  -7   6   10.39    4.42
  -1  -7   6   10.24    2.60
  -1  -7   5    0.89    2.12
  -1  -7   5    5.03    4.43
  -1  -7   5    3.26    2.36
  -1  -7   4   58.54    9.52
  -1  -7   4   47.67    5.81
  -1  -7   4   48.22    5.86
  -1  -7   3  124.28   13.98
  -1  -7   3  127.22   10.08
   1  -7  -3  106.30    9.76
  -1  -7   3  147.49   10.61
  -1  -7   2  223.61   14.77
  -1  -7   2  234.46   15.03
   1  -7  -2  239.06   15.48
  -1  -7   1   19.99    6.71
  -1  -7   1   17.28    4.18
   1  -7   0   74.40   10.34
  -1  -7   0   64.90   10.46
  -1  -7   0   74.87    7.87
  -1  -7  -1   48.99    8.63
   1  -7   1   42.50    8.54
  -1  -7  -1   50.25    6.45
  -1  -7  -2   59.27    6.79
  -1  -7  -2   58.41    6.77
  -1  -7  -3  204.67   13.66
   1  -7   4  166.08   15.69
   1  -7   5   32.60    6.99
   1  -7   6    5.14    3.62
   1  -7   7   10.39    3.32
   1  -7   7   13.71    2.64
  -1  -6  11   54.04    8.19
  -1  -6  11   48.40    4.92
  -1  -6  10  178.43   11.73
  -1  -6  10  168.76   15.67
  -1  -6  10  156.96   11.01
  -1  -6   9   92.52   11.30
  -1  -6   9  108.71    9.26
  -1  -6   8    2.58    5.06
  -1  -6   8    6.29    3.26
  -1  -6   7  178.72   19.14
  -1  -6   7  185.25   13.82
  -1  -6   6   49.96   11.86
  -1  -6   6   43.39   10.98
  -1  -6   6   53.57   10.22
  -1  -6   6   54.04    7.60
   1  -6  -6   83.74    9.68
   1  -6  -6   47.91    9.91
  -1  -6   5  400.63   23.82
  -1  -6   5  397.83   31.75
  -1  -6   5  328.41   28.98
   1  -6  -5  332.85   27.11
   1  -6  -5  354.65   23.33
  -1  -6   5  344.32   22.02
   1  -6  -4  152.08   14.00
  -1  -6   4  217.74   23.03
  -1  -6   4  179.69   14.98
  -1  -6   4  193.54   21.19
   1  -6  -4  184.87   15.42
   1  -6  -4  129.31   16.82
  -1  -6   3  163.38   14.31
   1  -6  -3  124.15   16.00
  -1  -6   3  190.10   22.00
   1  -6  -3  127.25   12.77
  -1  -6   3  138.57   17.96
   1  -6  -3  148.27   14.05
   1  -6  -3  141.76   17.73
   1  -6  -2   12.95    4.86
   1  -6  -2   13.00    7.29
  -1  -6   2    2.16    5.94
   1  -6  -2   15.71    5.46
   1  -6  -2   11.26    7.45
  -1  -6   1  320.06   29.65
   1  -6  -1  379.14   29.99
   1  -6  -1  351.45   22.34
  -1  -6   1  299.73   21.86
  -1  -6   0  149.20   19.53
   1  -6   0  166.33   14.30
   1  -6   0  185.87   21.06
  -1  -6   0  167.07   14.89
   1  -6   1  691.78   45.13
  -1  -6  -1  658.08   35.77
   1  -6   1  591.69   34.08
  -1  -6  -1  587.27   42.26
   1  -6   1  648.28   40.10
  -1  -6  -1  691.00   36.43
  -1  -6  -2  296.75   19.88
   1  -6   2  220.05   17.22
  -1  -6  -2  266.34   24.41
   1  -6   2  230.27   25.30
   1  -6   2  208.42   21.26
  -1  -6  -2  281.53   19.80
   1  -6   3   34.85    6.55
  -1  -6  -3   43.89   10.24
  -1  -6  -3   58.51    8.51
   1  -6   3   36.74   10.13
  -1  -6  -3   55.45    8.53
  -1  -6  -4  140.04   13.13
  -1  -6  -4  125.38   15.63
   1  -6   4  155.86   12.83
   1  -6   4  161.25   18.56
  -1  -6  -4  137.11   13.33
  -1  -6  -5  128.23   12.55
   1  -6   5  133.50   18.49
   1  -6   5  141.19   11.84
   1  -6   5  135.93   17.04
  -1  -6  -5  116.91   12.17
   1  -6   6  245.74   23.49
   1  -6   6  286.20   25.50
   1  -6   7  176.03   18.81
   1  -6   7  163.10   18.31
   1  -6   7  168.55   13.50
   1  -6   8   43.67    9.38
   1  -6   8   48.82   10.13
   1  -6   8   44.08    6.61
   1  -6   9   13.74    5.42
   1  -6   9   10.88    5.74
   1  -6   9   16.14    4.19
   1  -6  10   58.33    7.65
   1  -6  10  103.95    8.26
   1  -6  11   39.97    6.86
   1  -6  11   41.54    4.83
   1  -6  12   60.39    4.90
   1  -5 -15   22.91    3.45
   1  -5 -14    4.18    3.26
  -1  -5  14    4.57    1.99
   1  -5 -13   25.24    5.68
  -1  -5  13   24.17    4.20
   1  -5 -12  321.10   21.71
  -1  -5  12  341.91   25.34
  -1  -5  12  323.01   19.38
   1  -5 -11  776.14   40.66
  -1  -5  11  771.48   46.07
  -1  -5  11  701.22   36.98
  -1  -5  10   86.65   12.35
   1  -5 -10   89.61   11.48
  -1  -5  10  104.69   15.99
  -1  -5  10   94.18    9.96
  -1  -5   9  100.49   14.78
  -1  -5   9  114.85   17.64
  -1  -5   9  117.03   11.46
  -1  -5   8    7.26    6.48
   1  -5  -8    6.11    4.55
  -1  -5   8    7.06    4.21
  -1  -5   8    1.38    8.29
  -1  -5   7  141.30   18.79
   1  -5  -7   93.02   11.71
   1  -5  -7   95.27   13.32
  -1  -5   7   89.53   21.62
   1  -5  -7  112.68   12.44
  -1  -5   7   95.29   10.84
  -1  -5   7   99.19   16.96
  -1  -5   7  101.13   30.87
  -1  -5   6  911.77   74.79
  -1  -5   6  984.60   48.51
   1  -5  -6 1013.13   50.40
  -1  -5   6  899.82   95.14
  -1  -5   6  962.44   56.81
   1  -5  -6  990.81   49.41
   1  -5  -6  953.67   52.89
   1  -5  -6  882.88   48.68
  -1  -5   6 1048.50   61.21
   1  -5  -5  245.77   34.92
  -1  -5   5  218.34   33.81
   1  -5  -5  273.42   24.82
   1  -5  -5  235.53   18.68
  -1  -5   5  226.06   17.31
  -1  -5   5  230.18   25.08
  -1  -5   5  163.22   38.28
  -1  -5   5  254.14   24.13
  -1  -5   5  278.70   27.30
   1  -5  -5  197.72   19.60
   1  -5  -5  224.80   17.92
   1  -5  -5  196.10   19.51
  -1  -5   4  215.88   33.36
   1  -5  -4  207.82   33.01
  -1  -5   4  277.64   19.09
   1  -5  -4  266.93   20.09
   1  -5  -4  296.68   26.16
  -1  -5   4  307.76   28.70
  -1  -5   4  202.51   40.66
  -1  -5   4  298.72   28.82
   1  -5  -4  252.03   23.55
   1  -5  -4  252.12   22.10
   1  -5  -4  270.69   19.69
   1  -5  -3  280.74   37.71
   1  -5  -3  324.15   28.43
   1  -5  -3  345.34   23.39
  -1  -5   3  341.63   22.08
  -1  -5   3  305.06   27.37
  -1  -5   3  296.07   46.27
  -1  -5   3  361.30   30.59
   1  -5  -3  324.29   25.49
   1  -5  -3  349.74   22.77
  -1  -5   3  373.84   32.73
  -1  -5   2   16.98   11.81
   1  -5  -2   15.84   10.77
  -1  -5   2   19.92    5.29
   1  -5  -2   20.22    9.27
  -1  -5   2   17.05    8.49
   1  -5  -2   22.63    7.25
  -1  -5   2   23.15    8.91
  -1  -5   2   27.57   10.04
   1  -5  -2   27.27    6.19
   1  -5  -2   20.46    6.78
   1  -5  -1  956.47   74.24
  -1  -5   1  971.57   49.33
   1  -5  -1 1072.12   59.97
   1  -5  -1 1057.94   56.52
  -1  -5   1 1086.75   53.67
  -1  -5   1 1019.56   57.33
  -1  -5   1 1053.19   58.70
   1  -5  -1  955.84   53.85
   1  -5  -1 1036.92   50.35
  -1  -5   0  223.95   40.94
  -1  -5   0  208.82   32.98
   1  -5   0  282.37   36.52
   1  -5   0  341.10   21.32
   1  -5   0  353.15   29.10
  -1  -5   0  280.91   25.23
  -1  -5   0  283.23   24.93
  -1  -5   0  273.36   21.66
   1  -5   0  313.24   26.10
   1  -5   0  325.53   23.61
  -1  -5   0  290.85   27.82
  -1  -5   0  283.92   20.62
   1  -5   0  315.38   20.80
  -1  -5  -1  135.02   32.44
  -1  -5  -1  157.63   28.11
   1  -5   1  128.44   24.06
   1  -5   1  129.11   17.87
  -1  -5  -1  158.91   17.46
   1  -5   1  143.84   15.73
   1  -5   1  156.31   18.57
  -1  -5  -1  160.42   15.35
  -1  -5  -1  154.80   17.19
   1  -5   1  131.06   12.79
  -1  -5  -1  188.27   15.28
  -1  -5  -1  160.74   19.97
   1  -5   2  686.29   60.36
  -1  -5  -2  714.45   63.76
  -1  -5  -2  790.66   80.44
  -1  -5  -2  804.65   49.93
   1  -5   2  781.13   40.06
  -1  -5  -2  767.02   40.84
  -1  -5  -2  717.99   44.83
  -1  -5  -2  805.56   41.57
  -1  -5  -2  755.65   44.12
   1  -5   2  810.80   49.34
   1  -5   2  733.20   43.93
  -1  -5  -2  774.62   41.68
  -1  -5  -3    4.52   11.10
  -1  -5  -3    5.57    8.37
  -1  -5  -3    5.10    4.08
   1  -5   3    6.97    4.23
  -1  -5  -3    8.10    6.52
   1  -5   3    9.98    7.50
  -1  -5  -3   15.77    6.24
  -1  -5  -3   11.29    4.90
  -1  -5  -3   13.38    4.89
   1  -5   3   21.19    9.62
   1  -5   3    7.37    6.92
  -1  -5  -4   18.46   14.98
  -1  -5  -4    5.63    7.72
  -1  -5  -4   10.93    4.99
  -1  -5  -4    3.26    5.17
   1  -5   4   -2.49    4.32
  -1  -5  -4    3.39    4.07
  -1  -5  -4   18.01    5.14
  -1  -5  -5  499.45   35.02
  -1  -5  -5  574.38   31.99
  -1  -5  -5  541.24   31.95
  -1  -5  -5  467.14   51.22
   1  -5   5  467.47   48.40
  -1  -5  -6   92.71   27.99
  -1  -5  -6   51.33   16.63
  -1  -5  -6   59.39   10.45
  -1  -5  -6   80.74   10.39
   1  -5   6   63.72   16.69
  -1  -5  -6   73.33   10.40
   1  -5   6   82.08   15.57
  -1  -5  -7  659.79   36.73
   1  -5   7  734.43   47.37
  -1  -5  -7  613.74   35.72
   1  -5   8  253.00   18.51
  -1  -5  -8  214.16   18.44
   1  -5   9   18.15    5.45
   1  -5  10   56.11    8.18
   1  -5  10   46.62    9.78
   1  -5  11  139.56   12.31
   1  -5  12   87.06    8.91
   1  -5  13  350.83   19.10
   1  -5  13  291.14   22.68
   1  -5  14   16.58    3.15
   1  -5  14   12.32    4.27
   1  -4 -17    8.89    2.65
  -1  -4  16   79.86    6.64
   1  -4 -16   94.52    9.26
  -1  -4  15   71.05    7.28
  -1  -4  14  153.12   12.34
   1  -4 -13  172.84   15.26
  -1  -4  13  203.41   15.14
   1  -4 -13  169.18   17.46
  -1  -4  13  163.57   17.72
   1  -4 -13  165.59   16.67
   1  -4 -12   33.68    7.36
   1  -4 -12   40.49    9.58
   1  -4 -12   38.98    8.05
  -1  -4  12   53.48   11.45
   1  -4 -12   36.44    8.72
   1  -4 -11  266.91   24.65
   1  -4 -11  291.36   21.61
   1  -4 -11  303.56   21.78
  -1  -4  11  324.62   28.36
   1  -4 -11  264.14   23.48
  -1  -4  10  760.87   68.96
   1  -4 -10  859.61   49.34
   1  -4 -10  839.59   45.34
   1  -4 -10  971.79   52.92
   1  -4 -10  765.19   44.13
  -1  -4  10  945.98   55.53
  -1  -4   9  103.95   15.40
   1  -4  -9  127.26   15.56
  -1  -4   9  103.38   23.62
   1  -4  -9  125.48   13.02
   1  -4  -9  108.75   12.57
   1  -4  -9  118.21   15.81
  -1  -4   9  108.63   17.24
  -1  -4   9   93.99   32.53
  -1  -4   8   96.85   15.24
   1  -4  -8   99.61   13.87
  -1  -4   8   88.29   21.31
   1  -4  -8  100.45   11.71
   1  -4  -8  128.82   12.82
   1  -4  -8  114.18   15.43
  -1  -4   8   88.82   10.53
   1  -4  -8   96.20   11.20
  -1  -4   8  107.52   32.04
  -1  -4   8   80.11   13.40
   1  -4  -7  222.15   41.08
  -1  -4   7  240.75   34.25
   1  -4  -7  211.37   17.50
   1  -4  -7  235.19   18.21
   1  -4  -7  214.53   17.06
  -1  -4   7  285.94   18.69
   1  -4  -7  207.10   21.70
  -1  -4   7  259.87   23.17
  -1  -4   7  181.76   42.46
   1  -4  -7  210.28   20.18
  -1  -4   7  307.70   26.74
  -1  -4   6  237.96   32.83
   1  -4  -6  264.05   42.90
   1  -4  -6  213.57   30.75
   1  -4  -6  212.52   17.24
   1  -4  -6  226.11   21.84
  -1  -4   6  275.96   17.96
  -1  -4   6  226.76   21.97
  -1  -4   6  210.07   43.47
   1  -4  -6  225.13   17.11
  -1  -4   5 1605.69   97.36
   1  -4  -5 1478.29   94.14
   1  -4  -5 1411.47   75.44
   1  -4  -5 1500.57   69.25
  -1  -4   5 1481.21   68.06
  -1  -4   5 1550.61  121.89
  -1  -4   5 1543.07   76.33
   1  -4  -5 1516.43   68.67
   1  -4  -4  155.85   32.79
  -1  -4   4  147.20   25.17
   1  -4  -4  201.12   28.33
   1  -4  -4  217.13   16.05
  -1  -4   4  176.99   14.26
  -1  -4   4  214.06   17.37
  -1  -4   4  182.04   19.05
  -1  -4   4  181.68   36.99
   1  -4  -4  238.38   16.08
   1  -4  -3  713.65   54.87
   1  -4  -3  720.13   69.09
  -1  -4   3  546.98   54.81
   1  -4  -3  655.14   34.14
  -1  -4   3  637.38   33.55
   1  -4  -3  698.71   38.59
   1  -4  -3  670.66   36.78
  -1  -4   3  682.87   68.88
  -1  -4   2  206.13   31.98
   1  -4  -2   97.88   25.31
   1  -4  -2  139.87   22.19
   1  -4  -2  115.68   10.72
  -1  -4   2  146.96   13.39
  -1  -4   2  141.80   11.21
   1  -4  -2  102.02   10.22
  -1  -4   2  160.27   16.44
  -1  -4   2  190.52   33.50
   1  -4  -2  121.40   13.92
   1  -4  -2  105.36   12.07
  -1  -4   1  517.57   53.07
  -1  -4   1  486.94   43.16
   1  -4  -1  386.99   38.02
   1  -4  -1  433.98   49.99
   1  -4  -1  386.40   23.31
  -1  -4   1  464.73   26.86
   1  -4  -1  363.74   22.89
  -1  -4   1  442.79   23.79
   1  -4  -1  402.99   29.81
   1  -4  -1  395.60   26.50
   1  -4  -1  412.31   28.51
  -1  -4   1  469.87   49.11
  -1  -4   1  463.92   30.24
  -1  -4   0  851.48   60.81
  -1  -4   0  792.31   70.77
   1  -4   0  826.20   58.51
   1  -4   0  854.80   71.44
   1  -4   0  786.49   38.90
   1  -4   0  714.24   45.38
  -1  -4   0  790.22   41.38
  -1  -4   0  768.66   38.63
   1  -4   0  867.91   47.90
   1  -4   0  774.80   38.90
  -1  -4   0  820.98   45.02
  -1  -4   0  921.66   47.15
   1  -4   0  812.15   45.76
   1  -4   0  814.46   46.67
   1  -4   0  749.45   42.65
  -1  -4   0  737.16   61.16
   1  -4   1 1720.80  104.11
  -1  -4  -1 1511.59  108.21
  -1  -4  -1 1592.31   92.28
   1  -4   1 1541.66   89.53
   1  -4   1 1532.18   76.95
  -1  -4  -1 1512.09   76.59
  -1  -4  -1 1453.91   69.30
   1  -4   1 1595.46   76.80
   1  -4   1 1538.47   67.38
  -1  -4  -1 1374.10   66.33
   1  -4   1 1634.45   77.18
  -1  -4  -1 1441.61   72.28
  -1  -4  -1 1526.47   73.15
  -1  -4  -2  207.58   28.30
   1  -4   2  283.73   30.93
  -1  -4  -2  272.28   42.13
  -1  -4  -2  244.12   17.15
  -1  -4  -2  279.36   23.63
   1  -4   2  248.78   23.37
  -1  -4  -2  220.38   17.50
   1  -4   2  311.83   25.17
   1  -4   2  291.37   17.93
   1  -4   2  298.01   24.75
   1  -4   2  266.67   41.24
  -1  -4  -2  230.69   19.56
  -1  -4  -3  136.08   29.89
  -1  -4  -3  184.27   26.36
   1  -4   3  183.52   25.06
  -1  -4  -3  151.60   12.77
   1  -4   3  160.70   19.00
  -1  -4  -3  154.07   17.14
  -1  -4  -3  143.84   13.19
   1  -4   3  183.21   19.48
  -1  -4  -3  156.53   12.50
  -1  -4  -3  160.45   13.34
   1  -4   3  212.74   37.21
  -1  -4  -3  168.07   15.36
   1  -4   4  253.17   30.70
  -1  -4  -4  304.28   35.29
  -1  -4  -4  264.92   18.79
  -1  -4  -4  278.40   23.48
  -1  -4  -4  289.69   19.08
  -1  -4  -4  286.30   18.43
  -1  -4  -4  311.18   20.07
   1  -4   4  264.67   45.11
  -1  -4  -5  138.23   31.83
  -1  -4  -5  137.90   23.88
  -1  -4  -5  159.39   14.41
  -1  -4  -5  152.24   12.80
  -1  -4  -5  147.38   15.98
   1  -4   5   82.89   18.21
  -1  -4  -5  148.54   13.24
  -1  -4  -5  135.09   11.85
  -1  -4  -5  131.47   11.82
   1  -4   5   79.22   21.47
   1  -4   5  110.44   30.85
   1  -4   5  121.67   17.50
  -1  -4  -6  780.34   77.33
  -1  -4  -6  768.36   62.74
   1  -4   6  836.15   61.93
  -1  -4  -6  771.04   39.32
  -1  -4  -6  720.96   39.16
  -1  -4  -6  811.61   41.65
   1  -4   6  808.74   86.37
   1  -4   6  842.40   51.31
   1  -4   6  739.48   72.23
  -1  -4  -6  811.77   43.47
  -1  -4  -6  793.95   40.56
  -1  -4  -7  531.80   63.22
   1  -4   7  659.57   53.31
  -1  -4  -7  504.12   31.16
  -1  -4  -7  499.00   29.82
  -1  -4  -7  519.91   30.03
   1  -4   7  526.10   63.78
   1  -4   7  600.22   41.27
   1  -4   7  663.19   78.78
  -1  -4  -7  556.49   34.08
  -1  -4  -7  553.68   30.91
  -1  -4  -8  364.67   52.10
   1  -4   8  404.06   42.18
  -1  -4  -8  365.16   26.60
  -1  -4  -8  357.75   23.35
  -1  -4  -8  350.08   23.14
  -1  -4  -8  353.19   23.37
   1  -4   8  438.19   33.96
  -1  -4  -9   12.41   13.47
  -1  -4  -9   30.57    8.17
   1  -4   9   23.55   11.24
  -1  -4  -9   28.56    6.55
  -1  -4  -9   29.34    6.58
   1  -4   9   40.72   23.69
   1  -4   9   23.63    9.45
  -1  -4 -10  394.50   54.05
  -1  -4 -10  511.60   33.05
   1  -4  10  460.92   69.26
   1  -4  10  484.71   36.51
  -1  -4 -10  484.59   28.91
  -1  -4 -10  448.36   28.45
  -1  -4 -11  729.65   42.69
  -1  -4 -11  710.25   38.74
  -1  -4 -11  692.47   38.23
  -1  -4 -12  519.86   32.47
  -1  -4 -12  488.25   28.41
  -1  -4 -12  426.98   27.70
  -1  -4 -13   96.79   12.39
  -1  -4 -13   80.00    9.86
  -1  -4 -14  113.07   13.01
   1  -4  14  164.02   12.77
   1  -4  15   51.51    8.33
   1  -4  15   64.71    7.13
   1  -4  16  131.32    9.26
   1  -3 -18   79.16    7.04
   1  -3 -17   70.35    8.35
   1  -3 -17   67.56    8.52
   1  -3 -17   61.69    7.82
   1  -3 -16   22.04    6.14
   1  -3 -16   25.72    6.23
   1  -3 -16   37.68    7.08
   1  -3 -15  258.29   21.72
   1  -3 -15  279.74   20.66
   1  -3 -15  237.27   21.07
   1  -3 -15  259.11   19.61
   1  -3 -14  140.93   16.44
   1  -3 -14  115.75   15.31
   1  -3 -14  134.15   14.33
   1  -3 -14  141.00   15.04
   1  -3 -13 1114.12   57.90
   1  -3 -13 1066.54   59.01
   1  -3 -13 1149.65   56.81
   1  -3 -13 1051.29   55.04
   1  -3 -13 1089.26   59.82
   1  -3 -13  981.13   53.53
  -1  -3  13  996.83   57.28
  -1  -3  12   42.10   16.57
   1  -3 -12   77.48   12.17
   1  -3 -12   56.42   11.43
  -1  -3  12   54.63   21.77
   1  -3 -12   64.26   10.14
   1  -3 -12   67.96   12.70
   1  -3 -12   79.10   11.46
  -1  -3  12   53.41   11.53
  -1  -3  12   68.69   28.20
  -1  -3  11  140.92   27.74
   1  -3 -11  146.18   17.31
  -1  -3  11   96.42   28.50
   1  -3 -11  170.70   16.58
   1  -3 -11  135.86   14.85
  -1  -3  11  160.30   40.74
  -1  -3  10  602.75   58.16
   1  -3 -10  640.45   39.72
  -1  -3  10  525.25   64.62
   1  -3 -10  610.15   36.38
   1  -3 -10  588.41   35.45
  -1  -3  10  649.95   80.06
  -1  -3   9   10.81    8.80
  -1  -3   9    7.35    9.05
   1  -3  -9   23.79    7.03
   1  -3  -9   17.62    6.38
   1  -3  -9   24.29    5.81
   1  -3  -9   18.94    5.92
   1  -3  -9   15.92    5.93
   1  -3  -9   23.75    5.74
  -1  -3   9   21.17    6.77
  -1  -3   9    5.24   17.03
   1  -3  -8 1836.48  122.13
  -1  -3   8 1996.63  113.39
  -1  -3   8 1775.76  120.22
  -1  -3   8 1884.04  101.39
   1  -3  -8 1996.87   88.87
   1  -3  -8 1771.01   86.19
   1  -3  -8 1788.33   83.30
   1  -3  -8 1984.61   90.39
   1  -3  -8 1729.42   81.97
   1  -3  -8 1801.23   82.02
   1  -3  -8 1896.24   84.62
  -1  -3   8 1988.08  145.19
  -1  -3   8 1928.08   88.05
   1  -3  -8 1797.00   82.22
   1  -3  -8 1886.73   84.36
  -1  -3   7 1282.44   80.05
   1  -3  -7 1063.54   85.47
  -1  -3   7 1053.37   82.08
  -1  -3   7 1058.12   66.09
   1  -3  -7 1129.59   56.86
   1  -3  -7 1051.71   52.73
   1  -3  -7 1145.53   54.07
   1  -3  -7 1198.42   60.07
   1  -3  -7 1122.97   53.01
  -1  -3   7 1203.43   59.06
   1  -3  -6  304.07   40.76
   1  -3  -6  285.17   18.36
  -1  -3   6  308.61   22.78
  -1  -3   6  304.12   47.36
  -1  -3   6  311.06   20.23
  -1  -3   6  253.59   33.94
  -1  -3   5    5.64    3.45
  -1  -3   5   11.12   12.03
  -1  -3   5    9.46    5.13
  -1  -3   5    4.33    4.34
  -1  -3   4  954.75   80.08
   1  -3  -4  953.45   73.83
  -1  -3   4  849.66   59.63
   1  -3  -4  935.18   60.14
  -1  -3   3  167.42   30.66
   1  -3  -3  193.97   22.32
  -1  -3   3  171.50   24.17
  -1  -3   3  150.62   20.88
  -1  -3   2 3081.17  165.79
   1  -3  -2 3060.23  146.29
   1  -3  -2 3076.12  163.38
  -1  -3   2 3021.93  157.73
  -1  -3   2 3388.70  150.87
  -1  -3   1  673.88   55.01
  -1  -3   1  638.80   53.48
   1  -3  -1  616.65   53.69
  -1  -3   1  646.25   45.28
   1  -3  -1  594.98   42.41
   1  -3   0  124.64   22.25
   1  -3   0  108.20   14.78
  -1  -3   0  160.31   23.47
   1  -3   0  146.40   18.17
  -1  -3   0  147.25   19.09
  -1  -3   0  171.94   27.12
   1  -3   0  111.23   21.39
   1  -3   1  520.07   38.59
  -1  -3  -1  467.92   38.34
   1  -3   1  504.10   47.32
  -1  -3  -1  419.00   35.64
  -1  -3  -1  452.79   46.21
   1  -3   1  548.97   37.94
   1  -3   1  552.25   45.60
   1  -3   2  306.13   32.30
  -1  -3  -2  292.82   25.53
   1  -3   2  401.93   43.58
   1  -3   2  417.28   31.97
  -1  -3  -2  289.76   28.99
   1  -3   2  403.86   36.40
   1  -3   3 2689.04  150.97
  -1  -3  -3 2525.41  126.81
   1  -3   3 2643.52  125.97
   1  -3   4 1355.65   69.86
   1  -3   4 1521.17  105.55
   1  -3   4 1476.16   79.77
  -1  -3  -4 1382.21   80.71
  -1  -3  -4 1472.34   96.75
   1  -3   5  225.50   21.14
   1  -3   5  279.13   28.27
  -1  -3  -5  271.08   37.75
  -1  -3  -5  283.46   29.63
  -1  -3  -6  145.74   28.49
   1  -3   6  135.02   20.40
  -1  -3  -6  185.50   24.14
   1  -3   6  134.01   20.57
  -1  -3  -6  157.76   12.58
   1  -3   6  143.60   16.94
   1  -3   7  261.28   30.30
   1  -3   7  292.04   31.29
  -1  -3  -7  260.80   38.41
   1  -3   7  275.71   27.99
  -1  -3  -7  240.88   16.41
  -1  -3  -7  222.75   16.54
  -1  -3  -7  223.56   16.85
  -1  -3  -7  244.16   17.33
   1  -3   7  271.31   23.65
  -1  -3  -8  552.52   57.74
   1  -3   8  548.44   48.00
   1  -3   8  535.17   45.97
   1  -3   8  532.60   63.94
   1  -3   8  499.02   43.44
  -1  -3  -8  551.85   33.28
  -1  -3  -8  510.26   29.56
  -1  -3  -8  486.03   28.92
   1  -3   8  507.00   36.06
   1  -3   8  448.15   63.52
   1  -3   9 2206.49  116.38
   1  -3   9 2092.41  117.44
  -1  -3  -9 1845.75  125.82
  -1  -3  -9 2088.20   93.79
   1  -3   9 1893.91  140.44
  -1  -3  -9 1843.50   87.65
  -1  -3  -9 1965.37   88.69
   1  -3   9 2069.62  150.72
   1  -3   9 1961.01   96.61
   1  -3  10   89.71   21.18
  -1  -3 -10  119.25   26.46
  -1  -3 -10  134.87   15.19
   1  -3  10  117.53   32.08
   1  -3  10   89.91   19.47
  -1  -3 -10  121.69   13.44
  -1  -3 -10  120.44   12.43
  -1  -3 -10  124.26   12.74
   1  -3  10   79.92   14.11
   1  -3  10   87.06   30.90
   1  -3  11  229.86   31.92
   1  -3  11  269.11   37.04
  -1  -3 -11  294.11   22.69
   1  -3  11  232.69   46.46
  -1  -3 -11  256.87   20.00
  -1  -3 -11  296.39   21.85
   1  -3  11  247.20   23.66
   1  -3  11  178.66   44.53
   1  -3  12  233.28   35.54
   1  -3  12  205.87   44.74
  -1  -3 -12  272.44   22.46
  -1  -3 -12  317.84   22.79
  -1  -3 -12  268.79   20.76
   1  -3  12  259.60   50.48
  -1  -3 -13   20.41    6.06
  -1  -3 -13   31.76    8.61
  -1  -3 -13   14.39    6.35
  -1  -3 -13   22.23    6.60
  -1  -3 -14  417.73   29.22
  -1  -3 -14  400.38   26.52
  -1  -3 -14  432.52   27.62
  -1  -3 -15  303.71   22.56
  -1  -3 -15  285.05   20.72
  -1  -3 -16  125.45   12.66
  -1  -3 -16  126.46   12.00
  -1  -3 -17  151.62   11.77
   1  -3  18    6.40    1.92
  -1  -3 -18    2.48    1.93
   1  -2 -19  129.30   10.45
   1  -2 -19  145.30   10.34
   1  -2 -18   59.90    6.93
   1  -2 -18   67.11    7.84
   1  -2 -17   47.74    9.06
   1  -2 -17   49.04    8.02
   1  -2 -16   53.85    7.16
   1  -2 -16   52.89    9.12
   1  -2 -16   52.62    9.72
   1  -2 -15  458.44   26.84
   1  -2 -15  484.38   30.78
   1  -2 -15  499.84   32.10
  -1  -2  14  620.62   76.18
  -1  -2  14  687.55   82.01
  -1  -2  14  671.75   65.86
   1  -2 -14  684.10   41.02
   1  -2 -14  750.88   36.85
   1  -2 -14  631.47   34.10
   1  -2 -14  717.70   40.46
  -1  -2  13   57.30   24.07
  -1  -2  13   50.41   22.47
  -1  -2  13   65.09   20.54
   1  -2 -13   67.93    7.60
   1  -2 -13   87.12    9.66
   1  -2 -13   64.45   11.15
   1  -2 -13   70.38    8.15
   1  -2 -13   74.95   11.05
  -1  -2  12  532.54   69.03
   1  -2 -12  559.68   29.42
  -1  -2  12  481.18   54.48
   1  -2 -12  641.58   32.30
   1  -2 -12  596.03   36.92
   1  -2 -12  553.75   30.08
  -1  -2  12  619.60   76.75
  -1  -2  11   43.90   19.49
  -1  -2  11   39.58   15.21
   1  -2 -11   43.93    5.88
   1  -2 -11   46.70    7.00
   1  -2 -11   46.47    9.20
   1  -2 -11   44.11    6.10
  -1  -2  11   49.99   22.18
  -1  -2  10   37.50   21.62
  -1  -2  10   74.67   23.71
   1  -2 -10   52.78    6.16
   1  -2 -10   72.17   10.67
   1  -2 -10   53.45    6.98
   1  -2 -10   49.24    6.18
   1  -2 -10   65.02    8.90
  -1  -2   9 2743.17  159.46
   1  -2  -9 2587.36  112.09
  -1  -2   9 2736.29  171.61
   1  -2  -9 2712.92  116.09
   1  -2  -9 2608.57  109.75
   1  -2  -9 2435.31  108.05
   1  -2  -9 2742.52  114.10
   1  -2  -9 2750.88  112.67
   1  -2  -8  763.47   37.88
   1  -2  -8  802.10   39.66
  -1  -2   8  952.28   83.44
  -1  -2   8 1039.61   76.63
   1  -2  -7 1108.72   77.21
  -1  -2   7 1156.88   93.28
  -1  -2   7 1099.02   80.52
   1  -2  -6  732.20   57.04
  -1  -2   6  645.90   37.48
  -1  -2   6  710.28   66.57
  -1  -2   6  753.83   57.78
   1  -2  -5  526.46   47.42
  -1  -2   5  518.43   35.59
   1  -2  -5  644.27   41.45
  -1  -2   5  568.06   45.48
  -1  -2   4  544.74   37.71
   1  -2  -4  520.69   44.42
   1  -2  -4  518.01   34.97
  -1  -2   4  509.79   39.89
   1  -2  -3 5618.74  238.89
  -1  -2   3 5216.96  228.06
   1  -2  -3 5206.47  223.52
   1  -2  -3 5491.38  220.23
  -1  -2   3 5002.00  243.57
  -1  -2   3 4855.25  225.29
  -1  -2   2   56.44   10.46
   1  -2  -2   95.98   12.15
  -1  -2   2   53.71   12.38
  -1  -2   2   45.67    7.97
   1  -2  -2   96.33    9.94
  -1  -2   2   63.64   16.58
  -1  -2   2   54.08    9.06
   1  -2  -1 2271.11  104.80
  -1  -2   1 2404.11  115.90
  -1  -2   1 2449.98  107.99
   1  -2  -1 2560.94  118.63
  -1  -2   1 2167.07  116.90
   1  -2  -1 2274.25   97.85
   1  -2  -1 2380.67  104.76
  -1  -2   1 2207.34   98.43
   1  -2   0  737.83   39.75
   1  -2   0  759.73   48.60
  -1  -2   0  713.75   49.76
  -1  -2   0  745.74   41.39
  -1  -2   0  697.93   46.78
   1  -2   0  768.06   43.38
   1  -2   0  734.28   48.87
   1  -2   0  596.20   32.48
   1  -2   1 2068.56   91.20
  -1  -2  -1 1946.85   92.62
   1  -2   1 2118.99  100.52
  -1  -2  -1 1823.64   93.84
   1  -2   1 1831.99   97.20
   1  -2   1 2076.31  106.25
  -1  -2  -2  647.31   33.94
   1  -2   2  608.43   37.03
  -1  -2  -2  649.19   38.83
   1  -2   2  616.98   41.01
  -1  -2  -2  664.11   50.31
  -1  -2  -2  633.45   35.18
   1  -2   2  600.66   49.41
   1  -2   3 1833.30  104.38
  -1  -2  -3 1860.63   88.79
  -1  -2  -3 1930.82   92.94
   1  -2   3 1938.05   90.73
   1  -2   3 2099.97   92.67
  -1  -2  -3 1957.85  105.69
   1  -2   3 1945.23   88.64
   1  -2   4 2102.73   98.44
  -1  -2  -4 2034.62  113.05
  -1  -2  -4 2063.18   98.32
  -1  -2  -4 1971.31   99.22
   1  -2   4 2242.88  100.43
   1  -2   4 2074.37  120.32
   1  -2   4 2039.83  115.62
   1  -2   5  420.89   43.78
  -1  -2  -5  434.26   41.55
  -1  -2  -5  448.03   33.83
   1  -2   5  480.77   34.56
   1  -2   5  461.31   33.81
  -1  -2  -5  411.98   32.17
   1  -2   5  407.22   46.68
   1  -2   6  354.75   41.91
   1  -2   6  407.28   32.97
  -1  -2  -6  297.86   35.47
  -1  -2  -6  328.58   29.83
   1  -2   6  386.31   32.69
  -1  -2  -6  352.90   30.99
   1  -2   6  350.36   45.73
   1  -2   7  469.31   51.86
   1  -2   7  524.88   40.92
  -1  -2  -7  398.08   42.55
   1  -2   7  478.50   40.67
   1  -2   7  451.24   53.71
  -1  -2  -7  475.25   38.91
  -1  -2  -8  750.30   55.40
   1  -2   8  728.53   71.38
  -1  -2  -8  796.88   63.00
   1  -2   8  915.21   60.54
   1  -2   8  878.33   61.39
  -1  -2  -8  778.12   37.45
  -1  -2  -8  787.80   37.25
  -1  -2  -8  752.14   37.32
   1  -2   8  756.90   74.76
  -1  -2  -9   22.50   10.08
   1  -2   9   40.63   18.67
  -1  -2  -9   24.67   11.76
   1  -2   9   41.53   13.44
  -1  -2  -9   25.81    5.05
   1  -2   9   35.64   13.07
  -1  -2  -9   22.89    4.46
  -1  -2  -9   23.06    4.79
   1  -2   9   45.78   22.27
  -1  -2 -10  777.49   62.46
   1  -2  10  926.69   67.77
  -1  -2 -10  686.77   61.33
   1  -2  10  792.99   82.18
   1  -2  10  858.10   68.07
  -1  -2 -10  804.58   39.70
  -1  -2 -10  796.84   39.78
  -1  -2 -10  797.59   38.98
   1  -2  10  734.08   79.83
  -1  -2 -11  767.87   63.59
  -1  -2 -11  820.78   42.90
   1  -2  11  929.74   70.54
   1  -2  11  862.12   89.71
  -1  -2 -11  833.30   40.63
   1  -2  11  764.13   68.27
  -1  -2 -11  853.78   46.73
  -1  -2 -11  788.06   40.47
  -1  -2 -11  748.48   39.12
   1  -2  11  726.44   81.76
  -1  -2 -12   94.66   11.42
   1  -2  12   94.89   22.64
   1  -2  12   91.23   30.33
  -1  -2 -12   75.10    9.00
   1  -2  12   98.53   23.70
  -1  -2 -12   86.46   12.60
  -1  -2 -12   74.55    8.49
  -1  -2 -12   74.86    9.25
   1  -2  12   93.39   30.31
  -1  -2 -13  542.38   32.06
   1  -2  13  469.15   52.65
   1  -2  13  461.97   68.17
  -1  -2 -13  566.16   35.33
  -1  -2 -13  518.28   29.26
   1  -2  13  469.32   55.27
  -1  -2 -13  511.62   29.64
  -1  -2 -13  500.03   27.81
   1  -2  13  517.51   67.52
  -1  -2 -14  206.90   15.69
  -1  -2 -14  207.18   17.63
  -1  -2 -14  225.36   20.14
  -1  -2 -15  274.48   18.69
  -1  -2 -15  311.14   21.68
  -1  -2 -15  309.09   23.01
  -1  -2 -15  325.39   23.92
  -1  -2 -16  509.84   29.60
  -1  -2 -16  432.07   28.70
  -1  -2 -17   97.44   10.68
  -1  -2 -17   95.14   10.50
  -1  -2 -18   78.57    8.37
  -1  -2 -18   83.79    8.42
  -1  -2 -19   74.54    6.28
   1  -1 -19   65.59    7.66
   1  -1 -18  114.89   10.77
   1  -1 -18  118.36   12.16
   1  -1 -18  121.26    9.81
   1  -1 -17  510.83   30.26
   1  -1 -17  432.75   27.06
   1  -1 -17  441.64   25.21
   1  -1 -16   37.94    6.11
   1  -1 -16   41.85    8.36
   1  -1 -16   43.58    7.00
   1  -1 -15  344.81   20.76
   1  -1 -15  366.62   22.96
   1  -1 -15  336.87   21.54
   1  -1 -15  386.64   25.90
   1  -1 -14   52.94    9.52
  -1  -1  14   53.34   17.91
  -1  -1  14   41.76   21.31
  -1  -1  14   26.05   16.55
   1  -1 -14   45.87    6.65
   1  -1 -14   47.50    8.90
   1  -1 -14   74.06    9.02
   1  -1 -14   41.39    6.75
   1  -1 -14   38.62    5.50
   1  -1 -14   40.49    6.17
   1  -1 -13  911.75   48.81
  -1  -1  13 1075.72   81.60
  -1  -1  13  882.94   92.13
  -1  -1  13  926.29   80.81
   1  -1 -13  902.27   49.10
   1  -1 -13  966.28   45.04
   1  -1 -13  903.65   45.40
   1  -1 -13  889.21   43.77
   1  -1 -13  877.92   42.21
   1  -1 -12  658.31   36.25
  -1  -1  12  503.86   65.71
  -1  -1  12  695.33   62.52
  -1  -1  12  581.63   70.79
   1  -1 -12  693.27   38.22
   1  -1 -12  680.90   38.85
   1  -1 -12  677.47   33.96
   1  -1 -12  654.86   34.71
   1  -1 -12  629.06   31.90
   1  -1 -12  656.27   33.45
  -1  -1  11 1017.51   91.11
   1  -1 -11 1038.86   51.37
  -1  -1  11 1199.88   81.47
  -1  -1  11 1017.97   91.38
   1  -1 -11 1134.28   52.24
   1  -1 -11 1169.20   53.96
   1  -1 -11 1114.56   54.28
   1  -1 -11 1043.72   48.66
   1  -1 -11 1035.03   49.73
   1  -1 -11 1007.88   48.29
   1  -1 -11  986.53   46.93
   1  -1 -10   32.83    6.25
   1  -1 -10   51.82    7.88
  -1  -1  10   32.21   15.28
   1  -1 -10   41.66    5.44
   1  -1 -10   37.38    5.67
   1  -1 -10   37.66    6.57
  -1  -1  10   37.93   17.48
  -1  -1  10   51.08   14.88
  -1  -1  10   30.47   11.11
  -1  -1   9  323.63   42.82
   1  -1  -9  292.43   17.59
   1  -1  -9  282.73   18.56
  -1  -1   9  323.63   44.38
  -1  -1   9  345.50   35.10
  -1  -1   8 1195.44   83.24
  -1  -1   8 1019.16   83.41
  -1  -1   8 1141.30   70.81
  -1  -1   7  760.07   59.96
   1  -1  -7  903.34   58.33
  -1  -1   7  669.39   62.70
  -1  -1   7  808.77   53.09
  -1  -1   6 2205.94  118.06
   1  -1  -6 2279.86  113.08
  -1  -1   6 2184.42  108.35
  -1  -1   5  400.37   34.27
   1  -1  -5  421.85   32.55
  -1  -1   5  400.37   29.85
   1  -1  -5  410.21   33.33
  -1  -1   5  328.35   26.33
  -1  -1   4 2970.77  130.22
  -1  -1   4 2739.34  131.51
   1  -1  -4 2977.28  127.33
   1  -1  -4 3037.74  132.28
  -1  -1   4 2783.36  123.95
  -1  -1   3 1539.18   78.08
  -1  -1   3 1600.82   74.08
   1  -1  -3 1522.76   73.05
  -1  -1   3 1379.50   67.85
   1  -1  -3 1567.40   78.67
  -1  -1   3 1446.94   70.77
  -1  -1   2 2126.21   91.03
  -1  -1   2 2006.87   89.59
   1  -1  -2 2197.97   98.46
  -1  -1   2 2003.37   90.75
   1  -1  -2 2069.07   90.18
   1  -1  -2 1962.62   91.58
   1  -1  -1 9435.94  371.53
  -1  -1   1 9607.66  374.49
  -1  -1   1 8926.43  374.84
  -1  -1   1 9028.30  373.92
   1  -1  -1 9999.00  376.48
  -1  -1   1 9139.73  368.99
  -1  -1   1 9084.45  377.78
  -1  -1   0 2487.32  103.54
   1  -1   0 2676.21  110.37
   1  -1   0 2354.55  101.42
  -1  -1   0 2481.36  108.49
  -1  -1   0 2352.33  106.09
  -1  -1   0 2375.60  104.95
   1  -1   0 2320.98  108.26
   1  -1   0 2589.41  111.65
  -1  -1  -1  560.92   29.03
   1  -1   1  542.08   26.78
   1  -1   1  519.13   27.42
  -1  -1  -1  577.73   35.80
  -1  -1  -1  632.71   37.61
  -1  -1  -1  577.84   29.74
  -1  -1  -1  599.82   29.00
   1  -1   2 5593.31  232.40
  -1  -1  -2 5475.72  231.05
   1  -1   2 5494.16  219.67
  -1  -1  -2 5171.91  220.29
   1  -1   2 5724.92  234.78
   1  -1   2 5328.66  221.70
   1  -1   3 4000.66  180.88
   1  -1   3 4123.08  171.33
  -1  -1  -3 3874.07  167.44
   1  -1   3 4064.18  167.97
  -1  -1  -3 3977.38  176.74
   1  -1   3 4075.15  183.98
   1  -1   4 4261.06  186.77
   1  -1   4 3958.50  173.94
  -1  -1  -4 3826.69  167.33
   1  -1   4 4149.23  171.53
  -1  -1  -4 4003.13  170.23
  -1  -1  -4 3980.11  174.77
  -1  -1  -4 3943.06  178.04
   1  -1   4 4156.96  187.70
   1  -1   5 2539.94  125.78
   1  -1   5 2289.21  112.47
  -1  -1  -5 2281.23  102.70
  -1  -1  -5 2323.14  113.17
   1  -1   5 2478.87  109.93
  -1  -1  -5 2240.62  113.43
   1  -1   5 2442.74  126.20
   1  -1   6   70.07   17.34
   1  -1   6   89.66   15.38
  -1  -1  -6   55.72    8.33
  -1  -1  -6   50.60   11.99
  -1  -1  -6   47.51   11.84
   1  -1   6   62.61   12.02
   1  -1   6   44.01   14.20
   1  -1   7 3609.03  155.12
  -1  -1  -7 3172.79  152.91
   1  -1   7 3276.66  172.65
   1  -1   7 3269.11  157.77
  -1  -1  -7 3159.05  139.25
  -1  -1  -7 3164.35  154.77
   1  -1   7 3201.34  169.11
   1  -1   8 1139.95   69.37
  -1  -1  -8 1033.29   65.60
   1  -1   8 1188.40   86.73
   1  -1   8 1117.76   74.93
   1  -1   8 1039.60   80.91
  -1  -1  -8 1106.04   70.84
   1  -1   9 1573.41  109.51
  -1  -1  -9 1564.01   96.09
   1  -1   9 1844.22   98.57
  -1  -1  -9 1431.15   86.57
   1  -1   9 1754.11  117.38
   1  -1   9 1887.35  105.09
  -1  -1  -9 1670.72   71.07
  -1  -1  -9 1573.56   70.45
  -1  -1  -9 1593.31   69.85
   1  -1  10  172.64   33.28
  -1  -1 -10  164.45   26.87
  -1  -1 -10  196.69   14.97
   1  -1  10  198.53   28.01
   1  -1  10  223.33   39.53
   1  -1  10  185.88   30.68
  -1  -1 -10  175.94   13.51
  -1  -1 -10  197.36   13.91
  -1  -1 -10  184.59   13.06
  -1  -1 -10  165.54   11.96
  -1  -1 -10  168.33   13.16
   1  -1  11  288.93   45.13
  -1  -1 -11  391.69   43.29
  -1  -1 -11  358.69   23.25
   1  -1  11  418.83   43.91
   1  -1  11  407.22   57.87
   1  -1  11  447.43   50.45
  -1  -1 -11  390.41   22.70
  -1  -1 -11  355.03   22.04
  -1  -1 -11  363.72   21.42
  -1  -1 -11  329.92   21.46
  -1  -1 -12  159.71   14.66
  -1  -1 -12  129.75   25.81
   1  -1  12  159.96   28.53
   1  -1  12  162.08   38.32
   1  -1  12  143.40   30.40
  -1  -1 -12  188.87   14.34
  -1  -1 -12  171.20   17.00
  -1  -1 -12  185.13   14.46
  -1  -1 -12  157.11   13.51
  -1  -1 -12  160.30   12.90
  -1  -1 -12  146.05   13.05
  -1  -1 -13  642.31   36.21
   1  -1  13  639.74   61.26
   1  -1  13  587.55   76.66
   1  -1  13  646.90   67.36
  -1  -1 -13  681.27   34.97
  -1  -1 -13  648.61   35.06
  -1  -1 -13  622.66   38.42
  -1  -1 -13  652.85   34.92
  -1  -1 -13  581.39   33.67
  -1  -1 -13  648.74   33.75
  -1  -1 -14  158.72   14.79
  -1  -1 -14  165.47   16.53
   1  -1  14  146.56   29.07
   1  -1  14  122.90   36.10
   1  -1  14  128.29   30.00
  -1  -1 -14  161.79   13.71
  -1  -1 -14  159.70   14.18
  -1  -1 -14  148.92   15.77
  -1  -1 -14  150.71   13.61
  -1  -1 -14  147.24   12.63
  -1  -1 -14  147.83   13.14
  -1  -1 -15  380.80   26.18
  -1  -1 -15  385.50   23.64
  -1  -1 -15  336.34   23.53
  -1  -1 -15  373.49   26.00
  -1  -1 -15  357.21   22.96
  -1  -1 -15  345.09   22.28
  -1  -1 -16  131.80   13.71
  -1  -1 -16  146.20   12.66
  -1  -1 -16  143.71   14.46
  -1  -1 -16  133.14   12.15
  -1  -1 -16  146.12   12.18
  -1  -1 -17   44.37    7.06
  -1  -1 -17   61.11    7.60
  -1  -1 -17   55.57    8.54
  -1  -1 -17   58.74    6.96
  -1  -1 -18  344.01   20.32
  -1  -1 -18  320.33   17.80
  -1  -1 -19  149.07   10.31
   1   0 -20   11.84    3.16
   1   0 -19   43.86    6.19
   1   0 -19   39.97    4.97
   1   0 -18  438.39   25.63
   1   0 -18  391.05   21.88
   1   0 -17    8.46    4.50
   1   0 -17    4.97    3.51
   1   0 -16  925.31   46.37
   1   0 -16  964.02   46.58
   1   0 -16  973.22   48.56
   1   0 -15  436.33   27.85
  -1   0  15  346.77   46.68
  -1   0  15  442.43   57.10
   1   0 -15  432.18   25.77
   1   0 -15  472.87   26.97
   1   0 -15  431.19   24.01
   1   0 -14    7.08    4.84
  -1   0  14   16.23   11.26
  -1   0  14    3.95    9.70
   1   0 -14    2.67    2.87
   1   0 -14    7.02    3.58
   1   0 -14   10.35    3.44
   1   0 -14   11.02    4.34
   1   0 -13  448.16   28.56
  -1   0  13  485.27   52.45
   1   0 -13  436.95   26.03
   1   0 -13  475.05   26.49
   1   0 -13  446.66   24.77
   1   0 -13  453.95   27.01
   1   0 -12    1.11    3.03
   1   0 -12   -1.29    4.03
  -1   0  12    2.77    8.31
   1   0 -12    2.34    2.56
   1   0 -12    0.48    2.72
   1   0 -12    2.36    2.31
   1   0 -12    6.27    3.57
  -1   0  11 1203.71   90.63
   1   0 -11 1135.94   54.53
  -1   0  11 1259.39   83.09
   1   0 -11 1212.23   56.36
   1   0 -11 1200.15   53.83
   1   0 -11 1169.79   53.27
   1   0 -11 1104.41   53.82
   1   0 -11 1133.39   51.91
   1   0 -10 1951.01   84.88
  -1   0  10 2079.56  124.26
  -1   0  10 2095.74  113.15
   1   0 -10 1980.91   83.57
   1   0 -10 1956.54   83.78
   1   0 -10 1975.20   83.51
   1   0 -10 1895.28   82.24
   1   0 -10 1908.42   84.23
   1   0 -10 2037.11  105.48
   1   0  -9  173.16   21.21
  -1   0   9  164.84   23.74
  -1   0   9  141.29   26.72
   1   0  -8  127.09   16.84
   1   0  -8   89.39    8.19
  -1   0   8  119.58   18.13
   1   0  -8  116.93   21.24
   1   0  -8   86.99    9.17
  -1   0   7 1074.22   61.77
   1   0  -7  990.79   55.54
   1   0  -7  937.18   44.63
  -1   0   7  986.17   59.00
   1   0  -7 1146.09   68.29
   1   0  -7  956.33   47.46
  -1   0   6  318.83   27.12
   1   0  -6  277.07   16.65
   1   0  -6  286.57   23.01
  -1   0   6  276.01   24.70
   1   0  -6  319.22   29.44
   1   0  -6  274.41   19.10
   1   0  -5 7423.70  298.10
  -1   0   5 7233.80  303.42
  -1   0   5 7184.41  300.49
   1   0  -5 7596.07  308.86
   1   0  -5 7104.88  294.13
   1   0  -4 1418.03   66.61
   1   0  -4 1429.24   65.26
  -1   0   4 1360.83   73.09
  -1   0   4 1462.92   70.65
  -1   0   4 1379.24   66.84
   1   0  -4 1581.97   74.05
   1   0  -4 1331.00   63.69
   1   0  -3   63.89    7.11
  -1   0   3   58.28    8.99
   1   0  -3   64.37    8.05
  -1   0   3   60.95    9.69
  -1   0   3   65.03    7.83
   1   0  -3   69.10   10.45
   1   0  -3   66.29    7.68
  -1   0   2  742.99   38.42
   1   0  -2  786.16   34.38
   1   0  -2  717.55   36.00
  -1   0   2  719.67   34.44
   1   0  -2  710.49   38.93
  -1   0   1   53.30    6.95
   1   0  -1   62.60    4.92
  -1   0   1   71.00    5.96
  -1   0   1   57.21    8.13
  -1   0   1   58.62    4.98
  -1   0   0 1919.21   90.08
  -1   0   0 2014.10   89.99
  -1   0   0 2101.85   84.96
  -1   0   0 1979.85   88.72
   1   0   0 2026.62   88.80
   1   0   1  745.19   35.24
   1   0   1  699.73   35.17
  -1   0  -1  694.59   38.79
   1   0   1  673.49   38.15
   1   0   2  736.13   37.31
  -1   0  -2  690.62   37.43
   1   0   2  663.86   38.30
   1   0   2  681.90   35.05
  -1   0  -2  723.89   40.69
   1   0   2  772.31   38.94
  -1   0  -3   69.25   11.40
   1   0   3   91.38   11.34
  -1   0  -3   86.28    9.55
   1   0   3   88.83   12.38
   1   0   3  100.14   10.24
   1   0   3   89.75    9.67
  -1   0  -3   74.17   11.84
   1   0   3   89.80   12.12
  -1   0  -4 4123.19  180.47
   1   0   4 4060.07  175.83
   1   0   4 3909.55  179.54
  -1   0  -4 4117.07  169.04
   1   0   4 4007.81  171.05
  -1   0  -4 4230.41  176.21
   1   0   4 4058.85  171.36
  -1   0  -4 3790.87  167.66
   1   0   4 4161.21  176.06
   1   0   5   99.46   15.88
   1   0   5  113.93   18.62
  -1   0  -5  108.77   11.83
  -1   0  -5  129.76   16.40
  -1   0  -5   92.16   10.49
   1   0   5  110.81   14.12
   1   0   5  101.43   15.32
   1   0   6 3593.56  169.40
  -1   0  -6 3720.73  157.89
   1   0   6 4062.15  180.25
  -1   0  -6 3695.26  168.68
   1   0   6 3795.34  164.53
  -1   0  -6 3458.06  154.30
   1   0   6 3634.26  169.03
   1   0   7 2473.92  120.78
   1   0   7 2389.57  128.67
  -1   0  -7 2317.44  105.06
  -1   0  -7 2208.03  117.37
  -1   0  -7 2157.92   99.66
   1   0   7 2377.92  118.59
  -1   0  -8 1246.26   65.99
   1   0   8 1292.80   90.80
   1   0   8 1314.27   83.60
   1   0   8 1341.64   80.71
  -1   0  -8 1341.96   80.61
  -1   0  -9   29.03   11.71
  -1   0  -9   29.29    4.65
  -1   0  -9   30.16    5.31
   1   0   9   28.81   14.20
   1   0   9   19.33   11.91
  -1   0  -9   25.19    6.82
  -1   0  -9   31.36    4.85
   1   0   9   26.92   10.53
  -1   0 -10    3.51    2.40
  -1   0 -10    8.05    3.67
  -1   0 -10    2.35    2.20
   1   0  10    3.72   10.20
   1   0  10   -2.80    9.10
  -1   0 -10    0.99    2.73
  -1   0 -10    5.81    3.01
  -1   0 -10    3.45    2.08
  -1   0 -10    9.47    7.68
  -1   0 -11 1001.82   45.48
  -1   0 -11  933.52   44.06
  -1   0 -11  927.58   46.56
   1   0  11  925.84   78.86
   1   0  11  980.68   90.12
  -1   0 -11  898.64   43.67
  -1   0 -11 1001.84   46.25
  -1   0 -11  864.55   71.24
  -1   0 -11  959.17   46.52
  -1   0 -12 1378.16   65.67
  -1   0 -12 1414.37   62.73
  -1   0 -12 1475.94   64.43
   1   0  12 1389.66  116.10
   1   0  12 1729.18  112.86
  -1   0 -12 1376.78   64.50
  -1   0 -12 1342.81   62.05
  -1   0 -12 1410.95   65.59
  -1   0 -12 1535.72  100.31
   1   0  13   10.37   14.22
   1   0  13    7.81   10.72
  -1   0 -13    5.04    4.42
  -1   0 -13    3.61    3.91
  -1   0 -13   12.62   10.94
  -1   0 -13    1.54    3.27
  -1   0 -13   16.04    5.14
  -1   0 -13    2.92    2.41
   1   0  14  220.29   36.14
   1   0  14  223.16   46.79
  -1   0 -14  229.03   19.06
  -1   0 -14  289.85   19.40
   1   0  14  241.67   41.66
  -1   0 -14  243.67   18.30
  -1   0 -14  268.18   18.03
  -1   0 -14  233.34   18.43
  -1   0 -14  246.56   16.01
  -1   0 -15    9.15    4.15
  -1   0 -15    0.61    3.09
  -1   0 -15    5.11    3.38
  -1   0 -15   11.48    5.90
  -1   0 -16  250.74   17.40
  -1   0 -16  259.84   17.54
  -1   0 -16  242.04   16.51
  -1   0 -16  226.63   17.21
  -1   0 -16  233.61   18.55
  -1   0 -17  804.01   38.88
  -1   0 -17  821.89   38.93
  -1   0 -17  747.96   37.41
  -1   0 -17  767.19   39.89
  -1   0 -18  188.88   12.63
  -1   0 -18  189.29   12.48
  -1   0 -18  162.58   12.66
  -1   0 -19   81.24    6.50
   1   1 -19   60.07    5.72
   1   1 -19   44.53    5.24
   1   1 -19   52.10    5.48
   1   1 -18  115.08    9.97
   1   1 -18  124.19    9.88
   1   1 -18  113.67   10.63
   1   1 -18  117.27    9.80
   1   1 -17  437.78   23.89
   1   1 -17  376.12   23.60
   1   1 -16   54.45    7.57
   1   1 -16   45.76    7.85
   1   1 -16   39.55    5.88
   1   1 -15  368.47   22.23
   1   1 -15  397.12   23.96
   1   1 -15  378.16   24.61
   1   1 -15  370.38   22.08
  -1   1  14   47.59   16.63
  -1   1  14   40.10   19.77
  -1   1  14   52.56   22.42
   1   1 -14   47.68    7.37
   1   1 -14   52.06    7.25
   1   1 -14   46.67    6.75
   1   1 -14   61.48    8.77
  -1   1  13  905.35   74.25
  -1   1  13 1010.06   85.66
  -1   1  13  957.81   94.40
   1   1 -13  804.08   65.16
   1   1 -13  921.27   44.92
   1   1 -13  884.67   43.91
   1   1 -13  840.25   42.05
   1   1 -13  957.21   45.25
   1   1 -13  920.56   46.82
   1   1 -13  929.90   43.94
  -1   1  12  726.00   62.60
   1   1 -12  726.99   36.34
   1   1 -12  712.36   35.61
   1   1 -12  703.04   56.53
  -1   1  12  696.43   76.87
   1   1 -12  737.14   36.75
   1   1 -12  719.42   36.00
   1   1 -12  698.21   36.37
   1   1 -12  676.30   34.38
   1   1 -12  705.26   35.54
   1   1 -12  726.85   38.24
  -1   1  11 1031.02   73.71
   1   1 -11  942.10   44.44
   1   1 -11 1001.30   68.03
  -1   1  11 1033.70   90.39
   1   1 -11  968.89   45.68
   1   1 -11  948.97   46.01
   1   1 -11  990.57   46.28
   1   1 -11  992.63   46.74
   1   1 -11 1033.21   47.06
   1   1 -11  983.44   45.05
   1   1 -11  995.09   45.94
   1   1 -11 1009.46   48.44
  -1   1  10   48.37   13.84
   1   1 -10   50.62   13.05
  -1   1  10   73.96   21.72
   1   1 -10   52.01    6.29
   1   1 -10   65.81    7.07
   1   1 -10   55.61   10.28
   1   1 -10   58.91    6.26
   1   1 -10   67.37    7.21
   1   1 -10   60.36    7.67
   1   1 -10   52.30    6.25
   1   1  -9  328.68   26.59
   1   1  -9  374.58   32.88
  -1   1   9  367.98   44.72
  -1   1   9  321.73   33.49
   1   1  -9  347.99   30.32
   1   1  -9  335.10   18.84
   1   1  -9  331.11   18.97
   1   1  -9  345.82   19.33
   1   1  -9  345.85   19.40
   1   1  -9  346.78   20.41
  -1   1   8 1186.60   70.52
   1   1  -8 1130.02   66.60
  -1   1   8 1229.01   84.30
  -1   1   8 1108.74   64.19
   1   1  -8 1116.72   66.34
   1   1  -8 1239.21   62.76
  -1   1   7  890.79   64.32
   1   1  -7  774.11   48.44
  -1   1   7  722.75   46.44
   1   1  -7  834.90   57.48
  -1   1   7  812.19   51.42
   1   1  -6 2132.74   99.36
  -1   1   6 2256.03  115.44
  -1   1   6 2052.44   98.63
   1   1  -6 2110.34  108.58
  -1   1   6 2018.01  100.82
   1   1  -5  411.42   28.38
   1   1  -5  414.06   28.38
  -1   1   5  410.35   28.01
  -1   1   5  390.96   28.40
   1   1  -5  408.70   32.70
   1   1  -4 2757.36  140.10
  -1   1   4 2673.99  122.94
   1   1  -4 2801.03  122.31
   1   1  -4 2871.58  123.34
  -1   1   4 2749.33  122.27
   1   1  -4 3040.31  129.64
   1   1  -3 1332.12   74.40
   1   1  -3 1331.64   60.91
  -1   1   3 1224.29   53.30
   1   1  -3 1364.54   62.04
  -1   1   3 1340.51   63.13
  -1   1   3 1365.64   60.35
   1   1  -3 1446.31   66.39
   1   1  -2 1799.50   93.05
   1   1  -2 1944.78   84.11
  -1   1   2 1931.33   86.59
  -1   1   2 1929.99   79.91
   1   1  -2 1900.09   84.03
   1   1  -2 1840.13   85.75
  -1   1   1 9215.76  366.39
   1   1  -1 8640.90  369.97
  -1   1   1 9271.69  367.86
   1   1  -1 9346.67  363.96
  -1   1   1 9068.60  362.58
   1   1  -1 8862.18  363.81
   1   1   0 2754.86  115.58
   1   1   0 2579.76  111.80
  -1   1   0 2593.31  104.71
   1   1   0 2628.66  111.03
  -1   1   0 2710.04  111.43
  -1   1   0 2602.95  112.46
  -1   1   0 2439.21  115.70
  -1   1  -1  545.31   30.86
   1   1   1  516.58   26.20
  -1   1  -1  525.89   24.65
  -1   1  -1  500.82   32.33
   1   1   1  597.64   28.21
   1   1   1  568.64   31.79
  -1   1  -1  563.72   36.20
   1   1   2 5128.14  215.60
  -1   1  -2 5363.94  218.36
  -1   1  -2 5291.58  211.04
  -1   1  -2 4896.29  218.12
   1   1   2 5068.23  214.60
   1   1   2 5471.12  216.11
  -1   1  -2 5402.23  227.54
   1   1   2 5371.72  216.24
   1   1   3 4151.25  172.99
  -1   1  -3 4103.61  186.68
  -1   1  -3 4249.51  184.83
   1   1   3 3946.39  168.26
  -1   1  -3 4089.60  167.41
   1   1   3 3826.69  173.97
  -1   1  -3 4051.30  173.04
   1   1   3 4191.73  170.80
  -1   1  -4 4223.36  193.56
   1   1   4 4240.19  178.93
  -1   1  -4 4246.43  177.08
   1   1   4 3832.85  180.60
  -1   1  -4 3994.05  171.08
  -1   1  -4 3998.66  175.88
  -1   1  -4 4096.38  178.62
   1   1   4 4189.35  174.08
  -1   1  -5 2106.31  117.88
   1   1   5 2119.43  103.72
   1   1   5 2047.48   97.62
  -1   1  -5 2006.73  103.32
   1   1   5 2078.73  107.70
  -1   1  -5 2247.07  100.29
  -1   1  -5 2108.31   96.16
  -1   1  -6   41.59   10.20
   1   1   6   43.62   13.31
  -1   1  -6   46.02    8.96
   1   1   6   52.75   11.20
  -1   1  -6   41.74   12.10
   1   1   6   40.30    9.35
  -1   1  -6   50.86   17.66
   1   1   6   52.08   12.42
  -1   1  -7 3469.98  175.32
   1   1   7 3128.93  155.35
   1   1   7 3142.58  146.04
   1   1   7 3202.59  152.12
  -1   1  -7 3155.34  144.77
  -1   1  -7 3310.30  147.20
   1   1   7 3182.48  163.78
  -1   1  -7 3061.14  153.17
   1   1   8 1119.67   74.38
  -1   1  -8 1185.44   88.38
   1   1   8 1109.26   68.92
  -1   1  -8 1061.21   70.46
   1   1   8 1090.35   81.03
  -1   1  -8 1048.30   62.28
  -1   1  -8 1028.38   62.02
  -1   1  -9 1566.40   97.60
   1   1   9 1659.78   96.16
  -1   1  -9 1639.47   70.79
  -1   1  -9 1728.52   90.12
  -1   1  -9 1617.87   86.91
   1   1   9 1602.27  110.29
  -1   1  -9 1618.67   70.70
   1   1   9 1701.14  103.34
  -1   1  -9 1671.90   70.79
  -1   1  -9 1607.77   70.66
  -1   1  -9 1635.10   70.43
  -1   1  -9 1634.17   70.85
  -1   1  -9 1576.09   70.34
  -1   1  -9 1651.55   70.77
  -1   1 -10  200.40   29.57
   1   1  10  214.81   30.37
  -1   1 -10  228.75   15.08
   1   1  10  195.84   35.55
  -1   1 -10  207.25   23.99
   1   1  10  198.88   32.37
  -1   1 -10  211.51   14.24
  -1   1 -10  222.22   14.76
  -1   1 -10  246.20   15.39
  -1   1 -10  232.75   15.36
  -1   1 -10  224.89   15.19
  -1   1 -10  222.68   14.84
  -1   1 -11  313.07   39.41
   1   1  11  294.61   37.62
  -1   1 -11  356.74   20.42
   1   1  11  368.65   52.62
  -1   1 -11  239.24   27.51
   1   1  11  327.28   44.12
  -1   1 -11  337.77   20.40
  -1   1 -11  327.50   19.21
  -1   1 -11  337.82   19.75
  -1   1 -11  315.91   19.73
  -1   1 -11  339.67   20.60
  -1   1 -11  306.85   19.25
  -1   1 -12  138.95   27.18
  -1   1 -12  160.39   13.05
   1   1  12  174.22   30.42
   1   1  12  203.85   40.70
   1   1  12  166.32   33.22
  -1   1 -12  161.70   12.26
  -1   1 -12  170.21   13.82
  -1   1 -12  168.40   13.31
  -1   1 -12  161.61   12.67
  -1   1 -12  161.29   12.74
  -1   1 -12  179.40   13.88
   1   1  13  658.67   78.17
   1   1  13  676.31   64.13
   1   1  13  751.31   73.55
  -1   1 -13  669.77   34.45
  -1   1 -13  669.93   36.20
  -1   1 -13  668.33   35.27
  -1   1 -13  697.23   35.01
  -1   1 -13  709.18   36.27
  -1   1 -13  671.76   37.77
  -1   1 -14  177.37   15.34
   1   1  14  141.82   36.45
   1   1  14  136.33   28.05
  -1   1 -14  176.26   14.44
  -1   1 -14  151.76   12.21
  -1   1 -14  165.55   15.36
  -1   1 -14  193.05   14.64
  -1   1 -14  157.10   12.64
   1   1  14  146.72   32.65
  -1   1 -15  378.12   22.98
  -1   1 -15  349.60   24.12
  -1   1 -15  395.64   23.82
  -1   1 -15  342.59   23.11
  -1   1 -16  175.39   13.96
  -1   1 -16  167.88   13.19
  -1   1 -16  158.92   14.27
  -1   1 -16  169.04   13.51
  -1   1 -17   56.13    7.60
  -1   1 -17   61.21    8.27
  -1   1 -17   71.15    7.56
  -1   1 -17   76.88    8.00
  -1   1 -18  395.18   20.42
  -1   1 -18  345.15   19.94
  -1   1 -18  360.10   19.41
  -1   1 -18  364.22   19.68
  -1   1 -19  128.72    8.96
  -1   1 -19  149.02    9.14
  -1   1 -19  130.28    8.53
   1   2 -19  135.46    9.12
   1   2 -19  150.76    8.96
   1   2 -18   56.91    6.70
   1   2 -18   57.73    6.11
   1   2 -17   54.20    6.83
   1   2 -17   55.69    7.36
   1   2 -16   59.59    7.72
   1   2 -16   67.97    7.54
   1   2 -15  537.46   29.66
   1   2 -15  518.05   28.52
  -1   2  14  485.69   55.83
   1   2 -14  651.55   33.62
  -1   2  14  435.71   57.79
  -1   2  14  567.45   76.62
   1   2 -14  576.52   54.04
   1   2 -14  619.61   31.91
   1   2 -14  620.20   32.23
   1   2 -14  652.02   34.39
   1   2 -14  688.67   34.88
   1   2 -14  674.39   33.97
   1   2 -13   57.80    7.14
  -1   2  13   51.29   17.52
  -1   2  13   64.77   21.30
   1   2 -13   65.19    8.23
   1   2 -13   56.28    7.64
   1   2 -13   68.20   17.33
  -1   2  13   88.36   30.00
   1   2 -13   55.05    7.06
   1   2 -13   61.10    8.30
   1   2 -13   63.51    7.57
   1   2 -13   58.50    9.15
   1   2 -13   54.94    6.66
   1   2 -13   74.61    8.91
   1   2 -13   82.44    8.94
   1   2 -12  583.50   30.50
  -1   2  12  491.14   52.87
  -1   2  12  701.66   77.89
   1   2 -12  532.22   49.88
   1   2 -12  583.22   31.83
  -1   2  12  562.54   60.87
   1   2 -12  577.22   31.38
   1   2 -12  621.16   32.54
   1   2 -12  605.92   31.05
   1   2 -12  595.99   30.58
   1   2 -12  561.33   29.85
   1   2 -12  579.94   32.12
   1   2 -12  625.93   34.43
   1   2 -12  607.88   31.82
  -1   2  11   43.53   14.25
   1   2 -11   63.29    7.21
   1   2 -11   62.38   16.01
  -1   2  11   93.33   28.43
   1   2 -11   58.59    7.47
  -1   2  11   42.75   16.50
   1   2 -11   69.97   16.62
   1   2 -11   59.58    7.62
   1   2 -11   60.08   13.33
   1   2 -11   57.96    6.98
   1   2 -11   66.80    7.86
   1   2 -11   60.01    7.70
   1   2 -11   66.50    8.20
   1   2 -11   56.26    8.36
   1   2 -11   70.98    8.16
  -1   2  10   43.33   13.97
   1   2 -10   70.06   15.89
  -1   2  10   51.80   22.03
   1   2 -10   80.97    8.18
   1   2 -10   82.47   18.06
   1   2 -10   68.39    7.71
   1   2 -10   61.41   13.47
   1   2 -10   62.03    7.62
   1   2 -10   75.80    7.94
   1   2 -10   62.73    8.71
   1   2 -10   79.15    8.44
   1   2 -10   67.36    7.86
   1   2 -10   70.92    7.83
  -1   2   9 2673.45  160.20
   1   2  -9 2568.24  131.70
   1   2  -9 2744.55  135.48
  -1   2   9 2687.06  139.43
   1   2  -9 2642.61  112.30
   1   2  -9 2719.41  112.52
   1   2  -9 2736.12  112.74
   1   2  -9 2709.84  114.66
   1   2  -9 2625.63  112.34
   1   2  -9 2649.28  112.57
  -1   2   8  770.38   69.12
   1   2  -8  824.71   54.83
  -1   2   8  793.66   56.33
   1   2  -8  796.28   37.63
   1   2  -8  803.57   37.71
   1   2  -8  771.12   39.10
   1   2  -8  816.22   37.96
   1   2  -8  782.05   37.62
  -1   2   7 1083.85   67.46
   1   2  -7 1106.06   65.72
  -1   2   7 1155.93   82.37
   1   2  -7 1207.69   92.79
  -1   2   6  701.45   47.33
   1   2  -6  736.29   46.61
   1   2  -6  743.14   44.18
  -1   2   6  680.13   42.77
   1   2  -6  735.74   66.46
   1   2  -5  467.62   31.51
  -1   2   5  493.68   33.55
   1   2  -5  512.04   34.68
  -1   2   5  450.36   34.01
  -1   2   5  461.83   24.69
   1   2  -5  469.82   36.56
   1   2  -5  533.23   51.75
   1   2  -4  469.38   29.54
  -1   2   4  397.71   23.41
  -1   2   4  440.92   31.82
   1   2  -4  499.58   32.76
  -1   2   4  430.79   23.46
   1   2  -4  502.94   47.19
   1   2  -4  525.20   33.96
   1   2  -3 5044.52  240.06
   1   2  -3 5354.31  218.66
  -1   2   3 4997.05  213.58
   1   2  -3 5240.37  220.46
   1   2  -3 5314.36  216.38
   1   2  -2   69.40   16.54
  -1   2   2   64.78   10.26
  -1   2   2   72.03    9.82
   1   2  -2   55.01    7.95
   1   2  -2   49.83    9.25
  -1   2   2   82.22   10.36
   1   2  -2   67.26    8.87
   1   2  -1 2389.02  119.15
  -1   2   1 2319.15  101.34
   1   2  -1 2223.83   98.60
   1   2  -1 2464.06  107.09
   1   2  -1 2455.11  104.26
  -1   2   0  682.60   33.31
   1   2   0  688.56   37.25
  -1   2   0  668.27   43.41
   1   2   0  558.81   30.35
   1   2   0  735.26   47.04
  -1   2   0  678.15   44.09
   1   2   1 1867.95   90.24
  -1   2  -1 2056.93   85.20
  -1   2  -1 1765.87   92.44
  -1   2  -1 1990.34   99.27
  -1   2  -2  561.29   30.62
  -1   2  -2  601.35   38.56
  -1   2  -2  475.46   32.80
  -1   2  -2  504.09   30.38
  -1   2  -2  569.41   51.85
   1   2   2  657.09   39.65
  -1   2  -2  559.27   42.12
  -1   2  -3 1864.11   82.07
   1   2   3 1698.11   88.18
  -1   2  -3 1857.83   91.87
  -1   2  -3 1815.75   84.28
  -1   2  -3 1611.14   80.19
  -1   2  -3 1922.84  100.80
   1   2   3 1714.56   82.97
   1   2   3 1978.28   88.71
  -1   2  -3 2129.32  113.97
   1   2   4 1944.74  103.01
  -1   2  -4 2038.89   93.90
  -1   2  -4 2094.38   98.38
   1   2   4 2194.22   98.70
   1   2   4 1975.64   94.24
   1   2   4 2041.91   97.17
   1   2   5  397.64   31.85
   1   2   5  423.71   31.13
  -1   2  -5  400.01   28.27
   1   2   5  347.10   34.19
  -1   2  -5  386.20   31.42
   1   2   6  374.43   33.42
   1   2   6  376.09   30.67
   1   2   6  358.54   38.22
  -1   2  -6  420.42   30.30
  -1   2  -6  450.96   36.60
  -1   2  -6  347.58   32.51
   1   2   7  497.37   41.96
  -1   2  -7  452.72   55.50
   1   2   7  514.34   38.75
   1   2   7  618.39   46.95
  -1   2  -7  513.96   41.89
   1   2   7  469.13   46.81
  -1   2  -7  452.35   35.39
  -1   2  -7  548.48   42.87
  -1   2  -8  893.88   61.92
   1   2   8  881.27   56.58
   1   2   8  927.90   64.40
  -1   2  -8 1108.89   65.00
  -1   2  -8  853.11   55.12
   1   2   8  978.78   74.20
   1   2   8  877.65   63.45
  -1   2  -8  980.87   87.67
  -1   2  -8  830.57   40.71
  -1   2  -8  845.83   40.50
  -1   2  -8  837.08   40.32
  -1   2  -8  876.48   40.80
  -1   2  -8  850.94   40.26
  -1   2  -8  912.49   42.99
  -1   2  -8  858.54   40.23
  -1   2  -9   32.28   11.87
  -1   2  -9   32.79    5.47
   1   2   9   25.49   12.45
  -1   2  -9   28.78    9.28
   1   2   9    6.56    9.08
  -1   2  -9   54.51   23.01
  -1   2  -9   33.35    5.44
  -1   2  -9   37.03    5.60
   1   2   9   29.31   12.42
  -1   2  -9   31.50   10.73
  -1   2  -9   36.60    5.47
  -1   2  -9   28.58    4.91
  -1   2  -9   31.98    5.39
  -1   2  -9   36.39    6.42
  -1   2  -9   31.14    5.02
  -1   2 -10  812.33   64.64
   1   2  10  760.19   64.90
  -1   2 -10  780.14   40.02
  -1   2 -10  801.00   57.68
   1   2  10  819.47   76.88
  -1   2 -10  820.75   59.72
   1   2  10  886.02   70.43
  -1   2 -10  815.83   40.36
  -1   2 -10  827.82   40.35
  -1   2 -10  786.27   39.86
  -1   2 -10  849.10   40.31
  -1   2 -10  808.71   40.20
  -1   2 -10  829.62   40.35
  -1   2 -10  816.75   40.33
  -1   2 -10  856.23   42.97
  -1   2 -10  832.93   40.06
  -1   2 -10  814.13   40.15
  -1   2 -11  856.51   68.07
   1   2  11  745.45   66.35
  -1   2 -11  866.10   41.47
   1   2  11  830.86   82.17
  -1   2 -11  762.61   58.76
  -1   2 -11  784.08   59.26
  -1   2 -11  836.59   41.31
   1   2  11  794.25   70.82
  -1   2 -11  805.12   40.21
  -1   2 -11  806.29   40.97
  -1   2 -11  831.06   40.94
  -1   2 -11  835.72   41.23
  -1   2 -11  789.62   40.50
  -1   2 -11  794.87   40.59
  -1   2 -11  833.07   41.25
  -1   2 -11  851.68   43.74
  -1   2 -11  818.45   40.74
  -1   2 -12  107.08   10.58
   1   2  12  108.86   24.73
   1   2  12   69.19   24.96
   1   2  12   65.45   20.63
  -1   2 -12   85.48   17.50
  -1   2 -12   79.78    9.02
  -1   2 -12   95.87   10.08
  -1   2 -12  105.74   10.51
  -1   2 -12  101.35   10.30
  -1   2 -12   94.75    9.82
  -1   2 -12  118.14   10.80
  -1   2 -12  117.96   12.25
   1   2  13  465.68   54.92
  -1   2 -13  524.41   29.29
   1   2  13  453.78   64.59
  -1   2 -13  480.37   27.50
   1   2  13  392.45   53.05
  -1   2 -13  547.67   32.10
  -1   2 -13  510.05   28.74
  -1   2 -13  530.80   29.43
  -1   2 -13  591.56   30.40
  -1   2 -13  519.31   28.68
  -1   2 -14  193.26   16.97
  -1   2 -14  189.68   14.48
  -1   2 -14  187.60   14.10
  -1   2 -14  216.41   15.91
  -1   2 -14  207.21   15.41
  -1   2 -15  315.38   21.58
  -1   2 -15  288.41   19.18
  -1   2 -15  279.77   17.93
  -1   2 -15  299.19   19.42
  -1   2 -16  452.76   25.14
  -1   2 -16  440.61   26.74
  -1   2 -16  450.27   25.18
  -1   2 -17   83.19    7.80
  -1   2 -17   88.84    8.13
  -1   2 -17   90.24    8.43
  -1   2 -18   62.02    5.67
  -1   2 -18   74.39    6.68
  -1   2 -18   77.97    6.59
   1   3 -18  113.59    7.54
   1   3 -18   99.76    7.78
   1   3 -17   83.59    7.39
   1   3 -17   77.98    7.92
   1   3 -16   30.90    5.27
   1   3 -16   31.57    5.92
   1   3 -16   27.18    4.68
   1   3 -15  268.05   17.60
   1   3 -15  273.05   19.13
   1   3 -15  264.64   17.15
   1   3 -14  117.55   11.18
   1   3 -14  104.52   10.00
   1   3 -14  125.86   11.57
   1   3 -14  125.75   12.69
   1   3 -14  106.41   10.44
   1   3 -14  110.96   10.64
   1   3 -14  114.74   11.01
   1   3 -13 1042.90   49.46
   1   3 -13 1003.03   50.65
   1   3 -13 1067.35   50.74
   1   3 -13 1109.88   51.68
   1   3 -13 1011.68   49.58
   1   3 -13 1104.47   51.27
   1   3 -13 1088.92   53.41
   1   3 -13  974.41   48.44
   1   3 -13 1077.52   50.90
   1   3 -13 1087.85   51.43
   1   3 -12   84.18    9.22
  -1   3  12   52.10   17.35
   1   3 -12   88.58    9.75
  -1   3  12  109.01   32.64
   1   3 -12   69.60   17.98
   1   3 -12   82.48    9.42
   1   3 -12   89.38    9.77
   1   3 -12   89.97    9.93
   1   3 -12   84.47    9.34
   1   3 -12   94.53   11.05
   1   3 -12   91.87    9.91
  -1   3  11  124.07   25.32
   1   3 -11  171.21   14.05
   1   3 -11  188.28   31.16
  -1   3  11  168.96   38.67
   1   3 -11  153.83   25.36
   1   3 -11  163.67   25.82
   1   3 -11  182.63   14.32
   1   3 -11  172.52   14.04
   1   3 -11  177.62   14.44
   1   3 -11  176.87   14.37
   1   3 -11  169.16   13.94
   1   3 -11  202.78   16.44
  -1   3  10  484.83   50.13
  -1   3  10  583.91   70.62
   1   3 -10  531.94   48.36
   1   3 -10  469.08   46.61
   1   3 -10  558.85   57.04
   1   3 -10  561.34   30.33
   1   3 -10  536.40   30.39
   1   3 -10  543.69   30.32
   1   3 -10  539.47   29.95
   1   3 -10  598.70   32.75
   1   3 -10  576.19   30.19
  -1   3   9   18.69    9.93
  -1   3   9    8.49   10.42
   1   3  -9    4.08    5.61
   1   3  -9   24.81   10.72
   1   3  -9   12.71    3.85
   1   3  -9   10.79    3.87
   1   3  -9    6.85    3.18
   1   3  -9    4.14    3.49
   1   3  -9    6.62    3.09
   1   3  -9    5.83    3.00
  -1   3   8 1939.22  110.96
   1   3  -8 1977.46  145.17
  -1   3   8 1904.43  131.55
   1   3  -8 1938.07  106.86
   1   3  -8 1989.94   84.60
   1   3  -8 1858.08   84.02
   1   3  -8 1928.24   86.45
   1   3  -8 1984.64   85.07
   1   3  -8 1993.51   84.77
   1   3  -7 1020.06   97.73
   1   3  -7 1256.51   74.43
  -1   3   7 1221.92   94.22
  -1   3   7 1088.50   73.49
   1   3  -7 1154.29   53.22
   1   3  -7 1228.04   55.47
   1   3  -6  274.99   44.32
   1   3  -6  259.85   27.86
  -1   3   6  290.00   30.32
   1   3  -6  283.25   17.94
   1   3  -5   10.99   11.01
   1   3  -5    7.26    6.18
  -1   3   5    9.96    6.05
   1   3  -5    7.76    4.47
   1   3  -4  787.55   73.14
  -1   3   4  996.35   60.73
   1   3  -4  914.76   56.26
   1   3  -4  844.44   48.75
   1   3  -3  212.74   34.46
   1   3  -3  188.77   20.97
   1   3  -3  183.38   17.22
  -1   3   3  179.93   19.34
   1   3  -2 2907.63  160.44
   1   3  -2 2903.79  128.97
   1   3  -2 2930.74  137.11
  -1   3   2 2912.33  135.39
  -1   3   1  548.71   47.64
  -1   3   1  528.66   41.63
   1   3  -1  697.06   58.74
   1   3  -1  628.35   42.34
  -1   3   1  592.31   36.57
   1   3  -1  642.61   37.58
  -1   3   0  150.33   21.16
  -1   3   0  118.60   18.30
   1   3   0  159.17   25.83
   1   3   0  171.57   17.22
   1   3   0  190.45   20.64
  -1   3   0  136.86   14.73
  -1   3  -1  421.36   34.97
  -1   3  -1  596.67   59.30
  -1   3  -1  526.35   40.86
   1   3   1  486.18   45.79
   1   3   1  441.78   32.89
  -1   3  -1  551.54   32.77
   1   3   2  346.33   38.09
   1   3   2  379.47   35.72
  -1   3  -2  417.83   50.53
   1   3   2  324.79   28.53
  -1   3  -2  383.52   27.02
  -1   3  -2  417.97   36.67
  -1   3  -3 2690.63  155.33
   1   3   3 2492.18  123.42
   1   3   3 2275.55  117.06
  -1   3  -3 2370.47  110.92
  -1   3  -3 2489.33  126.22
   1   3   4 1359.92   76.46
  -1   3  -4 1456.13  109.65
  -1   3  -4 1502.47   86.57
   1   3   4 1385.25   82.13
  -1   3  -4 1312.47   70.92
   1   3   5  304.22   28.66
  -1   3  -5  252.47   43.91
   1   3   5  279.77   32.34
  -1   3  -5  222.03   22.70
  -1   3  -5  236.37   30.12
  -1   3  -6  143.83   34.33
  -1   3  -6  104.82   15.81
   1   3   6  135.44   24.35
   1   3   6  131.85   19.33
  -1   3  -6  117.84   10.69
  -1   3  -6  132.53    9.74
   1   3   7  196.66   25.55
  -1   3  -7  284.65   16.94
  -1   3  -7  282.36   49.58
  -1   3  -7  275.62   27.32
   1   3   7  268.59   36.71
  -1   3  -7  291.28   33.98
  -1   3  -7  254.26   15.85
  -1   3  -7  280.85   16.73
  -1   3  -7  252.01   15.87
  -1   3  -7  267.99   15.82
  -1   3  -7  241.42   17.37
   1   3   8  506.86   42.62
   1   3   8  636.71   55.48
  -1   3  -8  480.09   26.70
  -1   3  -8  486.41   40.37
  -1   3  -8  552.34   49.64
   1   3   8  493.22   53.71
  -1   3  -8  499.56   26.82
  -1   3  -8  488.60   27.04
  -1   3  -8  479.07   26.10
  -1   3  -8  486.84   25.85
  -1   3  -8  525.41   29.07
  -1   3  -8  508.93   26.57
   1   3   9 2194.88  126.28
   1   3   9 1991.88  131.17
  -1   3  -9 2045.99  117.87
  -1   3  -9 1901.07  106.43
  -1   3  -9 2030.55   87.51
  -1   3  -9 1995.90   86.93
  -1   3  -9 1982.08   86.12
  -1   3  -9 1998.41   87.24
  -1   3  -9 1956.86   86.55
  -1   3  -9 1932.84   86.05
  -1   3  -9 2041.84   89.51
   1   3  10  111.69   25.15
  -1   3 -10   70.58    8.68
  -1   3 -10   74.67   16.23
  -1   3 -10   77.28   29.33
  -1   3 -10   86.95    9.58
  -1   3 -10   85.54    9.33
  -1   3 -10   82.29   18.86
  -1   3 -10   69.78    8.45
  -1   3 -10   83.41    9.30
  -1   3 -10   76.50    8.69
  -1   3 -10   91.19   10.84
  -1   3 -10   78.04    8.72
  -1   3 -11  293.51   19.90
   1   3  11  334.30   44.72
  -1   3 -11  280.59   36.23
  -1   3 -11  268.63   32.05
  -1   3 -11  283.46   19.61
  -1   3 -11  338.49   20.42
  -1   3 -11  300.64   19.20
  -1   3 -11  282.73   19.42
  -1   3 -11  283.60   19.28
  -1   3 -11  299.67   21.53
  -1   3 -11  268.39   18.46
  -1   3 -11  279.56   19.53
  -1   3 -11  251.35   18.71
   1   3  12  250.49   40.19
  -1   3 -12  307.70   20.83
  -1   3 -12  228.49   32.72
  -1   3 -12  303.60   20.09
  -1   3 -12  338.79   21.38
  -1   3 -12  320.39   20.78
  -1   3 -12  316.86   20.60
  -1   3 -12  300.20   20.25
  -1   3 -12  320.70   20.88
  -1   3 -12  334.17   20.71
  -1   3 -12  314.52   20.60
  -1   3 -12  308.88   22.34
  -1   3 -12  329.33   21.08
  -1   3 -13   20.97    5.36
  -1   3 -13   16.59    4.34
  -1   3 -13   27.73    5.47
  -1   3 -13   25.41    5.30
  -1   3 -13   23.69    5.72
  -1   3 -13   33.65    6.42
  -1   3 -13   27.54    5.71
  -1   3 -13   25.18    6.37
  -1   3 -13   23.66    5.60
  -1   3 -14  466.96   26.72
  -1   3 -14  448.29   26.07
  -1   3 -14  479.92   27.22
  -1   3 -14  504.34   29.37
  -1   3 -14  473.56   26.53
  -1   3 -14  524.92   27.62
  -1   3 -14  470.57   26.10
  -1   3 -15  322.60   19.27
  -1   3 -15  292.27   17.87
  -1   3 -15  291.47   20.14
  -1   3 -15  317.16   18.91
  -1   3 -15  300.73   18.46
  -1   3 -16  109.14    8.63
  -1   3 -16  126.70    9.66
  -1   3 -16  118.32   10.69
  -1   3 -17  152.49    9.93
  -1   3 -17  156.13   11.21
   1   4 -16   90.11    7.08
   1   4 -16   80.87    7.43
   1   4 -15   67.61    6.71
   1   4 -15   64.16    6.64
   1   4 -15   57.88    6.96
   1   4 -14  153.85   11.86
   1   4 -14  169.50   12.46
   1   4 -14  159.65   11.72
   1   4 -14  163.64   12.29
   1   4 -14  145.65   12.71
   1   4 -14  166.92   12.30
   1   4 -13  178.02   13.49
   1   4 -13  177.96   13.66
   1   4 -13  195.00   14.65
   1   4 -13  190.79   14.17
   1   4 -13  200.59   14.64
   1   4 -13  196.34   15.66
   1   4 -13  205.14   14.87
   1   4 -13  201.10   14.86
   1   4 -13  217.75   15.07
   1   4 -12   58.72    7.59
   1   4 -12   62.90    8.09
   1   4 -12   69.57    8.17
   1   4 -12   55.93    7.94
   1   4 -12   49.98    7.35
   1   4 -12   44.45    7.80
   1   4 -12   60.10    8.10
   1   4 -12   62.52    8.12
   1   4 -11  321.86   20.71
   1   4 -11  327.86   21.24
   1   4 -11  310.09   20.48
   1   4 -11  313.90   20.77
   1   4 -11  337.89   22.45
   1   4 -11  338.93   21.48
   1   4 -11  309.82   21.01
  -1   4  10  788.42   86.99
   1   4 -10  740.69   66.04
   1   4 -10  744.81   62.61
   1   4 -10  852.04   78.84
   1   4 -10  855.26   43.14
   1   4 -10  876.36   43.33
   1   4 -10  857.00   42.51
   1   4 -10  868.75   44.38
   1   4 -10  840.86   42.41
   1   4 -10  863.49   43.05
   1   4  -9   66.03   16.93
  -1   4   9  105.19   30.70
   1   4  -9  103.12   26.34
   1   4  -9  107.76   10.68
   1   4  -9  100.58   10.19
   1   4  -9   91.07    9.44
   1   4  -9   97.62   10.07
   1   4  -9   96.15   11.02
   1   4  -9   83.87    9.63
   1   4  -9  113.23   24.09
   1   4  -8  118.51   21.33
  -1   4   8  113.91   30.94
   1   4  -8  143.15   27.12
   1   4  -8  121.62   11.07
   1   4  -8  109.33   10.35
   1   4  -8  120.82   11.17
   1   4  -8  124.41   12.19
   1   4  -8  101.62   10.68
   1   4  -7  203.49   44.65
  -1   4   7  162.83   36.02
   1   4  -7  191.54   27.73
   1   4  -7  264.72   16.99
   1   4  -7  224.17   15.70
   1   4  -7  220.75   16.75
   1   4  -7  248.69   16.76
   1   4  -6  243.09   29.09
  -1   4   6  192.06   28.26
   1   4  -6  225.19   15.15
   1   4  -6  207.16   43.48
   1   4  -5 1387.63  118.36
   1   4  -5 1509.76   88.50
   1   4  -4  199.47   40.00
   1   4  -4  184.86   24.79
   1   4  -3  673.78   72.77
   1   4  -3  595.12   47.83
  -1   4   3  620.07   44.54
  -1   4   3  660.10   65.91
  -1   4   2  113.52   19.35
   1   4  -2  138.21   31.71
  -1   4   2   97.92   23.17
  -1   4   2   96.65   15.52
   1   4  -2  161.29   22.20
  -1   4   1  441.43   41.48
  -1   4   1  384.26   32.43
   1   4  -1  506.24   41.19
   1   4  -1  426.53   54.52
   1   4   0  908.33   59.75
  -1   4   0  785.22   60.70
  -1   4   0  722.12   48.41
  -1   4   0  913.63   88.86
   1   4   0  858.37   76.07
  -1   4  -1 1591.99   98.49
  -1   4  -1 1563.39   82.20
   1   4   1 1529.69   91.28
   1   4   1 1613.23  104.17
   1   4   1 1650.97  111.93
  -1   4  -1 1752.88  131.63
   1   4   2  254.84   30.55
  -1   4  -2  292.70   26.54
  -1   4  -2  307.20   37.02
   1   4   2  280.22   36.61
  -1   4  -2  371.53   56.82
   1   4   3   97.37   16.87
   1   4   3  123.83   22.85
  -1   4  -3  143.64   37.51
  -1   4  -3  150.83   26.26
  -1   4  -4  223.90   33.16
   1   4   4  206.91   26.29
  -1   4  -4  257.70   48.70
  -1   4  -5   96.98   23.07
  -1   4  -5  140.51   38.70
   1   4   5  109.99   20.23
   1   4   5  179.72   25.30
  -1   4  -6  970.31   74.77
  -1   4  -6  873.89   41.17
  -1   4  -6  851.44   40.42
  -1   4  -7  566.62   79.70
  -1   4  -7  633.61   31.90
  -1   4  -7  631.07   31.57
  -1   4  -7  579.99   30.40
   1   4   8  329.87   45.42
  -1   4  -8  388.79   46.56
  -1   4  -8  369.41   65.38
  -1   4  -8  443.95   24.59
  -1   4  -8  383.86   23.36
  -1   4  -8  440.78   24.85
  -1   4  -8  410.77   23.24
   1   4   9   10.21   10.30
  -1   4  -9   32.49   21.12
  -1   4  -9   31.46    5.94
  -1   4  -9   34.51    6.55
  -1   4  -9   17.73   10.32
  -1   4  -9   31.28    5.66
  -1   4  -9   31.62    5.33
  -1   4  -9   32.54    5.57
  -1   4  -9   36.90    6.46
  -1   4  -9   27.34    6.09
   1   4  10  396.95   51.36
  -1   4 -10  428.03   48.65
  -1   4 -10  475.44   27.84
  -1   4 -10  422.07   70.53
  -1   4 -10  477.06   27.29
  -1   4 -10  459.63   26.21
  -1   4 -10  477.45   28.49
  -1   4 -10  492.39   27.27
  -1   4 -10  481.19   27.65
  -1   4 -10  457.94   25.95
  -1   4 -10  516.18   28.58
  -1   4 -11  681.35   35.79
  -1   4 -11  682.05   35.24
  -1   4 -11  655.50   33.76
  -1   4 -11  693.96   35.05
  -1   4 -11  702.59   36.05
  -1   4 -11  620.96   33.57
  -1   4 -11  677.91   35.39
  -1   4 -11  645.61   36.07
  -1   4 -11  661.38   35.71
  -1   4 -12  487.50   27.74
  -1   4 -12  463.55   26.72
  -1   4 -12  498.58   27.26
  -1   4 -12  509.85   27.87
  -1   4 -12  472.50   26.66
  -1   4 -12  477.76   25.83
  -1   4 -12  479.40   27.30
  -1   4 -12  486.59   27.42
  -1   4 -12  451.50   27.79
  -1   4 -12  491.27   27.60
  -1   4 -13  113.64   10.33
  -1   4 -13  104.30    9.56
  -1   4 -13   95.48    8.91
  -1   4 -13  115.80   10.29
  -1   4 -13  109.00   10.08
  -1   4 -13   96.57    9.89
  -1   4 -13  100.21   10.45
  -1   4 -13  105.70   10.14
  -1   4 -14  144.15   11.07
  -1   4 -14  155.74   11.48
  -1   4 -14  127.80    9.72
  -1   4 -14  146.43   11.28
  -1   4 -14  132.99   10.64
  -1   4 -14  121.32   11.09
  -1   4 -15   61.09    6.34
  -1   4 -15   58.91    6.58
  -1   4 -15   58.57    6.32
  -1   4 -16  120.06    8.32
   1   5 -14    2.00    1.92
   1   5 -13   18.23    3.83
   1   5 -13   24.71    4.12
   1   5 -13   21.49    3.44
   1   5 -13   26.82    4.35
   1   5 -13   23.16    4.21
   1   5 -12  305.61   18.27
   1   5 -12  323.81   18.76
   1   5 -12  344.40   19.03
   1   5 -12  312.07   17.68
   1   5 -12  308.28   18.23
   1   5 -12  325.11   18.93
   1   5 -12  292.74   17.86
   1   5 -12  302.99   18.46
   1   5 -11  771.14   37.79
   1   5 -11  807.05   39.30
   1   5 -11  802.05   39.17
   1   5 -11  813.88   39.43
   1   5 -11  765.79   38.45
   1   5 -11  825.04   39.48
   1   5 -10  112.65   10.71
   1   5 -10   92.85    9.89
   1   5 -10  107.68    9.73
   1   5 -10  101.23    9.61
   1   5 -10  112.22   10.28
   1   5 -10  117.57   10.84
   1   5  -9  120.92   11.23
   1   5  -9  114.73   10.35
   1   5  -9  123.73   11.20
   1   5  -9  110.01   10.35
   1   5  -9  116.15   11.19
   1   5  -8    8.72    3.97
   1   5  -8   10.78    3.56
   1   5  -8    6.81    3.54
   1   5  -8   13.71    3.91
   1   5  -7  121.93   10.87
   1   5  -7  105.10   10.49
   1   5  -7  126.91   11.56
   1   5  -6  927.84   68.48
   1   5  -6  911.50   79.15
   1   5  -6  974.72   46.25
   1   5  -6 1013.99   47.08
   1   5  -6  807.87   84.51
   1   5  -5  187.65   38.57
   1   5  -5  191.08   27.58
  -1   5   4  168.49   42.35
   1   5  -4  258.22   44.29
   1   5  -4  208.39   28.78
   1   5  -3  356.96   51.58
  -1   5   3  353.32   60.08
   1   5  -3  311.23   36.10
   1   5  -2   20.30   13.19
  -1   5   2   29.80   20.69
   1   5  -2   13.31    9.05
   1   5  -1  946.76   85.00
  -1   5   1  946.80  103.01
   1   5  -1  908.65   67.35
   1   5   0  266.17   42.18
  -1   5   0  336.29   59.71
  -1   5   0  371.14   42.95
   1   5   0  259.52   33.77
  -1   5  -1  148.05   27.42
  -1   5  -1   99.36   33.60
   1   5   1  124.58   27.66
   1   5   1  142.09   24.95
  -1   5  -2  789.63   94.40
  -1   5  -2  653.96   63.94
   1   5   2  769.73   60.79
  -1   5  -3   -3.21    6.81
  -1   5  -3    6.43   13.67
   1   5   3   12.25    7.95
  -1   5  -4   13.12   10.65
   1   5   4    7.55    8.17
  -1   5  -4   -6.57    8.06
  -1   5  -5  485.44   75.64
  -1   5  -5  543.70   28.13
  -1   5  -5  544.52   58.04
   1   5   5  371.57   44.86
  -1   5  -6   76.22   20.91
  -1   5  -6   66.76    7.88
  -1   5  -6   60.07   28.49
  -1   5  -6   76.73    8.66
   1   5   6   65.46   17.51
  -1   5  -7  653.77   34.03
  -1   5  -7  621.65   32.77
  -1   5  -7  631.94   33.32
  -1   5  -8  241.85   16.77
  -1   5  -8  266.81   18.13
  -1   5  -8  271.27   17.82
  -1   5  -8  269.05   18.40
  -1   5  -9   11.32    4.71
  -1   5  -9   14.81    3.82
  -1   5  -9   12.45    4.22
  -1   5  -9   17.13    4.71
  -1   5  -9   14.09    4.11
  -1   5 -10   43.82    7.04
  -1   5 -10   45.21    6.74
  -1   5 -10   31.21    5.46
  -1   5 -10   40.14    6.26
  -1   5 -10   43.25    5.78
  -1   5 -10   40.68    6.68
  -1   5 -11  128.89   10.70
  -1   5 -11  160.50   12.11
  -1   5 -11  142.56   11.93
  -1   5 -11  132.62   10.44
  -1   5 -11  146.24   11.85
  -1   5 -11  147.44   11.56
  -1   5 -12   90.55    8.42
  -1   5 -12   94.05    8.78
  -1   5 -12   89.59    8.69
  -1   5 -12   95.50    8.97
  -1   5 -12   95.04    8.59
  -1   5 -12  100.64    8.88
  -1   5 -13  316.13   17.60
  -1   5 -13  295.37   17.04
  -1   5 -13  330.83   17.79
  -1   5 -13  326.32   17.46
  -1   5 -13  304.62   17.34
  -1   5 -14   13.80    2.65
  -1   5 -14   16.89    2.88
   1   6 -11   68.15    6.01
   1   6 -11   58.23    5.29
   1   6 -11   64.82    5.93
   1   6 -11   59.94    5.70
   1   6 -11   69.52    5.92
   1   6 -11   63.99    5.98
   1   6 -10  183.31   11.80
   1   6 -10  163.95   10.85
   1   6 -10  195.49   11.91
   1   6 -10  186.05   11.90
   1   6 -10  171.74   11.26
   1   6  -9  110.12    9.42
   1   6  -9  113.78    9.08
   1   6  -9   96.96    8.18
   1   6  -9  122.54    9.83
   1   6  -9  118.19    9.41
   1   6  -8    7.64    3.01
   1   6  -8    2.42    2.13
   1   6  -8    6.15    3.26
   1   6  -8    5.94    3.04
   1   6  -7  175.94   12.76
   1   6  -7  159.55   11.42
   1   6  -7  164.65   12.11
   1   6  -7  187.35   13.29
   1   6  -6   54.78    7.03
   1   6  -6   50.46    6.21
   1   6  -6   53.70    6.72
   1   6  -5  298.44   18.36
   1   6  -5  324.78   19.37
   1   6  -4  152.45   11.90
  -1   6  -4  151.28   11.74
  -1   6  -5  101.99    9.40
  -1   6  -6  247.18   15.83
  -1   6  -6  253.50   16.51
  -1   6  -7  163.23   12.59
  -1   6  -7  146.67   11.35
  -1   6  -7  178.27   12.59
  -1   6  -8   42.92    6.26
  -1   6  -8   49.54    6.37
  -1   6  -8   44.75    5.61
  -1   6  -8   36.78    5.46
  -1   6  -9   12.12    3.64
  -1   6  -9   11.47    3.26
  -1   6  -9   17.35    3.82
  -1   6  -9   14.13    3.89
  -1   6  -9   14.93    3.25
  -1   6  -9   11.89    3.62
  -1   6 -10   92.02    8.01
  -1   6 -10   88.14    7.90
  -1   6 -10  104.18    7.85
  -1   6 -10   91.84    7.79
  -1   6 -10  101.53    8.35
  -1   6 -10   87.04    7.03
  -1   6 -11   39.77    4.45
  -1   6 -11   45.11    4.85
  -1   6 -11   48.85    4.87
  -1   6 -11   44.06    4.84
  -1   6 -11   39.46    4.26
   1   7  -6    5.92    2.12
   1   7  -6    4.52    1.93
   1   7  -5    2.38    1.57
   1   7  -4   35.74    4.11
   1   7  -4   23.91    3.29
   1   7  -3   84.67    6.60
  -1   7  -3  133.52    9.02
  -1   7  -4  112.97    8.09
  -1   7  -5   22.90    3.47
  -1   7  -6    2.65    1.78
  -2  -7   7  105.79    6.96
  -2  -7   5   45.94    7.39
  -2  -7   4   19.35    3.11
  -2  -7   4   34.32    6.90
   2  -7  -3   20.98    3.99
  -2  -7   3   14.72    3.04
  -2  -7   3   10.82    5.41
  -2  -7   3   16.07    3.72
   2  -7  -2  178.90   11.84
  -2  -7   2  154.59   10.83
  -2  -7   2  183.61   12.11
   2  -7  -1  213.62   13.04
  -2  -7   1  168.31   11.53
  -2  -7   1  165.87   16.00
  -2  -7   1  179.24   12.35
  -2  -7   0   53.43    6.10
  -2  -7   0   59.14    6.72
  -2  -7  -1    3.34    2.50
   2  -7   1    5.86    2.93
   2  -7   1    3.14    4.42
  -2  -7  -1    2.71    2.76
   2  -7   2   21.41    4.21
   2  -7   2   20.52    6.21
  -2  -7  -2   24.25    4.25
   2  -7   3   21.47    4.00
   2  -7   3   13.81    5.38
   2  -7   4  210.42   12.83
   2  -7   5   44.20    4.87
   2  -7   5   36.07    6.46
   2  -7   6   18.45    2.93
   2  -7   6   16.41    4.12
  -2  -6  11   62.12    5.80
  -2  -6  10  221.03   18.02
  -2  -6   9  210.20   18.29
  -2  -6   9  142.83   13.43
   2  -6  -8  120.76   13.36
  -2  -6   8   89.43   12.10
   2  -6  -7   18.22    6.85
  -2  -6   7   23.27    8.17
  -2  -6   7   13.97    6.89
   2  -6  -6  120.59   11.07
   2  -6  -6  106.13   14.36
  -2  -6   6   78.89   13.64
  -2  -6   6   79.64   13.84
   2  -6  -5   95.83   10.39
   2  -6  -5   74.93   13.13
  -2  -6   5   87.14   14.06
  -2  -6   5   91.57   15.24
  -2  -6   5  116.68   11.35
   2  -6  -4  412.52   25.48
   2  -6  -4  390.24   31.20
  -2  -6   4  397.14   31.23
  -2  -6   4  465.23   26.62
  -2  -6   4  430.45   33.85
   2  -6  -3   71.75   13.31
   2  -6  -3   72.95    9.54
  -2  -6   3   76.38   12.99
  -2  -6   3  103.76   16.40
  -2  -6   3   73.73    9.81
  -2  -6   2  228.89   17.23
   2  -6  -2  247.21   24.10
   2  -6  -2  235.42   17.83
  -2  -6   2  235.94   21.93
  -2  -6   2  231.17   17.68
  -2  -6   2  257.04   25.62
   2  -6  -2  241.61   16.98
   2  -6  -2  229.89   22.43
   2  -6  -1  151.86   18.71
   2  -6  -1  149.64   13.32
  -2  -6   1  107.73   11.43
  -2  -6   1  113.52   11.83
   2  -6  -1  105.30   10.71
   2  -6   0   22.62    6.01
  -2  -6   0   16.79    5.19
  -2  -6   0   24.77    9.40
  -2  -6   0   17.34    5.69
   2  -6   0   25.85    5.45
  -2  -6  -1  843.71   42.02
   2  -6   1  847.04   48.45
  -2  -6  -1  819.01   41.81
  -2  -6  -1  889.05   51.51
   2  -6   1  724.28   39.17
  -2  -6  -2  204.01   15.90
   2  -6   2  165.76   19.01
  -2  -6  -2  219.24   16.38
  -2  -6  -2  166.40   19.73
  -2  -6  -3  191.08   15.70
   2  -6   3  199.22   21.06
  -2  -6  -3  219.42   21.15
  -2  -6  -3  236.20   16.88
   2  -6   4   20.62    5.42
  -2  -6  -4   28.53    6.06
   2  -6   4   21.38    8.45
  -2  -6  -4   20.94    7.47
  -2  -6  -4   31.91    6.40
   2  -6   5  113.30   10.87
   2  -6   5  131.81   16.70
  -2  -6  -5  106.60   10.75
   2  -6   6  134.26   11.53
   2  -6   6  121.80   16.12
   2  -6   7  349.58   21.01
   2  -6   7  392.42   28.50
   2  -6   8   96.92    8.99
   2  -6   8  111.85   13.57
   2  -6   9   72.83    7.14
   2  -6   9   73.54   10.89
   2  -6   9   60.66    9.00
   2  -6  10   15.87    3.24
   2  -6  10   12.30    3.35
   2  -6  11   44.95    4.38
   2  -5 -14   42.18    5.72
  -2  -5  13    5.25    1.99
  -2  -5  13    4.86    4.35
   2  -5 -13    8.82    3.99
  -2  -5  12   40.31    5.21
  -2  -5  12   46.12    9.19
   2  -5 -12   44.65    7.68
  -2  -5  11  454.34   24.61
  -2  -5  11  505.35   33.99
   2  -5 -11  449.71   28.13
  -2  -5  10   63.55    7.66
  -2  -5  10   68.54   13.28
   2  -5 -10   54.55    9.18
   2  -5 -10   63.94   10.78
  -2  -5   9  183.69   14.21
  -2  -5   9  217.33   23.43
  -2  -5   9  187.89   19.66
   2  -5  -9  199.15   19.45
   2  -5  -9  180.09   16.95
  -2  -5   8   47.18    7.20
  -2  -5   8   48.42   10.82
  -2  -5   8   57.06   14.07
  -2  -5   8   70.47   12.98
   2  -5  -8   43.62    9.77
   2  -5  -8   46.05    8.65
  -2  -5   7    5.34    3.54
   2  -5  -7    7.11    4.56
  -2  -5   7    1.11    6.84
   2  -5  -7    5.13    5.48
  -2  -5   7    2.54    6.43
   2  -5  -7    7.42    4.91
   2  -5  -6  381.81   25.03
  -2  -5   6  361.83   23.23
  -2  -5   6  422.81   35.01
  -2  -5   6  404.46   31.34
  -2  -5   6  324.67   54.79
  -2  -5   6  446.29   35.05
   2  -5  -6  404.87   30.10
   2  -5  -6  358.38   25.27
  -2  -5   5  361.62   45.28
   2  -5  -5  490.88   33.81
  -2  -5   5  494.11   38.07
   2  -5  -5  435.72   27.96
   2  -5  -5  464.44   28.23
   2  -5  -5  487.46   36.43
  -2  -5   5  409.23   25.79
  -2  -5   5  473.81   37.32
  -2  -5   5  523.01   36.18
  -2  -5   5  394.29   58.55
  -2  -5   4  103.44   17.81
   2  -5  -4  143.67   17.12
   2  -5  -4  137.66   12.93
   2  -5  -4  111.47   14.72
  -2  -5   4  117.26   24.79
   2  -5  -4  132.02   13.06
  -2  -5   4  120.65   11.61
   2  -5  -4  138.67   18.56
  -2  -5   4  124.82   14.59
  -2  -5   4  119.80   18.15
  -2  -5   3  676.89   63.26
   2  -5  -3  690.31   62.10
  -2  -5   3  846.55   53.70
   2  -5  -3  695.90   46.12
   2  -5  -3  767.25   40.74
   2  -5  -3  821.38   48.04
  -2  -5   3  788.22   40.38
   2  -5  -3  828.71   51.37
   2  -5  -3  810.89   42.17
   2  -5  -3  823.30   45.72
  -2  -5   3  847.54   51.98
  -2  -5   3  811.53   49.49
  -2  -5   2  130.03   29.83
   2  -5  -2  188.85   29.33
  -2  -5   2  164.12   29.17
  -2  -5   2  210.68   18.67
   2  -5  -2  193.01   15.53
   2  -5  -2  221.90   21.29
   2  -5  -2  158.17   19.56
  -2  -5   2  227.10   24.70
  -2  -5   2  198.31   15.28
   2  -5  -2  207.06   22.67
   2  -5  -2  200.86   19.05
  -2  -5   2  206.04   21.39
  -2  -5   2  216.16   22.65
  -2  -5   1   36.19   16.41
   2  -5  -1   19.62   10.05
  -2  -5   1   33.01   13.55
   2  -5  -1   29.95    8.86
   2  -5  -1   31.39    9.90
   2  -5  -1   30.27    5.96
   2  -5  -1   35.16   10.29
   2  -5  -1   28.34    8.65
   2  -5  -1   37.47    8.77
  -2  -5   1   45.90   10.53
  -2  -5   1   33.53    8.29
  -2  -5   1   26.07    9.69
  -2  -5   0  612.01   58.20
  -2  -5   0  575.13   68.28
   2  -5   0  648.72   56.67
  -2  -5   0  687.46   37.33
  -2  -5   0  756.50   48.75
   2  -5   0  718.72   36.36
   2  -5   0  661.80   45.46
  -2  -5   0  627.61   38.54
  -2  -5   0  684.74   36.26
   2  -5   0  660.51   36.06
   2  -5   0  773.91   46.00
  -2  -5   0  637.01   42.01
   2  -5   0  685.22   41.74
  -2  -5   0  680.76   42.70
  -2  -5  -1  155.04   28.00
  -2  -5  -1  155.60   34.61
   2  -5   1  137.92   23.93
   2  -5   1  176.10   13.97
   2  -5   1  184.47   21.61
  -2  -5  -1  159.59   14.44
  -2  -5  -1  159.40   20.23
  -2  -5  -1  164.17   15.97
  -2  -5  -1  145.27   13.30
   2  -5   1  178.06   14.50
  -2  -5  -1  155.86   14.18
   2  -5   1  161.90   19.86
   2  -5   1  164.52   18.10
  -2  -5  -1  122.78   15.20
  -2  -5  -1  164.58   17.96
   2  -5   2  299.57   36.93
  -2  -5  -2  323.34   41.27
  -2  -5  -2  316.20   51.46
  -2  -5  -2  406.35   32.44
   2  -5   2  378.73   23.09
  -2  -5  -2  408.56   25.00
   2  -5   2  331.69   31.12
  -2  -5  -2  362.28   25.36
  -2  -5  -2  372.42   23.56
   2  -5   2  373.90   23.73
  -2  -5  -2  417.29   25.22
   2  -5   2  408.27   32.28
   2  -5   2  348.96   28.42
  -2  -5  -2  378.80   27.93
  -2  -5  -3  306.29   39.15
   2  -5   3  244.91   32.68
  -2  -5  -3  329.53   28.53
  -2  -5  -3  325.70   21.79
   2  -5   3  309.82   20.20
  -2  -5  -3  305.94   22.34
  -2  -5  -3  331.62   22.17
  -2  -5  -3  308.80   20.94
   2  -5   3  328.37   21.53
   2  -5   3  352.03   27.54
   2  -5   3  333.73   29.22
  -2  -5  -3  292.84   23.38
  -2  -5  -4    8.20    7.52
  -2  -5  -4    9.46   12.98
  -2  -5  -4   13.68    5.04
   2  -5   4   15.53    4.26
  -2  -5  -4   14.82    7.29
   2  -5   4   19.84    5.35
  -2  -5  -4   17.64    5.70
  -2  -5  -4   13.53    4.54
  -2  -5  -4   14.90    5.36
   2  -5   4   21.29    9.11
  -2  -5  -5  317.45   21.26
   2  -5   5  304.71   19.34
  -2  -5  -5  289.85   25.47
  -2  -5  -5  276.66   19.97
  -2  -5  -5  348.93   22.53
   2  -5   5  352.18   21.96
  -2  -5  -5  267.64   19.13
  -2  -5  -6  698.46   39.26
  -2  -5  -6  656.18   36.87
   2  -5   6  853.64   40.33
  -2  -5  -6  529.50   69.72
  -2  -5  -6  768.94   39.24
  -2  -5  -7   62.00    8.32
   2  -5   7   81.23    9.92
   2  -5   7   81.86   15.68
   2  -5   8  614.17   33.73
   2  -5   8  592.97   42.70
   2  -5   9   90.14   10.05
   2  -5   9   89.24   15.38
   2  -5  10    6.18    3.75
   2  -5  10   17.91    8.24
   2  -5  11  204.93   14.16
   2  -5  11  161.68   18.05
   2  -5  11  158.28   14.87
   2  -5  12   78.65    7.83
   2  -5  12   70.45   10.94
   2  -5  13  193.89   11.92
   2  -5  13  160.80   14.25
   2  -5  14  105.33    7.17
   2  -4 -16   52.78    6.72
  -2  -4  15  287.84   15.73
   2  -4 -15  333.69   20.80
  -2  -4  14  210.60   13.68
   2  -4 -14  237.62   19.51
  -2  -4  14  184.88   17.09
  -2  -4  13   61.12    7.49
   2  -4 -13   75.10   12.06
  -2  -4  13   59.16   11.20
  -2  -4  12  162.85   13.15
   2  -4 -12  140.82   14.67
   2  -4 -12  147.57   17.74
  -2  -4  12  161.64   19.20
   2  -4 -12  142.17   16.70
   2  -4 -11   94.10   14.75
   2  -4 -11   90.81   12.23
  -2  -4  11  124.85   11.41
   2  -4 -11   84.46   11.33
  -2  -4  11  122.07   17.63
   2  -4 -11   95.93   14.27
  -2  -4  10  596.26   61.62
   2  -4 -10  654.80   38.65
  -2  -4  10  670.07   35.59
   2  -4 -10  689.17   44.90
  -2  -4  10  639.99   40.73
   2  -4 -10  655.98   38.34
   2  -4 -10  719.74   43.78
   2  -4  -9  494.65   31.35
  -2  -4   9  437.74   27.36
   2  -4  -9  535.85   37.47
   2  -4  -9  491.03   31.15
  -2  -4   9  487.02   72.01
  -2  -4   9  439.77   32.87
   2  -4  -9  578.89   36.69
  -2  -4   8  786.93   39.96
   2  -4  -8  843.42   50.24
   2  -4  -8  739.30   40.77
   2  -4  -8  786.39   40.26
  -2  -4   8  764.21   46.96
   2  -4  -8  784.36   43.46
  -2  -4   8  667.43   86.04
  -2  -4   8  753.92   48.42
  -2  -4   7  250.86   35.26
   2  -4  -7  235.78   17.87
  -2  -4   7  262.41   17.43
   2  -4  -7  261.92   24.28
  -2  -4   7  249.35   23.24
  -2  -4   7  298.50   53.29
   2  -4  -7  204.32   16.22
   2  -4  -7  250.27   20.06
   2  -4  -7  182.93   16.28
  -2  -4   7  278.84   25.66
  -2  -4   6  635.24   56.69
  -2  -4   6  655.88   42.77
  -2  -4   6  665.76   32.32
   2  -4  -6  564.86   32.39
   2  -4  -6  544.93   39.13
  -2  -4   6  682.32   36.14
  -2  -4   6  656.87   40.17
   2  -4  -6  553.05   30.52
  -2  -4   6  661.16   79.62
   2  -4  -6  576.49   34.73
   2  -4  -6  434.13   30.62
  -2  -4   5  246.62   33.86
   2  -4  -5  279.37   19.01
   2  -4  -5  264.86   20.94
  -2  -4   5  330.11   28.16
  -2  -4   5  277.09   21.01
   2  -4  -5  297.57   19.79
  -2  -4   5  279.80   18.27
   2  -4  -5  272.85   25.01
  -2  -4   5  311.23   25.60
   2  -4  -5  234.34   18.93
  -2  -4   5  273.90   49.43
   2  -4  -5  266.83   20.77
   2  -4  -4 1254.39   82.39
  -2  -4   4 1336.93   86.59
  -2  -4   4 1105.43   85.77
   2  -4  -4 1278.11   65.13
   2  -4  -4 1283.57   58.83
  -2  -4   4 1329.54   70.90
   2  -4  -4 1268.88   61.19
  -2  -4   4 1292.42   62.08
  -2  -4   4 1274.45   57.89
   2  -4  -4 1322.49   68.31
   2  -4  -4 1263.50   59.35
  -2  -4   4 1263.58   66.77
  -2  -4   4 1390.67  109.88
   2  -4  -4 1364.35   64.56
   2  -4  -4 1073.32   59.32
   2  -4  -4 1269.44   62.17
  -2  -4   3  363.60   39.09
  -2  -4   3  324.12   42.76
   2  -4  -3  375.92   38.16
   2  -4  -3  353.62   27.01
   2  -4  -3  355.64   21.40
   2  -4  -3  363.75   23.14
   2  -4  -3  361.89   26.96
  -2  -4   3  377.19   30.57
  -2  -4   3  341.39   23.60
  -2  -4   3  311.96   20.12
   2  -4  -3  405.40   26.69
   2  -4  -3  284.33   21.87
   2  -4  -3  391.56   27.33
  -2  -4   3  307.91   46.59
  -2  -4   2  469.64   45.01
  -2  -4   2  408.88   50.79
   2  -4  -2  525.11   44.98
  -2  -4   2  488.61   36.24
   2  -4  -2  498.31   27.17
   2  -4  -2  495.48   33.02
   2  -4  -2  492.42   33.81
  -2  -4   2  465.72   26.34
   2  -4  -2  529.84   32.84
   2  -4  -2  564.08   34.63
  -2  -4   2  486.41   55.77
  -2  -4   1  189.36   34.45
  -2  -4   1  195.44   27.19
   2  -4  -1  156.37   23.77
   2  -4  -1  142.14   16.53
   2  -4  -1  150.34   17.60
  -2  -4   1  198.49   21.09
   2  -4  -1  166.61   12.98
  -2  -4   1  221.69   16.85
   2  -4  -1  149.33   12.54
  -2  -4   1  215.82   13.98
   2  -4  -1  151.07   16.14
  -2  -4   1  218.13   33.38
   2  -4  -1  158.91   17.29
   2  -4   0  182.76   25.24
  -2  -4   0  265.96   31.29
  -2  -4   0  244.16   39.02
   2  -4   0  195.77   19.19
   2  -4   0  195.97   20.59
  -2  -4   0  234.29   23.03
   2  -4   0  186.05   14.18
  -2  -4   0  245.22   18.18
   2  -4   0  198.04   20.38
  -2  -4   0  254.63   15.66
   2  -4   0  178.60   14.16
   2  -4   0  218.99   20.93
   2  -4   0  234.77   20.07
  -2  -4  -1  962.44   67.61
   2  -4   1  881.66   62.55
  -2  -4  -1  960.27   84.04
   2  -4   1  963.32   52.70
  -2  -4  -1 1008.09   56.16
   2  -4   1  939.48   54.98
   2  -4   1  930.50   44.67
  -2  -4  -1  908.19   47.95
   2  -4   1  961.28   45.58
   2  -4   1  969.11   54.62
   2  -4   1  984.84   54.50
  -2  -4  -2  535.27   47.99
   2  -4   2  603.79   47.14
  -2  -4  -2  565.66   63.27
  -2  -4  -2  541.37   30.52
  -2  -4  -2  570.45   30.90
   2  -4   2  607.34   39.34
   2  -4   2  554.83   30.11
   2  -4   2  623.44   39.45
   2  -4   2  527.06   38.49
  -2  -4  -2  534.55   37.48
  -2  -4  -2  584.32   30.75
   2  -4   2  549.02   29.18
  -2  -4  -3  289.78   25.67
  -2  -4  -3  297.57   19.83
   2  -4   3  376.49   29.00
  -2  -4  -3  294.88   20.18
  -2  -4  -3  309.37   20.51
  -2  -4  -3  335.03   20.33
   2  -4   3  357.46   21.09
  -2  -4  -3  261.57   32.81
   2  -4   3  352.90   34.47
  -2  -4  -4   36.81   18.18
  -2  -4  -4   42.77   13.37
   2  -4   4   64.98   13.07
  -2  -4  -4   51.69    7.28
  -2  -4  -4   53.45   10.44
   2  -4   4   49.15   12.76
  -2  -4  -4   39.84    6.85
  -2  -4  -4   39.46    6.79
  -2  -4  -4   44.48    7.02
   2  -4   4   59.02    7.88
   2  -4   4   45.29   16.25
  -2  -4  -5  401.73   42.35
   2  -4   5  347.52   36.80
  -2  -4  -5  440.90   57.75
  -2  -4  -5  433.48   26.42
  -2  -4  -5  468.79   25.85
  -2  -4  -5  439.39   26.48
  -2  -4  -5  482.23   26.74
   2  -4   5  414.36   25.57
   2  -4   5  386.89   49.96
  -2  -4  -5  417.15   31.06
   2  -4   5  384.98   33.37
  -2  -4  -5  418.37   25.34
  -2  -4  -5  453.86   28.13
  -2  -4  -6  393.59   55.73
   2  -4   6  406.72   38.95
  -2  -4  -6  343.76   40.65
  -2  -4  -6  430.74   25.60
  -2  -4  -6  471.99   26.69
   2  -4   6  458.31   26.43
  -2  -4  -6  402.29   25.88
  -2  -4  -6  382.66   25.45
   2  -4   6  399.39   54.11
  -2  -4  -6  371.81   28.97
  -2  -4  -6  426.35   25.45
  -2  -4  -6  458.18   29.08
  -2  -4  -7  655.92   74.67
  -2  -4  -7  857.57   41.92
  -2  -4  -7  742.59   41.04
   2  -4   7  864.62   42.37
   2  -4   7  723.24   78.83
  -2  -4  -7  742.15   40.19
  -2  -4  -7  796.59   44.79
  -2  -4  -8  128.57   30.90
  -2  -4  -8   97.63   11.16
  -2  -4  -8   96.74   11.25
   2  -4   8   62.02   24.44
  -2  -4  -8  115.93   13.95
  -2  -4  -9   70.79   23.01
  -2  -4  -9   69.98    9.70
  -2  -4  -9   64.01    9.62
  -2  -4  -9   67.51    9.13
   2  -4   9   80.67   27.10
  -2  -4  -9   85.21   12.01
  -2  -4 -10   73.28   10.11
  -2  -4 -10   75.06    9.82
  -2  -4 -10   74.81   10.20
  -2  -4 -10   92.51   12.92
  -2  -4 -11  182.52   15.53
  -2  -4 -11  164.58   14.80
  -2  -4 -11  189.31   18.30
  -2  -4 -12  212.61   17.12
  -2  -4 -12  284.33   21.57
  -2  -4 -13  219.19   16.57
   2  -4  13  279.24   17.93
   2  -4  13  205.03   20.59
  -2  -4 -13  245.33   19.45
   2  -4  14   79.72    8.22
   2  -4  14   68.22    9.89
  -2  -4 -14   60.16    9.03
   2  -4  15   19.62    3.88
   2  -4  16  108.56    7.48
   2  -3 -18  201.84   11.87
   2  -3 -17   24.11    5.15
   2  -3 -17   38.29    5.97
   2  -3 -17   30.20    6.03
   2  -3 -16   82.87   10.18
   2  -3 -16   90.89   11.66
  -2  -3  16   92.48    7.98
   2  -3 -16   86.63   10.52
   2  -3 -16   84.66   11.23
   2  -3 -15  153.54   16.43
   2  -3 -15  128.27   13.85
   2  -3 -15  126.53   14.13
   2  -3 -15  137.73   15.64
   2  -3 -14  104.68   13.02
   2  -3 -14  107.32   12.71
   2  -3 -14   89.54   14.02
   2  -3 -14  100.70   12.44
   2  -3 -14  118.03   15.19
   2  -3 -13  355.53   25.55
   2  -3 -13  386.01   27.21
   2  -3 -13  384.83   30.42
   2  -3 -13  313.73   24.86
  -2  -3  13  368.89   29.03
   2  -3 -13  356.06   28.71
   2  -3 -12  404.22   28.74
   2  -3 -12  397.44   27.56
   2  -3 -12  420.97   32.79
   2  -3 -12  379.33   25.88
   2  -3 -12  399.53   28.23
  -2  -3  12  385.55   63.56
   2  -3 -12  394.56   30.82
   2  -3 -11  223.37   19.27
   2  -3 -11  242.40   20.78
   2  -3 -11  225.27   19.97
  -2  -3  11  170.84   44.23
   2  -3 -11  203.22   17.45
   2  -3 -11  251.43   23.33
   2  -3 -10  204.08   18.66
   2  -3 -10  194.57   17.64
   2  -3 -10  195.56   16.72
   2  -3 -10  214.08   19.18
  -2  -3  10  190.44   43.75
  -2  -3  10  181.53   18.30
   2  -3 -10  210.37   21.11
   2  -3  -9  389.70   27.43
   2  -3  -9  396.66   26.57
   2  -3  -9  460.54   32.91
  -2  -3   9  383.48   28.06
   2  -3  -9  378.98   25.22
   2  -3  -9  429.03   28.58
   2  -3  -9  399.62   30.03
  -2  -3   8  121.38   25.03
   2  -3  -8  177.46   15.85
   2  -3  -8  183.42   16.66
   2  -3  -8  206.48   20.31
  -2  -3   8  158.58   16.91
   2  -3  -8  172.46   16.53
   2  -3  -8  185.11   15.03
   2  -3  -8  168.09   18.17
  -2  -3   7 1273.36   89.53
   2  -3  -7 1564.09   74.89
   2  -3  -7 1418.59   67.24
   2  -3  -7 1482.73   69.43
   2  -3  -7 1456.67   70.46
   2  -3  -7 1651.61   77.06
  -2  -3   7 1533.15   69.50
   2  -3  -7 1647.71   72.41
   2  -3  -7 1462.06   67.89
  -2  -3   7 1460.12  121.63
  -2  -3   7 1433.46   72.72
  -2  -3   6  283.28   31.05
   2  -3  -6  300.42   23.29
   2  -3  -6  289.01   20.64
   2  -3  -6  285.73   18.74
  -2  -3   6  336.06   51.90
  -2  -3   6  314.72   20.46
  -2  -3   5  434.36   40.68
  -2  -3   5  462.37   41.64
  -2  -3   5  363.65   52.10
   2  -3  -5  352.20   25.13
  -2  -3   5  402.85   24.01
  -2  -3   4  299.68   32.14
   2  -3  -4  365.61   33.57
  -2  -3   4  299.69   35.26
   2  -3  -4  352.40   22.70
  -2  -3   4  288.46   43.93
  -2  -3   4  272.95   19.25
  -2  -3   3  158.35   21.44
   2  -3  -3  183.18   21.99
  -2  -3   3  158.90   25.83
  -2  -3   3  143.90   29.48
  -2  -3   3  132.31   11.88
  -2  -3   2 1936.17  120.82
  -2  -3   2 1984.12  102.40
  -2  -3   2 1900.06  114.60
   2  -3  -2 1868.37   98.61
   2  -3  -1 3151.02  142.29
  -2  -3   1 2881.90  156.81
  -2  -3   1 2899.33  141.31
   2  -3  -1 2764.18  136.54
  -2  -3   1 2994.62  158.22
   2  -3   0  189.79   24.30
  -2  -3   0  221.67   29.35
  -2  -3   0  265.41   26.27
   2  -3   0  182.77   21.07
  -2  -3   0  268.15   36.06
   2  -3   1  448.88   42.16
  -2  -3  -1  521.85   42.46
   2  -3   1  456.32   35.41
  -2  -3  -1  526.03   40.12
  -2  -3  -1  598.15   54.60
   2  -3   2  544.00   48.78
  -2  -3  -2  513.77   39.90
   2  -3   2  513.67   37.18
   2  -3   3  655.86   58.40
   2  -3   3  774.29   68.48
   2  -3   3  628.34   39.49
  -2  -3  -3  696.76   48.38
   2  -3   3  643.64   43.82
  -2  -3  -3  765.71   65.54
   2  -3   4 1477.39  103.34
   2  -3   4 1618.75  113.40
   2  -3   4 1474.63   76.05
  -2  -3  -4 1543.91   86.52
   2  -3   4 1680.28   83.39
  -2  -3  -4 1493.67  104.40
  -2  -3  -5  502.83   54.85
   2  -3   5  538.30   39.49
  -2  -3  -5  550.22   43.59
  -2  -3  -5  509.00   28.22
   2  -3   5  509.58   57.38
   2  -3   5  492.99   34.65
   2  -3   6  240.82   25.62
  -2  -3  -6  242.69   28.41
  -2  -3  -6  257.90   38.80
   2  -3   6  189.85   20.88
   2  -3   6  229.01   22.44
   2  -3   6  202.41   39.97
  -2  -3  -6  249.95   17.50
  -2  -3  -6  213.59   23.89
  -2  -3  -6  280.87   17.86
  -2  -3  -6  262.64   17.56
  -2  -3  -7    9.52    5.51
  -2  -3  -7    9.48    4.06
   2  -3   7   15.51    6.87
  -2  -3  -7    6.38    3.27
  -2  -3  -7    3.88    3.05
   2  -3   7   11.86    6.75
   2  -3   7   18.75   17.25
  -2  -3  -7    3.43    8.41
   2  -3   7   18.93    8.45
  -2  -3  -8   75.01    9.84
  -2  -3  -8   76.78   10.12
  -2  -3  -8   96.08    9.76
   2  -3   8  151.36   37.81
   2  -3   8  116.55   15.99
  -2  -3  -8  116.14   26.50
   2  -3   8  109.37   17.85
   2  -3   8  121.34   20.82
  -2  -3  -9  581.18   32.83
  -2  -3  -9  608.50   33.40
  -2  -3  -9  528.36   30.41
   2  -3   9  609.01   76.43
   2  -3   9  511.86   47.91
  -2  -3  -9  461.54   56.28
  -2  -3 -10 1552.70   70.60
  -2  -3 -10 1401.26   69.33
  -2  -3 -10 1459.64   67.19
   2  -3  10 1600.71  131.66
   2  -3  10 1439.99   93.25
  -2  -3 -10 1334.18  102.96
   2  -3  11  118.77   23.09
  -2  -3 -11  143.39   12.45
  -2  -3 -11  124.71   13.35
  -2  -3 -11  130.12   13.73
  -2  -3 -12    6.09    5.36
  -2  -3 -12    2.87    4.57
  -2  -3 -13   47.36   10.29
  -2  -3 -13   34.18    7.82
  -2  -3 -14   58.34   10.87
  -2  -3 -14   70.03    9.88
  -2  -3 -15  644.64   36.79
  -2  -3 -15  648.71   35.04
  -2  -3 -16  257.14   18.16
  -2  -3 -16  254.06   16.97
  -2  -3 -17   54.42    6.30
   2  -2 -19  291.40   16.29
   2  -2 -18   66.62    6.81
   2  -2 -18   96.49   10.25
   2  -2 -17  134.37   12.76
   2  -2 -17  128.78   11.90
   2  -2 -16   54.83    9.00
   2  -2 -16   57.14    9.15
   2  -2 -15   86.37   11.75
   2  -2 -15   70.55    8.12
   2  -2 -14  872.75   47.58
   2  -2 -14  866.84   42.60
  -2  -2  13  305.27   43.52
  -2  -2  13  237.59   45.62
  -2  -2  13  355.08   45.66
   2  -2 -13  366.53   21.90
   2  -2 -13  356.77   25.89
   2  -2 -13  357.71   24.72
  -2  -2  13  358.32   60.39
  -2  -2  12  115.64   31.10
  -2  -2  12   80.01   21.12
   2  -2 -12  109.51   10.25
  -2  -2  12   60.11   25.37
   2  -2 -12   90.22   11.17
   2  -2 -12  102.79   12.89
  -2  -2  11  250.67   43.37
  -2  -2  11  266.24   37.71
   2  -2 -11  267.66   17.44
   2  -2 -11  247.87   17.81
  -2  -2  11  280.40   52.09
   2  -2 -10  273.07   21.42
  -2  -2  10  223.62   39.23
  -2  -2  10  337.91   40.01
   2  -2 -10  253.45   21.21
   2  -2 -10  261.65   16.74
   2  -2 -10  257.13   17.55
  -2  -2  10  204.72   43.63
   2  -2  -9 1215.57   58.76
  -2  -2   9 1169.81   89.73
  -2  -2   9 1198.65   82.02
   2  -2  -9 1212.38   59.36
   2  -2  -9 1120.13   52.02
   2  -2  -9 1166.14   53.67
   2  -2  -9 1133.55   55.38
  -2  -2   9 1153.61  103.18
   2  -2  -8 1695.47   76.49
   2  -2  -8 1721.37   77.81
  -2  -2   8 1911.92  103.81
   2  -2  -8 1645.34   72.93
   2  -2  -8 1612.29   74.93
   2  -2  -8 1932.89  104.79
  -2  -2   8 1506.75  119.82
  -2  -2   8 1616.84  106.60
  -2  -2   7  150.39   22.62
  -2  -2   7  141.12   18.80
  -2  -2   7  162.01   33.68
   2  -2  -7  200.07   25.84
  -2  -2   7  151.18   25.40
  -2  -2   6 1739.80   96.95
  -2  -2   6 1720.93   94.19
   2  -2  -6 1888.26   99.28
  -2  -2   6 1746.66  100.01
  -2  -2   5  420.41   35.83
  -2  -2   5  411.12   37.04
  -2  -2   5  424.19   35.92
  -2  -2   5  464.23   41.14
   2  -2  -5  426.50   35.99
  -2  -2   4  535.59   31.48
  -2  -2   4  520.77   43.98
  -2  -2   4  493.30   35.92
  -2  -2   4  479.66   40.43
   2  -2  -4  544.90   39.32
   2  -2  -3 2769.51  126.67
  -2  -2   3 3009.25  124.68
  -2  -2   3 3127.24  141.52
  -2  -2   3 2696.98  133.85
  -2  -2   3 2477.36  119.15
  -2  -2   3 2597.14  130.50
   2  -2  -3 2725.16  127.84
  -2  -2   2 3637.16  154.15
  -2  -2   2 3541.93  153.53
   2  -2  -2 3359.07  149.72
  -2  -2   2 3246.13  164.04
  -2  -2   2 3112.24  153.88
   2  -2  -2 3903.22  160.02
   2  -2  -2 3230.32  150.96
  -2  -2   2 3207.86  156.82
   2  -2  -1 1303.10   62.96
  -2  -2   1 1323.33   65.69
  -2  -2   1 1346.01   79.03
  -2  -2   1 1298.68   67.83
   2  -2  -1 1348.53   71.98
  -2  -2   1 1155.07   54.22
   2  -2   0 1149.65   66.46
   2  -2   0  972.59   52.91
  -2  -2   0 1057.63   56.82
  -2  -2   0 1123.58   71.29
   2  -2   1  615.54   46.79
   2  -2   1  559.95   32.87
  -2  -2  -1  520.18   34.82
   2  -2   2  346.00   35.90
  -2  -2  -2  291.75   24.47
   2  -2   2  349.74   23.19
  -2  -2  -2  337.71   35.88
   2  -2   3 2383.44  134.61
   2  -2   3 2547.06  111.60
  -2  -2  -3 2422.76  115.01
  -2  -2  -3 2590.87  135.20
   2  -2   3 2523.25  110.81
   2  -2   4  199.72   30.70
  -2  -2  -4  131.97   16.30
  -2  -2  -4  145.86   18.37
   2  -2   4  172.43   16.90
   2  -2   4  160.16   15.76
  -2  -2  -4  130.44   24.01
   2  -2   5 2840.54  154.72
   2  -2   5 2848.07  128.99
  -2  -2  -5 2720.47  134.27
   2  -2   5 2884.64  126.13
  -2  -2  -5 2603.72  128.98
  -2  -2  -5 2682.29  146.79
   2  -2   5 2901.31  159.16
   2  -2   6  981.15   78.15
   2  -2   6  999.37   62.80
   2  -2   6  930.89   56.79
  -2  -2  -6  782.98   58.08
  -2  -2  -6  869.26   67.77
   2  -2   6  963.58   53.96
   2  -2   6  900.97   77.27
  -2  -2  -7  681.21   54.46
   2  -2   7  753.77   51.89
  -2  -2  -7  684.24   59.81
   2  -2   7  681.22   68.45
   2  -2   7  766.18   56.93
  -2  -2  -7  725.29   36.02
  -2  -2  -7  763.43   36.36
   2  -2   7  781.51   74.35
  -2  -2  -8 1252.71   81.93
   2  -2   8 1470.02   82.91
  -2  -2  -8 1168.38   86.41
   2  -2   8 1231.51  101.56
   2  -2   8 1513.49   90.04
  -2  -2  -8 1263.86   59.70
  -2  -2  -8 1323.93   60.23
  -2  -2  -8 1366.73   60.32
   2  -2   8 1418.87  108.01
  -2  -2  -9  560.89   51.39
  -2  -2  -9  571.47   33.37
   2  -2   9  709.71   54.22
  -2  -2  -9  637.71   57.36
   2  -2   9  653.25   72.24
  -2  -2  -9  642.07   32.83
   2  -2   9  662.98   58.44
  -2  -2  -9  617.98   32.65
  -2  -2  -9  611.04   32.49
   2  -2   9  685.43   74.07
  -2  -2 -10  535.03   30.82
  -2  -2 -10  507.30   29.98
  -2  -2 -10  448.94   47.07
   2  -2  10  534.65   49.62
   2  -2  10  392.82   60.43
   2  -2  10  499.43   52.96
  -2  -2 -10  523.23   28.78
  -2  -2 -10  481.80   28.35
  -2  -2 -10  505.49   28.45
   2  -2  10  483.89   64.79
  -2  -2 -11 1918.44  122.71
  -2  -2 -11 2063.84   95.73
  -2  -2 -11 2247.09   97.05
   2  -2  11 2245.89  126.84
   2  -2  11 1899.64  150.89
   2  -2  11 2168.04  134.23
  -2  -2 -11 2143.30   93.87
  -2  -2 -11 2116.81   94.20
  -2  -2 -11 2146.61   93.65
   2  -2  11 2088.71  151.87
   2  -2  12   -2.78    4.82
   2  -2  12   -5.56   15.26
  -2  -2 -12    5.15    3.97
   2  -2  12    6.86    9.41
  -2  -2 -12    7.11    4.11
  -2  -2 -12    3.81    3.28
  -2  -2 -12    2.85    7.81
  -2  -2 -12    5.79    4.35
   2  -2  13   16.95   10.46
   2  -2  13   11.25   15.47
  -2  -2 -13   31.38    8.33
   2  -2  13   38.35   16.04
  -2  -2 -13   31.95    6.44
  -2  -2 -13   30.71    5.88
  -2  -2 -13   29.71    7.36
  -2  -2 -14  422.07   28.95
  -2  -2 -14  378.14   23.59
  -2  -2 -14  378.61   22.80
  -2  -2 -14  378.39   25.38
  -2  -2 -15    3.73    4.51
  -2  -2 -15    8.79    5.55
  -2  -2 -16  403.13   25.10
  -2  -2 -16  372.93   25.04
  -2  -2 -17  160.02   12.83
  -2  -2 -17  137.38   12.25
  -2  -2 -18   38.02    5.41
   2  -1 -19   36.24    5.33
   2  -1 -19   28.94    5.02
   2  -1 -19   25.71    5.42
   2  -1 -18  200.31   15.03
   2  -1 -18  171.11   11.66
   2  -1 -18  184.55   16.19
   2  -1 -17  352.25   23.71
   2  -1 -17  324.57   19.50
   2  -1 -16  521.06   31.65
   2  -1 -16  535.78   33.56
   2  -1 -16  571.13   29.52
   2  -1 -16  504.19   30.57
   2  -1 -15  200.24   15.24
   2  -1 -15  194.61   14.14
   2  -1 -15  216.33   19.52
   2  -1 -15  180.78   17.10
   2  -1 -14   16.39    6.61
  -2  -1  14   34.91   18.36
  -2  -1  14   19.73   11.43
   2  -1 -14   16.31    4.73
   2  -1 -14   27.20    6.11
   2  -1 -14   21.90    4.65
   2  -1 -14   16.83    5.83
   2  -1 -13  319.00   23.49
  -2  -1  13  321.83   42.67
   2  -1 -13  295.38   20.54
   2  -1 -13  299.68   19.00
   2  -1 -13  316.56   22.14
  -2  -1  13  286.59   49.83
  -2  -1  13  235.04   45.59
   2  -1 -12  300.65   22.32
  -2  -1  12  301.77   48.15
  -2  -1  12  321.37   41.04
   2  -1 -12  284.79   19.40
   2  -1 -12  286.12   17.98
  -2  -1  12  247.74   47.00
   2  -1 -12  276.69   20.51
   2  -1 -11 1663.31   77.48
  -2  -1  11 1907.24  127.80
  -2  -1  11 1756.38  107.26
   2  -1 -11 1780.63   79.21
   2  -1 -11 1540.13   71.62
   2  -1 -11 1697.28   76.11
  -2  -1  11 1706.52  128.05
   2  -1 -10  801.41   42.21
  -2  -1  10  855.55   75.84
  -2  -1  10  890.68   66.16
   2  -1 -10  761.38   42.61
   2  -1 -10  810.68   37.62
   2  -1 -10  790.24   41.01
  -2  -1  10  819.00   80.92
  -2  -1   9 2032.85  111.44
  -2  -1   9 1853.30  111.34
   2  -1  -9 1913.82   83.58
   2  -1  -9 2004.62  117.29
  -2  -1   9 2145.76  127.20
  -2  -1   8  516.80   42.75
  -2  -1   8  432.83   42.37
   2  -1  -8  527.20   47.01
  -2  -1   8  472.22   48.30
  -2  -1   7 1894.40   97.57
  -2  -1   7 1637.79   98.99
   2  -1  -7 1849.85  103.21
  -2  -1   7 1918.82  107.60
  -2  -1   7 1727.07  104.92
  -2  -1   6  998.42   65.53
  -2  -1   6 1020.02   62.23
   2  -1  -6 1152.94   69.43
  -2  -1   6 1047.64   68.81
  -2  -1   6 1186.58   73.36
  -2  -1   5  531.34   36.96
  -2  -1   5  503.31   39.55
   2  -1  -5  517.48   40.76
  -2  -1   5  583.64   41.87
  -2  -1   5  492.89   42.55
  -2  -1   4  494.10   34.16
  -2  -1   4  510.61   38.44
   2  -1  -4  470.33   37.24
  -2  -1   4  543.73   36.90
  -2  -1   4  585.40   43.92
  -2  -1   3  580.53   36.40
  -2  -1   3  533.63   40.62
   2  -1  -3  638.98   34.87
  -2  -1   3  638.75   37.25
  -2  -1   3  652.10   44.44
   2  -1  -3  597.75   40.69
  -2  -1   2 1714.73   89.73
  -2  -1   2 1647.68   91.19
  -2  -1   2 1811.69   78.07
   2  -1  -2 1787.99   78.86
  -2  -1   2 1676.48   89.19
   2  -1  -2 1892.66   91.27
  -2  -1   1 4538.07  212.63
  -2  -1   1 4779.99  213.57
  -2  -1   1 4869.31  211.46
   2  -1  -1 5317.51  214.89
   2  -1  -1 4882.13  197.92
  -2  -1   1 4794.19  209.80
  -2  -1   0 6248.86  260.65
  -2  -1   0 6238.14  244.61
   2  -1   0 5948.65  241.29
   2  -1   0 6008.04  241.12
  -2  -1   0 5860.06  251.78
  -2  -1   0 5730.99  255.19
   2  -1   0 5891.52  259.26
  -2  -1  -1  299.23   24.33
  -2  -1  -1  302.17   22.70
   2  -1   1  282.81   16.47
  -2  -1  -1  319.34   18.86
   2  -1   1  278.68   14.01
  -2  -1  -1  324.42   29.73
   2  -1   1  278.92   15.58
  -2  -1  -2 1960.41   95.57
  -2  -1  -2 1811.82   84.23
   2  -1   2 1909.27   82.55
   2  -1   2 1991.56   80.60
  -2  -1  -2 1986.43   87.57
   2  -1   2 1944.26   83.03
   2  -1   3 1003.12   63.31
  -2  -1  -3  933.79   46.22
  -2  -1  -3 1032.66   60.15
  -2  -1  -3  952.56   52.58
   2  -1   3  971.38   48.09
   2  -1   3 1021.73   44.57
  -2  -1  -3  945.11   60.88
  -2  -1  -3  941.38   47.88
   2  -1   3 1057.14   65.99
   2  -1   4  926.00   61.53
   2  -1   4 1159.89   57.37
  -2  -1  -4 1066.43   51.63
   2  -1   4 1099.85   48.90
  -2  -1  -4  988.92   46.50
  -2  -1  -4  985.50   60.17
   2  -1   4 1085.81   66.52
   2  -1   5  388.28   40.08
   2  -1   5  378.81   32.87
  -2  -1  -5  373.73   28.41
  -2  -1  -5  402.88   34.15
   2  -1   5  378.74   28.33
  -2  -1  -5  355.38   33.86
   2  -1   5  341.04   37.87
   2  -1   6 1813.10  114.16
   2  -1   6 1939.98  104.10
  -2  -1  -6 1979.32   94.69
  -2  -1  -6 1990.48  104.80
   2  -1   6 1957.15   96.81
  -2  -1  -6 1904.76  102.94
   2  -1   6 1873.20  113.89
   2  -1   7   17.58   12.99
   2  -1   7   27.86   11.99
  -2  -1  -7   18.44    6.97
  -2  -1  -7   20.17    8.79
  -2  -1  -7   15.37    7.86
   2  -1   7   45.73   11.26
   2  -1   7   27.15   14.15
   2  -1   8 1265.30   93.70
   2  -1   8 1450.30   81.52
  -2  -1  -8 1315.70   79.68
  -2  -1  -8 1291.74   86.14
   2  -1   8 1309.78   99.70
  -2  -1  -8 1405.79   60.50
   2  -1   8 1415.79   89.15
  -2  -1  -8 1347.24   59.97
  -2  -1  -8 1383.95   72.41
  -2  -1  -8 1339.94   60.25
  -2  -1  -8 1309.51   59.30
   2  -1   9  250.85   38.62
  -2  -1  -9  227.50   31.34
  -2  -1  -9  250.52   16.95
   2  -1   9  286.54   31.78
   2  -1   9  164.08   34.74
   2  -1   9  242.42   34.26
  -2  -1  -9  252.39   16.18
  -2  -1  -9  214.08   15.39
  -2  -1  -9  218.84   15.15
  -2  -1  -9  239.89   16.14
  -2  -1  -9  222.44   14.93
  -2  -1 -10  497.94   28.69
  -2  -1 -10  484.11   28.35
  -2  -1 -10  468.14   48.27
   2  -1  10  492.72   46.45
   2  -1  10  428.88   59.76
   2  -1  10  583.22   57.08
  -2  -1 -10  516.45   27.60
   2  -1  10  495.91   57.21
  -2  -1 -10  474.74   26.74
  -2  -1 -10  471.12   27.55
  -2  -1 -10  493.25   26.40
   2  -1  11  359.79   41.37
   2  -1  11  345.01   55.77
   2  -1  11  370.40   47.89
  -2  -1 -11  416.31   23.97
  -2  -1 -11  360.34   43.55
  -2  -1 -11  373.02   24.63
  -2  -1 -11  368.05   24.43
  -2  -1 -11  381.82   23.73
  -2  -1 -11  385.88   23.06
   2  -1  12   92.15   21.53
   2  -1  12  154.51   38.34
   2  -1  12  111.94   27.78
  -2  -1 -12  119.44   11.52
  -2  -1 -12  102.03   11.85
  -2  -1 -12   67.57   21.06
  -2  -1 -12  111.27   10.84
   2  -1  13  497.99   53.16
   2  -1  13  474.52   69.74
   2  -1  13  470.42   58.83
  -2  -1 -13  555.00   30.47
  -2  -1 -13  510.15   29.23
  -2  -1 -13  514.44   31.23
  -2  -1 -13  482.85   54.29
  -2  -1 -14  293.12   21.35
   2  -1  14  291.84   39.68
   2  -1  14  211.78   46.30
  -2  -1 -14  290.86   23.30
  -2  -1 -14  270.08   19.72
   2  -1  14  287.52   44.73
  -2  -1 -14  311.54   20.64
  -2  -1 -14  316.62   20.35
  -2  -1 -14  310.34   20.00
  -2  -1 -15  378.84   26.49
  -2  -1 -15  408.63   24.08
  -2  -1 -15  400.46   23.95
  -2  -1 -15  368.08   22.69
  -2  -1 -15  373.99   24.46
  -2  -1 -16   80.09   10.38
  -2  -1 -16   69.14    8.50
  -2  -1 -16   75.03    8.71
  -2  -1 -16   88.57   10.99
  -2  -1 -17  136.64   10.58
  -2  -1 -17  143.59   12.59
  -2  -1 -18   43.25    6.13
  -2  -1 -19  154.74    9.86
  -2  -1 -19  177.56   11.09
   2   0 -19    6.48    3.05
   2   0 -19    4.41    3.51
   2   0 -19    4.52    2.10
   2   0 -18  185.05   14.61
   2   0 -18  189.26   12.83
   2   0 -17  174.35   13.01
   2   0 -17  219.36   17.21
   2   0 -17  205.52   14.50
   2   0 -16  248.56   20.13
   2   0 -16  241.91   18.02
   2   0 -16  226.43   16.33
   2   0 -16  236.39   16.34
   2   0 -15  546.78   32.27
   2   0 -15  554.35   29.99
   2   0 -15  567.76   30.85
   2   0 -15  520.80   30.08
  -2   0  14   20.36   15.32
  -2   0  14   28.45   13.46
   2   0 -14   19.01    6.05
   2   0 -14   24.97    5.31
   2   0 -14   24.29    5.53
   2   0 -14   22.51    5.38
   2   0 -13  108.22   11.56
  -2   0  13  120.49   31.60
  -2   0  13  129.67   26.79
   2   0 -13  107.47   12.65
   2   0 -13  104.71   10.85
   2   0 -13  132.83   11.30
   2   0 -13  115.31   11.40
   2   0 -12 1107.35   53.17
  -2   0  12 1157.31   99.31
  -2   0  12 1082.76   80.64
  -2   0  12  955.36   92.74
   2   0 -12 1051.68   54.06
   2   0 -12 1122.74   51.23
   2   0 -12 1115.76   52.38
   2   0 -12 1066.46   52.09
   2   0 -11   31.51    6.02
  -2   0  11   18.79   13.09
  -2   0  11   19.69   14.54
   2   0 -11   15.27    8.20
  -2   0  11   34.55   13.25
  -2   0  11   27.62   15.35
   2   0 -11   38.80    7.07
   2   0 -11   27.99    4.86
   2   0 -11   32.87    5.73
   2   0 -11   37.47    6.10
   2   0 -10 1466.21   98.26
   2   0 -10 1434.52   64.43
  -2   0  10 1504.41   90.75
  -2   0  10 1433.88  106.46
   2   0 -10 1400.03   62.23
   2   0 -10 1406.87   62.01
   2   0 -10 1436.19   62.74
   2   0 -10 1368.27   63.30
   2   0 -10 1433.88   83.24
  -2   0  10 1531.04  106.26
  -2   0   9 1500.65   93.15
  -2   0   9 1661.70  106.58
   2   0  -9 1416.94   83.10
  -2   0   9 1560.14   90.35
   2   0  -9 1684.30  100.66
   2   0  -8   -1.26    3.79
  -2   0   8   -2.55    6.99
  -2   0   8    5.81    6.72
  -2   0   8    1.57    5.78
   2   0  -8   10.90    8.87
   2   0  -7  119.78   15.39
  -2   0   7  116.22   21.59
  -2   0   7  111.97   19.07
   2   0  -7   95.83   19.04
  -2   0   7  123.20   17.07
  -2   0   6 1140.81   72.68
   2   0  -6 1130.82   59.93
  -2   0   6 1159.33   69.52
   2   0  -6 1203.88   72.73
  -2   0   6 1092.90   75.75
  -2   0   6 1119.12   62.63
   2   0  -6 1153.11   60.41
  -2   0   5 1770.54   93.96
   2   0  -5 1686.38   82.11
  -2   0   5 1873.20   93.82
   2   0  -5 1904.90   95.59
  -2   0   5 1685.75   84.15
  -2   0   5 1818.40  101.38
   2   0  -5 1730.49   84.44
  -2   0   4 5651.29  232.71
   2   0  -4 5411.70  220.64
   2   0  -4 5388.50  233.45
  -2   0   4 5263.46  221.95
  -2   0   4 5172.16  238.56
   2   0  -4 5206.19  225.03
   2   0  -3    3.74    2.75
  -2   0   3    4.19    4.81
   2   0  -3   -0.83    4.34
   2   0  -3    3.35    4.95
  -2   0   3    6.65    3.61
  -2   0   3    4.33    7.09
   2   0  -2  954.80   45.82
   2   0  -2  920.37   41.61
  -2   0   2  906.65   50.65
  -2   0   2  870.95   55.43
  -2   0   2  869.27   43.85
  -2   0   2  874.56   53.47
  -2   0   2  851.76   41.26
  -2   0   2  829.57   54.71
  -2   0   1  280.14   26.05
   2   0  -1  319.36   25.75
  -2   0   1  287.91   19.49
   2   0  -1  284.75   19.18
   2   0  -1  284.08   16.07
  -2   0   1  242.95   23.74
  -2   0   0  357.92   25.71
   2   0   0  412.56   24.03
  -2   0   0  364.01   23.99
   2   0   0  391.65   29.94
  -2   0   0  335.18   30.08
   2   0   0  359.90   21.69
  -2   0   0  398.17   30.43
  -2   0  -1 7232.19  290.43
  -2   0  -1 7105.53  288.93
   2   0   1 7155.31  287.07
  -2   0  -1 7303.32  299.03
   2   0   1 6748.93  297.16
   2   0   1 6986.73  286.19
  -2   0  -1 6672.91  300.95
  -2   0  -2 3934.38  175.76
  -2   0  -2 3944.71  164.48
  -2   0  -2 3893.65  175.85
   2   0   2 3726.64  162.08
   2   0   2 3835.61  174.40
   2   0   2 3644.03  166.07
  -2   0  -2 3896.35  163.55
  -2   0  -3  551.87   44.16
   2   0   3  579.92   37.25
  -2   0  -3  544.49   35.73
  -2   0  -3  533.68   41.79
   2   0   3  554.20   31.91
   2   0   3  477.73   41.16
   2   0   3  549.26   38.27
  -2   0  -3  524.61   32.24
  -2   0  -3  592.17   35.42
   2   0   4  182.48   16.98
   2   0   4  181.28   18.32
  -2   0  -4  186.24   24.40
  -2   0  -4  153.36   19.18
  -2   0  -4  204.63   26.49
   2   0   4  157.16   19.34
   2   0   4  155.78   20.89
  -2   0  -4  173.79   17.72
  -2   0  -5   60.95   11.07
   2   0   5   56.96   11.27
   2   0   5   50.33   10.03
  -2   0  -5   55.60   13.27
   2   0   5   63.85   13.34
   2   0   5   71.19   15.96
  -2   0  -5   63.69   10.89
   2   0   6 4419.55  196.00
  -2   0  -6 4619.45  205.31
  -2   0  -6 4077.37  190.82
   2   0   6 4778.20  206.92
   2   0   6 4610.07  212.85
  -2   0  -6 4467.17  194.60
  -2   0  -7 2850.18  146.45
   2   0   7 2946.35  138.65
  -2   0  -7 2700.55  128.49
   2   0   7 3086.01  149.43
  -2   0  -7 2975.87  135.27
   2   0   7 2868.00  155.08
   2   0   8  552.08   50.95
   2   0   8  519.33   54.36
  -2   0  -8  471.46   37.13
  -2   0  -8  543.29   48.47
   2   0   8  484.97   41.25
  -2   0  -8  526.01   26.40
  -2   0  -9  261.12   34.52
   2   0   9  274.41   31.19
  -2   0  -9  250.84   25.57
   2   0   9  203.14   36.82
   2   0   9  266.08   35.73
  -2   0  -9  262.98   16.73
  -2   0  -9  260.43   16.23
  -2   0  -9  255.15   17.47
  -2   0  -9  259.85   16.31
  -2   0  -9  249.80   16.16
  -2   0 -10    7.67    3.62
  -2   0 -10    5.25    7.89
   2   0  10    6.71    7.26
   2   0  10   16.15   12.14
   2   0  10    3.11    6.62
  -2   0 -10    7.02    5.18
  -2   0 -10   13.50    3.68
  -2   0 -10    9.63    2.72
  -2   0 -10    9.23    3.69
  -2   0 -10   12.93    4.35
  -2   0 -10    6.32    3.17
  -2   0 -11   52.27   16.90
  -2   0 -11   60.74    8.23
   2   0  11   63.15   17.16
   2   0  11   95.46   28.54
   2   0  11   76.99   22.86
  -2   0 -11   66.60    8.04
  -2   0 -11   72.41    8.52
  -2   0 -11   58.38    7.41
  -2   0 -11   71.87    8.09
  -2   0 -11   64.87    8.70
  -2   0 -12 1857.30  121.44
  -2   0 -12 1947.77   86.41
   2   0  12 1880.80  117.69
   2   0  12 1773.86  140.60
   2   0  12 1826.28  128.68
  -2   0 -12 1932.18   85.22
  -2   0 -12 2031.83   86.20
  -2   0 -12 1846.83   83.83
  -2   0 -12 1948.33   84.47
  -2   0 -12 1895.37   86.96
  -2   0 -13  534.29   58.16
  -2   0 -13  583.02   32.89
   2   0  13  485.86   53.71
   2   0  13  534.16   72.39
   2   0  13  572.46   66.84
  -2   0 -13  605.97   32.63
  -2   0 -13  599.95   33.01
  -2   0 -13  588.88   33.88
  -2   0 -13  545.34   30.65
  -2   0 -13  626.29   32.68
  -2   0 -14    3.33    7.07
  -2   0 -14    1.78    3.71
   2   0  14    9.19    9.20
   2   0  14   -5.42   11.52
  -2   0 -14    1.48    3.74
  -2   0 -14    7.24    3.93
  -2   0 -14    3.72    2.68
  -2   0 -14    0.55    3.29
  -2   0 -14    4.56    4.07
  -2   0 -14    4.16    4.13
   2   0  14    4.17    8.86
  -2   0 -15  122.48   11.11
  -2   0 -15   91.59   10.37
  -2   0 -15   83.62    9.82
  -2   0 -15  110.62   10.77
  -2   0 -15   78.80   10.29
  -2   0 -16    9.20    3.97
  -2   0 -16    7.06    3.62
  -2   0 -16    4.36    4.40
  -2   0 -16   16.34    4.57
  -2   0 -17  176.41   12.67
  -2   0 -17  186.30   14.41
  -2   0 -17  175.36   13.25
  -2   0 -18  316.85   18.68
  -2   0 -18  355.27   18.65
  -2   0 -19    1.01    1.35
   2   1 -19   29.14    3.92
   2   1 -18  179.25   11.83
   2   1 -18  193.55   12.50
   2   1 -17  305.41   18.52
   2   1 -17  295.04   19.01
   2   1 -17  306.27   20.11
   2   1 -16  602.16   30.92
   2   1 -16  561.63   30.01
   2   1 -16  544.09   31.23
   2   1 -16  567.19   32.92
   2   1 -15  218.74   15.78
   2   1 -15  186.04   14.74
   2   1 -15  196.07   16.13
   2   1 -14   30.72    5.98
   2   1 -14   21.79    5.17
   2   1 -14   32.88    5.24
   2   1 -14   28.61    6.75
  -2   1  14   21.06   11.72
  -2   1  14   28.59   18.59
   2   1 -13  330.73   38.27
  -2   1  13  325.47   41.83
  -2   1  13  273.13   53.44
   2   1 -13  337.92   21.52
   2   1 -13  352.14   21.56
   2   1 -13  350.91   21.89
   2   1 -13  320.14   19.84
   2   1 -13  365.98   23.32
   2   1 -12  260.59   32.70
  -2   1  12  222.41   32.88
   2   1 -12  237.93   15.49
   2   1 -12  235.83   16.13
   2   1 -12  262.01   17.25
   2   1 -12  244.55   16.75
   2   1 -12  233.35   15.57
   2   1 -12  247.77   18.17
   2   1 -12  244.67   17.14
   2   1 -11 1841.34   99.17
  -2   1  11 1660.35  100.45
   2   1 -11 1541.46   69.45
   2   1 -11 1602.47   70.55
   2   1 -11 1622.79   71.24
   2   1 -11 1659.48   71.69
   2   1 -11 1553.24   69.71
   2   1 -11 1590.28   73.08
   2   1 -11 1657.70   71.85
   2   1 -10  826.53   58.31
  -2   1  10  779.18   59.37
   2   1 -10  774.89   37.20
   2   1 -10  813.72   38.12
   2   1 -10  802.78   38.56
   2   1 -10  824.58   38.96
   2   1 -10  768.17   37.37
   2   1 -10  808.24   39.04
   2   1 -10  791.19   40.26
   2   1 -10  844.79   39.42
   2   1  -9 1975.44  114.31
   2   1  -9 1912.46   99.87
  -2   1   9 1927.30  103.76
  -2   1   9 1824.44  100.85
   2   1  -9 1850.97   97.61
   2   1  -9 1841.05   78.02
   2   1  -9 1838.15   78.66
   2   1  -9 1810.01   78.36
   2   1  -9 1828.60   78.75
   2   1  -9 1859.35   79.06
   2   1  -9 1767.73   80.08
   2   1  -8  433.05   36.50
   2   1  -8  453.49   35.80
  -2   1   8  432.50   38.29
  -2   1   8  389.48   35.06
   2   1  -8  471.01   44.73
   2   1  -7 1805.62   93.56
   2   1  -7 1684.46   88.26
   2   1  -7 1758.38   90.11
  -2   1   7 1705.80   93.13
  -2   1   7 1638.89   88.11
   2   1  -7 1783.42  100.96
   2   1  -6 1011.09   60.35
   2   1  -6 1000.04   54.58
   2   1  -6  938.32   54.75
  -2   1   6  878.30   57.63
  -2   1   6  862.50   52.13
   2   1  -6  907.59   61.85
   2   1  -5  554.56   40.61
   2   1  -5  525.95   35.01
   2   1  -5  545.96   35.99
  -2   1   5  509.18   38.59
  -2   1   5  484.09   32.12
   2   1  -5  538.94   41.27
   2   1  -4  570.50   40.93
   2   1  -4  625.01   37.21
  -2   1   4  511.04   38.98
   2   1  -4  636.41   36.58
  -2   1   4  518.84   31.23
   2   1  -4  621.61   42.24
  -2   1   3  581.42   48.11
  -2   1   3  546.55   29.37
   2   1  -3  642.51   42.20
   2   1  -3  616.55   35.46
  -2   1   3  632.18   41.22
   2   1  -3  631.68   36.68
  -2   1   3  592.85   30.69
  -2   1   3  622.62   44.28
   2   1  -3  606.38   40.64
  -2   1   2 1945.41   95.18
  -2   1   2 1980.50   90.29
  -2   1   2 1927.16   80.45
   2   1  -2 1617.27   82.83
   2   1  -2 1975.16   83.07
  -2   1   2 1793.92   91.17
  -2   1   2 1894.60   99.76
  -2   1   2 1690.96   72.48
   2   1  -1 4729.30  201.95
  -2   1   1 4525.02  204.95
  -2   1   1 4767.46  201.64
  -2   1   1 4531.19  193.21
   2   1  -1 4772.58  196.07
   2   1  -1 4747.88  193.61
  -2   1   1 4517.77  202.45
  -2   1   1 4386.97  208.55
   2   1   0 6031.74  252.67
   2   1   0 6110.87  248.34
  -2   1   0 5927.71  246.44
  -2   1   0 5905.62  254.41
  -2   1   0 5651.95  258.13
  -2   1  -1  207.41   19.70
   2   1   1  245.32   20.68
  -2   1  -1  235.59   25.95
   2   1   1  311.57   24.05
   2   1   1  301.12   24.06
   2   1   2 1825.51   84.24
  -2   1  -2 1949.90   92.46
  -2   1  -2 1873.13   99.47
   2   1   2 2021.82   94.64
  -2   1  -2 1995.04  105.55
   2   1   2 2036.30   93.23
   2   1   3  872.05   48.79
  -2   1  -3  882.70   51.52
  -2   1  -3  888.14   57.28
   2   1   3  910.07   50.19
   2   1   3  879.54   54.08
  -2   1  -3  940.18   63.97
  -2   1  -3  938.10   62.20
   2   1   4  893.31   55.89
   2   1   4  944.90   53.73
  -2   1  -4 1002.82   61.04
   2   1   4  929.42   59.39
  -2   1  -4 1031.54   70.90
   2   1   4 1004.25   58.21
  -2   1  -4  947.08   66.98
   2   1   5  410.60   36.42
  -2   1  -5  441.27   34.17
  -2   1  -5  426.56   37.78
  -2   1  -5  426.21   36.65
   2   1   5  501.54   34.58
   2   1   5  422.46   38.87
   2   1   5  435.79   36.33
  -2   1  -5  466.93   46.56
  -2   1  -5  476.59   45.19
  -2   1  -6 2031.18  120.33
   2   1   6 1948.22  106.56
   2   1   6 1811.64  108.40
  -2   1  -6 2089.25  102.66
  -2   1  -6 2022.54  108.06
   2   1   6 2007.87  100.61
   2   1   6 2010.58  102.44
  -2   1  -7   27.50    8.73
  -2   1  -7   26.22   14.31
   2   1   7   20.26   10.27
   2   1   7    9.36    8.64
  -2   1  -7   19.69    9.69
   2   1   7   20.27    8.36
   2   1   7   14.34    7.60
   2   1   8 1546.51   86.86
  -2   1  -8 1479.85   94.55
   2   1   8 1576.23   89.96
   2   1   8 1546.96  102.04
  -2   1  -8 1589.96   86.12
   2   1   8 1481.57   95.97
  -2   1  -8 1450.17   65.74
  -2   1  -8 1661.15  109.54
  -2   1  -8 1526.54   66.21
  -2   1  -8 1523.52   65.82
  -2   1  -8 1504.91   66.25
  -2   1  -8 1508.04   66.01
  -2   1  -8 1497.33   66.26
  -2   1  -8 1492.01   67.85
  -2   1  -8 1539.55   66.07
  -2   1  -9  247.53   33.21
  -2   1  -9  279.67   17.23
   2   1   9  284.12   33.15
  -2   1  -9  306.48   30.83
   2   1   9  273.85   40.76
  -2   1  -9  243.76   16.46
   2   1   9  288.08   37.67
  -2   1  -9  257.60   16.54
  -2   1  -9  267.86   17.07
  -2   1  -9  272.57   16.82
  -2   1  -9  245.47   16.40
  -2   1  -9  259.97   16.77
  -2   1  -9  271.05   18.46
  -2   1 -10  543.45   52.25
  -2   1 -10  497.67   27.59
   2   1  10  514.80   48.90
   2   1  10  404.42   55.35
  -2   1 -10  444.41   40.93
   2   1  10  541.78   56.13
  -2   1 -10  496.72   27.18
  -2   1 -10  515.49   27.63
  -2   1 -10  464.83   27.16
  -2   1 -10  525.56   29.89
  -2   1 -10  562.15   28.35
  -2   1 -10  518.77   27.79
  -2   1 -11  377.42   44.70
   2   1  11  356.95   42.06
  -2   1 -11  389.95   23.22
   2   1  11  339.73   52.20
  -2   1 -11  325.33   34.86
   2   1  11  368.44   48.68
  -2   1 -11  387.49   22.61
  -2   1 -11  388.06   23.12
  -2   1 -11  387.20   22.99
  -2   1 -11  388.71   23.19
  -2   1 -11  338.60   21.35
  -2   1 -11  427.04   23.50
  -2   1 -11  385.39   23.14
  -2   1 -12   94.12   24.41
   2   1  12  128.28   25.90
   2   1  12  137.09   33.58
   2   1  12   80.50   24.36
  -2   1 -12  111.70   10.56
  -2   1 -12   94.61    9.43
  -2   1 -12  105.16   10.58
  -2   1 -12  117.27   11.26
  -2   1 -12  110.86   11.07
  -2   1 -12  134.58   11.67
  -2   1 -13  489.15   54.89
   2   1  13  376.74   47.78
   2   1  13  386.27   61.00
  -2   1 -13  544.32   28.99
  -2   1 -13  532.62   29.54
  -2   1 -13  476.91   26.47
  -2   1 -13  534.10   28.76
   2   1  13  490.05   60.59
   2   1  14  278.64   44.57
  -2   1 -14  293.32   19.16
   2   1  14  308.74   41.95
  -2   1 -14  259.95   17.89
  -2   1 -14  280.82   19.39
  -2   1 -14  274.71   18.40
  -2   1 -15  378.54   25.52
  -2   1 -15  387.69   22.82
  -2   1 -15  410.57   24.52
  -2   1 -15  401.56   25.17
  -2   1 -15  429.79   24.08
  -2   1 -16   81.80    9.72
  -2   1 -16   76.03    8.10
  -2   1 -16   76.08    8.83
  -2   1 -16   73.51    8.66
  -2   1 -17  147.67   11.32
  -2   1 -17  134.49   10.99
  -2   1 -17  141.07   10.90
  -2   1 -17  136.19   10.32
  -2   1 -18   43.89    5.21
  -2   1 -18   49.12    5.50
  -2   1 -18   39.53    4.40
   2   2 -18   79.77    7.56
   2   2 -18   85.19    7.35
   2   2 -17  132.95   11.55
   2   2 -17  146.89   11.13
   2   2 -16   65.24    8.58
   2   2 -16   55.02    6.27
   2   2 -16   69.48    7.94
   2   2 -15   85.52    8.60
   2   2 -15   82.41    8.51
   2   2 -15  100.19   10.16
   2   2 -14  861.62   41.81
   2   2 -14  907.82   43.96
   2   2 -14  858.04   42.37
   2   2 -14  860.73   42.20
  -2   2  13  396.34   61.87
   2   2 -13  371.64   41.46
  -2   2  13  440.70   73.41
   2   2 -13  382.35   22.65
   2   2 -13  362.85   21.72
  -2   2  13  383.10   50.70
   2   2 -13  363.47   22.81
   2   2 -13  329.88   20.25
   2   2 -13  374.28   22.32
   2   2 -13  383.05   22.20
   2   2 -13  359.45   23.06
   2   2 -12   48.19   14.84
  -2   2  12  101.93   30.15
  -2   2  12   90.48   20.80
   2   2 -12   92.91    9.49
   2   2 -12   75.02    8.38
   2   2 -12   97.27   10.01
   2   2 -12   74.57    8.02
   2   2 -12   89.16    9.85
   2   2 -12   86.96    8.98
   2   2 -11  237.28   31.30
  -2   2  11  311.11   51.02
   2   2 -11  222.75   15.16
  -2   2  11  245.22   32.65
   2   2 -11  249.13   17.05
   2   2 -11  254.75   16.64
   2   2 -11  285.62   18.17
   2   2 -11  246.50   16.60
   2   2 -11  238.87   15.76
   2   2 -11  286.04   18.31
   2   2 -11  263.12   19.00
   2   2 -11  242.51   17.27
   2   2 -10  231.66   29.28
  -2   2  10  252.73   44.99
   2   2 -10  230.62   26.99
  -2   2  10  193.92   28.40
   2   2 -10  249.90   16.43
   2   2 -10  266.59   33.30
   2   2 -10  243.53   16.55
   2   2 -10  250.37   16.92
   2   2 -10  233.99   16.60
   2   2 -10  270.16   18.76
   2   2  -9 1142.19   74.02
  -2   2   9 1310.49  100.47
  -2   2   9 1190.28   74.38
   2   2  -9 1167.55   79.40
   2   2  -9 1215.20   53.83
   2   2  -9 1162.79   52.90
   2   2  -9 1126.72   55.24
   2   2  -9 1146.21   53.65
   2   2  -9 1159.89   53.71
  -2   2   8 1749.32   94.45
   2   2  -8 1920.29  107.38
  -2   2   8 1803.75  120.56
  -2   2   8 1745.84   96.03
   2   2  -8 1999.03  108.88
   2   2  -8 1715.55   77.20
   2   2  -8 1726.69   75.72
   2   2  -8 1676.68   74.78
   2   2  -8 1785.49   75.89
  -2   2   7  175.57   20.85
   2   2  -7  201.79   27.85
  -2   2   7  204.08   24.40
   2   2  -7  156.86   19.98
   2   2  -7  176.74   25.29
   2   2  -7  139.14   11.89
   2   2  -6 1708.09   88.42
  -2   2   6 1731.96   92.49
  -2   2   6 1528.89   84.00
   2   2  -6 1764.39   96.12
   2   2  -6 1791.18  102.18
   2   2  -5  468.63   35.26
  -2   2   5  482.04   39.34
   2   2  -5  517.11   45.20
  -2   2   5  471.28   32.32
   2   2  -5  545.68   41.30
   2   2  -4  607.64   38.43
  -2   2   4  584.68   42.82
  -2   2   4  523.11   28.91
  -2   2   4  597.92   45.85
   2   2  -4  546.40   47.08
  -2   2   4  514.54   45.61
  -2   2   4  523.01   32.34
   2   2  -4  573.29   41.06
   2   2  -3 2958.01  128.21
  -2   2   3 3088.23  137.90
  -2   2   3 2777.38  121.71
  -2   2   3 2589.07  134.28
  -2   2   3 2866.13  139.05
   2   2  -3 2729.02  143.44
  -2   2   3 2624.91  118.80
  -2   2   3 3006.06  154.27
   2   2  -3 2892.93  131.40
  -2   2   2 3409.76  142.24
   2   2  -2 3495.39  145.49
  -2   2   2 3101.12  149.21
  -2   2   2 3227.38  152.60
   2   2  -2 3536.45  160.77
   2   2  -2 3027.06  154.29
  -2   2   2 3122.14  133.33
  -2   2   2 3182.34  164.10
   2   2  -2 3094.07  144.72
  -2   2   1 1295.58   63.55
   2   2  -1 1359.80   64.67
  -2   2   1 1121.08   49.39
  -2   2   1 1215.16   66.61
   2   2  -1 1424.15   76.63
   2   2  -1 1137.24   66.88
  -2   2   1 1183.15   76.04
   2   2  -1 1054.46   60.75
   2   2   0 1059.38   62.17
   2   2   0  898.67   50.12
  -2   2   0  955.16   61.56
  -2   2   0  806.92   36.58
  -2   2   0 1004.42   53.43
   2   2   0 1089.92   54.17
   2   2   1  623.72   43.47
  -2   2  -1  552.49   46.63
   2   2   1  463.23   28.36
  -2   2  -1  475.02   40.47
  -2   2  -1  487.69   23.37
  -2   2  -1  520.85   37.13
   2   2   1  545.64   36.51
   2   2   2  286.59   26.98
  -2   2  -2  245.33   31.22
  -2   2  -2  229.15   26.25
  -2   2  -2  271.04   25.95
   2   2   2  279.82   25.15
  -2   2  -2  248.13   15.38
  -2   2  -3 2650.94  136.60
   2   2   3 2373.72  116.32
  -2   2  -3 2770.48  144.45
  -2   2  -3 2360.85  119.34
  -2   2  -3 2413.14  103.39
  -2   2  -3 2556.02  120.66
   2   2   3 2228.20  106.01
   2   2   4  140.47   17.95
  -2   2  -4  163.05   28.84
  -2   2  -4  177.55   32.49
   2   2   4  176.62   20.14
  -2   2  -4  158.13   20.14
  -2   2  -4  190.57   21.37
   2   2   4  123.52   16.82
  -2   2  -4  185.38   15.30
  -2   2  -4  182.94   22.36
  -2   2  -5 2771.58  154.03
  -2   2  -5 2780.59  129.05
  -2   2  -5 2596.42  123.12
   2   2   5 2515.32  123.64
   2   2   5 2364.13  123.90
  -2   2  -5 2451.13  114.00
   2   2   6  885.61   60.26
  -2   2  -6 1040.05   85.17
  -2   2  -6  991.20   63.65
   2   2   6  861.32   57.18
   2   2   6  789.69   60.63
  -2   2  -6  871.59   50.91
  -2   2  -6 1018.91   63.88
  -2   2  -7  674.25   44.14
  -2   2  -7  721.91   53.63
   2   2   7  642.98   55.77
  -2   2  -7  656.56   33.38
  -2   2  -7  714.26   54.91
   2   2   7  716.90   50.89
  -2   2  -7  708.53   33.31
   2   2   7  735.80   55.42
  -2   2  -7  693.49   32.74
  -2   2  -7  762.25   74.19
  -2   2  -7  673.04   33.21
  -2   2  -7  658.31   32.78
  -2   2  -7  622.72   34.18
  -2   2  -8 1408.83   86.20
  -2   2  -8 1301.60   73.04
   2   2   8 1179.74   88.35
  -2   2  -8 1389.11   84.15
   2   2   8 1345.19   80.37
  -2   2  -8 1289.55   58.75
   2   2   8 1229.50   84.41
  -2   2  -8 1300.28   58.31
  -2   2  -8 1258.53   57.70
  -2   2  -8 1495.54  113.20
  -2   2  -8 1329.47   57.74
  -2   2  -8 1276.71   57.51
  -2   2  -8 1288.76   58.59
  -2   2  -8 1330.75   58.44
  -2   2  -8 1262.13   57.02
  -2   2  -8 1286.35   60.38
  -2   2  -9  587.03   52.27
   2   2   9  537.15   46.58
   2   2   9  445.02   53.90
  -2   2  -9  644.48   50.90
  -2   2  -9  547.70   28.51
  -2   2  -9  550.36   28.92
   2   2   9  513.50   51.51
  -2   2  -9  647.09   72.77
  -2   2  -9  496.89   27.65
  -2   2  -9  527.81   28.10
  -2   2  -9  503.28   28.73
  -2   2  -9  561.97   29.18
  -2   2  -9  538.01   28.66
  -2   2  -9  525.56   28.87
  -2   2  -9  531.63   30.74
  -2   2 -10  492.78   30.40
  -2   2 -10  543.23   28.78
  -2   2 -10  505.43   28.56
  -2   2 -10  477.03   45.55
   2   2  10  478.71   58.83
   2   2  10  492.68   53.12
  -2   2 -10  528.95   28.71
  -2   2 -10  538.90   69.48
  -2   2 -10  483.09   28.15
  -2   2 -10  522.30   28.06
  -2   2 -10  501.78   28.52
  -2   2 -10  515.79   27.88
  -2   2 -10  524.99   28.82
  -2   2 -10  539.74   51.83
  -2   2 -11 2124.79  128.99
  -2   2 -11 2252.02   95.05
  -2   2 -11 2041.40  119.74
   2   2  11 1812.52  137.85
  -2   2 -11 2203.58   94.40
  -2   2 -11 2139.43   94.44
  -2   2 -11 2188.31   94.58
  -2   2 -11 2200.76   97.48
  -2   2 -11 2048.11   93.40
  -2   2 -11 2138.44   94.43
  -2   2 -11 2209.67   94.87
   2   2  11 2076.63  134.15
  -2   2 -12    2.97    6.32
  -2   2 -12    2.82    3.53
   2   2  12    3.57    8.76
  -2   2 -12    2.11    2.97
  -2   2 -12    2.19    3.30
  -2   2 -12   -1.10    3.45
  -2   2 -12    4.29    3.92
  -2   2 -12    2.20    3.31
  -2   2 -12    0.53    2.90
  -2   2 -12   -2.21    4.70
   2   2  13   21.98   14.27
  -2   2 -13   36.01    6.55
  -2   2 -13   36.49    6.32
  -2   2 -13   29.06    5.59
  -2   2 -13   31.06    6.03
  -2   2 -13   29.45    7.07
  -2   2 -13   37.89    6.65
  -2   2 -13   42.86    7.09
  -2   2 -13   41.17    6.59
  -2   2 -14  395.36   24.33
  -2   2 -14  426.88   24.40
  -2   2 -14  442.73   25.38
  -2   2 -14  408.58   26.96
  -2   2 -14  403.26   24.28
  -2   2 -15    4.19    3.13
  -2   2 -15    0.94    2.71
  -2   2 -15   -3.50    3.08
  -2   2 -15    2.92    3.53
  -2   2 -15   -0.62    4.11
  -2   2 -15    2.00    2.69
  -2   2 -16  379.78   21.28
  -2   2 -16  364.64   22.83
  -2   2 -16  409.51   21.94
  -2   2 -16  344.37   19.61
  -2   2 -17  181.86   12.13
  -2   2 -17  166.97   11.47
  -2   2 -18   35.04    4.19
   2   3 -18  263.25   14.73
   2   3 -18  295.13   14.45
   2   3 -17   41.79    5.58
   2   3 -17   32.51    4.64
   2   3 -16   92.16    9.57
   2   3 -16  110.50    9.35
   2   3 -15  114.63    9.62
   2   3 -15  106.67   10.96
   2   3 -15  105.63   10.00
   2   3 -15  113.88   10.25
   2   3 -14   85.37    8.82
   2   3 -14   99.84    9.69
   2   3 -14   99.49   10.02
   2   3 -14   87.95    9.03
   2   3 -14  110.75   11.52
   2   3 -14   82.47    9.40
   2   3 -14   83.93    9.25
   2   3 -13  366.66   22.59
   2   3 -13  390.57   23.49
   2   3 -13  373.96   21.95
   2   3 -13  397.36   23.97
   2   3 -13  413.63   24.19
   2   3 -13  365.30   23.54
   2   3 -13  411.00   25.98
   2   3 -13  381.97   22.96
   2   3 -12  398.37   23.58
   2   3 -12  443.21   25.81
   2   3 -12  435.71   25.19
   2   3 -12  343.90   41.26
  -2   3  12  425.37   64.69
   2   3 -12  423.10   25.63
   2   3 -12  427.58   24.44
   2   3 -12  420.02   25.66
   2   3 -12  449.62   25.49
   2   3 -12  436.26   25.94
   2   3 -12  457.74   26.42
   2   3 -12  456.69   28.05
   2   3 -11  227.86   16.68
   2   3 -11  222.21   34.27
   2   3 -11  189.23   27.73
   2   3 -11  230.31   31.76
  -2   3  11  204.03   44.08
   2   3 -11  224.50   16.73
   2   3 -11  229.46   16.87
   2   3 -11  228.73   16.46
   2   3 -11  219.11   16.63
   2   3 -11  240.40   17.18
   2   3 -11  228.51   16.74
   2   3 -11  232.82   18.39
   2   3 -10  186.49   14.61
   2   3 -10  177.16   31.87
   2   3 -10  163.94   26.46
  -2   3  10  172.74   40.12
   2   3 -10  174.48   26.41
   2   3 -10  186.66   14.84
   2   3 -10  195.37   15.19
   2   3 -10  200.32   15.29
   2   3 -10  196.15   16.39
   2   3 -10  209.93   15.50
   2   3  -9  340.40   44.56
   2   3  -9  335.06   37.39
  -2   3   9  420.03   58.22
   2   3  -9  365.74   22.32
   2   3  -9  382.66   22.70
   2   3  -9  401.81   23.14
   2   3  -9  376.82   24.17
   2   3  -9  382.52   22.88
   2   3  -9  327.71   20.69
   2   3  -8  174.42   13.35
   2   3  -8  155.44   12.80
   2   3  -8  158.87   13.86
   2   3  -8  147.48   11.72
   2   3  -8  168.70   30.81
   2   3  -8  186.63   25.80
  -2   3   8  186.45   38.12
   2   3  -7 1443.37   67.19
   2   3  -7 1433.93   64.40
   2   3  -7 1626.93  106.03
   2   3  -7 1641.97   90.66
   2   3  -7 1501.19   82.96
   2   3  -6  290.42   17.15
   2   3  -6  292.34   18.96
   2   3  -6  278.25   16.77
   2   3  -6  354.69   42.85
   2   3  -6  289.41   31.01
   2   3  -6  313.69   28.93
  -2   3   6  260.92   31.30
   2   3  -5  340.03   20.69
   2   3  -5  347.08   19.40
   2   3  -5  354.46   47.59
   2   3  -5  354.55   30.69
  -2   3   5  355.57   37.12
   2   3  -5  378.56   34.55
   2   3  -4  356.77   44.76
   2   3  -4  286.22   29.62
   2   3  -4  286.66   26.74
  -2   3   4  350.13   36.76
  -2   3   4  311.58   44.99
   2   3  -3  117.26   25.42
   2   3  -3  156.64   28.02
   2   3  -3  122.60   17.02
  -2   3   3  203.11   27.64
  -2   3   3  190.65   19.65
   2   3  -3  145.07   20.10
  -2   3   3  200.04   33.89
   2   3  -2 2080.68  117.34
   2   3  -2 1789.93  112.21
  -2   3   2 1744.30   95.17
   2   3  -2 2190.66  102.84
   2   3  -2 1921.06   96.23
  -2   3   2 1780.84  115.80
   2   3  -1 2954.31  153.95
  -2   3   1 2819.98  150.31
   2   3  -1 2674.08  145.64
  -2   3   1 2810.68  136.04
   2   3  -1 2970.15  134.00
   2   3  -1 2776.00  136.41
  -2   3   1 2714.29  150.46
   2   3   0  290.47   33.92
  -2   3   0  183.35   28.71
   2   3   0  228.32   27.62
  -2   3   0  180.74   23.60
   2   3   0  217.92   23.24
   2   3   0  270.31   26.97
  -2   3   0  151.57   25.03
   2   3   1  528.26   46.32
  -2   3  -1  538.95   49.25
  -2   3  -1  429.00   38.79
   2   3   1  494.55   38.06
  -2   3  -1  372.53   38.65
   2   3   2  418.67   41.36
  -2   3  -2  551.92   51.21
  -2   3  -2  512.46   59.30
  -2   3  -2  505.24   42.64
   2   3   2  442.03   37.92
   2   3   3  742.82   54.52
  -2   3  -3  772.03   65.30
  -2   3  -3  634.50   53.16
   2   3   3  742.52   52.67
   2   3   4 1542.30   88.66
  -2   3  -4 1677.66   97.06
   2   3   4 1559.25   91.89
  -2   3  -5  509.65   26.11
  -2   3  -5  563.24   49.58
   2   3   5  577.28   45.74
   2   3   6  274.77   30.90
  -2   3  -6  250.22   15.54
  -2   3  -6  266.94   48.23
  -2   3  -6  254.31   15.97
  -2   3  -6  230.16   16.54
   2   3   7   12.27    7.96
  -2   3  -7   27.13   11.34
  -2   3  -7   20.79   16.88
  -2   3  -7   17.59    4.24
  -2   3  -7   21.11    4.28
  -2   3  -7   13.77    3.49
  -2   3  -7   18.91    5.00
  -2   3  -7   23.51    4.60
   2   3   8   84.62   19.24
   2   3   8   78.15   20.65
  -2   3  -8  121.27   34.15
  -2   3  -8  127.90   10.89
  -2   3  -8  126.32   11.24
  -2   3  -8  133.98   24.75
  -2   3  -8  125.97   10.62
  -2   3  -8  130.88   11.56
  -2   3  -8  128.71   11.21
  -2   3  -8  121.55   12.10
  -2   3  -9  613.86   33.09
   2   3   9  583.75   52.16
   2   3   9  724.31   64.69
  -2   3  -9  595.24   31.50
  -2   3  -9  595.97   32.08
  -2   3  -9  556.58   77.13
  -2   3  -9  594.90   55.16
  -2   3  -9  580.03   30.43
  -2   3  -9  594.61   31.13
  -2   3  -9  621.24   32.70
  -2   3  -9  570.03   31.60
  -2   3  -9  568.56   30.20
  -2   3  -9  614.33   34.06
   2   3  10 1543.92  106.68
  -2   3 -10 1456.85   68.55
  -2   3 -10 1545.66   99.53
  -2   3 -10 1481.29   67.52
  -2   3 -10 1475.61   68.22
  -2   3 -10 1366.10  127.56
  -2   3 -10 1508.20   66.67
  -2   3 -10 1498.97   67.17
  -2   3 -10 1493.34   68.91
  -2   3 -10 1445.29   68.22
  -2   3 -10 1471.65   67.96
  -2   3 -10 1514.54   70.42
   2   3  11   84.80   23.20
  -2   3 -11  100.15   22.35
  -2   3 -11  112.04   11.33
  -2   3 -11  111.74   11.31
  -2   3 -11  121.29   10.88
  -2   3 -11  106.12   10.42
  -2   3 -11  117.23   11.76
  -2   3 -11  108.16   11.15
  -2   3 -11  102.99   12.10
  -2   3 -11  117.03   11.62
  -2   3 -11  113.79   11.11
   2   3  12    6.84    8.39
  -2   3 -12    1.09    2.92
  -2   3 -12    1.11    3.34
  -2   3 -12    0.56    3.45
  -2   3 -12    0.48    2.61
  -2   3 -12    3.96    3.47
  -2   3 -12    1.09    3.28
  -2   3 -12    2.07    3.98
  -2   3 -12    1.70    3.33
  -2   3 -13   51.94    7.36
  -2   3 -13   44.98    6.84
  -2   3 -13   45.45    7.23
  -2   3 -13   61.03    7.96
  -2   3 -13   42.84    7.94
  -2   3 -13   50.33    7.35
  -2   3 -13   44.57    6.42
  -2   3 -14   69.99    7.77
  -2   3 -14   70.68    8.12
  -2   3 -14   69.18    7.69
  -2   3 -14   72.10    9.38
  -2   3 -14   69.84    8.03
  -2   3 -14   79.17    8.61
  -2   3 -15  625.50   31.97
  -2   3 -15  707.69   33.79
  -2   3 -15  667.94   35.01
  -2   3 -15  692.73   33.12
  -2   3 -16  197.03   12.49
  -2   3 -16  260.10   14.45
  -2   3 -17   56.56    5.34
  -2   3 -17   58.89    5.39
   2   4 -16   49.57    4.94
   2   4 -16   42.37    4.99
   2   4 -15  356.86   19.02
   2   4 -15  324.17   19.36
   2   4 -15  342.25   18.27
   2   4 -14  240.22   15.28
   2   4 -14  227.49   16.00
   2   4 -14  236.22   15.31
   2   4 -14  218.83   14.54
   2   4 -14  233.87   15.08
   2   4 -14  220.64   14.36
   2   4 -13   83.04    8.63
   2   4 -13   73.51    7.82
   2   4 -13   78.61    9.36
   2   4 -13   70.50    8.02
   2   4 -13   83.27    8.87
   2   4 -13   72.77    8.02
   2   4 -13   75.12    8.41
   2   4 -12  178.30   13.63
   2   4 -12  199.21   14.78
   2   4 -12  216.85   15.47
   2   4 -12  195.74   14.93
   2   4 -12  205.60   15.14
   2   4 -12  208.90   14.58
   2   4 -12  200.33   15.28
   2   4 -12  189.03   15.87
   2   4 -11  120.11   11.68
   2   4 -11  119.13   11.48
   2   4 -11  113.17   11.28
   2   4 -11  136.81   12.24
   2   4 -11  136.14   12.02
   2   4 -11  110.83   12.05
  -2   4  10  621.47   90.16
   2   4 -10  526.64   61.69
  -2   4  10  657.42   81.86
   2   4 -10  630.40   55.87
   2   4 -10  547.34   55.15
   2   4 -10  651.37   34.83
   2   4 -10  666.88   35.49
   2   4 -10  662.38   35.32
   2   4 -10  671.49   35.31
   2   4 -10  654.14   34.53
   2   4 -10  672.16   36.48
  -2   4   9  585.83   84.68
   2   4  -9  425.26   55.57
  -2   4   9  619.41   76.76
   2   4  -9  433.61   45.24
   2   4  -9  427.23   47.95
   2   4  -9  483.43   27.77
   2   4  -9  494.90   28.17
   2   4  -9  450.06   27.11
   2   4  -9  494.07   29.22
   2   4  -9  492.50   28.18
  -2   4   8  815.72   87.59
   2   4  -8  633.46   56.75
  -2   4   8  752.81   95.89
   2   4  -8  768.98   39.07
   2   4  -8  747.24   38.25
   2   4  -8  755.15   39.74
   2   4  -8  687.88   73.04
   2   4  -7  273.19   33.71
  -2   4   7  197.55   47.87
   2   4  -7  261.65   19.08
   2   4  -7  285.67   18.62
   2   4  -7  296.12   45.63
   2   4  -6  647.80   54.17
   2   4  -6  649.61   32.45
   2   4  -6  662.96   34.86
   2   4  -5  290.06   33.57
  -2   4   5  304.29   53.11
   2   4  -5  264.82   16.88
   2   4  -5  226.04   42.38
   2   4  -5  340.63   48.35
   2   4  -4 1543.94  109.24
   2   4  -4 1164.09  101.81
  -2   4   4 1214.44  107.62
   2   4  -4 1366.65   85.84
  -2   4   4 1487.01   96.82
   2   4  -3  330.80   46.05
  -2   4   3  298.11   46.66
   2   4  -3  307.41   34.55
  -2   4   3  350.98   43.56
   2   4  -2  501.44   56.15
  -2   4   2  438.22   53.25
  -2   4   2  411.52   39.09
   2   4  -2  481.60   43.25
  -2   4   1  140.72   23.07
   2   4  -1  201.09   26.63
   2   4  -1  185.35   32.90
  -2   4   0  188.77   28.46
   2   4   0  260.11   31.24
   2   4   0  260.01   27.54
  -2   4   0  252.98   48.99
   2   4   0  283.25   39.94
  -2   4  -1  994.01   72.51
   2   4   1  860.24   61.39
   2   4   1 1095.51   71.70
   2   4   1 1045.68   80.56
  -2   4  -1 1041.68  102.92
  -2   4  -2  605.59   53.62
   2   4   2  484.93   43.24
   2   4   2  514.03   47.28
   2   4   2  496.45   51.55
  -2   4  -2  535.40   73.23
  -2   4  -3  374.31   42.61
   2   4   3  270.91   32.59
   2   4   3  320.11   38.84
  -2   4  -4   58.85   17.60
   2   4   4   30.81   11.24
   2   4   4   34.94   12.55
   2   4   5  397.50   43.32
  -2   4  -5  478.52   50.86
   2   4   5  510.69   47.89
  -2   4  -5  398.18   66.43
  -2   4  -6  382.48   46.46
   2   4   6  349.71   41.79
  -2   4  -6  421.45   24.06
   2   4   6  514.71   48.42
  -2   4  -6  410.12   23.33
  -2   4  -6  437.77   69.23
  -2   4  -7  722.13   66.68
   2   4   7  653.81   62.28
  -2   4  -7  796.03   39.37
   2   4   7  765.69   62.89
  -2   4  -7  798.92   39.81
  -2   4  -7  777.26   38.53
   2   4   8   61.60   18.63
  -2   4  -8  130.41   11.85
  -2   4  -8  133.11   11.50
  -2   4  -8  125.50   11.58
  -2   4  -8  120.19   10.61
  -2   4  -8  151.03   12.86
   2   4   8   77.55   22.98
  -2   4  -9  112.59   11.91
   2   4   9   78.70   22.82
   2   4   9   66.92   19.55
  -2   4  -9  115.74   25.19
  -2   4  -9  133.09   12.18
  -2   4  -9  110.44   10.30
  -2   4  -9  133.62   11.95
  -2   4  -9   91.41   33.33
  -2   4  -9  116.60   10.83
  -2   4  -9  117.75   11.42
  -2   4 -10   57.76    8.64
  -2   4 -10   71.41    8.44
  -2   4 -10   73.23    8.82
  -2   4 -10   61.93    7.71
  -2   4 -10   80.88    9.52
  -2   4 -10   71.89    8.70
  -2   4 -10   90.07   10.04
  -2   4 -10   73.91    9.39
  -2   4 -11  167.56   13.97
  -2   4 -11  160.60   13.44
  -2   4 -11  168.92   14.19
  -2   4 -11  150.45   13.25
  -2   4 -11  187.81   13.94
  -2   4 -11  129.93   12.89
  -2   4 -11  152.60   13.52
  -2   4 -12  243.07   16.80
  -2   4 -12  219.14   16.53
  -2   4 -12  262.77   17.33
  -2   4 -12  267.50   17.11
  -2   4 -12  212.86   16.52
  -2   4 -12  232.79   16.84
  -2   4 -12  254.66   17.16
  -2   4 -13  260.54   16.77
  -2   4 -13  248.25   16.45
  -2   4 -13  259.41   16.38
  -2   4 -13  262.24   16.88
  -2   4 -13  223.86   15.73
  -2   4 -14   84.82    8.08
  -2   4 -14   69.05    7.24
  -2   4 -14   82.60    7.73
  -2   4 -14   80.93    7.83
  -2   4 -15   27.75    4.00
  -2   4 -15   26.22    3.84
   2   5 -14   55.85    5.15
   2   5 -13    9.11    2.82
   2   5 -13    8.49    2.51
   2   5 -13    8.67    2.76
   2   5 -13    5.47    2.43
   2   5 -13    8.05    2.56
   2   5 -12   65.91    7.12
   2   5 -12   57.55    6.37
   2   5 -12   59.71    6.58
   2   5 -12   67.34    7.12
   2   5 -12   71.78    7.28
   2   5 -12   65.18    7.05
   2   5 -11  503.27   26.69
   2   5 -11  549.03   28.00
   2   5 -11  512.50   27.36
   2   5 -11  476.17   26.57
   2   5 -11  521.78   27.58
   2   5 -11  512.40   27.34
   2   5 -10   59.38    7.28
   2   5 -10   57.01    7.50
   2   5 -10   55.08    7.13
   2   5 -10   46.31    6.83
   2   5 -10   58.83    7.59
   2   5  -9  234.42   16.04
   2   5  -9  215.70   16.18
   2   5  -9  250.88   16.90
   2   5  -9  219.68   16.00
   2   5  -9  207.99   14.88
   2   5  -8   70.51    8.42
   2   5  -8   69.44    7.94
   2   5  -8   70.25    8.48
   2   5  -8   67.80    8.57
   2   5  -7    2.06    2.96
   2   5  -7    4.35    3.13
   2   5  -7    6.21    3.16
   2   5  -6  278.36   46.88
  -2   5   6  267.33   49.71
   2   5  -6  291.38   36.33
   2   5  -6  326.20   20.06
   2   5  -5  341.94   39.44
   2   5  -5  328.71   50.72
   2   5  -4   93.35   20.71
  -2   5   4  152.53   42.51
   2   5  -4  152.36   33.65
   2   5  -3  625.80   56.61
   2   5  -3  760.35   77.40
  -2   5   3  694.27   90.93
   2   5  -2  206.46   30.44
  -2   5   2  167.56   45.70
   2   5  -2  211.51   39.19
   2   5  -1   25.21   12.80
  -2   5   1   40.36   24.78
   2   5  -1   27.89   14.70
   2   5   0  578.10   54.21
   2   5   0  639.46   67.39
  -2   5   0  614.50   86.91
   2   5   1  132.81   25.08
  -2   5  -1  183.31   45.91
   2   5   1  134.63   28.97
  -2   5  -1  119.38   24.78
  -2   5  -2  375.60   66.82
  -2   5  -2  301.18   41.47
   2   5   2  390.70   43.43
  -2   5  -3  248.20   54.62
  -2   5  -3  262.12   39.02
   2   5   3  336.18   40.48
   2   5   3  276.99   37.85
  -2   5  -4   19.67   12.06
  -2   5  -4   -6.92   12.00
   2   5   4    8.28    6.78
  -2   5  -5  308.90   19.09
  -2   5  -5  338.40   63.35
  -2   5  -5  285.07   40.94
   2   5   5  265.36   36.72
  -2   5  -6  796.40   39.34
  -2   5  -6  796.26   40.12
  -2   5  -7   72.92    9.00
  -2   5  -7   67.40    8.08
  -2   5  -7   77.00    8.86
  -2   5  -8  612.21   32.69
  -2   5  -8  606.51   32.01
  -2   5  -8  587.50   30.72
  -2   5  -8  547.15   29.45
  -2   5  -8  576.10   31.08
  -2   5  -9   93.95   10.03
  -2   5  -9  108.31   10.07
  -2   5  -9   94.01   10.41
  -2   5  -9   98.45    9.89
  -2   5  -9   88.26    8.98
  -2   5  -9   83.47    9.76
  -2   5 -10   10.26    4.13
  -2   5 -10   12.51    4.36
  -2   5 -10    9.89    3.56
  -2   5 -10    7.40    3.47
  -2   5 -10   10.85    3.68
  -2   5 -10    9.88    4.30
  -2   5 -11  206.33   14.37
  -2   5 -11  206.55   14.36
  -2   5 -11  210.56   13.79
  -2   5 -11  207.17   14.12
  -2   5 -11  195.66   14.15
  -2   5 -11  187.24   13.07
  -2   5 -12   75.96    7.53
  -2   5 -12   69.74    7.12
  -2   5 -12   71.18    7.18
  -2   5 -12   71.03    7.30
  -2   5 -12   64.53    6.43
  -2   5 -13  198.48   11.77
  -2   5 -13  197.00   11.79
  -2   5 -13  187.47   11.66
  -2   5 -13  163.91   10.60
  -2   5 -13  194.05   11.83
   2   6 -11   48.23    4.81
   2   6 -11   52.84    4.93
   2   6 -11   59.36    5.31
   2   6 -11   56.81    5.19
   2   6 -11   56.90    5.25
   2   6 -10  194.25   12.25
   2   6 -10  211.55   12.66
   2   6 -10  201.62   12.52
   2   6 -10  230.15   13.09
   2   6 -10  188.52   11.94
   2   6 -10  212.03   12.71
   2   6  -9  210.32   13.43
   2   6  -9  225.48   13.79
   2   6  -9  212.95   13.17
   2   6  -9  178.78   12.02
   2   6  -9  215.38   13.51
   2   6  -8  117.30    8.86
   2   6  -8  135.36   10.50
   2   6  -8  130.30   10.12
   2   6  -8  120.93    9.50
   2   6  -8  132.81   10.49
   2   6  -7   12.19    3.55
   2   6  -7   11.20    3.21
   2   6  -7   16.58    4.26
   2   6  -7   10.08    2.93
   2   6  -6   83.06    8.35
   2   6  -6   94.36    9.02
   2   6  -6   76.40    7.50
   2   6  -5   97.96    9.40
   2   6  -5   90.71    8.44
   2   6  -4  386.08   21.41
  -2   6  -4   20.33    4.45
  -2   6  -5  115.30    9.95
  -2   6  -5  107.41   10.20
  -2   6  -6  110.86    9.63
  -2   6  -6  118.27   10.38
  -2   6  -6  103.87    8.88
  -2   6  -7  346.67   19.95
  -2   6  -7  341.31   19.16
  -2   6  -7  345.97   20.17
  -2   6  -7  313.27   18.03
  -2   6  -8   96.15    8.57
  -2   6  -8   82.11    7.19
  -2   6  -8   97.75    9.01
  -2   6  -8   84.20    7.83
  -2   6  -8   91.86    8.60
  -2   6  -9   72.15    6.91
  -2   6  -9   68.70    7.17
  -2   6  -9   62.61    6.76
  -2   6  -9   60.26    6.14
  -2   6  -9   71.52    7.04
  -2   6  -9   59.03    5.49
  -2   6 -10   25.31    3.80
  -2   6 -10   22.69    3.75
  -2   6 -10   25.16    3.50
  -2   6 -10   25.30    4.00
   2   7  -6   27.96    3.53
   2   7  -5   43.76    4.48
   2   7  -4   26.73    3.54
   2   7  -4   23.21    3.27
   2   7  -3   11.23    2.47
   2   7  -2   94.60    6.98
  -2   7  -4  122.51    8.51
  -3  -7   5    4.81    1.78
  -3  -7   4   10.53    2.53
  -3  -7   3   55.76    5.43
  -3  -7   2   12.14    2.93
  -3  -7   1  171.70   10.90
  -3  -7   0  115.51    8.32
  -3  -7  -1   14.87    3.04
   3  -7   2   15.05    4.58
   3  -7   3   60.06    7.55
   3  -6 -10   28.90    5.66
  -3  -6  10   35.72    6.62
  -3  -6  10   33.79    4.59
   3  -6  -9  157.23   14.21
   3  -6  -8   92.24   11.84
  -3  -6   8  103.74   12.99
   3  -6  -7  162.94   16.50
  -3  -6   7  130.74   15.72
  -3  -6   7  162.43   16.16
   3  -6  -6  100.74   13.68
  -3  -6   6   77.01   12.35
  -3  -6   6   65.85   11.47
  -3  -6   6   70.46    8.46
   3  -6  -5   42.90   10.30
  -3  -6   5   24.64    8.15
  -3  -6   5   27.99    9.17
  -3  -6   5   35.28    6.40
   3  -6  -4  281.52   17.82
  -3  -6   4  250.80   16.41
   3  -6  -4  243.30   23.13
  -3  -6   4  270.50   23.20
  -3  -6   4  259.57   22.88
  -3  -6   4  283.20   25.65
  -3  -6   4  293.77   18.90
   3  -6  -3  193.58   14.61
  -3  -6   3  182.18   13.76
  -3  -6   3  184.21   19.15
  -3  -6   3  229.29   22.67
  -3  -6   3  241.16   16.46
   3  -6  -2  126.77   11.36
  -3  -6   2  112.46   10.36
  -3  -6   2  124.44   15.31
  -3  -6   2  117.45   11.53
  -3  -6   2  138.91   18.45
  -3  -6   1    4.97    3.19
   3  -6  -1   11.16    4.31
  -3  -6   1    5.24    5.25
  -3  -6   1    2.13    3.46
  -3  -6   0  139.66   12.22
   3  -6   0  182.61   13.88
  -3  -6   0  152.10   16.17
  -3  -6   0  173.85   13.83
  -3  -6   0  162.31   19.52
  -3  -6  -1   98.42    9.90
   3  -6   1  113.03   10.88
  -3  -6  -1   98.49   10.19
  -3  -6  -1   82.32   14.26
  -3  -6  -2  140.97   11.82
  -3  -6  -2  134.64   11.94
   3  -6   3   42.40   10.24
  -3  -6  -3   35.38    6.05
   3  -6   4   49.65   10.69
  -3  -6  -4   42.69    6.42
   3  -6   5  166.40   17.94
   3  -6   5  144.41   15.07
   3  -6   6  119.00    9.60
   3  -6   6   87.83   11.54
   3  -6   7  232.33   14.28
   3  -6   8  216.23   13.14
   3  -6   8  245.22   18.99
   3  -6   8  207.73   17.40
   3  -6   9   81.07    9.69
   3  -6   9   52.48    7.28
   3  -5 -13    8.89    4.31
  -3  -5  13    3.17    3.62
   3  -5 -13   10.17    3.63
  -3  -5  12   -1.48    4.63
   3  -5 -12    1.81    3.31
   3  -5 -12   -2.49    3.51
  -3  -5  11  139.48   16.61
   3  -5 -11  170.35   15.85
   3  -5 -11  149.05   13.90
  -3  -5  10  801.18   48.84
   3  -5 -10  825.40   43.06
   3  -5 -10  796.65   45.72
  -3  -5   9   27.67    8.28
  -3  -5   9   32.46   10.60
   3  -5  -9   48.82   10.31
  -3  -5   9   18.98    7.04
   3  -5  -9   39.52    8.12
  -3  -5   8  387.80   29.12
   3  -5  -8  352.75   28.33
  -3  -5   8  332.35   27.88
   3  -5  -8  377.24   25.30
  -3  -5   7   61.02   12.16
   3  -5  -7   45.25   10.87
  -3  -5   7   59.94   12.58
   3  -5  -7   58.69    9.43
   3  -5  -6   51.25    7.66
  -3  -5   6   39.64    6.26
  -3  -5   6   44.95   11.50
   3  -5  -6   53.15   11.50
  -3  -5   6   52.07   12.39
   3  -5  -6   40.08    7.95
   3  -5  -5  881.92   44.97
  -3  -5   5  827.68   42.57
  -3  -5   5  988.36   49.72
  -3  -5   5 1015.63   55.28
   3  -5  -5  868.32   46.39
  -3  -5   5 1050.05   58.93
   3  -5  -5  757.82   48.51
   3  -5  -5  990.39   54.71
  -3  -5   4  170.15   29.44
   3  -5  -4  217.89   21.75
  -3  -5   4  237.76   25.43
   3  -5  -4  161.04   18.94
   3  -5  -4  198.26   15.93
  -3  -5   4  202.28   18.33
   3  -5  -3   17.16    7.86
  -3  -5   3   24.41    9.84
   3  -5  -3   19.21    7.64
  -3  -5   3   19.29   10.72
   3  -5  -3   23.10    9.99
   3  -5  -3   21.25    5.29
  -3  -5   3   28.84    7.88
  -3  -5   3   18.62    9.07
   3  -5  -3   28.72    8.10
  -3  -5   2  219.97   39.81
  -3  -5   2  301.53   38.38
  -3  -5   2  303.45   29.53
   3  -5  -2  276.11   26.83
   3  -5  -2  304.55   19.84
   3  -5  -2  309.59   26.74
   3  -5  -2  304.71   27.83
   3  -5  -2  307.12   20.89
  -3  -5   2  317.01   27.20
   3  -5  -2  339.70   26.53
  -3  -5   1   68.47   23.66
  -3  -5   1   61.61   17.33
   3  -5  -1   53.51   12.66
   3  -5  -1   80.31   13.99
  -3  -5   1   84.13   16.12
   3  -5  -1   71.25    8.47
  -3  -5   1   94.93   10.69
  -3  -5   1   87.05   12.16
   3  -5  -1   49.83   12.40
  -3  -5   1   94.41   10.08
  -3  -5   1   85.53   13.68
   3  -5  -1   66.01   12.17
  -3  -5   1   79.95   13.81
  -3  -5   0  359.80   43.46
  -3  -5   0  403.96   57.17
   3  -5   0  398.68   24.41
  -3  -5   0  452.68   27.25
   3  -5   0  398.33   34.32
  -3  -5   0  474.62   30.45
  -3  -5   0  521.31   28.66
   3  -5   0  421.80   34.33
  -3  -5   0  441.61   26.27
  -3  -5   0  465.23   33.34
  -3  -5   0  451.55   31.70
   3  -5   0  453.16   34.58
   3  -5   0  451.33   32.59
  -3  -5  -1  936.13   75.89
  -3  -5  -1  885.80   92.29
   3  -5   1  944.44   62.17
  -3  -5  -1 1068.24   52.80
  -3  -5  -1 1136.63   65.34
  -3  -5  -1 1033.62   55.60
   3  -5   1 1065.33   63.25
  -3  -5  -1 1211.64   54.82
  -3  -5  -1 1088.29   52.51
   3  -5   1 1030.94   51.60
  -3  -5  -1 1093.32   51.56
  -3  -5  -1 1104.08   59.63
   3  -5   1 1225.88   65.20
   3  -5   1 1141.15   61.11
  -3  -5  -2   80.46   26.73
  -3  -5  -2   67.38   17.60
   3  -5   2   52.42   13.57
  -3  -5  -2   90.57   15.66
  -3  -5  -2   81.53    9.63
  -3  -5  -2   88.58    9.92
  -3  -5  -2   95.58   10.79
  -3  -5  -2   97.67    9.98
   3  -5   2   35.21    6.78
  -3  -5  -2   60.81   10.06
   3  -5   2   46.35   12.60
  -3  -5  -2   65.32   11.24
   3  -5   2   54.53   11.47
  -3  -5  -3  381.87   57.98
  -3  -5  -3  405.26   45.85
  -3  -5  -3  572.27   39.22
  -3  -5  -3  507.89   29.06
  -3  -5  -3  469.11   30.63
  -3  -5  -3  527.98   30.40
  -3  -5  -3  486.43   28.95
   3  -5   3  486.35   28.27
  -3  -5  -3  502.62   28.52
  -3  -5  -3  505.06   32.46
   3  -5   3  539.77   39.31
   3  -5   3  517.37   36.46
  -3  -5  -4   14.28   13.09
   3  -5   4   24.33    5.56
  -3  -5  -4   20.66    6.06
  -3  -5  -4   26.64    6.02
  -3  -5  -4   27.99    5.87
  -3  -5  -4   28.92    7.03
   3  -5   4   16.19    8.21
  -3  -5  -4   31.68    6.32
   3  -5   5    9.94    4.25
  -3  -5  -5    5.10    4.15
  -3  -5  -5   10.21    4.30
  -3  -5  -5   13.17    5.11
   3  -5   5    9.37    9.00
   3  -5   5    5.83    7.02
  -3  -5  -5   10.95    4.26
  -3  -5  -6  241.45   18.20
   3  -5   6  314.83   19.57
   3  -5   6  266.61   26.94
  -3  -5  -6  248.79   17.82
  -3  -5  -7  152.41   14.15
   3  -5   7  217.30   15.46
   3  -5   7  192.37   21.87
  -3  -5  -8  187.67   14.96
   3  -5   8  195.38   14.89
   3  -5   8  217.63   22.82
   3  -5   9  250.15   16.58
   3  -5   9  217.63   22.22
   3  -5  10   12.03    3.93
   3  -5  10    6.54    5.97
   3  -5  11   46.44    5.83
   3  -5  11   44.53    8.77
   3  -5  12  147.74    9.80
   3  -5  12  128.98   12.42
   3  -4 -16   15.72    3.50
   3  -4 -15  184.55   15.18
   3  -4 -15  189.43   14.26
   3  -4 -14  173.97   16.17
  -3  -4  14  141.90   14.35
   3  -4 -13  285.59   22.85
  -3  -4  13  218.86   20.56
   3  -4 -12  103.02   14.66
  -3  -4  12  100.93   14.98
   3  -4 -12   97.24   11.67
   3  -4 -12  102.32   13.42
   3  -4 -11  325.70   28.14
   3  -4 -11  330.74   25.41
   3  -4 -11  314.98   23.84
  -3  -4  11  334.24   24.85
   3  -4 -10  147.66   16.54
   3  -4 -10  125.05   12.72
   3  -4 -10  141.95   15.35
  -3  -4  10  147.14   16.87
   3  -4  -9  516.48   32.84
  -3  -4   9  441.01   31.92
   3  -4  -9  477.13   27.22
   3  -4  -9  483.30   31.12
  -3  -4   9  395.42   65.06
   3  -4  -9  341.75   25.41
  -3  -4   9  474.45   51.31
   3  -4  -8  276.27   22.55
  -3  -4   8  213.36   22.97
  -3  -4   8  247.35   36.34
  -3  -4   8  226.44   22.65
   3  -4  -8  231.28   18.67
   3  -4  -8  283.63   22.26
   3  -4  -8  238.63   17.81
  -3  -4   7   81.63   20.99
   3  -4  -7  124.14   14.72
  -3  -4   7   86.54   15.24
   3  -4  -7  122.96   11.76
   3  -4  -7  109.01   12.45
   3  -4  -7  111.18   11.24
  -3  -4   7  126.87   16.42
  -3  -4   7  103.45   33.34
   3  -4  -7  117.66   14.44
  -3  -4   7   97.70   12.43
  -3  -4   6  294.03   38.11
  -3  -4   6  247.04   25.02
   3  -4  -6  244.40   20.86
   3  -4  -6  241.06   21.76
  -3  -4   6  263.43   20.24
   3  -4  -6  227.77   17.17
   3  -4  -6  274.30   25.46
   3  -4  -6  184.55   17.56
  -3  -4   6  207.16   44.82
   3  -4  -6  239.31   16.99
  -3  -4   6  264.75   24.19
   3  -4  -6  245.45   20.98
  -3  -4   5  324.23   38.66
   3  -4  -5  238.84   22.32
  -3  -4   5  242.91   25.18
   3  -4  -5  254.49   21.00
  -3  -4   5  284.87   20.96
   3  -4  -5  230.65   17.27
   3  -4  -5  261.09   24.67
  -3  -4   5  284.87   50.46
   3  -4  -5  254.05   21.35
   3  -4  -5  214.93   18.68
  -3  -4   4  525.78   49.44
  -3  -4   4  474.18   54.82
  -3  -4   4  529.08   38.44
   3  -4  -4  460.72   33.66
   3  -4  -4  478.48   30.31
  -3  -4   4  528.55   31.18
   3  -4  -4  457.32   27.12
   3  -4  -4  554.40   34.63
   3  -4  -4  491.55   31.96
  -3  -4   4  532.52   66.50
   3  -4  -4  397.17   28.67
  -3  -4   3  687.38   56.76
  -3  -4   3  607.56   64.55
   3  -4  -3  680.18   42.31
  -3  -4   3  653.47   44.87
   3  -4  -3  626.81   33.10
   3  -4  -3  616.64   36.03
   3  -4  -3  693.52   42.44
  -3  -4   3  644.55   37.01
   3  -4  -3  659.68   34.11
   3  -4  -3  720.65   41.55
   3  -4  -3  537.08   35.56
  -3  -4   3  674.28   72.80
  -3  -4   2  858.22   46.86
   3  -4  -2  928.32   52.61
   3  -4  -2  949.54   53.64
  -3  -4   2  855.81   54.78
   3  -4  -2  924.73   46.15
   3  -4  -2  930.62   43.25
   3  -4  -2  906.84   63.33
  -3  -4   2  735.50   75.84
  -3  -4   2  858.84   65.64
   3  -4  -2 1034.44   54.17
   3  -4  -2  736.19   45.67
   3  -4  -2  936.12   51.48
  -3  -4   2  791.59   77.77
  -3  -4   1   43.60   18.22
   3  -4  -1   29.59   10.20
   3  -4  -1   23.58    8.31
   3  -4  -1   16.92    7.65
  -3  -4   1   21.53    8.98
  -3  -4   1   26.60   11.58
   3  -4  -1   25.17    8.76
   3  -4  -1   27.44    5.17
   3  -4  -1   26.83    8.69
   3  -4  -1   40.85    9.52
  -3  -4   0  272.83   32.93
  -3  -4   0  286.25   45.28
   3  -4   0  210.98   26.67
  -3  -4   0  269.25   17.29
   3  -4   0  214.18   15.66
   3  -4   0  223.11   22.65
   3  -4   0  233.78   21.86
   3  -4   0  259.45   23.95
   3  -4   0  264.00   24.46
   3  -4   0  238.97   22.65
  -3  -4  -1  241.39   31.17
  -3  -4  -1  285.56   45.83
   3  -4   1  177.94   24.26
  -3  -4  -1  243.63   16.69
   3  -4   1  236.62   23.05
   3  -4   1  211.84   15.63
   3  -4   1  264.60   23.02
   3  -4   1  234.66   23.33
   3  -4   1  237.71   22.73
  -3  -4  -1  277.73   25.75
   3  -4   1  221.43   23.05
  -3  -4  -1  248.36   17.05
  -3  -4  -2 1315.16  112.67
  -3  -4  -2 1505.77   92.51
  -3  -4  -2 1589.48   70.92
  -3  -4  -2 1422.79   67.98
   3  -4   2 1510.83   78.83
   3  -4   2 1504.69   67.76
   3  -4   2 1535.71   77.62
  -3  -4  -2 1545.91   68.40
  -3  -4  -2 1507.08   79.53
  -3  -4  -3   69.77   16.61
   3  -4   3  106.10   15.57
  -3  -4  -3   83.25   10.11
  -3  -4  -3   81.81    9.60
   3  -4   3  109.73   10.28
   3  -4   3   69.21   20.69
   3  -4   3  106.21   15.92
  -3  -4  -3   64.33   13.03
  -3  -4  -3   78.95    9.13
   3  -4   3   90.18   15.12
  -3  -4  -4  307.11   49.16
  -3  -4  -4  231.61   31.53
  -3  -4  -4  309.39   20.83
  -3  -4  -4  316.45   21.92
  -3  -4  -4  375.98   22.70
   3  -4   4  353.94   21.18
   3  -4   4  334.03   46.08
   3  -4   4  317.32   28.65
   3  -4   4  331.97   29.66
  -3  -4  -4  257.53   25.38
  -3  -4  -4  294.78   19.83
  -3  -4  -5   49.48   21.40
  -3  -4  -5   24.62   11.05
   3  -4   5   25.98    5.73
  -3  -4  -5   31.96    6.60
  -3  -4  -5   41.72    7.00
  -3  -4  -5   35.67    7.26
   3  -4   5   27.63   10.53
   3  -4   5   15.60   12.72
   3  -4   5   19.73    8.62
  -3  -4  -5   37.55    6.37
  -3  -4  -6  232.32   32.40
  -3  -4  -6  347.48   52.23
  -3  -4  -6  369.54   23.20
   3  -4   6  330.20   21.40
   3  -4   6  303.12   29.13
   3  -4   6  239.74   44.12
  -3  -4  -6  307.17   22.20
  -3  -4  -6  331.22   20.72
   3  -4   6  290.66   28.54
  -3  -4  -7  540.66   67.16
  -3  -4  -7  619.16   34.71
  -3  -4  -7  631.91   35.42
   3  -4   7  592.54   33.61
   3  -4   7  646.75   44.63
   3  -4   7  559.72   70.39
  -3  -4  -7  627.58   37.75
  -3  -4  -8  389.69   56.89
  -3  -4  -8  493.75   32.75
   3  -4   8  521.53   39.31
   3  -4   8  432.81   61.95
  -3  -4  -8  497.59   30.15
  -3  -4  -8  484.56   30.16
   3  -4   8  562.90   30.41
  -3  -4  -9  245.17   21.46
   3  -4   9  302.14   27.73
  -3  -4  -9  238.19   19.19
  -3  -4  -9  234.70   19.22
   3  -4   9  331.78   20.69
  -3  -4 -10   58.56   10.21
   3  -4  10   57.69   12.47
  -3  -4 -10   36.13    7.37
  -3  -4 -10   42.86    8.02
   3  -4  10   59.02    8.45
  -3  -4 -11   77.23   11.30
   3  -4  11   72.78   12.93
  -3  -4 -11   70.48    9.39
   3  -4  11   64.20    8.54
  -3  -4 -12  309.06   22.07
  -3  -4 -12  292.93   19.53
   3  -4  12  316.42   19.36
  -3  -4 -13  279.11   20.57
   3  -4  13  273.95   21.12
  -3  -4 -13  293.80   18.84
  -3  -4 -14   60.36    7.97
   3  -4  14   65.29    6.54
  -3  -4 -15   59.22    6.52
   3  -3 -17  127.07   10.15
   3  -3 -17  148.57   12.39
   3  -3 -16   81.20    9.45
   3  -3 -16   87.30   11.07
   3  -3 -15   31.06    7.20
   3  -3 -15   23.58    5.96
   3  -3 -15   33.35    8.20
   3  -3 -15   29.98    7.02
   3  -3 -14  330.60   25.02
  -3  -3  14  326.09   25.41
   3  -3 -14  361.44   25.17
   3  -3 -14  338.87   24.73
   3  -3 -14  390.48   29.26
   3  -3 -13   -0.88    5.91
   3  -3 -13   -0.87    4.87
   3  -3 -13   -0.66    3.86
   3  -3 -13    5.18    5.29
   3  -3 -12  944.47   52.99
   3  -3 -12  993.95   53.18
   3  -3 -12  928.65   48.97
   3  -3 -12  923.87   51.85
   3  -3 -11  384.63   28.52
   3  -3 -11  390.98   28.03
   3  -3 -11  360.74   27.46
   3  -3 -11  337.51   24.19
   3  -3 -10  146.09   16.16
  -3  -3  10  164.93   17.00
  -3  -3  10  132.58   38.14
   3  -3 -10  148.01   16.67
   3  -3 -10  144.82   14.24
   3  -3  -9  169.73   17.35
   3  -3  -9  220.48   22.21
   3  -3  -9  169.38   17.68
  -3  -3   9  156.72   17.48
   3  -3  -9  191.56   16.00
   3  -3  -8  229.61   19.96
   3  -3  -8  242.20   23.20
   3  -3  -8  219.58   19.97
  -3  -3   8  219.25   17.70
   3  -3  -8  236.74   18.13
  -3  -3   7 1159.52   80.18
   3  -3  -7 1096.00   57.30
  -3  -3   7  971.60   52.31
   3  -3  -7 1067.58   55.90
   3  -3  -7 1126.09   61.07
   3  -3  -7 1099.96   73.78
  -3  -3   7 1070.45  103.42
   3  -3  -7 1195.29   57.96
  -3  -3   6 1541.04  103.10
  -3  -3   6 1616.72   84.54
   3  -3  -6 1823.63   82.28
  -3  -3   6 1700.33   78.05
   3  -3  -6 1736.69   80.70
   3  -3  -6 1605.50   74.87
   3  -3  -6 1809.79   85.93
   3  -3  -6 1698.65   97.81
  -3  -3   6 1707.06  134.13
   3  -3  -6 1787.21   81.95
  -3  -3   5  174.59   29.33
  -3  -3   5  194.91   27.14
  -3  -3   5  170.59   14.35
  -3  -3   5  186.13   19.15
   3  -3  -5  174.78   16.11
   3  -3  -5  159.40   17.32
   3  -3  -5  137.92   21.03
   3  -3  -5  190.42   17.46
  -3  -3   5  126.89   33.48
   3  -3  -5  154.46   15.21
   3  -3  -5  128.42   13.49
  -3  -3   4   90.51   22.98
   3  -3  -4  102.67   13.41
   3  -3  -4  111.44   17.97
   3  -3  -4  109.22   13.15
   3  -3  -4  106.92   11.97
  -3  -3   4   74.73   25.25
   3  -3  -4   87.47   10.61
  -3  -3   4  111.74   19.92
   3  -3  -3 1388.23   67.75
   3  -3  -3 1211.60   62.39
   3  -3  -3 1375.27   65.04
   3  -3  -3 1454.39   67.74
   3  -3  -3 1320.07   75.96
  -3  -3   3 1263.61   93.56
  -3  -3   3 1443.51   82.52
   3  -3  -2  405.65   27.57
   3  -3  -2  378.00   26.20
   3  -3  -2  322.18   30.36
  -3  -3   2  332.00   33.27
   3  -3  -2  419.48   34.23
  -3  -3   2  389.78   46.75
   3  -3  -1 2157.25   99.70
   3  -3  -1 2400.39  124.08
   3  -3  -1 2151.34   98.31
   3  -3  -1 1939.95  104.94
  -3  -3   1 2127.52  110.95
   3  -3  -1 2182.68  107.33
  -3  -3   1 2305.67  136.27
  -3  -3   0 1420.63   67.03
   3  -3   0 1720.20   98.64
   3  -3   0 1558.86   72.55
  -3  -3   0 1444.48   96.43
   3  -3   0 1337.48   77.62
  -3  -3   0 1577.23  107.27
  -3  -3   0 1494.95   83.05
   3  -3   0 1483.83   78.37
  -3  -3  -1  289.44   18.48
   3  -3   1  282.98   22.89
   3  -3   1  245.35   34.37
  -3  -3  -1  221.28   30.41
   3  -3   1  224.80   22.94
  -3  -3  -1  284.17   28.19
  -3  -3  -2   64.93   13.58
   3  -3   2   76.86   12.32
  -3  -3  -2   78.73    8.91
   3  -3   2   91.62   22.70
   3  -3   2   89.76   12.93
  -3  -3  -3  402.57   24.10
   3  -3   3  471.63   30.71
   3  -3   3  480.22   31.42
  -3  -3  -3  392.29   33.45
  -3  -3  -3  358.14   33.72
   3  -3   3  354.10   29.06
  -3  -3  -3  419.62   51.20
  -3  -3  -3  370.84   23.51
   3  -3   3  464.74   31.25
   3  -3   3  391.56   48.53
  -3  -3  -4  831.28   40.64
   3  -3   4  890.28   48.48
  -3  -3  -4  765.49   45.97
  -3  -3  -4  699.05   52.20
  -3  -3  -4  695.57   51.37
  -3  -3  -4  647.73   68.30
  -3  -3  -4  772.74   39.70
   3  -3   4  867.49   48.96
   3  -3   4  784.74   74.21
  -3  -3  -5 1581.91   70.54
  -3  -3  -5 1507.27   68.51
   3  -3   5 1688.88   79.68
  -3  -3  -5 1368.74   85.10
  -3  -3  -5 1645.85  113.87
  -3  -3  -5 1366.33   84.70
  -3  -3  -5 1501.70   68.89
   3  -3   5 1624.44  117.93
  -3  -3  -6  123.22   11.83
   3  -3   6   89.39   14.10
  -3  -3  -6  104.49   26.59
  -3  -3  -6   95.54   17.27
  -3  -3  -6   94.70    9.89
   3  -3   6  115.91   30.21
  -3  -3  -6   97.24   10.96
  -3  -3  -7   38.74    7.23
  -3  -3  -7   38.95    7.33
   3  -3   7   39.23   10.43
  -3  -3  -7   47.15    6.67
  -3  -3  -7   49.65    7.31
   3  -3   7   64.19   24.28
  -3  -3  -7   18.92   13.23
  -3  -3  -8   24.11    6.45
  -3  -3  -8   33.45    6.49
   3  -3   8   21.54   16.22
  -3  -3  -8   22.78   13.21
  -3  -3  -9   51.75    8.98
  -3  -3  -9   42.02    7.30
   3  -3   9   23.07   17.41
  -3  -3  -9   44.70   17.18
   3  -3  10 1246.77  123.60
  -3  -3 -10 1456.15   68.56
  -3  -3 -10 1375.38   65.79
   3  -3  11  127.62   17.43
  -3  -3 -11  146.27   14.77
   3  -3  12  164.98   18.20
  -3  -3 -13   45.06    8.36
  -3  -3 -14   55.80    9.40
  -3  -3 -14   39.20    7.32
  -3  -3 -15  256.31   18.55
  -3  -3 -15  241.09   16.73
  -3  -3 -16  226.09   15.81
  -3  -3 -16  229.56   14.80
   3  -3  16  259.19   14.19
   3  -2 -18  102.52    9.94
   3  -2 -18   85.52    8.39
   3  -2 -18  104.86    9.24
   3  -2 -18   94.70   10.05
   3  -2 -17   18.69    4.53
   3  -2 -17   27.68    6.75
   3  -2 -17   29.42    6.09
   3  -2 -17   32.13    7.75
   3  -2 -17   26.27    5.97
   3  -2 -16  159.14   14.43
   3  -2 -16  166.37   17.01
   3  -2 -16  186.33   16.11
   3  -2 -16  149.39   14.93
   3  -2 -15   13.91    5.85
   3  -2 -15   16.86    7.23
   3  -2 -15   19.32    6.80
   3  -2 -14  124.24   14.69
   3  -2 -14  135.41   16.93
   3  -2 -14  128.84   15.01
   3  -2 -14  122.39   13.17
  -3  -2  13  766.89   94.17
   3  -2 -13  904.01   44.70
   3  -2 -13  977.84   53.38
   3  -2 -13 1042.66   57.53
  -3  -2  13  947.00   79.26
   3  -2 -13 1026.27   50.99
  -3  -2  13  737.06   90.98
  -3  -2  13  844.36   93.04
   3  -2 -13 1098.93   54.99
   3  -2 -13  970.62   51.88
   3  -2 -12  234.95   21.04
   3  -2 -12  262.98   20.79
  -3  -2  12  204.87   41.91
   3  -2 -12  243.61   23.21
   3  -2 -12  197.00   14.42
  -3  -2  12  154.02   29.60
   3  -2 -12  223.11   16.68
  -3  -2  12  143.67   39.55
   3  -2 -12  247.16   19.25
   3  -2 -11  281.33   23.04
  -3  -2  11  304.92   49.45
   3  -2 -11  245.35   20.91
  -3  -2  11  183.03   32.40
   3  -2 -11  268.87   24.53
   3  -2 -11  266.75   18.27
  -3  -2  11  227.26   48.33
  -3  -2  10  170.39   36.25
  -3  -2  10  146.17   29.35
  -3  -2  10  125.45   25.51
   3  -2 -10  126.69   16.72
   3  -2 -10  151.53   12.60
   3  -2 -10  133.25   27.61
  -3  -2  10  179.63   42.07
  -3  -2   9  104.01   27.00
  -3  -2   9   81.30   20.56
  -3  -2   9  124.77   25.21
   3  -2  -9   84.37   13.30
   3  -2  -9  102.97    9.76
  -3  -2   9  128.00   34.04
   3  -2  -9   95.20   22.06
  -3  -2   8 1137.10   90.95
  -3  -2   8 1132.02   77.65
  -3  -2   8 1086.28   78.42
  -3  -2   8 1149.62   95.81
   3  -2  -8 1140.10   59.43
   3  -2  -8 1085.72   51.12
   3  -2  -8 1218.40   82.64
   3  -2  -7 2027.58  116.72
  -3  -2   7 1967.79  112.24
  -3  -2   7 2134.64  134.54
   3  -2  -7 2089.94   95.01
   3  -2  -7 1977.40   86.28
   3  -2  -7 2068.21   90.84
  -3  -2   7 2134.19  128.81
  -3  -2   6  115.15   26.25
   3  -2  -6   70.34   16.90
  -3  -2   6  102.43   23.64
  -3  -2   6   90.78   16.06
  -3  -2   5  260.09   28.37
  -3  -2   5  269.64   36.58
  -3  -2   5  283.07   35.10
   3  -2  -5  312.15   21.96
   3  -2  -5  261.41   30.98
  -3  -2   4   14.82   10.51
  -3  -2   4   12.91    6.87
  -3  -2   4    9.70    8.94
  -3  -2   4   12.96    9.19
   3  -2  -4   14.35    7.64
  -3  -2   3  601.44   53.02
  -3  -2   3  684.14   49.82
  -3  -2   3  605.08   53.00
  -3  -2   3  659.47   52.91
   3  -2  -3  583.83   46.33
  -3  -2   2 3552.36  179.64
  -3  -2   2 3851.53  165.70
  -3  -2   2 3790.41  176.85
  -3  -2   2 3352.14  174.03
   3  -2  -2 4062.23  182.19
   3  -2  -2 3327.55  169.78
  -3  -2   1  135.93   21.64
  -3  -2   1  164.56   24.21
  -3  -2   1  136.83   16.50
  -3  -2   1  136.61   16.93
  -3  -2   1  116.13   20.33
  -3  -2   0 1936.43   97.06
  -3  -2   0 2286.08  119.54
  -3  -2   0 2129.48   98.68
   3  -2   0 2014.90   93.53
  -3  -2   0 2078.11  109.67
   3  -2   0 2133.76  117.45
  -3  -2  -1  137.07   16.52
  -3  -2  -1  184.37   22.06
   3  -2   1  186.68   27.84
  -3  -2  -1  167.01   26.48
  -3  -2  -1  161.31   17.19
   3  -2   1  157.87   14.07
  -3  -2  -1  190.36   29.66
   3  -2   2  355.67   40.96
   3  -2   2  304.25   20.20
  -3  -2  -2  282.08   23.93
  -3  -2  -2  367.62   41.97
   3  -2   3  575.98   55.64
  -3  -2  -3  511.58   35.13
   3  -2   3  516.02   28.67
  -3  -2  -3  577.92   53.47
   3  -2   4 1488.49   70.02
  -3  -2  -4 1634.05  101.91
  -3  -2  -4 1370.84   75.28
   3  -2   4 1442.79  102.91
  -3  -2  -4 1517.13   65.44
  -3  -2  -5  108.30   22.81
  -3  -2  -5   82.98   16.49
   3  -2   5   76.78   11.82
  -3  -2  -5   66.87   12.15
  -3  -2  -5   86.04    8.41
   3  -2   5   60.84   20.36
  -3  -2  -6 1679.73   67.40
  -3  -2  -6 1413.60   64.80
   3  -2   6 1506.85   78.03
  -3  -2  -6 1458.68   89.96
  -3  -2  -6 1458.15   98.95
  -3  -2  -6 1372.69   64.03
  -3  -2  -6 1438.59   66.42
   3  -2   6 1406.84  110.62
  -3  -2  -7  318.27   20.51
   3  -2   7  318.88   29.91
  -3  -2  -7  260.03   34.12
  -3  -2  -7  320.84   41.04
  -3  -2  -7  301.58   19.40
  -3  -2  -7  329.30   20.38
   3  -2   7  300.44   49.55
   3  -2   8  104.08   28.32
  -3  -2  -8   88.42   21.31
   3  -2   8   59.91   13.97
  -3  -2  -8   72.48   19.57
  -3  -2  -8   87.81    9.41
  -3  -2  -8   83.23    9.43
  -3  -2  -8   77.75    9.71
   3  -2   9 1221.77  110.15
   3  -2   9 1329.07   83.55
  -3  -2  -9 1168.54   91.10
  -3  -2  -9 1388.39   63.83
  -3  -2  -9 1408.49   64.35
  -3  -2  -9 1293.19   90.33
  -3  -2  -9 1433.30   65.72
   3  -2  10    2.18    3.79
  -3  -2 -10    1.71    3.36
  -3  -2 -10    5.30    3.75
  -3  -2 -10   -2.80    9.72
  -3  -2 -10    3.39    4.24
   3  -2  11  113.82   33.73
   3  -2  11  191.24   47.26
  -3  -2 -11  163.48   15.72
  -3  -2 -11   81.74   21.06
  -3  -2 -11  144.98   14.57
  -3  -2 -11  167.63   14.37
   3  -2  12  129.69   39.55
  -3  -2 -12  189.47   15.34
  -3  -2 -12  170.07   16.28
  -3  -2 -12  161.91   29.01
  -3  -2 -12  171.34   15.93
  -3  -2 -13  195.25   15.32
  -3  -2 -13  188.02   16.99
  -3  -2 -14  283.03   19.18
  -3  -2 -14  301.56   21.45
  -3  -2 -14  354.43   25.20
  -3  -2 -15  310.97   18.72
  -3  -2 -15  330.54   23.25
  -3  -2 -15  297.80   20.38
  -3  -2 -16   74.74    9.46
  -3  -2 -16   81.60    8.75
  -3  -2 -17  347.42   19.91
  -3  -2 -18   37.03    4.26
   3  -1 -19  142.10   10.53
   3  -1 -19  134.41   10.51
   3  -1 -18   53.87    8.16
   3  -1 -18   53.55    7.75
   3  -1 -18   52.86    7.14
   3  -1 -17  173.67   16.37
   3  -1 -17  163.32   14.60
   3  -1 -16  486.65   29.12
   3  -1 -16  586.26   35.93
   3  -1 -16  548.54   32.70
   3  -1 -15  470.31   25.76
   3  -1 -15  436.83   28.35
   3  -1 -15  470.29   28.43
   3  -1 -15  480.53   31.10
   3  -1 -14  190.12   13.79
   3  -1 -14  161.95   16.27
   3  -1 -14  167.46   17.48
   3  -1 -14  164.80   16.07
  -3  -1  14  135.51   38.49
   3  -1 -14  152.66   14.86
  -3  -1  13   27.19   14.75
  -3  -1  13   52.28   17.33
   3  -1 -13   21.08    7.06
   3  -1 -13   37.33    7.68
  -3  -1  13   47.37   22.40
   3  -1 -13   30.78    8.61
   3  -1 -13   30.18    7.83
   3  -1 -12  541.17   34.05
   3  -1 -12  486.83   31.69
  -3  -1  12  443.64   50.13
   3  -1 -12  498.12   29.01
  -3  -1  12  440.50   65.99
   3  -1 -12  508.25   30.54
  -3  -1  12  522.74   64.12
   3  -1 -11  463.15   30.79
   3  -1 -11  444.92   28.98
  -3  -1  11  434.63   46.89
   3  -1 -11  445.32   26.03
   3  -1 -11  464.65   53.63
   3  -1 -11  431.63   27.44
  -3  -1  11  393.47   60.58
  -3  -1  11  454.21   56.83
   3  -1 -10 1432.00   69.44
   3  -1 -10 1356.33   67.38
  -3  -1  10 1450.76   93.01
   3  -1 -10 1421.90   64.39
   3  -1 -10 1517.01  102.51
  -3  -1  10 1406.26  104.18
   3  -1  -9   24.26    6.87
   3  -1  -9   29.62    6.32
  -3  -1   9   26.06   11.36
  -3  -1   9   37.56   14.22
   3  -1  -9   29.90    5.26
   3  -1  -9   25.58   13.55
  -3  -1   9   39.59   15.44
  -3  -1   9   18.49   11.40
  -3  -1   8  775.43   56.13
  -3  -1   8  719.54   62.73
   3  -1  -8  688.29   61.00
  -3  -1   8  733.55   62.16
  -3  -1   8  735.41   64.94
  -3  -1   7  610.11   46.75
  -3  -1   7  560.41   53.22
   3  -1  -7  568.64   51.79
  -3  -1   7  704.27   55.11
  -3  -1   7  665.54   57.77
  -3  -1   6  483.17   38.22
  -3  -1   6  498.30   47.36
  -3  -1   6  462.63   41.50
  -3  -1   6  487.94   47.35
  -3  -1   6  558.26   54.99
   3  -1  -6  529.13   46.57
  -3  -1   5 2239.29  112.20
  -3  -1   5 2304.60  127.06
  -3  -1   5 2411.68  136.53
  -3  -1   5 2410.37  117.30
  -3  -1   5 2311.29  128.20
  -3  -1   5 2411.43  132.22
   3  -1  -5 2233.02  122.75
  -3  -1   4 2164.25  121.07
  -3  -1   4 2228.70  127.10
  -3  -1   4 2289.27  107.45
   3  -1  -4 2256.89  104.98
  -3  -1   4 2296.10  124.39
   3  -1  -4 2062.37  116.60
  -3  -1   3 1117.86   71.47
  -3  -1   3 1039.45   72.59
  -3  -1   3 1149.71   55.08
   3  -1  -3  939.38   53.60
  -3  -1   3 1027.71   69.23
   3  -1  -3  886.22   62.38
  -3  -1   2 3110.06  154.69
  -3  -1   2 2936.95  155.35
  -3  -1   2 3204.45  154.10
   3  -1  -2 3453.82  155.39
   3  -1  -2 2836.81  132.80
  -3  -1   2 3071.60  128.36
  -3  -1   2 3144.44  149.56
  -3  -1   1  820.20   61.62
  -3  -1   1  899.78   46.03
  -3  -1   1  864.27   60.70
   3  -1  -1  875.32   61.19
   3  -1  -1  865.02   45.71
  -3  -1   1  907.05   57.98
   3  -1   0 1535.18   69.11
  -3  -1   0 1459.50   80.13
  -3  -1   0 1368.54   84.97
  -3  -1   0 1454.91   88.95
  -3  -1   0 1442.27   67.16
  -3  -1  -1 1039.45   68.91
  -3  -1  -1 1288.34   67.45
   3  -1   1 1209.54   56.89
  -3  -1  -1 1247.61   79.07
  -3  -1  -1 1105.59   53.57
  -3  -1  -2    5.12    6.94
   3  -1   2    2.77    1.83
  -3  -1  -2    2.81    2.51
  -3  -1  -2   -2.21    9.77
   3  -1   2    5.10    3.03
  -3  -1  -2    7.39    5.34
  -3  -1  -3 1546.62   75.79
   3  -1   3 1616.25   73.01
  -3  -1  -3 1659.82   92.62
  -3  -1  -3 1574.33   81.79
   3  -1   3 1497.16   68.68
  -3  -1  -3 1402.72   68.14
   3  -1   3 1417.92   96.72
  -3  -1  -4  695.40   38.85
   3  -1   4  625.58   39.17
  -3  -1  -4  770.69   57.88
  -3  -1  -4  670.81   60.05
   3  -1   4  675.01   38.96
  -3  -1  -4  713.96   55.10
   3  -1   4  634.24   60.46
  -3  -1  -4  719.04   47.28
   3  -1   5 1118.58   81.03
   3  -1   5 1191.93   62.76
   3  -1   5 1157.22   62.37
  -3  -1  -5 1227.61   78.17
   3  -1   5 1189.93   89.22
  -3  -1  -5 1144.52   68.28
   3  -1   6  756.31   67.27
  -3  -1  -6  877.18   55.96
  -3  -1  -6  819.08   61.48
   3  -1   6  865.60   52.07
  -3  -1  -6  811.82   61.19
   3  -1   6  737.71   72.14
   3  -1   7  745.89   75.56
  -3  -1  -7  759.23   61.16
   3  -1   7  816.02   52.89
  -3  -1  -7  719.48   57.78
   3  -1   7  775.29   70.97
  -3  -1  -7  788.13   37.35
  -3  -1  -7  755.76   36.57
  -3  -1  -7  763.01   52.93
  -3  -1  -7  787.80   37.55
  -3  -1  -7  749.88   36.81
  -3  -1  -7  741.62   36.87
  -3  -1  -8  954.67   43.64
   3  -1   8  926.82   60.74
  -3  -1  -8  827.53   67.72
  -3  -1  -8  819.56   62.91
   3  -1   8  754.92   76.10
  -3  -1  -8  911.97   42.57
  -3  -1  -8  834.56   41.47
  -3  -1  -8  878.32   58.13
  -3  -1  -8  902.31   42.66
  -3  -1  -8  842.93   40.81
  -3  -1  -8  861.05   40.81
  -3  -1  -8  869.34   42.02
  -3  -1  -8  852.82   41.77
  -3  -1  -9 1078.72   50.70
  -3  -1  -9  974.61   78.34
   3  -1   9 1004.73   69.11
   3  -1   9 1019.38   93.38
  -3  -1  -9 1056.11   49.65
   3  -1   9 1079.18   83.38
  -3  -1  -9 1052.98   49.01
  -3  -1  -9 1040.59   49.75
  -3  -1  -9 1010.89   47.35
  -3  -1  -9  991.30   48.72
  -3  -1  -9 1034.30   49.02
  -3  -1 -10 1165.10   58.89
  -3  -1 -10 1131.45   89.90
   3  -1  10 1308.14   83.49
   3  -1  10 1221.78  107.94
  -3  -1 -10 1283.04   58.75
   3  -1  10 1296.79   96.25
  -3  -1 -10 1263.51   57.89
  -3  -1 -10 1291.65   58.83
  -3  -1 -10 1186.59   57.66
  -3  -1 -11  248.63   37.43
  -3  -1 -11  290.90   20.84
  -3  -1 -11  257.59   19.36
   3  -1  11  238.09   33.22
   3  -1  11  185.45   42.20
  -3  -1 -11  268.89   18.89
  -3  -1 -11  252.23   18.09
  -3  -1 -11  274.78   19.11
   3  -1  11  199.97   46.94
  -3  -1 -12  379.69   49.10
  -3  -1 -12  522.33   30.44
   3  -1  12  421.35   46.51
   3  -1  12  470.12   67.89
  -3  -1 -12  503.21   28.84
  -3  -1 -12  485.70   27.97
  -3  -1 -12  459.25   28.19
   3  -1  12  373.25   65.28
  -3  -1 -13   -3.27    8.03
  -3  -1 -13    1.37    4.12
   3  -1  13    5.37    6.59
   3  -1  13  -10.88   13.34
  -3  -1 -13   -1.11    3.67
  -3  -1 -13    3.00    3.45
  -3  -1 -13    1.18    3.24
   3  -1  13    6.34   13.46
  -3  -1 -14  675.53   35.41
  -3  -1 -14  682.40   35.50
  -3  -1 -14  606.86   35.84
  -3  -1 -15  227.41   19.07
  -3  -1 -15  242.89   16.94
  -3  -1 -15  223.02   17.05
  -3  -1 -15  253.64   16.95
  -3  -1 -16  253.53   18.63
  -3  -1 -16  267.17   16.52
  -3  -1 -16  241.20   16.81
  -3  -1 -16  293.52   19.75
  -3  -1 -17   64.25    7.25
   3  -1  17   87.89    9.92
  -3  -1 -17   81.11    8.73
   3  -1  18   19.43    4.06
  -3  -1 -18   24.10    4.10
   3   0 -19    5.58    2.65
   3   0 -18   29.16    5.08
   3   0 -18   25.16    5.84
   3   0 -17  177.36   14.85
   3   0 -17  183.02   12.74
   3   0 -16    2.07    4.22
   3   0 -16   -0.99    3.53
   3   0 -15  756.58   42.18
   3   0 -15  736.48   36.71
   3   0 -15  779.16   39.23
   3   0 -15  709.91   37.41
   3   0 -14  951.40   46.95
  -3   0  14  951.45   94.25
  -3   0  14  828.96   71.97
   3   0 -14  978.20   50.87
   3   0 -14  931.37   46.21
   3   0 -14  888.46   43.85
   3   0 -14  887.71   45.37
   3   0 -13  239.38   18.08
  -3   0  13  214.41   43.08
  -3   0  13  228.89   34.47
   3   0 -13  254.08   20.79
   3   0 -13  215.58   18.43
   3   0 -13  218.62   15.65
   3   0 -13  238.30   17.45
   3   0 -13  222.67   16.74
   3   0 -12  548.85   31.17
  -3   0  12  431.26   61.09
  -3   0  12  575.49   68.05
  -3   0  12  463.12   50.33
  -3   0  12  475.51   64.04
   3   0 -12  524.18   33.72
   3   0 -12  547.12   32.39
   3   0 -12  565.13   30.68
   3   0 -12  536.50   28.61
   3   0 -12  533.04   29.94
   3   0 -11  837.90   73.71
   3   0 -11  803.28   40.78
   3   0 -11  713.39   55.80
  -3   0  11  721.30   75.39
  -3   0  11  804.92   69.42
  -3   0  11  780.45   62.99
  -3   0  11  850.56   84.77
   3   0 -11  765.02   43.42
   3   0 -11  750.92   41.26
   3   0 -11  763.08   37.54
   3   0 -11  790.99   39.51
   3   0 -10  660.43   61.52
  -3   0  10  657.57   60.20
   3   0 -10  639.00   48.04
  -3   0  10  671.25   66.36
  -3   0  10  632.83   52.56
  -3   0  10  734.18   73.57
   3   0 -10  609.08   35.19
   3   0 -10  585.96   33.47
   3   0 -10  587.16   29.81
   3   0 -10  583.71   29.19
   3   0 -10  601.51   31.61
   3   0 -10  576.04   29.85
   3   0  -9 2793.04  149.22
  -3   0   9 2665.55  151.98
   3   0  -9 2466.74  124.85
  -3   0   9 2782.64  146.31
  -3   0   9 2433.20  129.60
  -3   0   9 2566.65  159.40
   3   0  -9 2475.48  104.71
   3   0  -9 2442.28  106.58
   3   0  -9 2585.57  105.85
   3   0  -9 2523.38  105.03
   3   0  -8  428.08   33.91
  -3   0   8  415.50   45.73
  -3   0   8  399.92   42.57
  -3   0   8  411.33   36.09
  -3   0   8  460.45   53.82
   3   0  -8  390.00   23.93
   3   0  -8  420.10   44.31
   3   0  -8  391.03   22.11
  -3   0   7    2.70    4.97
  -3   0   7    3.13    8.57
   3   0  -7   -2.32    6.97
  -3   0   7   -2.36    6.47
   3   0  -7    4.57    3.71
  -3   0   7   -2.23    7.23
  -3   0   6  354.33   29.17
  -3   0   6  392.60   45.59
   3   0  -6  388.61   39.67
  -3   0   6  375.26   37.89
   3   0  -6  359.69   27.73
   3   0  -6  361.21   31.45
  -3   0   6  376.87   38.13
  -3   0   5 1218.43   64.90
  -3   0   5 1225.41   87.59
   3   0  -5 1252.78   64.23
   3   0  -5 1361.01   70.48
  -3   0   5 1386.55   80.44
  -3   0   5 1201.06   75.38
  -3   0   5 1393.96   88.54
   3   0  -5 1224.88   78.78
  -3   0   4 3187.68  141.85
  -3   0   4 3204.22  168.66
  -3   0   4 3393.85  171.72
   3   0  -4 3338.41  142.04
   3   0  -4 3414.34  149.56
  -3   0   4 3356.89  159.66
  -3   0   4 3356.73  167.70
   3   0  -4 3157.66  160.14
  -3   0   3 2720.13  142.41
   3   0  -3 2773.35  122.19
   3   0  -3 2649.09  114.34
  -3   0   3 2625.43  131.62
  -3   0   3 2562.12  140.03
  -3   0   3 2668.77  137.74
   3   0  -3 2450.07  130.50
   3   0  -2   99.41   13.03
   3   0  -2   89.92    9.23
  -3   0   2   81.32   17.97
  -3   0   2   82.71   11.76
  -3   0   2   99.69   18.39
  -3   0   2   79.29   18.61
   3   0  -1  224.04   17.55
  -3   0   1  225.10   20.72
  -3   0   1  237.03   28.57
   3   0  -1  283.97   29.23
  -3   0   1  246.95   25.17
   3   0  -1  223.18   20.00
   3   0  -1  215.63   15.05
   3   0   0 1382.57   62.64
  -3   0   0 1433.14   80.37
  -3   0   0 1334.69   71.53
  -3   0   0 1415.31   67.47
   3   0   0 1370.83   65.40
   3   0   0 1383.80   57.19
   3   0   0 1601.57   81.08
  -3   0  -1  602.81   40.91
  -3   0  -1  608.04   38.85
   3   0   1  589.50   36.47
   3   0   1  514.85   34.11
  -3   0  -1  526.16   48.21
   3   0   1  552.27   45.22
  -3   0  -2 6175.65  263.98
  -3   0  -2 6196.57  264.41
   3   0   2 6176.19  260.11
   3   0   2 6327.07  259.30
  -3   0  -2 6264.65  281.93
   3   0   2 6287.67  278.03
  -3   0  -2 6155.78  279.93
  -3   0  -2 5979.22  260.60
   3   0   3  784.80   54.23
  -3   0  -3  886.77   53.10
   3   0   3  856.05   50.87
  -3   0  -3  938.36   67.44
  -3   0  -3  850.38   51.34
   3   0   3  885.30   51.78
  -3   0  -3  894.99   65.74
   3   0   3  922.21   47.81
   3   0   3  946.76   66.72
   3   0   4   11.59    7.87
  -3   0  -4    9.68    5.12
  -3   0  -4    6.13    5.00
  -3   0  -4    9.75   10.78
  -3   0  -4   18.27    8.01
   3   0   4    7.23    5.34
   3   0   4   11.10    5.09
  -3   0  -4    9.28    9.87
   3   0   4    2.37    9.21
  -3   0  -5  413.10   30.71
   3   0   5  383.54   39.01
  -3   0  -5  433.83   35.21
  -3   0  -5  381.01   44.71
  -3   0  -5  355.88   32.99
  -3   0  -5  500.90   47.22
   3   0   5  392.95   30.79
   3   0   5  426.65   46.57
   3   0   6   14.33   10.15
  -3   0  -6   10.92    4.88
  -3   0  -6    4.52    5.86
  -3   0  -6    4.56    5.29
   3   0   6   13.22    6.29
   3   0   6   15.43   11.98
   3   0   7 1234.46   98.54
  -3   0  -7 1456.82   90.49
   3   0   7 1459.97   79.94
   3   0   7 1324.10   94.10
  -3   0  -7 1523.34   82.46
   3   0   7 1502.36   92.25
  -3   0  -7 1309.87   60.70
  -3   0  -7 1359.31   60.47
  -3   0  -7 1373.72   60.33
   3   0   8 2111.84  147.33
  -3   0  -8 2523.41  137.43
   3   0   8 2482.81  124.41
  -3   0  -8 2515.72  124.10
   3   0   8 2339.75  144.89
   3   0   8 2444.77  137.95
  -3   0  -8 2305.85   99.89
  -3   0  -8 2371.51   99.49
  -3   0  -8 2311.32  100.42
  -3   0  -8 2395.46  100.09
  -3   0  -8 2372.58  100.91
  -3   0  -8 2331.73  100.19
  -3   0  -8 2421.58  102.76
   3   0   9   54.11   21.55
  -3   0  -9   56.10    7.67
  -3   0  -9   64.05   18.71
   3   0   9   57.56   14.89
   3   0   9   45.68   19.39
   3   0   9   43.76   17.31
  -3   0  -9   59.85    7.08
  -3   0  -9   60.93   14.44
  -3   0  -9   63.14    7.19
  -3   0  -9   57.40    7.55
  -3   0  -9   53.38    6.77
  -3   0  -9   63.22    7.69
  -3   0  -9   67.81    7.83
  -3   0  -9   66.26    8.75
  -3   0  -9   69.65    7.80
   3   0  10   59.95   25.39
  -3   0 -10   51.77    7.68
  -3   0 -10   67.32   20.59
   3   0  10   67.19   16.52
   3   0  10   64.46   23.71
   3   0  10   90.99   24.42
  -3   0 -10   64.05    7.70
  -3   0 -10   56.79    7.02
  -3   0 -10   55.08   13.38
  -3   0 -10   67.80    8.29
  -3   0 -10   74.04    8.70
  -3   0 -10   69.53    7.80
  -3   0 -10   77.01    8.68
  -3   0 -10   73.90    9.63
  -3   0 -10   68.19    8.26
   3   0  11   59.52   25.91
  -3   0 -11   90.02   10.16
  -3   0 -11   57.75   19.15
   3   0  11   86.99   20.60
   3   0  11   75.97   26.25
   3   0  11   80.58   24.22
  -3   0 -11   86.14    9.30
  -3   0 -11   63.55   14.63
  -3   0 -11   85.46    9.86
  -3   0 -11   84.85    8.59
  -3   0 -11   92.32    9.71
  -3   0 -11   79.12    9.37
  -3   0 -11   79.71    9.34
  -3   0 -11   89.97   10.94
   3   0  12   34.04   21.01
  -3   0 -12   68.76    9.37
  -3   0 -12   53.86   19.07
   3   0  12   62.80   17.88
   3   0  12   70.80   27.14
  -3   0 -12   70.99    9.11
   3   0  12   85.86   25.19
  -3   0 -12   58.38    7.79
  -3   0 -12   69.58    9.01
  -3   0 -12   47.53    6.48
  -3   0 -12   70.67    8.72
  -3   0 -12   58.63    8.08
   3   0  13  291.46   55.84
  -3   0 -13  429.33   52.39
  -3   0 -13  424.88   27.04
   3   0  13  463.78   49.46
   3   0  13  306.02   55.03
  -3   0 -13  467.69   26.62
  -3   0 -13  494.59   28.08
  -3   0 -13  459.76   27.42
  -3   0 -13  469.15   27.14
  -3   0 -13  474.15   26.75
  -3   0 -14  252.56   17.44
  -3   0 -14  210.28   15.94
  -3   0 -14  239.48   17.56
  -3   0 -14  226.10   17.03
  -3   0 -14  220.44   16.89
  -3   0 -15   89.66   10.55
  -3   0 -15   96.45    9.27
  -3   0 -15  103.21   10.32
  -3   0 -15   80.47    9.00
  -3   0 -15   74.43    9.27
  -3   0 -16   -0.89    3.27
  -3   0 -16    0.56    3.58
  -3   0 -16   -3.52    2.95
  -3   0 -17    3.51    2.59
  -3   0 -17    4.16    3.39
  -3   0 -17    5.25    2.49
  -3   0 -18  314.02   16.13
   3   0  18  340.80   19.34
   3   1 -18   27.49    5.16
   3   1 -18   48.85    5.33
   3   1 -17  163.41   12.20
   3   1 -17  155.03   11.44
   3   1 -16  479.53   28.88
   3   1 -16  566.66   29.64
   3   1 -16  538.07   27.99
   3   1 -16  532.04   28.36
   3   1 -15  421.04   27.62
   3   1 -15  471.02   27.78
   3   1 -15  480.45   26.89
   3   1 -15  491.36   26.49
   3   1 -14  142.90   14.55
  -3   1  14  134.58   39.46
   3   1 -14  164.34   13.18
   3   1 -14  150.62   13.25
   3   1 -14  166.72   14.51
  -3   1  13   35.70   21.93
  -3   1  13   30.39   17.62
   3   1 -13   28.49   10.97
   3   1 -13   28.73    6.89
   3   1 -13   30.09    5.50
   3   1 -13   37.01    6.53
   3   1 -13   40.91    6.37
   3   1 -13   30.92    6.60
   3   1 -12  469.20   27.70
  -3   1  12  542.83   74.86
   3   1 -12  501.51   47.21
  -3   1  12  497.91   65.10
   3   1 -12  467.21   30.35
   3   1 -12  481.36   26.14
   3   1 -12  493.88   27.10
   3   1 -12  542.50   28.29
   3   1 -12  517.90   28.08
   3   1 -12  500.06   29.58
   3   1 -11  501.25   55.77
   3   1 -11  420.03   24.88
  -3   1  11  420.53   42.70
  -3   1  11  448.63   68.29
  -3   1  11  507.51   62.08
   3   1 -11  371.23   39.40
   3   1 -11  395.35   26.85
   3   1 -11  401.96   22.98
   3   1 -11  440.55   24.58
   3   1 -11  419.79   23.86
   3   1 -11  453.89   24.97
   3   1 -11  458.00   25.43
   3   1 -11  446.49   26.47
   3   1 -10 1507.40  101.73
  -3   1  10 1386.20  107.92
   3   1 -10 1472.31   85.23
  -3   1  10 1502.29   95.34
  -3   1  10 1248.42   81.69
  -3   1  10 1617.47  126.12
   3   1 -10 1311.00   59.57
   3   1 -10 1345.47   61.01
   3   1 -10 1329.47   60.43
   3   1 -10 1354.76   61.08
   3   1 -10 1408.94   61.78
   3   1 -10 1362.52   61.90
   3   1 -10 1358.03   63.18
   3   1  -9   37.19   14.53
  -3   1   9   31.91   15.74
   3   1  -9   43.22   11.89
  -3   1   9   32.43   12.69
  -3   1   9   33.90   10.49
  -3   1   9   23.44   19.12
   3   1  -9   36.76    4.89
   3   1  -9   27.55    9.91
   3   1  -9   35.58    5.35
   3   1  -9   31.82    4.82
   3   1  -9   34.43    5.19
   3   1  -9   47.07    6.22
   3   1  -9   35.55    5.35
   3   1  -9   35.72    5.43
   3   1  -9   30.67    6.01
   3   1  -8  877.26   66.12
  -3   1   8  743.48   67.02
   3   1  -8  711.35   49.96
   3   1  -8  726.56   52.41
  -3   1   8  795.48   60.35
  -3   1   8  645.78   47.15
  -3   1   8  745.85   77.49
   3   1  -8  787.66   55.52
   3   1  -8  696.73   33.86
   3   1  -8  677.98   33.19
   3   1  -8  704.53   34.43
   3   1  -8  747.02   34.48
   3   1  -8  687.86   34.45
   3   1  -8  695.40   33.80
   3   1  -7  609.87   42.35
   3   1  -7  569.22   43.92
  -3   1   7  561.48   49.10
  -3   1   7  566.77   54.14
  -3   1   7  499.05   37.73
  -3   1   7  617.51   65.98
   3   1  -7  543.47   45.95
   3   1  -7  564.38   51.35
   3   1  -7  570.77   28.11
   3   1  -7  564.71   28.29
   3   1  -7  560.95   28.44
  -3   1   6  453.16   32.43
  -3   1   6  592.37   61.17
   3   1  -6  523.00   43.93
   3   1  -6  516.82   39.34
   3   1  -6  526.20   37.25
  -3   1   6  524.14   45.92
  -3   1   6  575.12   55.77
   3   1  -6  473.42   45.08
  -3   1   5 2065.37  100.28
   3   1  -5 2473.00  109.91
   3   1  -5 2256.95  112.74
  -3   1   5 2462.74  122.72
  -3   1   5 2436.54  138.84
   3   1  -5 2352.24  120.06
  -3   1   5 2366.83  132.86
   3   1  -5 2277.07  122.47
  -3   1   4 2062.54   94.94
   3   1  -4 2245.90  109.83
  -3   1   4 2472.78  120.30
   3   1  -4 2461.13  106.78
  -3   1   4 2404.95  132.44
   3   1  -4 2462.21  119.61
  -3   1   4 2325.46  100.49
  -3   1   4 2387.74  127.78
   3   1  -4 2032.18  116.80
  -3   1   3 1007.86   78.68
  -3   1   3 1051.17   75.14
   3   1  -3 1116.84   68.92
   3   1  -3 1168.26   58.81
   3   1  -3 1136.96   61.66
  -3   1   3 1063.05   55.51
  -3   1   3 1150.55   68.76
  -3   1   3 1021.66   71.45
   3   1  -3  973.61   66.15
  -3   1   2 2854.37  151.00
  -3   1   2 2847.45  130.54
  -3   1   2 3024.74  143.48
   3   1  -2 3103.34  135.84
   3   1  -2 2961.69  130.73
  -3   1   2 2936.27  148.18
  -3   1   2 2678.32  154.28
   3   1  -1  831.70   55.49
  -3   1   1  770.80   47.04
  -3   1   1  855.63   55.82
   3   1  -1  856.04   46.39
  -3   1   1  850.41   59.98
  -3   1   1  775.67   62.83
   3   1   0 1530.54   84.34
  -3   1   0 1528.61   78.04
  -3   1   0 1481.87   89.21
  -3   1   0 1466.76   92.92
  -3   1  -1 1234.44   72.01
  -3   1  -1 1238.74   67.35
  -3   1  -1 1186.57   80.66
   3   1   1 1358.94   74.41
  -3   1  -2    2.41    9.36
  -3   1  -2   -1.25    5.53
  -3   1  -2   10.82   11.26
   3   1   2   14.58    9.11
   3   1   3 1325.23   71.67
  -3   1  -3 1569.33   83.11
  -3   1  -3 1653.14   95.28
   3   1   3 1565.67   88.55
  -3   1  -3 1475.10   99.40
  -3   1  -3 1714.67   95.44
   3   1   4  538.18   39.90
  -3   1  -4  644.38   53.82
   3   1   4  632.14   43.40
   3   1   4  590.78   49.74
  -3   1  -4  670.17   61.03
  -3   1  -4  667.28   54.89
   3   1   5 1022.78   68.53
  -3   1  -5 1363.28   93.82
  -3   1  -5 1269.85   84.16
   3   1   5 1258.55   70.46
  -3   1  -5 1233.52   81.75
   3   1   5 1011.38   75.88
   3   1   6  808.06   65.80
   3   1   6  854.25   56.10
  -3   1  -6  852.98   62.74
  -3   1  -6  926.86   67.75
   3   1   6  878.89   56.29
   3   1   6  696.91   56.49
  -3   1  -6  836.07   57.34
  -3   1  -6  850.28   69.01
  -3   1  -6  790.85   38.30
  -3   1  -6  809.84   38.33
  -3   1  -6  778.90   38.02
   3   1   7  654.49   63.10
   3   1   7  767.41   55.43
  -3   1  -7  754.28   36.82
  -3   1  -7  849.48   63.89
   3   1   7  754.58   54.65
   3   1   7  702.99   60.11
  -3   1  -7  850.70   58.24
  -3   1  -7  705.69   65.86
  -3   1  -7  790.63   36.82
  -3   1  -7  747.87   36.96
  -3   1  -7  731.91   35.99
  -3   1  -7  753.84   36.83
  -3   1  -7  753.42   38.45
   3   1   8  722.25   70.04
   3   1   8  866.21   61.46
  -3   1  -8  830.56   39.99
  -3   1  -8  922.76   70.30
   3   1   8  884.62   61.87
   3   1   8  739.90   67.30
  -3   1  -8  905.39   61.91
  -3   1  -8  799.81   72.57
  -3   1  -8  824.39   40.02
  -3   1  -8  836.59   39.78
  -3   1  -8  797.21   38.86
  -3   1  -8  842.50   40.03
  -3   1  -8  787.88   39.03
  -3   1  -8  765.91   39.07
  -3   1  -8  776.81   41.20
  -3   1  -8  816.99   39.86
   3   1   9  769.57   77.02
  -3   1  -9  936.16   44.79
  -3   1  -9  977.77   76.18
   3   1   9 1041.84   70.50
   3   1   9  840.00   77.28
  -3   1  -9 1005.41   67.28
   3   1   9  961.25   77.91
  -3   1  -9  937.83   44.73
  -3   1  -9  905.42   44.13
  -3   1  -9  931.46   44.58
  -3   1  -9  919.61   43.89
  -3   1  -9  927.20   44.91
  -3   1  -9  869.92   43.93
  -3   1  -9  890.94   43.86
  -3   1  -9  870.54   43.27
  -3   1  -9  944.35   46.95
  -3   1 -10 1261.24   95.02
   3   1  10 1337.89   87.82
  -3   1 -10 1378.32   84.27
   3   1  10 1002.42   94.57
   3   1  10 1290.47   97.75
  -3   1 -10 1316.21   59.66
  -3   1 -10 1303.02   57.72
  -3   1 -10 1237.18   58.44
  -3   1 -10 1268.26   58.80
  -3   1 -10 1198.39   58.36
  -3   1 -10 1352.85   59.98
  -3   1 -10 1312.52   59.29
  -3   1 -10 1301.10   59.64
  -3   1 -10 1269.38   61.60
  -3   1 -11  214.56   35.32
   3   1  11  188.44   38.34
  -3   1 -11  176.75   27.20
  -3   1 -11  232.20   16.16
  -3   1 -11  271.67   18.14
  -3   1 -11  224.86   16.26
   3   1  11  205.15   32.35
  -3   1 -11  245.29   17.43
  -3   1 -11  248.65   17.08
  -3   1 -11  254.99   17.93
  -3   1 -11  227.09   16.96
  -3   1 -11  283.15   20.44
  -3   1 -11  272.14   18.23
  -3   1 -12  415.39   51.96
  -3   1 -12  551.43   28.57
  -3   1 -12  473.07   27.29
   3   1  12  518.40   53.08
  -3   1 -12  544.74   30.00
  -3   1 -12  476.05   27.89
  -3   1 -12  509.83   29.43
  -3   1 -12  538.73   29.93
  -3   1 -12  563.44   32.43
  -3   1 -12  535.07   29.81
  -3   1 -13    3.32    7.06
   3   1  13    5.94    8.15
  -3   1 -13   -0.47    2.50
  -3   1 -13    0.55    3.01
  -3   1 -13    2.24    3.43
  -3   1 -13    1.64    3.22
  -3   1 -13    1.12    2.75
  -3   1 -13    2.24    2.64
  -3   1 -14  556.41   30.65
  -3   1 -14  627.67   33.04
  -3   1 -14  614.53   32.88
  -3   1 -14  630.96   32.62
  -3   1 -15  199.62   14.36
  -3   1 -15  226.70   16.35
  -3   1 -15  234.37   16.30
  -3   1 -15  244.57   16.54
  -3   1 -15  259.50   16.30
  -3   1 -16  290.47   17.24
  -3   1 -16  224.82   14.70
  -3   1 -16  286.36   17.04
  -3   1 -16  246.93   16.73
  -3   1 -16  310.49   17.73
  -3   1 -17   80.98    7.40
   3   1  17   68.19    9.27
  -3   1 -18   35.80    4.03
   3   1  18   23.41    4.52
   3   2 -18   90.57    6.86
   3   2 -18   93.38    7.57
   3   2 -17   24.92    4.19
   3   2 -17   21.25    4.54
   3   2 -16  178.81   12.66
   3   2 -16  157.42   11.60
   3   2 -16  166.87   13.52
   3   2 -15   23.75    4.85
   3   2 -15   28.52    5.41
   3   2 -15   29.11    6.59
   3   2 -14  109.41   10.48
   3   2 -14  115.31   10.88
   3   2 -14  121.23   11.36
   3   2 -14  126.61   11.43
   3   2 -14  102.85   11.84
  -3   2  13  868.62  107.08
   3   2 -13  846.79   68.87
  -3   2  13  806.11   97.21
   3   2 -13  949.25   45.51
  -3   2  13  780.06  100.70
   3   2 -13 1019.53   47.59
   3   2 -13  943.40   46.30
   3   2 -13  920.14   44.47
   3   2 -13 1022.54   47.57
  -3   2  12  199.21   49.78
   3   2 -12  188.92   29.19
  -3   2  12  211.54   44.97
   3   2 -12  187.10   13.66
   3   2 -12  219.71   15.21
   3   2 -12  220.32   16.19
   3   2 -12  215.41   15.54
   3   2 -12  197.73   14.19
   3   2 -12  208.67   15.72
  -3   2  11  218.42   51.39
   3   2 -11  183.32   28.03
  -3   2  11  272.67   50.53
   3   2 -11  225.01   15.43
   3   2 -11  200.36   14.21
   3   2 -11  227.27   16.29
   3   2 -11  206.50   14.63
   3   2 -11  215.69   15.64
   3   2 -11  238.74   16.76
   3   2 -11  212.98   15.92
  -3   2  10  143.05   41.51
   3   2 -10  145.30   23.67
  -3   2  10  163.59   37.33
   3   2 -10  156.29   12.13
   3   2 -10  171.27   27.57
   3   2 -10  158.09   12.83
   3   2 -10  151.35   12.39
   3   2 -10  147.31   12.55
   3   2 -10  148.35   12.70
   3   2 -10  144.59   13.61
   3   2  -9  132.52   11.28
   3   2  -9  129.05   12.31
   3   2  -9  118.31   10.66
   3   2  -9  114.12   10.50
   3   2  -9  166.09   23.67
  -3   2   9  142.92   33.52
   3   2  -9   74.51   19.26
   3   2  -9  138.57   11.38
   3   2  -9  116.99   10.51
   3   2  -9  128.64   25.74
   3   2  -8 1170.31   72.81
   3   2  -8 1058.14   70.90
  -3   2   8 1121.99   78.60
  -3   2   8 1377.68  101.54
  -3   2   8 1097.57   97.46
   3   2  -8 1147.93   81.07
   3   2  -8 1122.61   51.79
   3   2  -8 1103.54   53.53
   3   2  -8 1122.94   51.91
   3   2  -8 1013.37   78.44
   3   2  -7 2176.54  117.79
  -3   2   7 1967.34  143.85
   3   2  -7 2018.23  104.76
   3   2  -7 1969.87  104.97
  -3   2   7 2103.58  115.45
  -3   2   7 2108.42  130.80
  -3   2   7 2105.49  136.30
   3   2  -7 2307.58  121.91
   3   2  -7 1883.77   82.81
   3   2  -7 1827.76   82.67
   3   2  -7 1903.00   83.11
   3   2  -6  141.10   23.69
  -3   2   6  166.67   35.97
   3   2  -6  134.76   19.30
   3   2  -6  146.95   20.35
  -3   2   6  146.33   24.02
  -3   2   6  160.95   29.75
  -3   2   6  134.32   28.46
   3   2  -6  153.54   25.77
   3   2  -6  138.25   10.68
   3   2  -6  137.39   10.66
   3   2  -6  135.99   10.61
  -3   2   5  292.50   37.27
   3   2  -5  293.90   28.15
   3   2  -5  282.60   28.31
  -3   2   5  315.23   34.69
  -3   2   5  311.74   47.35
  -3   2   5  251.88   37.68
   3   2  -5  325.04   37.22
   3   2  -5  326.75   34.62
   3   2  -5  272.24   16.72
  -3   2   4    6.95   11.27
  -3   2   4    7.91   10.23
   3   2  -4    4.54    8.80
   3   2  -4    9.33    5.67
   3   2  -4    8.51    6.28
  -3   2   4    4.12    8.00
  -3   2   4    4.70    8.64
   3   2  -4    7.25    6.30
  -3   2   3  602.49   59.21
  -3   2   3  533.44   50.24
   3   2  -3  588.93   42.28
  -3   2   3  531.95   46.71
  -3   2   3  514.96   35.08
   3   2  -3  583.04   40.54
  -3   2   3  546.64   48.86
   3   2  -3  562.25   44.40
  -3   2   2 3342.05  179.15
   3   2  -2 3588.82  170.01
  -3   2   2 3309.70  149.95
  -3   2   2 3662.72  169.02
   3   2  -2 3518.22  156.50
   3   2  -2 3394.18  154.03
  -3   2   2 3236.79  165.35
  -3   2   1  257.25   24.09
  -3   2   1  267.96   31.45
   3   2  -1  190.50   22.75
   3   2  -1  231.48   23.26
  -3   2   1  232.56   33.80
  -3   2   1  218.00   28.26
   3   2  -1  202.51   27.48
   3   2   0 2207.87  118.73
  -3   2   0 1974.21  124.09
  -3   2   0 2210.73  110.31
   3   2   0 2325.65  111.85
   3   2   1  178.67   25.17
  -3   2  -1  164.89   28.47
  -3   2  -1  184.41   27.93
   3   2   1  164.19   21.06
  -3   2  -1  182.30   22.22
  -3   2  -2  300.20   40.23
   3   2   2  311.30   32.53
  -3   2  -2  264.48   34.00
   3   2   2  347.23   31.56
  -3   2  -2  271.75   28.81
   3   2   3  634.42   48.12
  -3   2  -3  633.34   61.25
  -3   2  -3  658.07   63.73
  -3   2  -3  592.19   51.93
   3   2   3  653.78   46.15
   3   2   3  636.04   47.86
  -3   2  -3  568.94   46.83
  -3   2  -4 1585.89  110.26
  -3   2  -4 1635.87  113.30
   3   2   4 1536.99   91.41
  -3   2  -4 1576.34   92.04
   3   2   4 1625.98   88.97
  -3   2  -4 1538.99   95.44
  -3   2  -5   82.04    8.08
  -3   2  -5  102.40   19.33
   3   2   5  127.13   19.96
  -3   2  -5   83.67   18.18
   3   2   5  109.20   20.29
  -3   2  -5  106.24   19.61
  -3   2  -5   85.44    7.93
  -3   2  -5   86.18    8.38
  -3   2  -5   90.61   25.77
  -3   2  -5   90.09   24.45
  -3   2  -6 1497.17   66.57
  -3   2  -6 1612.29   94.59
  -3   2  -6 1723.53   96.42
   3   2   6 1642.11   91.00
  -3   2  -6 1444.83   65.39
  -3   2  -6 1566.06  114.70
  -3   2  -6 1487.24   66.10
  -3   2  -6 1505.41   67.03
  -3   2  -6 1485.71   65.36
  -3   2  -6 1491.00   67.85
  -3   2  -6 1539.50   66.94
  -3   2  -7  356.53   20.65
   3   2   7  375.57   37.30
   3   2   7  371.48   39.26
  -3   2  -7  369.43   40.27
  -3   2  -7  305.22   35.94
  -3   2  -7  325.81   20.48
  -3   2  -7  244.16   43.84
  -3   2  -7  338.57   19.58
  -3   2  -7  307.89   20.05
  -3   2  -7  310.30   19.48
  -3   2  -7  318.74   20.03
  -3   2  -7  326.24   19.27
  -3   2  -7  320.51   21.10
  -3   2  -8   88.59    9.49
  -3   2  -8   83.75   21.50
   3   2   8   84.55   18.64
   3   2   8  112.90   22.40
  -3   2  -8   94.56   28.38
  -3   2  -8   96.72    9.28
  -3   2  -8  111.39   21.84
  -3   2  -8   85.38    9.43
  -3   2  -8   88.40    9.18
  -3   2  -8   97.46    9.30
  -3   2  -8   77.92    9.12
  -3   2  -8   87.75   10.38
  -3   2  -9 1388.59   94.66
   3   2   9 1306.44   89.68
  -3   2  -9 1443.75   65.46
   3   2   9 1417.49   94.93
  -3   2  -9 1458.63   93.21
  -3   2  -9 1413.19   65.41
  -3   2  -9 1431.43   67.51
  -3   2  -9 1402.45   64.23
  -3   2  -9 1443.47   65.62
  -3   2  -9 1379.55   63.17
  -3   2  -9 1437.41   65.03
  -3   2  -9 1410.06   64.50
  -3   2  -9 1456.92  118.50
  -3   2 -10    8.76    9.49
  -3   2 -10   13.00    5.02
   3   2  10    2.88    9.36
  -3   2 -10    4.95   10.52
  -3   2 -10    7.59    7.61
  -3   2 -10    9.65    4.14
  -3   2 -10   13.08    4.50
  -3   2 -10    9.37    3.47
  -3   2 -10   12.03    4.63
  -3   2 -10   10.34    4.18
  -3   2 -10   15.28    5.54
  -3   2 -11   88.06   22.46
  -3   2 -11  150.38   25.62
  -3   2 -11  154.38   13.68
   3   2  11  118.81   25.44
  -3   2 -11  147.50   13.30
  -3   2 -11  143.32   12.38
  -3   2 -11  147.35   13.46
  -3   2 -11  149.75   13.27
  -3   2 -11  155.05   13.52
  -3   2 -11  151.74   13.12
  -3   2 -11  152.80   14.91
  -3   2 -12  134.40   27.86
   3   2  12  181.36   31.65
  -3   2 -12  207.08   29.92
  -3   2 -12  193.89   15.03
  -3   2 -12  232.32   16.18
  -3   2 -12  189.85   15.61
  -3   2 -12  198.34   15.55
  -3   2 -12  197.48   17.24
  -3   2 -12  213.56   16.33
  -3   2 -12  219.75   16.17
  -3   2 -12  174.04   14.32
  -3   2 -13  204.63   15.50
  -3   2 -13  191.90   16.91
  -3   2 -13  220.64   16.19
  -3   2 -13  231.17   16.33
  -3   2 -13  183.40   14.49
  -3   2 -13  173.00   14.11
  -3   2 -14  324.39   19.99
  -3   2 -14  329.54   20.09
  -3   2 -14  296.67   18.91
  -3   2 -14  277.81   19.02
  -3   2 -15  288.86   18.11
  -3   2 -15  291.41   17.98
  -3   2 -15  272.66   17.23
  -3   2 -15  314.89   18.19
  -3   2 -16   85.62    7.93
  -3   2 -16  104.57    8.44
  -3   2 -16   88.18    7.68
  -3   2 -16   78.65    7.16
  -3   2 -17  425.15   19.61
  -3   2 -17  454.00   19.85
   3   3 -17  145.21   10.16
   3   3 -17  137.42    9.21
   3   3 -16   77.15    8.07
   3   3 -15   25.14    5.59
   3   3 -15   29.87    4.87
   3   3 -14  328.67   19.79
   3   3 -14  341.07   20.97
   3   3 -14  377.40   23.01
   3   3 -14  351.52   20.72
   3   3 -14  318.27   19.12
   3   3 -13    4.21    3.24
   3   3 -13   -0.43    2.30
   3   3 -13   -0.64    3.78
   3   3 -13    1.06    2.76
   3   3 -13    1.52    2.84
   3   3 -12  912.88   45.19
   3   3 -12  928.02   46.23
   3   3 -12  976.08   47.21
   3   3 -12  994.46   46.19
   3   3 -12  923.97   47.21
   3   3 -12 1010.66   47.93
   3   3 -12  996.31   49.75
  -3   3  11  283.36   62.15
   3   3 -11  346.77   20.93
   3   3 -11  280.94   39.57
   3   3 -11  345.89   21.51
  -3   3  11  354.06   59.31
   3   3 -11  352.79   22.13
   3   3 -11  346.30   21.28
   3   3 -11  346.07   22.38
   3   3 -11  346.87   22.29
   3   3 -11  351.50   23.99
  -3   3  10  180.53   48.97
   3   3 -10  167.12   30.75
  -3   3  10  149.06   39.46
   3   3 -10  184.42   14.48
   3   3 -10  180.83   14.56
   3   3 -10  139.72   14.46
   3   3 -10  159.54   13.27
   3   3 -10  194.50   15.02
   3   3  -9  212.98   35.60
  -3   3   9  193.97   42.28
  -3   3   9  191.40   48.69
   3   3  -9  194.12   15.04
   3   3  -9  177.24   15.68
   3   3  -9  180.06   13.90
   3   3  -9  176.79   14.43
   3   3  -8  215.20   35.82
  -3   3   8  304.67   50.46
   3   3  -8  170.43   25.02
  -3   3   8  190.81   48.24
   3   3  -8  223.74   16.40
   3   3  -8  217.08   17.37
   3   3  -8  241.94   16.20
  -3   3   7 1104.75  110.48
   3   3  -7 1147.92   88.31
   3   3  -7  972.81   68.33
  -3   3   7 1011.78   77.06
   3   3  -7 1023.54   48.64
   3   3  -7 1059.83   51.70
   3   3  -7 1108.85   49.78
   3   3  -7 1007.92   48.91
  -3   3   6 1704.38  138.05
   3   3  -6 1815.01  117.74
   3   3  -6 1586.27   93.95
  -3   3   6 1709.12  107.59
   3   3  -6 1666.43   73.64
   3   3  -6 1704.61   74.46
   3   3  -6 1690.27   74.08
  -3   3   5  164.11   38.61
   3   3  -5  258.59   37.66
   3   3  -5  187.63   13.30
   3   3  -5  185.80   13.36
   3   3  -5  180.90   23.64
  -3   3   5  178.46   29.83
  -3   3   4  100.40   28.62
   3   3  -4   97.48   17.35
  -3   3   4  105.11   22.78
   3   3  -4  108.51    9.36
   3   3  -4  100.31    9.12
   3   3  -3 1467.12  101.07
  -3   3   3 1387.13  109.28
   3   3  -3 1385.15   83.07
  -3   3   3 1597.54  100.40
   3   3  -2  316.46   40.89
  -3   3   2  374.69   49.89
  -3   3   2  362.56   32.13
  -3   3   2  455.49   46.33
   3   3  -2  312.58   31.70
   3   3  -1 2345.77  136.81
  -3   3   1 2384.29  143.41
  -3   3   1 2207.56  140.20
   3   3  -1 2402.88  121.12
  -3   3   1 2291.99  119.08
   3   3   0 1634.85  105.45
  -3   3   0 1616.12  112.75
  -3   3   0 1456.94  105.35
  -3   3   0 1751.15   96.11
   3   3   0 1818.54   96.11
   3   3   1  293.88   36.17
  -3   3  -1  212.74   36.91
  -3   3  -1  282.00   31.41
   3   3   1  272.16   30.29
  -3   3  -1  178.69   30.88
  -3   3  -2   79.52   18.03
   3   3   2   74.59   16.59
  -3   3  -2   81.07   18.81
   3   3   2   66.70   17.04
  -3   3  -2   89.28   26.99
  -3   3  -2   69.83   22.03
  -3   3  -3  375.39   20.96
  -3   3  -3  398.56   41.20
   3   3   3  405.36   39.93
   3   3   3  375.25   40.39
  -3   3  -3  395.31   51.62
  -3   3  -3  481.85   62.21
   3   3   4  819.67   62.78
  -3   3  -4  801.04   63.39
  -3   3  -4  783.19   38.62
   3   3   4  875.07   62.52
  -3   3  -4  909.11   81.90
  -3   3  -4 1015.09   94.16
   3   3   5 1458.30   97.30
  -3   3  -5 1744.04  103.85
  -3   3  -5 1516.98   68.22
  -3   3  -5 1790.33  132.74
  -3   3  -5 1517.02   69.11
   3   3   5 1808.07   99.82
  -3   3  -5 1611.42   70.10
  -3   3  -6   93.94    9.72
   3   3   6  139.20   24.11
   3   3   6  102.55   22.53
  -3   3  -6   99.52    9.28
  -3   3  -6  131.02   35.99
  -3   3  -6   90.33   21.46
  -3   3  -6   99.57    9.74
  -3   3  -6   98.50    9.17
  -3   3  -6   91.00    9.97
  -3   3  -7   40.77    6.69
   3   3   7   34.28   12.45
   3   3   7   35.03   13.93
  -3   3  -7   33.57    5.59
  -3   3  -7   43.78   22.30
  -3   3  -7   27.87    5.58
  -3   3  -7   27.46    5.12
  -3   3  -7   35.68    6.52
  -3   3  -7   38.72    6.79
  -3   3  -8   52.13    7.53
   3   3   8   28.26   12.34
   3   3   8   21.99   12.31
  -3   3  -8   22.73   18.53
  -3   3  -8   49.97    6.99
  -3   3  -8   37.14   14.13
  -3   3  -8   49.86    7.38
  -3   3  -8   44.52    7.26
  -3   3  -8   53.10    7.07
  -3   3  -8   40.87    7.35
  -3   3  -8   50.73    7.86
  -3   3  -9   60.19    8.26
   3   3   9   47.97   15.48
   3   3   9   13.32   10.22
  -3   3  -9   52.25   26.73
  -3   3  -9   61.65    8.03
  -3   3  -9   81.02   20.50
  -3   3  -9   57.86    8.12
  -3   3  -9   46.60    7.89
  -3   3  -9   63.23    8.59
  -3   3  -9   52.67    7.44
  -3   3  -9   63.23    9.24
  -3   3 -10 1497.22   66.88
   3   3  10 1301.25   93.78
  -3   3 -10 1284.12   94.55
   3   3  10 1079.63   95.54
  -3   3 -10 1490.68   67.14
  -3   3 -10 1399.62   65.24
  -3   3 -10 1357.12  125.94
  -3   3 -10 1414.43   65.82
  -3   3 -10 1434.77   65.21
  -3   3 -10 1340.77   67.24
  -3   3 -10 1476.27   66.84
  -3   3 -11  152.10   13.82
  -3   3 -11  152.40   13.56
  -3   3 -11  154.99   13.10
  -3   3 -11  147.98   14.59
  -3   3 -11  156.82   13.83
  -3   3 -12  200.11   16.06
  -3   3 -12  232.06   16.68
  -3   3 -12  220.61   16.72
  -3   3 -12  233.09   16.75
  -3   3 -12  214.28   15.82
  -3   3 -12  206.61   16.15
  -3   3 -13   44.76    6.62
  -3   3 -13   42.03    6.82
  -3   3 -13   43.34    6.51
  -3   3 -13   43.94    6.86
  -3   3 -13   43.68    6.62
  -3   3 -14   64.76    7.33
  -3   3 -14   67.88    7.66
  -3   3 -14   67.87    7.69
  -3   3 -15  265.68   15.59
  -3   3 -15  263.93   15.72
  -3   3 -15  247.76   15.27
  -3   3 -16  214.45   12.46
  -3   3 -16  230.27   12.55
  -3   3 -16  207.51   12.09
   3   4 -16   17.02    2.74
   3   4 -15  183.17   12.51
   3   4 -15  203.92   12.25
   3   4 -14  162.49   11.09
   3   4 -14  147.30   11.86
   3   4 -14  172.22   11.84
   3   4 -14  147.99   11.12
   3   4 -13  268.02   16.66
   3   4 -13  237.52   15.70
   3   4 -13  276.81   18.13
   3   4 -13  279.25   17.32
   3   4 -13  265.23   16.97
   3   4 -12  120.38   10.62
   3   4 -12  103.48    9.59
   3   4 -12  104.85   10.46
   3   4 -12   91.58   10.77
   3   4 -12  126.70   10.96
   3   4 -12  111.05   10.02
   3   4 -12  123.66   11.04
   3   4 -11  354.12   22.07
   3   4 -11  367.89   22.58
   3   4 -11  368.61   22.00
   3   4 -11  384.43   22.90
   3   4 -11  374.09   22.88
   3   4 -11  338.88   21.93
   3   4 -11  349.05   23.38
   3   4 -10  135.50   12.38
   3   4 -10  139.03   12.46
   3   4 -10  124.66   11.80
   3   4 -10  132.39   12.42
   3   4 -10  122.11   12.79
   3   4 -10  135.40   12.18
  -3   4   9  458.33   77.64
   3   4  -9  434.75   55.76
   3   4  -9  361.49   43.62
  -3   4   9  345.38   61.46
   3   4  -9  555.65   29.55
   3   4  -9  511.15   29.04
   3   4  -9  499.97   28.60
   3   4  -9  478.19   26.80
   3   4  -9  522.40   30.21
   3   4  -8  239.41   40.97
   3   4  -8  229.20   32.58
  -3   4   8  230.32   49.92
  -3   4   8  301.23   60.34
   3   4  -8  259.14   18.21
   3   4  -8  247.86   16.86
   3   4  -8  269.54   18.68
   3   4  -8  244.49   18.80
   3   4  -7  134.57   31.56
   3   4  -7  129.22   23.64
  -3   4   7  138.94   40.82
   3   4  -7  110.17   10.49
   3   4  -7  114.58   11.98
   3   4  -6  225.23   40.82
   3   4  -6  202.58   29.58
   3   4  -6  218.07   15.76
   3   4  -6  240.55   17.77
   3   4  -6  227.95   15.54
  -3   4   6  190.72   46.73
   3   4  -5  226.67   32.22
  -3   4   5  222.52   37.29
  -3   4   5  236.75   49.55
   3   4  -5  292.53   19.73
   3   4  -5  277.87   18.29
   3   4  -5  271.99   17.44
  -3   4   4  379.41   60.53
   3   4  -4  522.67   61.17
   3   4  -4  503.21   47.31
  -3   4   4  532.63   58.13
   3   4  -4  477.55   25.96
   3   4  -4  464.72   27.32
   3   4  -4  467.74   25.81
  -3   4   3  454.89   62.46
   3   4  -3  637.75   66.48
   3   4  -3  592.99   51.10
   3   4  -3  521.02   44.38
  -3   4   3  523.22   59.00
   3   4  -3  546.67   28.71
   3   4  -3  521.47   28.32
   3   4  -2  911.54   80.91
   3   4  -2  792.18   58.91
  -3   4   2  968.29   81.34
   3   4  -2  919.54   66.95
  -3   4   2  676.26   75.38
  -3   4   1   15.02    8.76
   3   4  -1   32.61   15.42
   3   4  -1   23.31   11.46
   3   4  -1   15.66    8.00
  -3   4   1   32.94   16.20
  -3   4   0  224.36   51.20
   3   4   0  245.71   38.74
  -3   4   0  207.60   29.96
   3   4   0  267.31   33.23
   3   4   0  200.70   28.00
  -3   4  -1  206.03   47.40
   3   4   1  265.77   39.58
  -3   4  -1  224.18   32.25
   3   4   1  252.18   31.53
   3   4   1  270.76   34.14
   3   4   2 1588.60  105.53
  -3   4  -2 1561.81  136.27
  -3   4  -2 1471.00   99.01
   3   4   2 1427.49   92.70
   3   4   2 1590.17   98.41
   3   4   3   64.40   17.81
   3   4   3   56.01   16.05
   3   4   3   71.18   19.33
  -3   4  -4  363.61   44.92
  -3   4  -4  332.17   20.16
   3   4   4  353.55   41.75
   3   4   5   38.70   14.04
  -3   4  -5   25.52   20.75
  -3   4  -5   41.20    6.07
  -3   4  -5   18.67   11.52
  -3   4  -5   30.37    5.85
   3   4   5   32.76   13.04
  -3   4  -6  277.73   57.10
  -3   4  -6  283.44   18.39
   3   4   6  239.85   35.97
  -3   4  -6  305.80   41.91
  -3   4  -6  274.03   18.96
  -3   4  -6  293.28   19.89
   3   4   6  335.26   41.01
  -3   4  -7  619.50   33.68
   3   4   7  542.18   55.39
  -3   4  -7  623.90   32.26
  -3   4  -7  527.24   79.33
   3   4   7  448.69   53.17
  -3   4  -7  552.52   58.95
  -3   4  -7  635.90   33.25
  -3   4  -7  587.39   31.38
  -3   4  -7  626.20   34.08
   3   4   8  473.28   51.44
   3   4   8  456.30   55.76
  -3   4  -8  539.94   30.33
  -3   4  -8  515.65   28.78
  -3   4  -8  535.10   79.71
   3   4   8  408.77   50.26
  -3   4  -8  528.65   30.68
  -3   4  -8  565.93   30.16
  -3   4  -8  501.50   28.14
  -3   4  -8  530.62   30.57
  -3   4  -9  250.41   18.40
  -3   4  -9  251.80   18.89
  -3   4  -9  261.32   18.16
  -3   4  -9  253.37   18.58
  -3   4  -9  250.69   17.11
  -3   4  -9  256.02   17.57
  -3   4 -10   73.85    9.12
  -3   4 -10   65.15    8.14
  -3   4 -10   85.61   10.01
  -3   4 -10   75.11    9.05
  -3   4 -10   59.26    7.75
  -3   4 -10   77.79    9.48
  -3   4 -11   98.47   10.10
  -3   4 -11   97.38    9.95
  -3   4 -11   90.43    9.12
  -3   4 -11   88.80    9.91
  -3   4 -11   84.56    9.78
  -3   4 -12  305.23   18.92
  -3   4 -12  315.48   18.77
  -3   4 -12  291.02   18.63
  -3   4 -12  266.52   17.17
  -3   4 -12  300.12   18.73
  -3   4 -12  262.34   18.03
  -3   4 -13  338.83   19.16
  -3   4 -13  327.70   19.23
  -3   4 -13  320.02   18.12
  -3   4 -13  320.51   18.88
  -3   4 -14   80.23    7.04
  -3   4 -14   66.29    6.15
  -3   4 -14   72.80    6.88
  -3   4 -15   96.84    6.91
   3   5 -13    5.22    2.06
   3   5 -13    4.03    1.91
   3   5 -13    8.69    2.45
   3   5 -12    3.18    2.27
   3   5 -12    3.75    2.33
   3   5 -12    1.22    1.91
   3   5 -12   -0.64    2.20
   3   5 -11  126.26   10.32
   3   5 -11  138.56   10.54
   3   5 -11  102.47    9.37
   3   5 -11  142.88   10.97
   3   5 -11  144.21   10.91
   3   5 -11  143.98   10.90
   3   5 -11  144.33   10.51
   3   5 -10  811.97   39.69
   3   5 -10  809.93   40.10
   3   5 -10  813.39   40.01
   3   5 -10  811.03   39.22
   3   5 -10  857.71   40.32
   3   5  -9   21.24    5.07
   3   5  -9   24.59    5.58
   3   5  -9   26.50    5.47
   3   5  -9   24.11    4.90
   3   5  -8  377.00   22.39
   3   5  -8  361.77   22.49
   3   5  -8  341.18   21.54
   3   5  -8  376.03   22.82
   3   5  -7   52.83    7.29
   3   5  -7   58.10    8.00
   3   5  -6   39.51    6.61
   3   5  -5  946.79   45.04
   3   5  -4  217.40   40.26
   3   5  -4  203.05   30.89
   3   5  -4  189.15   14.23
   3   5  -3   23.66   11.20
  -3   5   3   28.89   23.46
   3   5  -3   17.20   13.98
   3   5  -2  263.94   36.45
  -3   5   2  311.89   47.21
  -3   5   2  310.71   63.09
   3   5  -2  314.96   48.30
   3   5  -1   48.71   17.70
  -3   5   1   58.89   21.38
  -3   5   1   50.49   26.63
   3   5  -1   64.79   21.76
  -3   5   0  437.31   57.82
   3   5   0  406.59   46.47
  -3   5   0  316.26   64.24
   3   5   0  404.38   52.98
   3   5   1  996.48   76.96
  -3   5  -1  916.37  110.28
  -3   5  -2   24.16   11.86
  -3   5  -2   49.83   27.67
   3   5   2   79.15   20.59
   3   5   2   88.23   21.72
  -3   5  -3  501.19   78.47
   3   5   3  573.50   55.36
  -3   5  -3  380.72   47.72
   3   5   3  417.19   47.84
  -3   5  -4   27.72    5.60
  -3   5  -4   23.70    4.94
  -3   5  -5   11.95    4.34
  -3   5  -5    8.16    3.74
  -3   5  -6  330.67   21.07
  -3   5  -6  301.00   19.63
  -3   5  -6  326.47   21.25
  -3   5  -7  195.92   14.76
  -3   5  -7  166.26   12.73
  -3   5  -7  171.01   14.54
  -3   5  -7  167.27   13.44
  -3   5  -7  194.72   15.10
  -3   5  -8  211.79   15.54
  -3   5  -8  224.72   16.82
  -3   5  -8  194.91   14.01
  -3   5  -8  227.17   16.64
  -3   5  -8  220.38   15.34
  -3   5  -8  210.14   15.81
  -3   5  -9  249.59   16.61
  -3   5  -9  242.44   16.86
  -3   5  -9  232.25   16.60
  -3   5  -9  225.07   15.54
  -3   5  -9  266.61   17.21
  -3   5  -9  215.12   14.63
  -3   5 -10    9.23    3.44
  -3   5 -10   12.09    3.88
  -3   5 -10   15.70    3.98
  -3   5 -10   10.74    3.79
  -3   5 -11   39.46    5.52
  -3   5 -11   34.58    5.30
  -3   5 -11   45.10    5.51
  -3   5 -11   39.84    5.60
  -3   5 -12  149.40   10.41
  -3   5 -12  156.51   10.67
  -3   5 -12  153.11   10.45
  -3   5 -13    1.49    1.52
  -3   5 -13    0.42    1.42
   3   6 -10   41.99    4.61
   3   6 -10   52.37    5.08
   3   6 -10   46.59    4.72
   3   6 -10   36.68    4.25
   3   6  -9  170.11   10.88
   3   6  -9  201.07   12.29
   3   6  -9  188.86   12.03
   3   6  -9  197.98   11.87
   3   6  -9  200.36   12.26
   3   6  -9  198.67   12.06
   3   6  -8   77.71    7.00
   3   6  -8   96.16    8.26
   3   6  -8   80.56    7.71
   3   6  -8   84.61    7.65
   3   6  -8   96.56    8.35
   3   6  -7  179.62   12.13
   3   6  -7  151.23   11.68
   3   6  -7  154.06   11.05
   3   6  -7  181.84   12.54
   3   6  -6   79.25    8.07
   3   6  -6   84.40    8.42
   3   6  -6   75.18    7.48
   3   6  -5   29.98    5.32
   3   6  -5   26.67    4.27
   3   6  -5   33.60    5.08
   3   6  -4  259.81   15.83
   3   6  -3  176.65   12.50
  -3   6  -3   45.80    6.50
  -3   6  -4   44.50    5.96
  -3   6  -4   51.28    6.74
  -3   6  -5  118.10    9.76
  -3   6  -5  145.87   11.37
  -3   6  -5  135.68   10.62
  -3   6  -6   87.77    8.14
  -3   6  -6  113.52    9.72
  -3   6  -6  100.61    8.94
  -3   6  -6  117.82   10.09
  -3   6  -7  234.54   14.49
  -3   6  -7  259.14   15.75
  -3   6  -7  255.78   15.75
  -3   6  -7  238.25   14.94
  -3   6  -7  273.28   16.30
  -3   6  -8  192.73   12.39
  -3   6  -8  241.66   14.26
  -3   6  -8  213.83   13.09
  -3   6  -8  235.04   13.81
  -3   6  -8  208.33   13.49
  -3   6  -9   74.86    6.70
  -3   6  -9   69.86    6.34
  -3   6  -9   71.82    6.53
  -3   6  -9   64.53    5.93
   3   7  -3   32.31    3.79
  -4  -6   9   75.48    6.16
  -4  -6   9   58.49    7.84
   4  -6  -9   65.57    8.11
  -4  -6   8  130.96   13.06
  -4  -6   8  149.77   10.19
  -4  -6   7   63.12    9.69
  -4  -6   7   86.19    7.69
  -4  -6   6   19.81    4.29
  -4  -6   6   17.57    6.14
  -4  -6   6   20.05    6.32
   4  -6  -6   24.39    7.04
  -4  -6   5  115.59   10.07
   4  -6  -5  150.56   15.69
  -4  -6   4   28.46    5.05
  -4  -6   4   24.62    7.28
   4  -6  -4   42.09    9.26
  -4  -6   3  277.19   17.21
  -4  -6   3  288.09   22.16
   4  -6  -3  235.98   22.10
  -4  -6   2  181.66   17.09
  -4  -6   2  178.56   13.06
  -4  -6   1  144.16   14.73
  -4  -6   1  124.85   10.74
  -4  -6   0    8.72    4.80
  -4  -6   0   10.36    3.93
  -4  -6  -1   59.70    8.68
  -4  -6  -1   59.62    6.98
  -4  -6  -2  192.65   14.71
   4  -6   2  191.85   17.00
  -4  -6  -2  165.72   12.09
   4  -6   3  280.92   20.64
  -4  -6  -3  239.32   14.80
   4  -6   4  208.23   17.48
   4  -6   5   66.61    9.39
   4  -6   6    9.32    4.30
   4  -6   7   71.11    8.64
   4  -6   8  108.27    9.93
   4  -5 -13   21.77    4.00
   4  -5 -13   19.96    4.35
  -4  -5  12    5.33    4.24
   4  -5 -12    7.12    3.80
  -4  -5  11   -0.77    4.64
   4  -5 -11    3.92    4.46
  -4  -5  10  413.53   29.81
   4  -5 -10  436.85   28.73
   4  -5  -9  249.88   21.94
  -4  -5   9  276.21   21.62
  -4  -5   9  263.04   24.20
   4  -5  -9  290.65   24.07
   4  -5  -8   93.45   13.89
  -4  -5   8  103.88   14.01
   4  -5  -8   98.61   14.70
   4  -5  -7  127.98   16.55
  -4  -5   7  120.49   15.85
   4  -5  -7  134.44   17.19
   4  -5  -6  138.29   17.53
  -4  -5   6  128.01   16.85
   4  -5  -6  148.46   18.55
   4  -5  -5   40.37   10.55
   4  -5  -5   40.61    9.44
  -4  -5   5   54.07   12.76
   4  -5  -5   44.73   11.54
  -4  -5   5   55.96   12.33
  -4  -5   5   51.77    9.29
   4  -5  -4  739.16   46.82
   4  -5  -4  743.28   45.88
   4  -5  -4  619.28   42.70
  -4  -5   4  729.95   48.10
  -4  -5   4  681.58   39.77
   4  -5  -3  168.62   19.77
  -4  -5   3  164.70   21.63
   4  -5  -3  168.40   19.68
  -4  -5   3  162.32   16.43
   4  -5  -3  188.51   20.93
  -4  -5   3  137.08   18.13
   4  -5  -3  197.33   20.09
   4  -5  -2  254.01   24.61
   4  -5  -2  224.80   23.82
  -4  -5   2  240.39   25.87
  -4  -5   2  274.95   18.69
  -4  -5   2  231.98   20.38
  -4  -5   2  281.62   25.13
   4  -5  -2  276.63   24.21
   4  -5  -2  229.15   24.12
  -4  -5   1   36.74   11.85
   4  -5  -1   43.39   11.70
  -4  -5   1   45.39    7.27
  -4  -5   1   36.07   10.57
   4  -5  -1   29.18    9.01
   4  -5  -1   35.63   10.65
   4  -5  -1   35.22    6.12
   4  -5   0    2.63    7.21
  -4  -5   0    0.54    2.88
   4  -5   0    2.44    6.18
   4  -5   0    1.99    3.05
  -4  -5   0    3.37    3.70
  -4  -5   0    1.62    5.06
  -4  -5   0    1.05    6.42
   4  -5   0    7.67    6.59
   4  -5   1  337.88   30.89
  -4  -5  -1  324.58   21.15
  -4  -5  -1  335.36   24.73
   4  -5   1  342.04   29.56
  -4  -5  -1  342.42   23.58
  -4  -5  -1  352.81   22.15
  -4  -5  -1  330.41   26.76
   4  -5   1  366.47   29.03
  -4  -5  -2  145.22   12.75
  -4  -5  -2  157.04   15.85
  -4  -5  -2  157.18   14.64
  -4  -5  -2  187.63   14.74
  -4  -5  -2  176.25   17.89
   4  -5   2  176.27   19.84
   4  -5   3   58.18   13.90
  -4  -5  -3   69.37    8.18
  -4  -5  -3   70.38   10.30
  -4  -5  -3   69.44    9.60
   4  -5   3   54.70    7.20
  -4  -5  -3   77.10    9.28
   4  -5   3   61.01   12.58
  -4  -5  -4  202.32   14.86
   4  -5   4  213.95   23.94
  -4  -5  -4  213.71   17.79
   4  -5   4  196.82   14.68
  -4  -5  -4  226.72   16.84
   4  -5   4  255.15   25.29
   4  -5   4  244.74   23.31
  -4  -5  -4  226.18   17.58
  -4  -5  -5    9.55    4.37
   4  -5   5    7.87    3.41
   4  -5   5    1.23    7.25
  -4  -5  -5    8.02    4.79
   4  -5   5    7.77    6.67
  -4  -5  -6   56.55    7.72
   4  -5   6   49.43   11.91
   4  -5   6   50.59   11.24
  -4  -5  -7  434.26   26.26
   4  -5   7  546.18   36.11
  -4  -5  -8   -0.95    2.91
   4  -5   8   14.73    6.92
  -4  -5  -9  308.15   18.96
   4  -5   9  327.33   24.54
   4  -5  10   78.54   10.48
   4  -5  10   88.90   11.39
   4  -5  11   23.94    5.92
   4  -4 -15   10.08    3.78
  -4  -4  14  151.67   13.78
   4  -4 -14  196.28   14.37
  -4  -4  13  160.29   16.09
   4  -4 -12  183.04   18.48
   4  -4 -12  166.45   15.30
   4  -4 -11  223.34   21.92
  -4  -4  11  204.30   18.09
   4  -4 -11  206.50   15.78
   4  -4 -11  220.77   18.80
   4  -4 -11  213.27   19.04
   4  -4 -10  124.36   16.96
   4  -4 -10   92.43   11.11
  -4  -4  10  145.00   15.91
   4  -4 -10  118.31   11.91
   4  -4 -10  133.65   15.14
   4  -4 -10  148.15   15.99
   4  -4  -9  287.12   26.21
  -4  -4   9  273.52   23.60
   4  -4  -9  215.75   18.85
   4  -4  -9  271.35   19.03
   4  -4  -9  288.67   23.22
   4  -4  -9  305.20   23.89
   4  -4  -8  419.24   33.84
  -4  -4   8  445.34   32.17
   4  -4  -8  447.99   26.35
   4  -4  -8  489.37   32.03
   4  -4  -8  516.06   32.65
  -4  -4   7  263.90   36.66
  -4  -4   7  250.09   25.58
   4  -4  -7  288.55   24.40
   4  -4  -7  324.58   24.88
   4  -4  -7  310.03   28.14
  -4  -4   7  295.28   21.83
   4  -4  -7  241.85   20.90
  -4  -4   7  261.78   52.14
   4  -4  -7  278.12   19.40
   4  -4  -7  317.87   24.92
   4  -4  -6  218.29   21.45
  -4  -4   6  243.05   24.51
   4  -4  -6  222.49   19.84
  -4  -4   6  212.18   17.91
   4  -4  -6  167.65   16.87
  -4  -4   6  151.54   39.08
   4  -4  -6  178.44   14.82
   4  -4  -6  211.60   19.99
  -4  -4   6  135.29   26.40
  -4  -4   5  273.58   20.88
   4  -4  -5  271.89   24.67
  -4  -4   5  301.92   28.23
   4  -4  -5  242.76   21.19
  -4  -4   5  246.87   34.42
  -4  -4   5  239.05   47.57
   4  -4  -5  242.02   21.96
   4  -4  -5  222.88   19.94
  -4  -4   4   84.55   19.41
   4  -4  -4  111.10   15.83
  -4  -4   4  100.51   16.67
  -4  -4   4   91.25   12.14
  -4  -4   4   86.18   24.79
  -4  -4   4  108.98   31.21
   4  -4  -4  111.30   15.63
   4  -4  -4   86.73   12.08
  -4  -4   3 1923.61   99.85
   4  -4  -3 2289.83   99.82
  -4  -4   3 2020.34   90.23
  -4  -4   3 1737.84  131.39
  -4  -4   3 1746.67  110.42
   4  -4  -3 2227.06   97.76
   4  -4  -3 1651.41   88.79
  -4  -4   3 1565.12  130.17
  -4  -4   2  411.10   44.22
  -4  -4   2  384.30   57.19
   4  -4  -2  548.88   37.89
   4  -4  -2  482.77   32.60
   4  -4  -2  606.95   38.27
  -4  -4   2  496.37   39.15
   4  -4  -2  568.12   39.11
  -4  -4   1  587.66   53.73
  -4  -4   1  712.24   77.65
   4  -4  -1  779.81   48.28
  -4  -4   1  671.44   47.95
   4  -4  -1  754.47   46.46
   4  -4  -1  720.76   45.14
   4  -4   0   38.09   10.56
  -4  -4   0   45.15   13.27
   4  -4   0   25.30    8.94
   4  -4   0   48.05   10.90
  -4  -4  -1  419.46   42.36
  -4  -4  -1  539.22   67.66
   4  -4   1  504.05   36.33
   4  -4   1  448.05   26.09
   4  -4   1  546.96   38.60
  -4  -4  -1  566.62   28.54
  -4  -4  -2  297.37   34.58
  -4  -4  -2  403.25   57.47
  -4  -4  -2  400.66   25.02
   4  -4   2  337.57   20.69
   4  -4   2  333.16   28.69
   4  -4   2  393.21   32.08
  -4  -4  -2  334.06   21.09
   4  -4   2  376.64   31.59
   4  -4   3  469.17   26.41
  -4  -4  -3  476.44   29.79
   4  -4   3  515.18   37.94
   4  -4   3  484.31   57.39
   4  -4   3  511.70   38.14
  -4  -4  -4  328.53   23.76
   4  -4   4  348.75   21.38
  -4  -4  -4  409.04   25.00
   4  -4   4  393.25   32.56
   4  -4   4  319.79   47.74
   4  -4   4  372.34   31.82
  -4  -4  -5  132.13   33.46
  -4  -4  -5  190.40   16.45
  -4  -4  -5  189.46   16.15
   4  -4   5  181.82   13.83
   4  -4   5  190.48   22.30
   4  -4   5  105.63   28.75
   4  -4   5  160.84   20.60
  -4  -4  -6  281.80   48.99
  -4  -4  -6  411.73   25.41
   4  -4   6  348.47   21.53
   4  -4   6  316.96   29.64
  -4  -4  -6  369.16   24.84
   4  -4   6  232.52   43.92
   4  -4   6  314.85   29.49
  -4  -4  -7  222.15   17.78
   4  -4   7  178.88   14.35
   4  -4   7  198.84   22.67
  -4  -4  -8  548.59   32.11
  -4  -4  -8  540.74   32.40
   4  -4   8  570.75   30.29
   4  -4   8  551.63   39.84
  -4  -4  -9  159.42   14.77
  -4  -4  -9  163.94   15.22
   4  -4   9  190.61   13.99
   4  -4   9  170.17   19.76
  -4  -4  -9  190.92   17.24
  -4  -4 -10  203.68   15.97
  -4  -4 -10  175.06   15.44
   4  -4  10  215.85   14.57
   4  -4  10  200.70   20.10
  -4  -4 -10  175.59   16.61
  -4  -4 -11   27.12    6.03
  -4  -4 -11   34.98    6.60
   4  -4  11   26.43    7.37
  -4  -4 -11   27.93    6.72
  -4  -4 -12  109.09   10.16
  -4  -4 -12  111.86   11.60
  -4  -4 -13   95.25    8.67
   4  -4  13  110.40   11.83
  -4  -4 -13  100.31    9.78
  -4  -4 -14  100.46    8.34
   4  -3 -16   77.17    8.18
   4  -3 -15   39.23    8.40
   4  -3 -15   33.36    6.59
   4  -3 -15   40.27    7.21
   4  -3 -14  145.63   16.68
   4  -3 -14  172.90   15.64
   4  -3 -14  133.25   14.13
   4  -3 -14  149.35   16.28
   4  -3 -13  233.04   22.26
   4  -3 -13  234.30   17.87
   4  -3 -13  243.74   20.62
   4  -3 -13  248.88   20.81
   4  -3 -13  219.91   21.53
   4  -3 -12  108.02   15.46
   4  -3 -12   89.07   11.13
   4  -3 -12   92.90   11.40
   4  -3 -12   99.05   13.23
   4  -3 -12   89.83   12.91
   4  -3 -12   99.50   14.73
   4  -3 -11  815.52   52.31
   4  -3 -11  825.57   45.18
   4  -3 -11  881.66   50.08
   4  -3 -11  885.94   50.17
   4  -3 -11  928.91   53.39
  -4  -3  10  102.20   24.14
   4  -3 -10   41.05   11.05
   4  -3 -10   55.45   11.10
   4  -3 -10   55.46    9.09
  -4  -3  10   78.97   11.86
   4  -3 -10   75.95   12.56
   4  -3 -10   55.37   11.71
  -4  -3   9   32.93   13.87
   4  -3  -9   60.92   12.17
   4  -3  -9   44.35   11.06
   4  -3  -9   56.36   11.20
   4  -3  -9   45.19    8.44
  -4  -3   8  521.86   52.69
  -4  -3   8  471.56   29.57
   4  -3  -8  525.73   36.84
   4  -3  -8  524.66   37.55
  -4  -3   8  434.65   69.44
   4  -3  -8  507.51   34.46
  -4  -3   7  102.91   22.13
   4  -3  -7  139.09   16.11
  -4  -3   7   93.81   11.25
   4  -3  -7  115.64   16.03
  -4  -3   7   69.54   27.86
   4  -3  -7  125.89   15.00
  -4  -3   6 1010.32   72.67
  -4  -3   6 1005.61   82.72
  -4  -3   6  979.29   57.21
   4  -3  -6 1061.61   54.26
  -4  -3   6  893.04   49.40
  -4  -3   6  988.51   49.29
   4  -3  -6 1090.41   57.75
   4  -3  -6  894.53   50.53
  -4  -3   6  817.88   93.61
   4  -3  -6  922.55   53.12
  -4  -3   5  652.02   53.15
  -4  -3   5  679.57   66.13
  -4  -3   5  584.94   40.65
   4  -3  -5  607.35   36.55
  -4  -3   5  595.20   33.49
   4  -3  -5  561.91   38.04
   4  -3  -5  518.13   49.31
   4  -3  -5  580.76   36.45
   4  -3  -5  646.08   39.31
   4  -3  -5  480.99   33.15
  -4  -3   4  392.25   38.76
  -4  -3   4  369.12   49.68
   4  -3  -4  396.51   26.99
  -4  -3   4  398.67   31.60
   4  -3  -4  374.54   28.57
   4  -3  -4  371.62   25.64
   4  -3  -4  356.70   26.65
   4  -3  -4  319.29   36.90
  -4  -3   3  108.18   19.49
  -4  -3   3  129.59   17.64
   4  -3  -3  146.11   14.64
  -4  -3   3  117.26   28.33
   4  -3  -3  146.72   14.35
   4  -3  -3  160.31   24.26
   4  -3  -3  120.66   15.30
   4  -3  -2  344.68   26.38
  -4  -3   2  343.99   28.88
  -4  -3   2  312.64   32.29
  -4  -3   2  334.53   47.63
  -4  -3   2  307.25   21.62
   4  -3  -2  278.50   33.55
   4  -3  -1  463.04   31.78
  -4  -3   1  478.22   35.18
  -4  -3   1  565.71   62.00
  -4  -3   1  451.98   38.34
   4  -3  -1  374.76   26.65
   4  -3  -1  481.32   31.99
   4  -3  -1  410.60   40.59
   4  -3   0 1080.04   58.01
  -4  -3   0 1078.62   61.36
  -4  -3   0  966.36   63.97
  -4  -3   0 1215.30   96.02
   4  -3   0 1106.15   59.53
   4  -3   0 1169.37   86.76
   4  -3   0 1200.97   59.38
   4  -3   0  934.91   52.24
   4  -3   0  918.21   68.64
   4  -3   0 1100.72   57.26
   4  -3   1  496.30   33.71
   4  -3   1  549.28   35.90
   4  -3   1  594.37   37.48
  -4  -3  -1  459.93   39.21
  -4  -3  -1  545.89   30.97
   4  -3   1  576.59   36.97
   4  -3   1  548.20   58.37
   4  -3   1  419.22   29.92
   4  -3   1  514.89   34.71
   4  -3   2  429.40   31.46
   4  -3   2  481.28   33.73
   4  -3   2  522.17   34.99
  -4  -3  -2  392.58   35.93
  -4  -3  -2  489.97   60.06
  -4  -3  -2  467.44   28.20
   4  -3   2  479.86   33.98
   4  -3   2  433.36   53.61
   4  -3   2  468.16   32.88
   4  -3   3  303.96   25.45
  -4  -3  -3  314.54   21.48
   4  -3   3  375.82   28.53
  -4  -3  -3  311.96   49.10
  -4  -3  -3  295.40   21.33
   4  -3   3  319.88   27.13
   4  -3   3  390.90   51.75
   4  -3   4  245.93   15.59
  -4  -3  -4  210.26   17.38
   4  -3   4  299.65   25.42
  -4  -3  -4  220.04   40.50
  -4  -3  -4  206.45   17.29
   4  -3   4  263.31   24.25
   4  -3   4  244.11   42.62
  -4  -3  -5 1349.70   65.26
   4  -3   5 1458.10   62.07
   4  -3   5 1373.24   72.97
  -4  -3  -5 1367.86  109.27
  -4  -3  -5 1310.88   64.47
   4  -3   5 1242.84  108.54
   4  -3   5 1308.17   72.92
   4  -3   6  667.27   43.45
  -4  -3  -6  610.66   69.07
  -4  -3  -6  666.39   35.89
   4  -3   6  593.76   75.64
   4  -3   6  653.86   43.58
  -4  -3  -6  623.58   36.10
   4  -3   7   50.51   11.24
  -4  -3  -7   71.90    9.08
   4  -3   7   65.72   13.15
   4  -3   7   31.99   19.77
  -4  -3  -7   70.18   23.33
  -4  -3  -8   38.01    6.38
   4  -3   8   25.34    8.95
   4  -3   8   16.87   13.84
  -4  -3  -8   11.99   11.02
  -4  -3  -9  144.33   14.54
   4  -3   9  122.91   17.12
   4  -3   9  139.39   38.07
  -4  -3 -10  113.18   13.02
  -4  -3 -10  106.47   12.36
   4  -3  10   95.61   14.45
  -4  -3 -11  908.40   47.61
  -4  -3 -11  903.59   47.21
  -4  -3 -12  134.70   13.36
  -4  -3 -13   20.80    5.51
  -4  -3 -14   23.99    5.28
  -4  -3 -15   11.98    4.16
  -4  -3 -15   10.08    3.36
  -4  -3 -15    5.56    2.88
  -4  -3 -16  227.54   13.38
   4  -2 -18  396.30   20.62
   4  -2 -18  334.14   18.55
   4  -2 -17  296.44   19.58
   4  -2 -17  295.54   20.38
   4  -2 -17  304.14   19.14
   4  -2 -16   64.11    8.20
   4  -2 -16   75.47   10.46
   4  -2 -16   96.78   11.86
   4  -2 -16   85.61   10.45
   4  -2 -15    0.64    4.35
   4  -2 -15    1.73    5.10
   4  -2 -15   -1.89    5.18
   4  -2 -15   -0.72    4.65
   4  -2 -15   -0.77    4.35
   4  -2 -15    2.77    3.90
   4  -2 -14  118.02   13.76
   4  -2 -14  126.67   15.83
   4  -2 -14  124.90   14.61
   4  -2 -14  123.87   12.89
   4  -2 -13  565.05   35.78
   4  -2 -13  589.47   38.97
   4  -2 -13  557.72   33.59
   4  -2 -13  547.83   35.81
   4  -2 -12 1171.25   57.78
  -4  -2  12 1163.13  114.74
   4  -2 -12 1119.96   60.46
   4  -2 -12 1212.83   64.70
  -4  -2  12  894.62  102.60
   4  -2 -12 1119.33   54.07
   4  -2 -12 1152.86   61.01
  -4  -2  12 1069.25  105.33
  -4  -2  11   90.63   32.34
   4  -2 -11   48.39   10.31
   4  -2 -11   58.37   12.00
  -4  -2  11   33.65   19.51
   4  -2 -11   36.55    6.47
   4  -2 -11   38.23    9.20
  -4  -2  11    4.99   10.70
   4  -2 -10  421.63   51.17
  -4  -2  10  350.87   61.27
   4  -2 -10  393.30   29.28
   4  -2 -10  442.71   32.34
  -4  -2  10  337.73   58.67
   4  -2 -10  381.19   23.47
   4  -2 -10  418.39   29.84
  -4  -2  10  414.84   59.96
   4  -2  -9  202.64   33.91
   4  -2  -9  168.50   17.89
   4  -2  -9  155.99   18.34
  -4  -2   9  160.49   38.99
   4  -2  -9  175.07   13.45
   4  -2  -9  181.84   18.16
  -4  -2   9  133.83   33.94
   4  -2  -8  200.75   32.74
   4  -2  -8  167.21   17.26
   4  -2  -8  164.14   17.42
   4  -2  -8  165.00   18.16
  -4  -2   8  152.67   36.03
   4  -2  -8  160.07   12.60
   4  -2  -8  164.31   17.02
  -4  -2   8  230.46   40.58
   4  -2  -7 1610.99   74.38
   4  -2  -7 1541.26  101.41
   4  -2  -7 1498.20   73.21
   4  -2  -7 1487.38   74.92
   4  -2  -7 1378.62   67.61
  -4  -2   7 1656.79  120.18
   4  -2  -7 1446.11   65.05
   4  -2  -7 1492.21   72.40
  -4  -2   7 1648.85  114.40
   4  -2  -6  336.03   24.33
   4  -2  -6  312.60   39.39
  -4  -2   6  325.87   47.26
   4  -2  -6  267.39   19.43
   4  -2  -6  341.56   24.32
   4  -2  -6  337.67   25.26
   4  -2  -6  303.47   17.82
   4  -2  -6  351.17   24.01
  -4  -2   6  356.23   46.54
   4  -2  -6  316.04   24.84
  -4  -2   5  757.12   62.84
  -4  -2   5  793.86   72.10
  -4  -2   5  763.50   73.69
   4  -2  -5  753.96   39.80
   4  -2  -5  855.65   46.12
   4  -2  -5  857.89   66.99
   4  -2  -5  850.01   44.88
  -4  -2   5  710.34   68.34
   4  -2  -5  898.30   46.65
  -4  -2   4  112.58   25.59
  -4  -2   4  148.59   28.68
  -4  -2   4  165.64   21.86
  -4  -2   4  143.11   25.32
   4  -2  -4  154.90   12.23
  -4  -2   4  135.25   12.13
   4  -2  -4  183.70   16.97
   4  -2  -4  146.13   14.29
   4  -2  -4  155.12   25.55
  -4  -2   3  514.76   52.24
  -4  -2   3  562.29   52.50
  -4  -2   3  568.66   41.09
  -4  -2   3  507.80   28.62
   4  -2  -3  518.67   32.57
   4  -2  -3  504.82   48.06
  -4  -2   3  578.38   55.25
  -4  -2   2  486.62   49.32
  -4  -2   2  369.81   42.97
  -4  -2   2  387.67   44.37
  -4  -2   2  431.72   33.89
  -4  -2   2  427.44   24.70
   4  -2  -2  447.73   28.44
   4  -2  -2  411.30   42.25
  -4  -2   1 3092.02  163.26
  -4  -2   1 3317.94  172.05
  -4  -2   1 3030.39  142.41
  -4  -2   1 2865.77  151.42
  -4  -2   1 3265.96  132.15
   4  -2  -1 3595.75  175.52
   4  -2  -1 2992.21  135.74
  -4  -2   0   41.66    8.93
  -4  -2   0   54.88   14.94
  -4  -2   0   61.58   18.75
  -4  -2   0   53.73   13.43
  -4  -2   0   38.26    6.14
   4  -2   0   27.64    7.54
   4  -2   0   34.67   15.52
   4  -2   0   31.60    7.74
  -4  -2  -1 1399.75   80.55
  -4  -2  -1 1317.81   81.38
   4  -2   1 1469.14   68.19
   4  -2   1 1332.19   65.79
   4  -2   1 1402.26   99.49
  -4  -2  -1 1161.83   67.10
  -4  -2  -1 1532.76  101.67
  -4  -2  -2  326.62   32.08
  -4  -2  -2  409.82   48.59
  -4  -2  -2  415.95   50.18
  -4  -2  -2  375.98   20.92
  -4  -2  -2  326.29   20.97
   4  -2   2  372.98   26.45
   4  -2   2  349.19   46.18
  -4  -2  -3  398.27   23.84
  -4  -2  -3  444.50   51.76
  -4  -2  -3  405.34   24.15
  -4  -2  -3  406.60   23.39
   4  -2   3  424.45   52.95
   4  -2   3  422.44   29.22
   4  -2   3  441.69   24.64
  -4  -2  -4 1537.63   68.14
   4  -2   4 1543.12   68.64
  -4  -2  -4 1739.51  112.58
  -4  -2  -4 1433.41   67.34
  -4  -2  -4 1470.57   67.14
   4  -2   4 1518.99  112.56
   4  -2   4 1440.49   73.58
  -4  -2  -5  325.72   21.15
   4  -2   5  324.71   21.63
  -4  -2  -5  310.38   44.07
   4  -2   5  341.68   25.70
  -4  -2  -5  332.39   20.68
  -4  -2  -5  307.09   20.12
   4  -2   5  303.38   48.80
   4  -2   5  298.19   24.85
   4  -2   6  489.02   28.90
  -4  -2  -6  455.27   47.42
  -4  -2  -6  467.50   54.35
   4  -2   6  457.57   31.77
  -4  -2  -6  481.19   26.65
  -4  -2  -6  470.32   27.03
  -4  -2  -6  411.52   26.69
   4  -2   6  448.23   61.69
   4  -2   6  452.15   32.21
  -4  -2  -7  667.51   35.66
  -4  -2  -7  611.56   58.58
  -4  -2  -7  568.52   61.64
  -4  -2  -7  615.82   33.38
  -4  -2  -7  626.81   34.73
   4  -2   7  581.71   39.13
   4  -2   7  734.78   37.82
  -4  -2  -8   26.78   13.00
  -4  -2  -8   18.06   11.10
  -4  -2  -8   16.96    5.14
  -4  -2  -8   20.17    5.63
   4  -2   8   14.20    5.23
  -4  -2  -9  567.74   32.91
  -4  -2  -9  465.55   53.26
   4  -2   9  564.36   34.58
   4  -2  10  331.72   24.59
  -4  -2 -10  308.03   41.59
  -4  -2 -10  310.72   22.71
   4  -2  10  269.05   55.65
   4  -2  11   18.41    6.39
  -4  -2 -11   27.02    6.41
  -4  -2 -11   29.07    7.19
  -4  -2 -11    9.03    7.43
  -4  -2 -11   27.85    6.89
   4  -2  11   25.16   18.92
  -4  -2 -12  554.85   33.09
  -4  -2 -12  497.05   31.42
  -4  -2 -12  531.68   31.12
  -4  -2 -13  181.84   16.10
  -4  -2 -13  183.85   14.78
   4  -2  13  192.97   17.08
  -4  -2 -14   35.66    7.67
  -4  -2 -14   21.07    5.68
  -4  -2 -14   17.84    4.54
   4  -2  14   24.99    6.33
  -4  -2 -15  154.52   12.16
  -4  -2 -15  129.46   12.90
  -4  -2 -16   29.18    4.65
  -4  -2 -16   29.48    5.37
   4  -1 -18   18.47    4.40
   4  -1 -18   20.12    4.89
   4  -1 -18   10.58    3.42
   4  -1 -17  222.65   16.88
   4  -1 -17  201.53   15.17
   4  -1 -17  221.74   16.85
   4  -1 -16   92.08   10.99
   4  -1 -16  100.66   12.41
   4  -1 -15  631.04   34.49
   4  -1 -15  651.96   33.34
   4  -1 -15  608.88   36.55
   4  -1 -15  589.67   33.84
   4  -1 -15  648.57   39.30
   4  -1 -14   39.28    7.59
   4  -1 -14   36.55    7.61
   4  -1 -14   26.24    8.21
   4  -1 -14   26.94    6.22
   4  -1 -14   26.06    7.94
  -4  -1  13  394.65   66.60
   4  -1 -13  399.41   25.76
   4  -1 -13  332.72   25.68
   4  -1 -13  384.39   29.55
   4  -1 -13  388.11   24.00
  -4  -1  13  396.22   63.92
   4  -1 -13  374.18   27.68
   4  -1 -12  149.16   16.10
  -4  -1  12  141.97   37.84
  -4  -1  12   97.80   21.92
  -4  -1  12  140.75   39.55
   4  -1 -12  130.64   14.86
   4  -1 -12  140.49   16.99
   4  -1 -12  123.12   12.11
   4  -1 -12  132.37   30.83
   4  -1 -12  120.35   13.20
  -4  -1  12  125.33   35.98
  -4  -1  11  570.88   75.43
   4  -1 -11  553.85   36.64
  -4  -1  11  532.52   52.68
  -4  -1  11  553.43   62.57
  -4  -1  11  630.82   83.45
   4  -1 -11  582.93   36.60
   4  -1 -11  594.04   39.22
   4  -1 -11  635.41   33.12
   4  -1 -11  609.09   64.02
  -4  -1  10  716.13   82.69
   4  -1 -10  703.12   42.03
  -4  -1  10  672.28   58.04
  -4  -1  10  713.77   68.49
  -4  -1  10  621.08   68.40
  -4  -1  10  869.59   93.59
   4  -1 -10  712.35   41.83
   4  -1 -10  705.96   44.07
   4  -1 -10  744.98   37.41
   4  -1 -10  728.72   70.18
  -4  -1   9  801.80   61.07
  -4  -1   9  673.11   70.52
  -4  -1   9  828.72   70.13
  -4  -1   9  788.67   75.63
  -4  -1   9  761.77   85.99
   4  -1  -9  822.23   44.91
   4  -1  -9  745.82   45.56
  -4  -1   9  839.55   86.25
   4  -1  -9  819.58   45.14
   4  -1  -9  808.35   72.94
  -4  -1   8  234.68   38.36
  -4  -1   8  296.91   37.19
  -4  -1   8  218.30   36.76
  -4  -1   8  310.33   50.90
   4  -1  -8  202.08   17.07
   4  -1  -8  272.16   20.65
   4  -1  -8  249.15   21.11
   4  -1  -8  233.58   19.45
  -4  -1   8  250.09   44.49
   4  -1  -8  249.69   37.10
  -4  -1   7  521.75   58.11
  -4  -1   7  678.90   53.49
  -4  -1   7  597.25   59.86
  -4  -1   7  674.99   71.59
   4  -1  -7  534.05   31.14
   4  -1  -7  580.48   33.89
   4  -1  -7  518.52   32.52
  -4  -1   7  645.40   67.06
   4  -1  -7  558.38   55.34
  -4  -1   6  909.29   76.28
   4  -1  -6  840.87   42.82
  -4  -1   6  846.48   81.63
  -4  -1   6  891.15   60.74
  -4  -1   6  808.64   70.23
  -4  -1   6 1000.47   83.39
   4  -1  -6  900.52   70.92
  -4  -1   5 1264.09   94.00
  -4  -1   5 1357.61  102.41
   4  -1  -5 1321.81   60.63
  -4  -1   5 1332.24   75.55
   4  -1  -5 1333.81   74.69
  -4  -1   5 1301.19   97.20
   4  -1  -5 1337.31   89.81
  -4  -1   4 2404.01  141.44
  -4  -1   4 2166.34  142.76
  -4  -1   4 2431.20  142.14
   4  -1  -4 2300.49  131.84
  -4  -1   4 2387.68  112.72
   4  -1  -4 2454.85  116.42
  -4  -1   3  646.00   60.05
  -4  -1   3  619.10   58.59
   4  -1  -3  564.87   52.98
   4  -1  -3  687.35   43.53
  -4  -1   3  689.96   57.18
   4  -1  -2  294.44   25.81
  -4  -1   2  357.53   38.30
  -4  -1   2  368.32   43.31
  -4  -1   2  350.39   25.41
  -4  -1   2  354.68   41.48
   4  -1  -1  198.23   19.16
  -4  -1   1  225.36   28.43
  -4  -1   1  243.83   32.86
  -4  -1   1  203.83   32.35
  -4  -1   1  173.98   15.64
  -4  -1   0 1748.33  108.06
   4  -1   0 1836.60   88.86
  -4  -1   0 1886.08  104.19
  -4  -1   0 1919.70  115.20
  -4  -1   0 1898.72  119.66
  -4  -1  -1 1910.49  120.86
  -4  -1  -1 1957.08  105.71
   4  -1   1 2006.49   92.86
  -4  -1  -1 1773.99  111.70
  -4  -1  -2 1048.17   68.64
   4  -1   2 1233.14   62.27
  -4  -1  -2 1269.06   91.41
   4  -1   2 1203.92   87.42
  -4  -1  -2 1091.56   79.72
  -4  -1  -3  222.61   32.60
  -4  -1  -3  301.52   28.37
   4  -1   3  263.34   22.88
   4  -1   3  221.42   36.15
  -4  -1  -4  753.15   48.63
   4  -1   4  769.15   47.29
   4  -1   4  768.85   39.85
  -4  -1  -4  780.45   67.03
  -4  -1  -4  769.41   38.22
  -4  -1  -4  786.08   56.97
  -4  -1  -4  805.35   37.79
   4  -1   4  708.03   70.05
  -4  -1  -5  989.19   76.87
   4  -1   5  869.67   55.75
  -4  -1  -5  995.25   45.18
   4  -1   5 1049.42   49.78
  -4  -1  -5  996.94   66.92
  -4  -1  -5  971.34   46.42
  -4  -1  -5  980.59   46.35
  -4  -1  -5  948.88   45.69
   4  -1   5  995.08   86.46
  -4  -1  -6  523.01   30.68
  -4  -1  -6  480.91   49.96
   4  -1   6  455.13   36.77
  -4  -1  -6  492.49   26.22
  -4  -1  -6  491.89   27.05
  -4  -1  -6  511.32   45.19
  -4  -1  -6  463.34   26.33
   4  -1   6  471.45   60.15
  -4  -1  -7 1347.78   58.20
   4  -1   7 1192.46   71.38
  -4  -1  -7 1310.61   90.65
   4  -1   7 1210.76   70.60
  -4  -1  -7 1150.35   84.47
  -4  -1  -7 1204.68   56.20
  -4  -1  -7 1210.87   56.66
  -4  -1  -7 1174.37   56.01
   4  -1   7 1085.22  103.36
  -4  -1  -8   40.41   15.35
   4  -1   8   43.33   11.51
  -4  -1  -8   36.65    6.92
  -4  -1  -8   49.90    7.21
  -4  -1  -8   47.38    6.78
   4  -1   8   25.92   21.16
  -4  -1  -9  741.91   69.73
  -4  -1  -9  757.97   39.68
  -4  -1  -9  742.72   38.62
  -4  -1  -9  748.45   37.71
   4  -1   9  618.65   80.68
  -4  -1 -10  190.47   35.11
  -4  -1 -10  236.60   17.26
  -4  -1 -10  216.68   15.35
  -4  -1 -10  212.78   17.24
   4  -1  10  155.54   42.37
  -4  -1 -11  481.32   27.68
  -4  -1 -11  430.56   51.79
  -4  -1 -11  439.24   27.84
   4  -1  11  402.13   66.36
  -4  -1 -12  157.90   14.02
  -4  -1 -12  171.72   15.55
  -4  -1 -12  126.88   27.87
  -4  -1 -13  334.65   23.24
  -4  -1 -13  344.18   22.18
  -4  -1 -13  361.20   23.01
  -4  -1 -14   82.09    9.76
  -4  -1 -14   73.62    8.94
   4  -1  14   76.15   11.55
  -4  -1 -14   72.34    8.73
  -4  -1 -15  204.62   16.57
  -4  -1 -15  200.10   14.74
  -4  -1 -15  211.30   14.68
   4  -1  15  205.33   17.47
  -4  -1 -16  150.19   12.14
  -4  -1 -16  137.22   10.64
  -4  -1 -16  177.13   13.45
   4  -1  16  159.80   13.69
  -4  -1 -16  166.43   11.32
   4  -1  17   52.80    6.49
  -4  -1 -17   61.10    6.39
   4   0 -18    1.01    1.94
   4   0 -18    3.45    2.99
   4   0 -17   59.64    8.07
   4   0 -16  736.03   35.75
   4   0 -16  703.55   39.23
   4   0 -16  667.09   36.69
   4   0 -15   27.88    7.67
   4   0 -15   32.29    6.21
   4   0 -15   42.39    6.72
   4   0 -15   38.05    7.63
   4   0 -14   75.64   10.96
   4   0 -14   71.77    8.55
   4   0 -14   78.75   12.07
   4   0 -14   91.90   10.28
   4   0 -14   79.85    9.99
   4   0 -13  301.78   19.86
  -4   0  13  304.38   49.29
   4   0 -13  290.33   22.77
  -4   0  13  287.66   55.84
  -4   0  13  317.21   61.48
   4   0 -13  288.61   17.79
   4   0 -13  293.81   20.80
   4   0 -12  132.59   12.08
  -4   0  12  119.00   31.43
   4   0 -12  122.72   14.24
  -4   0  12  155.41   41.11
  -4   0  12  121.28   39.93
   4   0 -12  119.51   10.27
   4   0 -12  104.32   27.24
   4   0 -12  126.06   12.87
   4   0 -11 1322.94  101.55
  -4   0  11 1337.70  120.53
   4   0 -11 1269.02   63.04
  -4   0  11 1044.81  105.11
  -4   0  11 1292.76  104.49
   4   0 -11 1138.78   75.60
  -4   0  11 1166.37   95.75
  -4   0  11 1565.26  135.55
   4   0 -11 1212.50   55.57
   4   0 -11 1283.04   58.71
   4   0 -10  430.20   52.61
  -4   0  10  425.58   62.85
   4   0 -10  401.08   28.20
  -4   0  10  412.24   60.54
  -4   0  10  434.65   54.60
   4   0 -10  407.96   37.79
  -4   0  10  494.74   56.30
  -4   0  10  479.66   71.39
   4   0 -10  460.35   28.59
   4   0 -10  435.46   23.35
   4   0 -10  468.53   26.19
  -4   0   9 1639.72  126.10
   4   0  -9 1446.60   69.00
  -4   0   9 1622.93  122.41
  -4   0   9 1429.79  104.06
   4   0  -9 1426.24   81.31
  -4   0   9 1395.81  103.49
  -4   0   9 1626.50  130.64
   4   0  -9 1401.79   68.03
   4   0  -9 1492.27   68.71
   4   0  -9 1538.43  106.63
   4   0  -9 1437.07   65.29
   4   0  -9 1370.04   63.24
  -4   0   8 1523.02  114.50
   4   0  -8 1332.28   63.38
  -4   0   8 1307.12   94.46
   4   0  -8 1310.06   74.47
  -4   0   8 1280.31   94.45
  -4   0   8 1334.02   76.70
  -4   0   8 1375.00  110.32
   4   0  -8 1318.49   63.04
  -4   0   8 1368.54  116.85
   4   0  -8 1455.45   99.02
   4   0  -8 1283.55   58.14
  -4   0   7   54.70   21.00
  -4   0   7   42.38   15.05
   4   0  -7   60.52   11.42
  -4   0   7   78.41   20.58
   4   0  -7   56.55   13.60
  -4   0   7   53.74   11.47
  -4   0   7   72.58   23.30
   4   0  -7   55.44    8.04
  -4   0   7   74.81   24.83
   4   0  -7   57.82   18.21
   4   0  -7   61.21    6.22
   4   0  -7   48.33    6.34
  -4   0   6   -3.53   10.60
  -4   0   6    2.31    6.33
   4   0  -6    6.28    3.86
  -4   0   6    8.08    8.75
   4   0  -6    4.99    5.00
  -4   0   6    3.75    9.21
  -4   0   6   -3.97    9.75
   4   0  -6   11.80    3.73
   4   0  -6    5.40    8.11
   4   0  -6    6.10    2.69
   4   0  -6    7.31    2.62
  -4   0   5  982.17   85.52
   4   0  -5 1003.28   49.16
  -4   0   5 1042.16   88.51
  -4   0   5 1009.61   69.87
   4   0  -5 1043.79   56.03
   4   0  -5 1146.80   66.09
  -4   0   5 1136.59   78.47
  -4   0   5 1109.85   86.28
   4   0  -5 1117.93   78.03
   4   0  -4   30.39    6.27
  -4   0   4   32.86   16.66
  -4   0   4   43.04   18.65
   4   0  -4   28.93    6.52
   4   0  -4   27.97    8.66
  -4   0   4   53.50   15.93
  -4   0   4   47.17   17.01
   4   0  -4   28.62   12.81
   4   0  -3 4069.92  175.90
  -4   0   3 4225.26  216.80
  -4   0   3 4078.54  216.95
  -4   0   3 4077.79  212.68
   4   0  -3 3949.41  201.69
   4   0  -3 4365.92  188.45
   4   0  -3 4171.68  174.56
   4   0  -2  741.42   46.56
   4   0  -2  664.51   35.73
  -4   0   2  649.19   54.01
  -4   0   2  643.16   58.85
   4   0  -2  636.98   38.90
  -4   0   2  727.37   65.79
   4   0  -1   74.09   11.53
  -4   0   1   98.69   15.51
   4   0  -1   81.83    9.24
  -4   0   1   95.01   18.60
   4   0  -1  113.58   15.79
  -4   0   1  146.65   25.87
   4   0  -1   86.16   20.21
   4   0   0  175.24   18.59
  -4   0   0  164.41   23.83
   4   0   0  202.66   21.29
   4   0   0  154.29   13.29
  -4   0   0  198.29   22.51
  -4   0   0  164.36   28.43
   4   0   0  160.77   26.34
   4   0   1    7.21    2.98
   4   0   1   10.98    5.61
  -4   0  -1   10.61    7.52
  -4   0  -1    5.48    9.51
  -4   0  -1    1.51    5.24
   4   0   1   12.49    6.39
  -4   0  -1   11.72   11.37
   4   0   1   24.60   12.80
  -4   0  -2 2654.02  130.07
  -4   0  -2 2540.38  130.75
   4   0   2 2777.45  126.10
   4   0   2 2667.44  124.35
  -4   0  -2 2672.70  151.06
   4   0   2 2605.35  114.31
   4   0   2 2202.06  139.23
  -4   0  -2 2519.72  148.86
  -4   0  -2 2442.01  121.31
  -4   0  -3 1847.17   99.01
   4   0   3 1822.56   94.97
  -4   0  -3 1745.41  115.53
  -4   0  -3 1656.19   88.22
   4   0   3 1806.20   94.80
  -4   0  -3 1881.06  117.60
   4   0   3 1801.16   85.73
   4   0   3 1885.79  114.98
   4   0   4   59.38   12.84
  -4   0  -4   69.12   14.36
   4   0   4   67.49    8.83
  -4   0  -4   64.84   19.63
  -4   0  -4   61.99    7.24
   4   0   4   56.48   12.99
   4   0   4   45.95    9.63
  -4   0  -4   79.16   21.41
   4   0   4   89.21   22.45
   4   0   5  122.27   27.33
   4   0   5   93.88   15.06
   4   0   5  108.28   18.54
  -4   0  -5  100.07   25.58
  -4   0  -5  115.95   17.91
   4   0   5  106.29   18.22
   4   0   5  129.77   12.55
  -4   0  -5  108.83   26.53
  -4   0  -5  106.70   18.74
  -4   0  -5  119.80   10.45
  -4   0  -5  103.23    9.54
  -4   0  -5  101.07    9.36
  -4   0  -5  112.97   10.43
  -4   0  -5  103.37    9.42
   4   0   6  393.56   53.05
  -4   0  -6  513.98   31.09
  -4   0  -6  613.53   63.07
   4   0   6  478.30   38.66
  -4   0  -6  494.10   46.90
  -4   0  -6  567.68   47.20
  -4   0  -6  499.30   38.69
   4   0   6  554.62   45.46
  -4   0  -6  540.47   26.86
  -4   0  -6  528.90   28.30
  -4   0  -6  525.31   27.90
  -4   0  -6  514.89   27.78
  -4   0  -6  486.53   27.30
  -4   0  -6  527.62   28.55
  -4   0  -6  497.99   26.51
   4   0   7   79.17   24.82
  -4   0  -7   74.61   20.30
   4   0   7   84.73   16.39
   4   0   7   57.05   18.09
   4   0   7   68.74   16.17
  -4   0  -7  136.99   10.58
  -4   0  -7   99.42   10.03
  -4   0  -7  126.81   21.58
  -4   0  -7   98.28    9.71
  -4   0  -7   95.47    9.72
  -4   0  -7  100.35    9.35
  -4   0  -7  107.09   10.02
  -4   0  -7  103.86   10.25
   4   0   8 1640.01  128.56
  -4   0  -8 1771.06   77.58
  -4   0  -8 1940.72  118.77
   4   0   8 1753.39   99.25
   4   0   8 1588.83  101.76
  -4   0  -8 1818.77  105.18
  -4   0  -8 1721.51   77.29
  -4   0  -8 1796.42   78.35
  -4   0  -8 1719.51   77.24
  -4   0  -8 1761.06   77.93
  -4   0  -8 1726.69   77.11
  -4   0  -8 1896.31   78.88
  -4   0  -8 1737.36   77.90
   4   0   9  463.03   65.41
  -4   0  -9  513.39   28.70
   4   0   9  507.00   46.26
  -4   0  -9  485.83   55.89
   4   0   9  360.14   52.63
   4   0   9  467.03   47.87
  -4   0  -9  528.01   28.87
  -4   0  -9  528.30   28.84
  -4   0  -9  506.83   47.41
  -4   0  -9  512.31   28.61
  -4   0  -9  513.45   28.63
  -4   0  -9  529.12   28.80
   4   0  10  100.86   31.81
  -4   0 -10  143.20   13.12
  -4   0 -10  143.74   30.50
   4   0  10  138.77   24.17
   4   0  10  127.38   31.40
   4   0  10  171.64   28.51
  -4   0 -10  165.62   13.61
  -4   0 -10  162.06   25.87
  -4   0 -10  148.42   12.80
  -4   0 -10  156.59   13.47
  -4   0 -10  178.44   13.70
  -4   0 -10  156.40   13.32
   4   0  11    5.50   13.50
  -4   0 -11    2.52    3.86
  -4   0 -11   -3.46    7.35
   4   0  11   -2.46    6.74
   4   0  11    2.76    5.85
  -4   0 -11    3.95    3.66
  -4   0 -11    2.16    4.60
  -4   0 -11    0.50    2.52
  -4   0 -11    5.74    2.87
  -4   0 -11   -1.73    3.54
  -4   0 -11    2.77    3.19
   4   0  12   21.98   17.88
  -4   0 -12   35.89    7.02
  -4   0 -12   31.25   14.82
   4   0  12   13.79    9.05
   4   0  12   27.68   12.03
  -4   0 -12   34.13    6.54
  -4   0 -12   28.71    5.47
  -4   0 -12   51.76    7.79
  -4   0 -12   58.48    8.00
  -4   0 -13  956.22   47.46
  -4   0 -13  923.56   46.83
  -4   0 -13 1010.73   47.85
  -4   0 -14  724.10   37.65
  -4   0 -14  802.08   38.88
  -4   0 -15   39.33    6.60
  -4   0 -15   33.39    5.95
  -4   0 -15   30.66    5.62
   4   0  15   37.45    8.40
  -4   0 -16  130.60   10.18
  -4   0 -16  124.89    9.77
   4   0  16  114.94   12.34
  -4   0 -17   36.54    4.40
  -4   0 -17   31.64    4.73
   4   0  17   35.98    5.94
   4   1 -18   15.23    3.82
   4   1 -17  218.68   13.73
   4   1 -16   96.15    9.20
   4   1 -16   93.50    9.01
   4   1 -15  589.77   36.22
   4   1 -15  687.52   34.91
   4   1 -15  703.89   35.28
   4   1 -14   22.15    4.86
   4   1 -14   32.20    6.22
   4   1 -14   32.17    6.55
   4   1 -13  419.46   24.72
  -4   1  13  261.94   54.25
  -4   1  13  364.66   65.03
  -4   1  13  369.13   68.13
   4   1 -13  430.17   24.16
   4   1 -13  425.63   26.20
   4   1 -12  128.51   30.05
   4   1 -12  138.21   12.24
  -4   1  12  112.17   35.34
  -4   1  12  121.31   32.93
   4   1 -12  126.17   22.22
  -4   1  12   97.40   34.54
  -4   1  12  178.34   46.32
   4   1 -12  119.07   10.89
   4   1 -12  111.12    9.80
   4   1 -12  117.44   10.56
   4   1 -12  119.17   12.30
   4   1 -11  631.36   66.31
  -4   1  11  591.25   80.83
  -4   1  11  688.68   76.03
   4   1 -11  562.98   49.71
  -4   1  11  528.69   74.63
  -4   1  11  674.20   87.73
   4   1 -11  612.01   31.46
   4   1 -11  553.65   29.73
   4   1 -11  580.25   30.94
   4   1 -11  623.86   32.57
   4   1 -11  639.22   34.46
   4   1 -10  771.62   71.29
  -4   1  10  666.95   84.26
  -4   1  10  640.16   71.20
   4   1 -10  701.34   53.63
  -4   1  10  706.86   67.25
  -4   1  10  633.29   79.90
  -4   1  10  554.93   79.75
   4   1 -10  641.17   33.17
   4   1 -10  659.22   32.39
   4   1 -10  599.88   32.56
   4   1 -10  656.88   33.74
   4   1 -10  692.98   34.62
   4   1 -10  679.70   36.32
   4   1  -9  845.46   73.03
  -4   1   9  754.81   89.03
  -4   1   9  895.28   80.45
   4   1  -9  715.05   54.19
  -4   1   9  699.34   66.44
  -4   1   9  768.52   84.68
  -4   1   9  815.53   91.36
   4   1  -9  766.52   37.15
   4   1  -9  728.34   35.84
   4   1  -9  753.42   36.78
   4   1  -9  744.88   37.25
   4   1  -9  803.83   38.29
   4   1  -9  758.33   39.58
   4   1  -9  781.17   38.80
  -4   1   8  268.17   50.32
  -4   1   8  223.43   38.14
   4   1  -8  293.46   29.64
   4   1  -8  303.49   33.29
  -4   1   8  228.84   35.22
  -4   1   8  251.66   45.46
  -4   1   8  298.69   51.72
   4   1  -8  233.59   18.10
   4   1  -8  245.16   15.33
   4   1  -8  237.84   15.56
   4   1  -8  241.12   16.07
   4   1  -8  259.13   37.77
   4   1  -7  616.66   57.81
  -4   1   7  542.90   68.51
  -4   1   7  579.45   58.36
   4   1  -7  580.13   43.17
   4   1  -7  566.88   46.96
  -4   1   7  544.41   54.16
  -4   1   7  629.29   68.04
  -4   1   7  530.53   65.83
   4   1  -7  545.16   30.88
   4   1  -7  564.47   29.41
   4   1  -7  534.47   27.65
   4   1  -7  559.87   28.49
   4   1  -7  533.78   27.24
   4   1  -6  795.66   66.11
  -4   1   6  774.75   80.68
   4   1  -6  752.78   50.20
   4   1  -6  815.16   57.73
  -4   1   6  773.40   65.35
   4   1  -6  806.84   36.42
   4   1  -6  760.62   37.32
   4   1  -6  757.70   39.29
  -4   1   6  916.00   84.36
   4   1  -6  748.10   60.57
   4   1  -6  757.03   37.55
  -4   1   6  759.62   73.73
   4   1  -5 1220.84   55.35
   4   1  -5 1213.47   81.92
   4   1  -5 1205.77   57.21
  -4   1   5 1336.46  102.63
   4   1  -5 1288.93   69.89
  -4   1   5 1338.46   88.29
   4   1  -5 1283.65   86.66
  -4   1   5 1386.55   98.78
   4   1  -4 2301.92   97.86
   4   1  -4 2291.25  110.93
  -4   1   4 2528.35  133.81
  -4   1   4 2260.60  144.98
   4   1  -4 2378.59  129.44
  -4   1   4 2496.01  142.45
   4   1  -4 2271.79  130.31
  -4   1   3  544.59   61.14
   4   1  -3  654.43   39.59
  -4   1   3  586.87   51.51
  -4   1   3  569.97   59.78
  -4   1   3  539.53   38.41
  -4   1   3  503.60   53.42
   4   1  -3  497.34   49.18
   4   1  -2  442.44   30.70
  -4   1   2  372.06   31.64
  -4   1   2  436.82   42.43
  -4   1   2  291.96   43.29
  -4   1   2  367.60   44.31
  -4   1   1  219.69   23.90
   4   1  -1  232.19   21.18
  -4   1   1  213.84   35.68
  -4   1   1  228.15   33.24
  -4   1   0 1869.48  105.16
  -4   1   0 1781.70   95.06
   4   1   0 1827.60   96.43
   4   1   0 1762.63   87.62
  -4   1   0 1843.10  112.54
  -4   1   0 1591.91  113.02
   4   1   0 1792.29   91.91
  -4   1  -1 1750.95  103.63
  -4   1  -1 1965.51   99.10
   4   1   1 1720.34   96.38
  -4   1  -1 1745.92  115.56
   4   1   1 1774.06   93.50
   4   1   1 1878.17  108.13
  -4   1  -1 1687.08  116.10
  -4   1  -2 1353.23   77.31
  -4   1  -2 1275.82   81.17
   4   1   2 1242.98   74.37
  -4   1  -2 1177.11   82.54
  -4   1  -2 1245.38   92.27
   4   1   2 1131.60   70.40
   4   1   2 1315.23   85.03
  -4   1  -3  287.26   31.88
  -4   1  -3  312.70   34.62
   4   1   3  276.95   30.19
  -4   1  -3  288.66   35.83
  -4   1  -3  246.22   16.78
  -4   1  -3  268.36   38.32
   4   1   3  298.30   29.32
   4   1   3  302.87   36.52
   4   1   4  839.76   66.25
   4   1   4  807.26   55.15
  -4   1  -4  814.10   69.99
  -4   1  -4  770.88   57.99
  -4   1  -4  827.54   60.12
   4   1   4  903.15   59.25
   4   1   4  824.35   39.85
  -4   1  -4  730.95   62.38
  -4   1  -4  720.60   36.31
  -4   1  -4  719.53   36.06
  -4   1  -4  716.75   36.59
  -4   1  -4  736.05   35.91
   4   1   5  901.19   74.53
  -4   1  -5 1073.98   82.54
   4   1   5 1016.78   62.54
  -4   1  -5  989.16   69.04
   4   1   5  964.48   67.26
   4   1   5 1034.17   48.95
  -4   1  -5  999.91   75.16
  -4   1  -5  945.37   45.10
  -4   1  -5  921.31   45.73
  -4   1  -5  903.50   44.57
  -4   1  -5  951.67   45.34
  -4   1  -5  926.81   44.42
   4   1   6  443.12   52.64
  -4   1  -6  595.65   33.83
  -4   1  -6  578.21   60.39
   4   1   6  590.91   46.03
  -4   1  -6  615.34   52.00
  -4   1  -6  601.62   49.72
   4   1   6  561.04   49.72
  -4   1  -6  577.38   56.45
  -4   1  -6  556.93   30.10
  -4   1  -6  545.18   30.68
  -4   1  -6  556.24   29.90
  -4   1  -6  550.68   28.28
  -4   1  -6  561.94   30.82
  -4   1  -6  564.83   29.74
   4   1   7 1013.59   87.61
   4   1   7 1059.56   76.20
  -4   1  -7 1321.58   90.35
   4   1   7 1139.86   75.19
  -4   1  -7 1287.36   82.26
  -4   1  -7 1145.19   76.13
   4   1   7 1160.03   81.44
  -4   1  -7 1025.07   84.44
  -4   1  -7 1201.72   55.35
  -4   1  -7 1199.88   55.84
  -4   1  -7 1173.21   55.23
  -4   1  -7 1170.18   55.15
  -4   1  -7 1160.36   53.44
  -4   1  -7 1170.47   55.69
  -4   1  -7 1185.77   54.95
   4   1   8   18.80   13.91
   4   1   8   40.63   14.17
  -4   1  -8   34.64   14.52
   4   1   8   36.14   13.61
   4   1   8   43.57   13.43
  -4   1  -8   43.56   13.99
  -4   1  -8   33.11    6.22
  -4   1  -8   33.03    5.45
  -4   1  -8   41.07    6.94
  -4   1  -8   34.46    6.35
  -4   1  -8   42.69    6.31
  -4   1  -8   35.29    6.44
  -4   1  -8   33.47    6.18
   4   1   9  570.34   67.38
   4   1   9  591.37   60.16
  -4   1  -9  675.09   58.92
  -4   1  -9  619.40   64.55
   4   1   9  691.04   58.33
  -4   1  -9  718.13   37.47
  -4   1  -9  653.50   35.26
  -4   1  -9  732.11   37.53
  -4   1  -9  768.81   38.21
  -4   1  -9  709.12   36.37
  -4   1  -9  686.29   36.64
  -4   1  -9  753.88   37.79
  -4   1 -10  267.99   34.95
   4   1  10  204.01   33.78
  -4   1 -10  264.25   41.47
   4   1  10  224.94   32.74
  -4   1 -10  226.81   17.25
  -4   1 -10  222.23   16.56
  -4   1 -10  250.60   17.94
  -4   1 -10  249.63   17.46
  -4   1 -10  235.43   16.93
  -4   1 -10  278.39   18.76
  -4   1 -11  408.55   51.15
   4   1  11  308.40   41.14
   4   1  11  371.66   48.08
  -4   1 -11  391.96   42.89
  -4   1 -11  406.30   25.35
  -4   1 -11  436.21   25.80
  -4   1 -11  482.18   26.80
  -4   1 -11  512.27   28.13
  -4   1 -11  462.31   26.40
  -4   1 -12  185.69   33.30
  -4   1 -12  184.55   14.56
   4   1  12  124.98   24.96
  -4   1 -12  171.02   13.41
  -4   1 -12  170.27   13.99
  -4   1 -12  176.33   14.03
  -4   1 -12  172.23   14.59
  -4   1 -12  176.45   14.30
  -4   1 -13  283.87   19.30
  -4   1 -13  300.03   19.05
  -4   1 -13  326.34   20.78
  -4   1 -13  323.26   20.34
  -4   1 -13  333.25   20.54
  -4   1 -14   69.19    8.24
  -4   1 -14   74.95    8.48
  -4   1 -14   76.26    8.61
   4   1  14   73.68   11.63
  -4   1 -15  206.50   13.81
  -4   1 -15  190.30   13.47
   4   1  15  188.83   17.14
  -4   1 -16  136.73   10.36
  -4   1 -16  158.10   10.69
   4   1  16  164.09   13.95
  -4   1 -17   57.77    5.10
  -4   1 -17   63.09    5.69
   4   2 -17  251.66   14.12
   4   2 -17  296.94   16.01
   4   2 -16   57.74    6.19
   4   2 -16   62.95    6.61
   4   2 -16   61.32    7.28
   4   2 -15    1.19    2.38
   4   2 -15    1.69    2.59
   4   2 -15    1.03    3.29
   4   2 -14  144.70   11.89
   4   2 -14  146.32   12.25
   4   2 -14  140.05   13.14
   4   2 -13  568.37   31.08
   4   2 -13  557.35   29.86
   4   2 -13  591.50   31.11
   4   2 -13  619.53   33.97
  -4   2  12 1204.49  125.99
  -4   2  12 1128.84  109.03
   4   2 -12 1105.10   78.25
  -4   2  12  949.27  107.02
  -4   2  12  944.14  111.52
   4   2 -12 1059.43   51.34
   4   2 -12 1173.80   54.23
   4   2 -12 1115.00   52.68
   4   2 -12 1186.71   54.06
   4   2 -12 1257.51   55.61
  -4   2  11   28.30   21.29
  -4   2  11   36.89   21.47
   4   2 -11   25.97   10.51
  -4   2  11   22.61   18.38
   4   2 -11   26.42    4.79
  -4   2  11   19.10   19.17
   4   2 -11   28.40    5.33
   4   2 -11   28.28    5.72
   4   2 -11   33.26    5.87
   4   2 -11   34.43    6.02
   4   2 -11   36.81    6.66
   4   2 -10  364.68   47.93
  -4   2  10  447.35   75.08
  -4   2  10  493.85   65.07
   4   2 -10  373.32   39.83
  -4   2  10  419.93   62.68
   4   2 -10  353.29   21.26
  -4   2  10  351.20   62.15
   4   2 -10  317.53   40.97
   4   2 -10  391.27   23.25
   4   2 -10  346.68   21.79
   4   2 -10  362.67   20.88
   4   2 -10  413.66   23.44
   4   2 -10  397.70   23.61
   4   2 -10  401.08   24.00
   4   2 -10  435.36   24.66
   4   2  -9  155.23   30.31
  -4   2   9  189.65   48.68
   4   2  -9  178.60   26.08
  -4   2   9  165.54   37.85
  -4   2   9  154.52   30.52
  -4   2   9  200.51   41.88
  -4   2   9  157.85   40.97
   4   2  -9  170.98   29.99
   4   2  -9  209.74   14.17
   4   2  -9  187.85   14.36
   4   2  -9  196.83   14.96
   4   2  -9  175.02   15.58
   4   2  -9  185.87   14.74
   4   2  -9  181.73   13.88
   4   2  -8  169.47   24.75
  -4   2   8  188.70   38.33
   4   2  -8  213.61   28.75
  -4   2   8  183.07   32.77
  -4   2   8  151.84   35.94
  -4   2   8  181.11   40.25
   4   2  -8  197.80   32.54
   4   2  -8  171.87   13.46
   4   2  -8  173.48   13.97
   4   2  -8  182.11   14.20
   4   2  -8  171.55   13.98
   4   2  -8  190.52   13.75
   4   2  -8  227.45   34.85
   4   2  -7 1644.02  105.39
  -4   2   7 1416.46  127.70
   4   2  -7 1528.68   89.79
   4   2  -7 1606.42   94.93
  -4   2   7 1533.21  105.06
  -4   2   7 1497.22  116.65
  -4   2   7 1517.10  122.58
   4   2  -7 1597.80  105.54
   4   2  -7 1498.23   70.63
   4   2  -7 1490.33   68.93
   4   2  -7 1604.28   69.69
   4   2  -7 1532.55   69.33
   4   2  -6  342.88   41.19
   4   2  -6  318.84   32.23
   4   2  -6  356.93   35.99
  -4   2   6  348.39   43.18
  -4   2   6  290.10   44.21
  -4   2   6  359.78   51.65
   4   2  -6  298.06   20.49
   4   2  -6  294.90   39.59
   4   2  -6  340.71   20.21
   4   2  -6  319.00   19.85
   4   2  -6  305.06   19.69
   4   2  -5  651.56   59.55
  -4   2   5  951.91   90.45
   4   2  -5  759.04   53.85
   4   2  -5  774.72   57.44
  -4   2   5  819.70   67.52
  -4   2   5  843.68   74.79
  -4   2   5  816.32   77.96
   4   2  -5  714.49   38.41
   4   2  -5  782.08   67.59
   4   2  -5  778.85   38.25
   4   2  -5  784.34   38.11
   4   2  -5  811.20   38.41
  -4   2   4  186.28   32.53
   4   2  -4  149.57   20.44
   4   2  -4  142.19   22.16
  -4   2   4  193.98   30.20
  -4   2   4  137.82   34.55
   4   2  -4  144.88   12.11
   4   2  -4  148.23   26.99
   4   2  -4  150.56   11.78
   4   2  -4  141.47   25.71
  -4   2   3  407.94   55.87
   4   2  -3  505.72   39.37
   4   2  -3  550.57   43.37
  -4   2   3  442.14   35.16
  -4   2   3  484.76   49.43
  -4   2   3  444.37   50.61
   4   2  -3  432.90   44.83
  -4   2   2  467.94   59.55
   4   2  -2  528.68   52.14
  -4   2   2  617.65   55.49
  -4   2   2  536.16   40.85
   4   2  -2  573.55   42.09
   4   2  -2  606.61   46.29
  -4   2   2  545.78   54.12
   4   2  -2  446.00   45.56
   4   2  -1 3617.53  177.25
  -4   2   1 3107.28  173.05
   4   2  -1 3301.90  161.64
   4   2  -1 3382.44  156.30
  -4   2   1 3279.90  157.54
  -4   2   1 3143.81  186.31
  -4   2   0   37.93   11.50
   4   2   0   52.27   16.23
  -4   2   0   18.58   12.99
  -4   2   0   17.26   15.34
   4   2   0   52.47   11.41
   4   2   0   58.26   14.03
  -4   2  -1 1568.02  109.43
  -4   2  -1 1452.63   84.75
   4   2   1 1385.71   82.66
   4   2   1 1318.13   77.21
  -4   2  -2  410.81   44.48
  -4   2  -2  386.63   38.53
   4   2   2  367.36   36.90
  -4   2  -2  427.71   52.10
  -4   2  -2  395.27   52.94
  -4   2  -2  345.21   20.42
  -4   2  -2  375.75   21.38
  -4   2  -2  341.26   45.04
  -4   2  -3  357.53   45.06
  -4   2  -3  420.45   45.45
  -4   2  -3  437.24   41.35
   4   2   3  424.76   41.10
   4   2   3  389.95   22.94
  -4   2  -3  427.60   56.76
  -4   2  -3  426.60   52.89
  -4   2  -3  360.41   21.26
  -4   2  -3  346.94   20.82
  -4   2  -3  361.10   20.67
  -4   2  -4 1413.90   63.31
  -4   2  -4 1452.45  100.43
   4   2   4 1563.59   89.90
  -4   2  -4 1599.71   94.52
   4   2   4 1640.23   95.90
   4   2   4 1523.71   66.78
  -4   2  -4 1614.71  118.33
  -4   2  -4 1454.36  109.53
  -4   2  -4 1417.67   64.56
  -4   2  -4 1355.39   62.39
  -4   2  -4 1430.05   64.21
  -4   2  -4 1403.06   63.75
  -4   2  -5  371.18   45.11
   4   2   5  377.80   38.32
  -4   2  -5  320.72   19.90
  -4   2  -5  378.53   40.53
  -4   2  -5  344.64   21.10
  -4   2  -5  342.42   52.32
  -4   2  -5  379.99   52.87
   4   2   5  316.11   21.96
  -4   2  -5  330.41   19.66
  -4   2  -5  348.61   20.90
  -4   2  -5  329.71   20.40
  -4   2  -6  482.82   26.76
  -4   2  -6  558.62   55.66
   4   2   6  501.62   46.83
  -4   2  -6  466.33   48.90
   4   2   6  446.78   28.79
  -4   2  -6  443.63   58.78
  -4   2  -6  489.66   27.61
  -4   2  -6  477.72   26.13
  -4   2  -6  468.64   27.10
  -4   2  -6  472.36   26.94
   4   2   7  725.42   59.97
  -4   2  -7  753.47   36.77
  -4   2  -7  695.06   62.68
   4   2   7  616.36   55.90
  -4   2  -7  686.98   61.00
   4   2   7  642.99   38.54
  -4   2  -7  545.38   67.94
  -4   2  -7  689.70   36.64
  -4   2  -7  686.73   35.38
  -4   2  -7  728.93   36.96
  -4   2  -7  663.06   34.12
  -4   2  -7  684.06   36.17
  -4   2  -8   23.72    5.49
  -4   2  -8   21.82   11.49
   4   2   8   20.96   11.61
   4   2   8   20.96   10.68
  -4   2  -8   16.63   10.22
  -4   2  -8    8.99   12.34
   4   2   8    9.26    5.31
  -4   2  -8   11.79    4.26
  -4   2  -8   38.70   14.40
  -4   2  -8   22.79    5.32
  -4   2  -8   19.75    5.13
  -4   2  -8   14.07    4.62
  -4   2  -8   12.93    3.97
   4   2   9  501.96   52.13
  -4   2  -9  547.40   57.74
   4   2   9  455.11   50.25
   4   2   9  494.22   56.34
  -4   2  -9  479.06   51.80
   4   2   9  533.83   33.97
  -4   2  -9  403.66   59.45
  -4   2  -9  561.62   31.73
  -4   2  -9  538.45   30.99
  -4   2  -9  550.69   31.32
  -4   2  -9  557.25   29.64
  -4   2  -9  528.68   30.71
  -4   2  -9  558.04   31.11
  -4   2 -10  262.49   38.97
   4   2  10  268.65   37.30
  -4   2 -10  254.74   36.05
   4   2  10  215.68   37.38
   4   2  10  281.04   22.80
  -4   2 -10  293.53   20.34
  -4   2 -10  308.41   20.71
  -4   2 -10  297.18   20.48
  -4   2 -10  290.41   19.20
  -4   2 -10  267.18   19.18
  -4   2 -10  286.21   20.11
  -4   2 -11   27.97   13.76
   4   2  11   14.65   10.19
   4   2  11   10.57    9.69
   4   2  11    7.78    5.24
  -4   2 -11   19.67    5.02
  -4   2 -11   22.19    5.82
  -4   2 -11   26.58    5.54
  -4   2 -11   17.81    5.91
  -4   2 -11   18.52    9.21
  -4   2 -11   15.74    5.24
   4   2  12  508.59   33.38
  -4   2 -12  565.50   30.37
  -4   2 -12  567.94   31.05
  -4   2 -12  524.39   29.41
  -4   2 -12  529.72   29.57
  -4   2 -13  198.72   14.15
   4   2  13  168.31   16.74
  -4   2 -13  200.86   14.45
  -4   2 -13  177.58   13.80
  -4   2 -13  203.46   15.09
  -4   2 -14   33.07    5.30
   4   2  14   15.24    5.65
  -4   2 -14   24.87    4.94
  -4   2 -14   25.11    5.10
  -4   2 -14   24.25    4.93
  -4   2 -15  133.38   10.07
  -4   2 -15  130.72    9.69
  -4   2 -15  126.79    9.41
  -4   2 -16   23.57    3.33
   4   2  16   18.38    3.94
   4   3 -16  100.81    8.43
   4   3 -16   90.66    7.24
   4   3 -15   35.06    5.66
   4   3 -15   35.77    5.01
   4   3 -15   32.45    4.40
   4   3 -14  136.97   10.97
   4   3 -14  134.59   12.26
   4   3 -14  156.78   11.72
   4   3 -14  138.79   10.71
   4   3 -13  251.91   16.78
   4   3 -13  261.23   18.57
   4   3 -13  271.51   17.32
   4   3 -13  221.18   15.58
   4   3 -12   77.27    8.34
   4   3 -12  110.33   10.41
   4   3 -12   79.53    9.24
   4   3 -12   88.71    9.84
   4   3 -12  101.49   11.13
   4   3 -12   93.94    9.86
   4   3 -12   81.15    8.87
   4   3 -11  776.01   39.21
   4   3 -11  822.51   41.15
   4   3 -11  784.30   39.99
   4   3 -11  784.58   38.70
   4   3 -11  813.68   40.84
   4   3 -11  790.85   41.00
   4   3 -11  861.48   42.01
   4   3 -11  808.55   43.12
  -4   3  10   30.19   22.79
   4   3 -10   60.00    7.51
   4   3 -10   52.27   18.06
   4   3 -10   44.45   14.07
   4   3 -10   56.15    8.16
   4   3 -10   56.90    7.65
   4   3 -10   61.66    8.02
   4   3 -10   54.04    7.90
   4   3 -10   52.39    7.76
   4   3 -10   79.41   10.29
   4   3 -10   63.40    8.13
   4   3  -9   45.33   17.75
   4   3  -9   53.71   15.41
  -4   3   9   58.88   28.62
   4   3  -9   57.11    7.85
   4   3  -9   46.44    7.34
   4   3  -9   59.83    9.14
   4   3  -9   55.83    7.69
   4   3  -9   46.29    7.24
   4   3  -8  505.90   58.11
   4   3  -8  510.33   48.67
   4   3  -8  453.94   45.82
  -4   3   8  471.50   77.45
   4   3  -8  516.79   29.49
   4   3  -8  519.36   29.75
   4   3  -8  558.01   31.95
   4   3  -8  515.43   29.28
  -4   3   7  145.88   40.80
   4   3  -7   95.36   25.27
   4   3  -7   93.96   19.56
  -4   3   7  135.49   29.40
   4   3  -7   52.87   15.29
   4   3  -7   74.44    8.85
   4   3  -7   81.15   10.50
   4   3  -7   91.15    9.73
   4   3  -7  102.46   10.03
  -4   3   6 1101.00  111.39
   4   3  -6  961.07   84.24
   4   3  -6 1027.31   71.50
   4   3  -6  910.76   69.44
  -4   3   6  936.94   81.92
   4   3  -6  997.34   48.39
   4   3  -6 1022.59   48.78
   4   3  -6 1008.69   48.62
  -4   3   5  491.61   72.51
   4   3  -5  609.87   64.32
   4   3  -5  622.47   32.85
   4   3  -5  653.55   33.57
   4   3  -5  612.52   32.90
   4   3  -5  610.14   51.33
   4   3  -5  599.42   51.10
  -4   3   5  612.11   63.42
  -4   3   4  384.47   60.76
   4   3  -4  388.81   39.09
   4   3  -4  386.39   39.48
  -4   3   4  337.20   45.97
   4   3  -4  389.59   23.12
   4   3  -4  391.89   23.26
   4   3  -3  118.33   27.52
   4   3  -3  180.18   24.78
   4   3  -3  135.45   23.10
  -4   3   3  134.97   29.16
  -4   3   3   92.20   30.23
   4   3  -2  290.81   42.14
  -4   3   2  263.78   46.57
   4   3  -2  306.31   34.44
  -4   3   2  281.76   42.23
  -4   3   2  281.02   30.57
   4   3  -2  288.49   32.47
  -4   3   2  269.09   46.71
   4   3  -1  569.46   58.53
  -4   3   1  488.23   63.21
  -4   3   1  553.02   59.61
  -4   3   1  502.76   44.82
   4   3  -1  551.35   46.88
   4   3  -1  590.57   49.36
  -4   3   1  509.63   62.90
   4   3   0 1132.87   87.44
  -4   3   0 1099.08   98.70
  -4   3   0 1166.71   76.60
  -4   3   0 1203.52   91.92
   4   3   0 1153.99   77.45
   4   3   0 1188.49   75.84
  -4   3   0  920.03   87.41
   4   3   1  570.30   56.31
  -4   3  -1  539.09   65.18
  -4   3  -1  503.62   48.20
  -4   3  -1  531.80   57.87
   4   3   1  527.37   48.67
   4   3   1  598.70   48.92
  -4   3  -1  438.88   54.95
   4   3   2  511.14   51.86
  -4   3  -2  414.36   58.13
  -4   3  -2  492.99   66.51
  -4   3  -2  359.51   41.76
   4   3   2  404.03   42.82
   4   3   2  510.37   45.30
  -4   3  -2  392.72   23.34
  -4   3  -2  397.26   49.62
   4   3   2  495.73   46.11
   4   3   3  297.52   36.33
  -4   3  -3  278.15   48.21
  -4   3  -3  406.44   61.17
  -4   3  -3  322.04   38.98
   4   3   3  343.17   39.98
  -4   3  -3  314.48   20.04
  -4   3  -3  329.66   19.97
  -4   3  -4  233.17   16.16
   4   3   4  215.90   31.86
  -4   3  -4  235.02   34.50
   4   3   4  177.21   29.85
  -4   3  -4  246.02   47.65
  -4   3  -4  293.82   49.59
  -4   3  -4  255.57   17.27
  -4   3  -4  239.02   16.65
  -4   3  -5 1349.70   61.11
   4   3   5 1348.09   90.48
  -4   3  -5 1402.18   95.27
   4   3   5 1222.17   91.07
  -4   3  -5 1386.88  120.52
  -4   3  -5 1284.13   62.02
  -4   3  -5 1345.97   61.98
  -4   3  -5 1303.30   59.85
  -4   3  -5 1314.49   61.29
  -4   3  -6  680.65   36.47
   4   3   6  767.99   64.08
  -4   3  -6  718.41   65.55
   4   3   6  636.31   63.19
  -4   3  -6  613.64   79.96
  -4   3  -6  737.57   38.28
  -4   3  -6  750.63   38.09
  -4   3  -6  649.75   35.43
  -4   3  -6  714.88   37.19
  -4   3  -7   68.98    8.82
   4   3   7   67.38   18.72
   4   3   7   79.12   20.60
   4   3   7   45.70   17.64
  -4   3  -7   66.77   27.41
  -4   3  -7   55.92    8.52
  -4   3  -7   59.97    8.17
  -4   3  -7   80.60    9.79
  -4   3  -7   63.88    8.65
  -4   3  -8   36.06    6.84
   4   3   8   43.18   15.05
   4   3   8   25.06   12.82
   4   3   8   30.63   16.23
  -4   3  -8   38.89   21.59
  -4   3  -8   41.19    7.55
  -4   3  -8   41.02    6.77
  -4   3  -8   29.82    6.44
  -4   3  -8   34.64    5.80
  -4   3  -8   40.70    7.18
  -4   3  -9  175.20   14.77
   4   3   9  142.26   28.04
   4   3   9  152.56   29.52
   4   3   9  156.89   31.36
  -4   3  -9  190.50   15.93
  -4   3  -9  139.95   27.58
  -4   3  -9  151.86   38.87
  -4   3  -9  187.05   13.94
  -4   3  -9  201.11   15.93
  -4   3  -9  184.42   14.69
  -4   3  -9  194.01   15.78
  -4   3 -10  111.22   11.93
  -4   3 -10  117.38   10.77
  -4   3 -10  107.83   11.43
  -4   3 -10  124.35   12.28
  -4   3 -10  135.65   12.05
  -4   3 -10  136.46   12.73
  -4   3 -10  112.46   12.10
  -4   3 -11  899.68   46.38
  -4   3 -11  887.22   44.34
  -4   3 -11  969.34   46.85
  -4   3 -11  981.60   47.17
  -4   3 -11  957.88   46.92
  -4   3 -12  137.97   11.91
  -4   3 -12  114.23   10.88
  -4   3 -12  119.81   11.29
  -4   3 -12  113.13   10.21
  -4   3 -12  133.69   11.83
  -4   3 -13   20.04    4.42
  -4   3 -13   20.73    4.12
  -4   3 -13   12.80    3.23
  -4   3 -14   37.11    5.29
  -4   3 -14   26.40    4.18
  -4   3 -15   10.09    2.33
  -4   3 -15   13.62    3.05
   4   4 -15   10.75    2.58
   4   4 -14  176.40   12.07
   4   4 -13  151.14   10.82
   4   4 -13  145.92   10.98
   4   4 -13  158.32   12.17
   4   4 -12  166.01   12.37
   4   4 -12  181.78   13.02
   4   4 -12  175.90   13.77
   4   4 -12  158.82   11.79
   4   4 -11  262.45   17.33
   4   4 -11  253.15   16.71
   4   4 -11  235.21   15.60
   4   4 -11  231.14   16.57
   4   4 -11  265.48   17.46
   4   4 -11  256.30   18.23
   4   4 -11  244.59   16.16
   4   4 -10  166.62   13.54
   4   4 -10  149.38   12.66
   4   4 -10  167.77   13.42
   4   4 -10  143.33   12.72
   4   4 -10  163.56   14.26
   4   4 -10  133.35   11.85
   4   4  -9  308.69   20.17
   4   4  -9  311.70   20.69
   4   4  -9  319.91   20.82
   4   4  -9  304.04   21.41
   4   4  -9  293.33   19.22
   4   4  -9  297.64   20.14
   4   4  -8  486.36   27.74
   4   4  -8  471.08   28.50
   4   4  -8  425.81   25.78
  -4   4   7  214.78   51.21
   4   4  -7  247.28   18.94
   4   4  -7  254.41   17.69
   4   4  -7  243.47   41.95
  -4   4   6  171.52   44.89
   4   4  -6  211.52   39.83
   4   4  -6  180.62   14.04
   4   4  -6  176.53   15.50
   4   4  -6  183.17   14.65
   4   4  -6  191.06   14.54
  -4   4   5  252.99   52.27
   4   4  -5  198.62   29.22
  -4   4   5  180.38   36.06
   4   4  -5  239.27   17.19
   4   4  -5  279.32   19.61
   4   4  -5  269.28   18.48
   4   4  -5  260.66   17.77
  -4   4   4   74.54   28.30
   4   4  -4   72.26   22.93
  -4   4   4  100.47   26.72
   4   4  -4   65.42   16.42
   4   4  -4   84.16    9.32
   4   4  -4   74.77    8.78
  -4   4   3 1675.83  142.78
   4   4  -3 1950.13  113.82
  -4   4   3 2187.05  142.14
   4   4  -3 2029.69   87.95
   4   4  -3 1962.27   87.51
   4   4  -3 2027.70  139.71
   4   4  -2  462.30   58.46
   4   4  -2  414.98   44.60
   4   4  -1  645.81   68.81
   4   4  -1  589.08   53.73
  -4   4   1  754.30   76.67
  -4   4   0   25.22   11.25
  -4   4   0   39.91   24.52
   4   4   0   53.26   19.85
   4   4   0   59.63   16.48
  -4   4   0   33.71   17.21
   4   4   1  532.24   59.62
  -4   4  -1  441.24   73.68
  -4   4  -1  409.63   46.93
  -4   4  -1  528.58   63.05
   4   4   1  482.41   48.60
  -4   4  -2  366.11   65.04
   4   4   2  371.35   48.24
  -4   4  -2  305.56   40.56
  -4   4  -2  383.52   55.04
   4   4   2  346.52   41.49
  -4   4  -2  330.16   21.27
   4   4   2  421.36   46.90
   4   4   3  481.17   51.75
  -4   4  -3  487.94   75.38
  -4   4  -3  556.97   55.89
   4   4   3  414.63   47.77
   4   4   3  413.47   46.77
  -4   4  -3  487.58   27.58
  -4   4  -3  455.63   26.49
  -4   4  -4  343.07   21.26
   4   4   4  317.54   42.47
  -4   4  -4  349.49   44.85
   4   4   4  236.34   36.25
   4   4   4  276.09   38.45
  -4   4  -4  389.53   66.50
  -4   4  -4  350.50   22.41
  -4   4  -4  361.35   22.08
  -4   4  -5  179.80   14.07
   4   4   5  152.18   28.57
   4   4   5  145.04   27.12
   4   4   5  133.37   27.03
  -4   4  -5  148.14   42.27
  -4   4  -5  162.67   30.51
  -4   4  -5  147.29   13.86
  -4   4  -5  168.04   14.16
  -4   4  -6  371.74   22.83
   4   4   6  334.29   43.40
  -4   4  -6  291.78   42.18
   4   4   6  312.08   42.84
  -4   4  -6  370.16   23.91
  -4   4  -6  292.79   58.00
  -4   4  -6  361.05   23.47
  -4   4  -6  332.26   21.29
  -4   4  -6  397.92   23.86
  -4   4  -7  189.06   15.20
  -4   4  -7  177.85   14.28
  -4   4  -7  202.20   16.23
  -4   4  -7  197.02   15.77
  -4   4  -7  209.59   16.79
  -4   4  -8  613.87   33.22
  -4   4  -8  584.46   31.88
  -4   4  -8  609.88   33.83
  -4   4  -8  604.02   33.26
  -4   4  -8  617.51   34.22
  -4   4  -9  174.28   14.26
  -4   4  -9  188.34   15.40
  -4   4  -9  197.27   15.16
  -4   4  -9  186.14   14.12
  -4   4  -9  190.99   15.23
  -4   4  -9  174.06   15.14
  -4   4 -10  224.93   16.81
  -4   4 -10  256.44   17.84
  -4   4 -10  216.19   16.25
  -4   4 -10  236.63   16.57
  -4   4 -10  248.06   17.23
  -4   4 -10  227.82   16.99
  -4   4 -11   29.88    5.78
  -4   4 -11   36.87    6.14
  -4   4 -11   30.92    5.77
  -4   4 -12  114.75    9.78
  -4   4 -12  106.54    9.51
  -4   4 -12  124.55    9.99
  -4   4 -12  117.94    9.97
  -4   4 -12  116.63    9.97
  -4   4 -13  114.49    8.67
  -4   4 -13   95.98    8.13
  -4   4 -14  142.21    8.97
  -4   4 -14  139.64    8.91
   4   5 -12    3.74    1.94
   4   5 -12    5.46    2.15
   4   5 -11    7.68    2.75
   4   5 -11    7.33    2.78
   4   5 -11    5.72    2.28
   4   5 -11    5.40    2.44
   4   5 -11    5.52    2.62
   4   5 -10  415.25   22.30
   4   5 -10  462.92   23.31
   4   5 -10  455.26   23.20
   4   5 -10  414.94   22.01
   4   5 -10  419.62   22.90
   4   5 -10  419.10   22.55
   4   5 -10  357.15   21.25
   4   5  -9  282.92   17.31
   4   5  -9  261.16   16.90
   4   5  -9  274.90   17.28
   4   5  -9  256.25   16.60
   4   5  -9  275.67   16.93
   4   5  -9  225.98   15.58
   4   5  -8  130.21   11.21
   4   5  -8  140.70   11.66
   4   5  -8  124.13   10.84
   4   5  -8   99.42    8.98
   4   5  -7  157.80   12.84
   4   5  -7  157.49   12.68
   4   5  -7  126.55   10.79
   4   5  -6  127.06   11.49
   4   5  -6  109.21   10.21
   4   5  -5   38.89    6.20
   4   5  -4  555.32   30.34
   4   5  -3  151.27   12.95
   4   5  -2  236.37   16.25
   4   5  -1   40.77    6.45
   4   5   0    4.69    2.76
  -4   5  -2  217.35   16.01
  -4   5  -3   51.03    7.24
  -4   5  -3   43.54    7.17
  -4   5  -4  194.36   15.15
  -4   5  -4  198.94   14.62
  -4   5  -4  195.76   15.75
  -4   5  -5   13.53    3.85
  -4   5  -5    6.36    3.65
  -4   5  -5   14.89    4.35
  -4   5  -5   12.00    4.67
  -4   5  -6   51.52    6.81
  -4   5  -6   52.44    7.53
  -4   5  -6   50.15    7.70
  -4   5  -6   55.70    7.35
  -4   5  -6   44.36    7.31
  -4   5  -7  540.15   28.28
  -4   5  -7  531.70   29.26
  -4   5  -7  536.56   29.98
  -4   5  -7  552.61   28.99
  -4   5  -7  530.67   29.64
  -4   5  -8    5.53    3.04
  -4   5  -8    9.40    3.99
  -4   5  -8    8.71    3.78
  -4   5  -8   10.22    3.74
  -4   5  -8    9.65    4.16
  -4   5  -9  347.84   20.08
  -4   5  -9  340.02   20.37
  -4   5  -9  325.99   19.39
  -4   5  -9  357.97   20.48
  -4   5 -10   97.47    8.35
  -4   5 -10   83.94    8.18
  -4   5 -10   87.00    7.80
  -4   5 -10   89.22    8.23
  -4   5 -10   80.18    8.18
  -4   5 -11   29.09    4.24
  -4   5 -11   28.54    4.11
  -4   5 -11   35.18    4.40
  -4   5 -11   27.21    4.08
  -4   5 -11   29.80    4.27
   4   6  -9   71.04    5.87
   4   6  -9   68.60    5.71
   4   6  -9   71.17    5.70
   4   6  -8  155.24    9.92
   4   6  -8  163.26   10.27
   4   6  -8  138.26    9.62
   4   6  -8  142.66    9.36
   4   6  -8  139.52    9.59
   4   6  -7   99.01    7.83
   4   6  -7   70.07    6.24
   4   6  -7   94.93    7.81
   4   6  -7   75.47    6.87
   4   6  -6   17.20    3.77
   4   6  -6   18.84    3.77
   4   6  -6   15.38    3.13
   4   6  -6   19.68    3.78
   4   6  -5  121.08   10.01
   4   6  -5  112.39    8.98
   4   6  -5  130.48    9.82
   4   6  -4   21.83    4.06
   4   6  -3  244.77   15.33
   4   6  -2  136.15   10.08
   4   6  -1  104.56    8.96
   4   6   0   11.88    3.25
  -4   6  -2  161.29   12.10
  -4   6  -3  237.44   15.31
  -4   6  -3  205.75   13.67
  -4   6  -4  182.88   12.43
  -4   6  -5   49.47    5.44
  -4   6  -5   56.63    6.23
  -4   6  -5   59.08    6.88
  -4   6  -6   23.47    4.30
  -4   6  -6   10.36    2.72
  -4   6  -6   13.36    2.79
  -4   6  -6   21.19    3.72
  -4   6  -7   76.57    6.48
  -4   6  -7   75.32    6.99
  -4   6  -8  116.44    8.46
   5  -6  -7   21.31    4.84
  -5  -6   6  124.93    7.94
   5  -6  -6  154.45   12.80
  -5  -6   5   15.44    2.69
  -5  -6   4   91.37   10.33
  -5  -6   4   66.99    5.78
  -5  -6   3   57.28    5.39
  -5  -6   3   70.92    9.25
  -5  -6   3   72.42    7.22
  -5  -6   2  332.19   22.02
  -5  -6   2  337.16   19.03
  -5  -6   1   48.16    6.00
  -5  -6   0   74.10    8.61
  -5  -6   0   87.46    8.02
  -5  -6  -1   42.36    6.36
  -5  -6  -1   40.57    5.42
  -5  -6  -2    0.77    2.66
   5  -6   2   14.40    4.69
   5  -6   3  142.06   12.91
   5  -6   4   70.95    8.59
   5  -6   5   30.49    5.55
   5  -5 -12   26.63    4.23
   5  -5 -11   10.86    4.11
  -5  -5  11    9.87    4.37
   5  -5 -11    7.96    4.06
  -5  -5  10   39.22    8.18
   5  -5 -10   44.12    7.79
  -5  -5   9  484.08   29.02
   5  -5  -9  507.36   31.36
  -5  -5   8   64.62   10.21
   5  -5  -8   85.02   12.16
  -5  -5   7   87.77   12.23
   5  -5  -7   81.90   12.55
  -5  -5   6   11.72    7.17
   5  -5  -6    2.94    5.64
   5  -5  -5   32.00    8.62
   5  -5  -5   14.31    7.46
  -5  -5   5   16.76    5.81
  -5  -5   5   23.09    8.55
   5  -5  -4  598.97   38.59
  -5  -5   4  549.23   29.38
   5  -5  -4  573.80   37.53
  -5  -5   4  543.18   32.80
   5  -5  -3  547.83   37.58
  -5  -5   3  548.53   28.87
  -5  -5   3  544.46   32.84
  -5  -5   3  533.12   36.45
   5  -5  -3  545.58   37.16
   5  -5  -2   29.59    9.82
  -5  -5   2   37.40    6.03
  -5  -5   2   56.80    8.85
   5  -5  -2   49.07   11.23
  -5  -5   2   39.80    8.84
  -5  -5   2   41.64   10.34
   5  -5  -1  319.97   28.23
  -5  -5   1  287.85   18.72
  -5  -5   1  320.84   23.64
  -5  -5   1  348.67   26.91
   5  -5  -1  356.17   27.58
  -5  -5   1  370.19   23.34
   5  -5  -1  318.37   26.76
   5  -5   0   16.73    8.94
  -5  -5   0   17.25    5.36
  -5  -5   0   24.54    8.54
   5  -5   0   17.59    7.65
  -5  -5  -1   37.35    7.36
  -5  -5  -1   30.75    6.02
  -5  -5  -1   31.38    7.60
  -5  -5  -1   42.88    9.32
   5  -5   1   25.90    8.72
  -5  -5  -2  542.15   31.57
  -5  -5  -2  590.58   31.03
   5  -5   2  543.30   39.03
  -5  -5  -2  520.80   32.42
   5  -5   3  154.72   19.44
  -5  -5  -3  176.19   15.76
  -5  -5  -3  176.20   14.21
  -5  -5  -3  177.60   15.09
   5  -5   4  228.26   22.68
  -5  -5  -4  224.74   17.52
  -5  -5  -4  220.59   17.02
  -5  -5  -4  243.64   16.81
  -5  -5  -5  103.61   10.92
  -5  -5  -5  114.60   10.90
   5  -5   6    5.29    5.63
  -5  -5  -6    9.32    3.93
   5  -5   7  190.19   17.83
  -5  -5  -7  197.85   13.92
   5  -5   8  236.78   19.15
  -5  -5  -8  244.56   15.40
   5  -5   9    4.10    3.87
   5  -5  10   92.89    9.37
   5  -4 -14   47.14    6.41
   5  -4 -13  119.54   11.98
  -5  -4  13  102.15   11.31
   5  -4 -12  160.80   15.52
   5  -4 -12  144.04   13.11
  -5  -4  11   78.12    9.90
   5  -4 -11   97.02   11.67
   5  -4 -10  200.29   20.32
  -5  -4  10  232.64   18.84
   5  -4 -10  233.57   19.04
   5  -4 -10  165.08   14.96
   5  -4  -9   34.48    9.84
  -5  -4   9   38.89    9.29
   5  -4  -9   29.39    7.92
   5  -4  -9   13.43    5.23
   5  -4  -8  628.08   40.59
  -5  -4   8  616.45   37.83
   5  -4  -8  606.68   37.02
   5  -4  -7  125.91   17.44
   5  -4  -7  134.12   16.20
  -5  -4   7   93.12   11.61
   5  -4  -7  124.63   15.63
   5  -4  -7  113.96   13.27
   5  -4  -6  392.85   29.61
   5  -4  -6  406.27   31.31
  -5  -4   6  322.61   23.40
   5  -4  -6  290.74   24.03
   5  -4  -5  113.80   17.03
   5  -4  -5  115.69   16.66
   5  -4  -5   85.43   12.55
  -5  -4   4   84.88   25.29
   5  -4  -4  116.42   17.29
   5  -4  -4  117.44   16.83
  -5  -4   4   98.15   12.65
   5  -4  -4  109.09   15.99
   5  -4  -4   98.19   13.34
  -5  -4   3   94.99   27.44
   5  -4  -3  105.17   16.11
   5  -4  -3  100.70   16.31
  -5  -4   3  112.10   13.35
   5  -4  -3   94.76   14.98
   5  -4  -3   79.26   12.16
   5  -4  -2  359.71   29.88
  -5  -4   2  292.74   50.29
   5  -4  -2  389.81   32.45
   5  -4  -2  409.84   32.29
   5  -4  -1  119.42   17.12
  -5  -4   1  116.51   32.54
   5  -4  -1  158.42   19.18
   5  -4  -1  164.65   20.48
  -5  -4   0  162.85   38.64
   5  -4   0  123.72   16.81
   5  -4   0  140.28   18.18
  -5  -4  -1  308.09   52.67
   5  -4   1  318.70   28.47
  -5  -4  -1  405.06   26.03
   5  -4   1  375.84   30.64
   5  -4   1  406.29   33.11
  -5  -4  -2   24.54    6.68
   5  -4   2   21.62    9.13
   5  -4   2   21.08    9.87
  -5  -4  -3  646.82   77.64
  -5  -4  -3  713.75   40.38
   5  -4   3  771.32   48.08
   5  -4   3  770.96   49.62
  -5  -4  -4  294.70   23.11
  -5  -4  -4  385.46   24.85
   5  -4   4  383.94   30.99
   5  -4   4  383.89   31.63
  -5  -4  -5  191.17   16.34
   5  -4   5  193.82   22.04
  -5  -4  -5  160.21   15.51
   5  -4   5  155.30   19.71
   5  -4   5  176.14   20.90
  -5  -4  -6   17.96    5.57
   5  -4   6   14.52    8.29
   5  -4   6   22.40    8.58
   5  -4   6    9.34    6.89
  -5  -4  -7  176.52   15.28
   5  -4   7  145.96   18.43
   5  -4   7  130.33   17.57
  -5  -4  -8  262.12   18.21
  -5  -4  -8  234.13   17.97
   5  -4   8  201.75   21.42
   5  -4   9  197.19   19.90
  -5  -4  -9  184.44   16.30
  -5  -4 -10  141.40   11.96
   5  -4  10  156.70   16.10
  -5  -4 -10  138.81   12.92
  -5  -4 -11   18.74    4.29
   5  -4  11   21.03    6.27
  -5  -4 -12   12.39    3.20
   5  -4  12    9.43    3.78
  -5  -4 -13   55.76    4.88
   5  -3 -16  143.75    9.64
   5  -3 -16  132.30   10.12
   5  -3 -15   36.21    6.74
   5  -3 -15   27.01    5.43
   5  -3 -14   58.28    9.68
   5  -3 -14   69.30    9.10
   5  -3 -13  303.97   23.79
   5  -3 -13  333.83   20.09
   5  -3 -13  313.37   22.36
   5  -3 -12  209.52   20.44
   5  -3 -12  212.89   16.38
   5  -3 -12  179.44   16.03
   5  -3 -12  219.48   19.30
   5  -3 -12  226.10   19.33
   5  -3 -11  573.80   38.72
   5  -3 -11  596.08   33.01
   5  -3 -11  523.18   33.37
   5  -3 -11  574.34   36.18
   5  -3 -10  404.86   31.64
   5  -3 -10  362.23   26.81
  -5  -3  10  392.74   27.97
   5  -3 -10  404.71   25.92
  -5  -3  10  393.82   27.63
   5  -3 -10  401.11   29.42
   5  -3  -9  182.26   20.24
   5  -3  -9  139.77   15.71
   5  -3  -9  161.89   15.18
  -5  -3   9  170.52   17.04
  -5  -3   8  164.78   27.43
  -5  -3   8  158.23   16.58
   5  -3  -8  172.90   20.17
   5  -3  -8  178.41   17.62
  -5  -3   8  137.68   39.68
  -5  -3   7  222.39   32.51
  -5  -3   7  284.50   20.61
  -5  -3   7  240.28   21.47
   5  -3  -7  324.02   27.02
  -5  -3   7  265.20   55.10
   5  -3  -7  311.28   23.92
  -5  -3   6  124.45   29.93
  -5  -3   6  128.73   23.29
   5  -3  -6  131.70   16.03
  -5  -3   6  126.46   14.35
   5  -3  -6  122.16   14.43
   5  -3  -6   95.35   15.15
  -5  -3   6  134.10   13.36
  -5  -3   5  871.64   44.42
  -5  -3   5  790.86   45.00
  -5  -3   5  754.70   60.13
  -5  -3   5  930.50   86.33
   5  -3  -5  754.84   48.21
   5  -3  -5  833.05   48.72
   5  -3  -4  587.65   40.02
  -5  -3   4  533.09   34.14
  -5  -3   4  585.96   69.24
   5  -3  -4  580.37   37.91
   5  -3  -4  598.58   39.69
   5  -3  -3  137.07   17.37
  -5  -3   3  121.88   13.56
  -5  -3   3  159.12   35.64
   5  -3  -3  119.35   13.91
   5  -3  -3  146.44   16.69
   5  -3  -3  139.97   17.05
   5  -3  -2  859.83   50.53
  -5  -3   2  797.84   44.15
  -5  -3   2  913.01   88.27
  -5  -3   2  840.12   44.88
   5  -3  -2  695.88   43.78
   5  -3  -2  937.36   51.12
   5  -3  -1  123.16   15.30
   5  -3  -1  112.73   15.52
  -5  -3   1   75.26   10.33
  -5  -3   1   69.88   25.13
  -5  -3   1   64.63   10.01
   5  -3  -1   98.77   14.87
   5  -3  -1   91.19   11.89
   5  -3   0 1219.58   64.74
  -5  -3   0 1206.72   58.20
  -5  -3   0 1277.77  106.77
   5  -3   0 1214.82   63.88
   5  -3   0  962.52   56.91
   5  -3   0 1187.51   61.86
   5  -3   1 1169.95   63.25
   5  -3   1 1338.97   66.24
  -5  -3  -1 1185.62   56.70
   5  -3   1 1350.95  103.14
   5  -3   1 1133.15   61.91
   5  -3   1 1076.66   59.15
   5  -3   2   33.88    8.99
  -5  -3  -2   53.16    8.50
   5  -3   2   48.66   11.23
  -5  -3  -2   70.54   24.54
  -5  -3  -2   44.10    8.36
   5  -3   2   51.07   20.30
   5  -3   2   47.73   10.96
  -5  -3  -3    7.45    4.10
   5  -3   3   11.85    8.10
  -5  -3  -3   14.08   15.24
  -5  -3  -3   11.74    5.49
   5  -3   3   26.85    9.60
   5  -3   3   22.40   15.55
   5  -3   3   10.22    7.89
  -5  -3  -4  179.30   15.68
   5  -3   4  182.03   20.77
  -5  -3  -4  153.58   36.27
  -5  -3  -4  156.72   15.27
   5  -3   4  178.95   20.55
   5  -3   4  184.96   20.43
   5  -3   4  132.59   35.49
  -5  -3  -5  168.50   15.80
   5  -3   5  167.40   19.79
  -5  -3  -5  187.57   39.07
  -5  -3  -5  203.82   16.88
   5  -3   5  178.29   20.74
   5  -3   5  147.46   19.13
   5  -3   5  175.13   39.41
  -5  -3  -6 1666.17   73.15
   5  -3   6 1439.06   78.17
  -5  -3  -6 1268.69  111.86
  -5  -3  -6 1622.05   72.41
   5  -3   6 1339.95  121.71
   5  -3   6 1461.90   78.86
  -5  -3  -6 1418.03   71.19
  -5  -3  -7  268.45   19.77
   5  -3   7  201.00   21.60
  -5  -3  -7  232.21   17.74
   5  -3   7  182.97   21.19
   5  -3   7  162.21   40.17
  -5  -3  -7  215.02   39.65
   5  -3   8  103.38   15.31
  -5  -3  -8  124.44   12.12
  -5  -3  -8  131.57   13.54
  -5  -3  -9    6.09    4.32
  -5  -3 -10   27.05    6.85
  -5  -3 -10   27.98    6.66
  -5  -3 -11  316.19   21.18
   5  -3  12  258.69   21.34
  -5  -3 -12  350.13   22.69
   5  -3  13   10.09    4.19
  -5  -3 -14    9.05    2.91
  -5  -3 -15    6.83    2.14
   5  -2 -17  213.31   13.78
   5  -2 -16   13.22    4.71
   5  -2 -15  100.53    9.84
   5  -2 -15  103.11   11.55
   5  -2 -15   94.66   11.95
   5  -2 -14   95.70   10.40
   5  -2 -14   92.73   11.91
   5  -2 -14   85.71   12.67
   5  -2 -14   86.48   12.01
   5  -2 -13   12.43    6.28
   5  -2 -13   15.83    5.52
   5  -2 -13   13.14    6.59
   5  -2 -13   13.02    5.97
   5  -2 -13   23.41    7.56
   5  -2 -12  834.93   47.87
   5  -2 -12  746.15   39.16
   5  -2 -12  823.68   49.32
   5  -2 -12  832.25   46.34
   5  -2 -12  889.19   49.73
   5  -2 -11  299.94   25.17
   5  -2 -11  304.79   24.49
   5  -2 -11  287.69   25.27
   5  -2 -11  277.64   18.40
   5  -2 -11  279.00   25.53
   5  -2 -10  248.19   40.50
   5  -2 -10  385.99   28.63
   5  -2 -10  354.91   27.10
   5  -2 -10  313.77   27.17
  -5  -2  10  263.73   51.35
   5  -2 -10  327.05   20.26
  -5  -2  10  240.50   47.46
   5  -2 -10  345.18   28.61
   5  -2  -9  159.41   31.56
   5  -2  -9  167.98   18.46
   5  -2  -9  147.65   16.95
   5  -2  -9  160.39   18.46
  -5  -2   9  173.45   41.01
   5  -2  -9  135.73   11.71
  -5  -2   9  104.87   32.92
   5  -2  -9  154.79   18.52
   5  -2  -8  108.53   28.17
   5  -2  -8  172.69   18.27
   5  -2  -8  144.56   17.18
   5  -2  -8  158.54   18.06
  -5  -2   8  134.13   37.15
   5  -2  -8  170.05   15.08
   5  -2  -8  152.11   12.07
  -5  -2   8  148.59   35.32
   5  -2  -8  173.62   19.17
   5  -2  -7  324.09   22.62
   5  -2  -7  312.26   25.99
  -5  -2   7  341.06   53.04
   5  -2  -7  341.27   27.48
   5  -2  -7  380.62   27.98
   5  -2  -7  278.18   41.80
  -5  -2   6 1642.52   95.82
  -5  -2   6 1792.72  125.03
   5  -2  -6 1626.19   74.22
  -5  -2   6 1448.46   77.59
   5  -2  -6 1703.47   80.29
  -5  -2   6 1693.33  124.46
   5  -2  -6 1580.11   79.48
   5  -2  -6 1576.30   79.03
   5  -2  -6 1572.48  110.66
  -5  -2   5   52.68   18.70
  -5  -2   5   58.36   13.86
  -5  -2   5   78.31   24.16
   5  -2  -5   83.02    9.76
  -5  -2   5   59.63   10.29
   5  -2  -5   77.55   21.14
   5  -2  -5   77.28   11.53
  -5  -2   5   24.40   15.20
   5  -2  -5   80.08   11.93
  -5  -2   4  777.86   74.16
   5  -2  -4  717.32   41.57
  -5  -2   4  678.44   67.16
  -5  -2   4  723.71   71.08
   5  -2  -4  735.87   37.97
  -5  -2   4  635.07   40.29
  -5  -2   4  690.74   37.85
   5  -2  -4  706.73   41.73
   5  -2  -4  791.79   44.76
   5  -2  -4  696.53   65.06
  -5  -2   3   29.71   16.43
  -5  -2   3   14.08   10.58
  -5  -2   3   10.30   10.32
   5  -2  -3   10.55    4.16
  -5  -2   3    7.89    4.66
   5  -2  -3    9.32    5.72
  -5  -2   3    7.80    3.91
   5  -2  -3    9.19    8.41
   5  -2  -3    9.87    5.72
   5  -2  -3    8.45    5.99
  -5  -2   2  325.39   44.66
  -5  -2   2  238.90   37.27
   5  -2  -2  282.53   18.87
   5  -2  -2  250.56   22.27
  -5  -2   2  255.51   20.76
  -5  -2   2  263.92   19.17
   5  -2  -2  252.13   21.18
   5  -2  -2  303.72   23.72
   5  -2  -2  247.88   19.67
   5  -2  -2  260.03   38.32
  -5  -2   1 2014.22  127.85
  -5  -2   1 1870.35  116.26
   5  -2  -1 1845.23   79.47
   5  -2  -1 1884.71   86.38
  -5  -2   1 1714.99   82.35
  -5  -2   1 1845.89   81.12
   5  -2  -1 1521.28   79.74
   5  -2  -1 1840.48   85.91
   5  -2  -1 1555.21  109.32
  -5  -2   0 1304.48   99.54
  -5  -2   0 1153.48   82.92
   5  -2   0 1176.66   54.94
   5  -2   0 1254.05   61.78
  -5  -2   0 1102.04   57.55
  -5  -2   0 1237.13   56.82
   5  -2   0  986.35   54.98
   5  -2   0 1317.21   98.66
   5  -2   0 1106.09   59.78
  -5  -2  -1  426.92   27.66
  -5  -2  -1  419.79   54.73
  -5  -2  -1  487.91   46.53
   5  -2   1  501.40   32.71
  -5  -2  -1  436.80   28.83
   5  -2   1  424.02   55.08
   5  -2   1  513.13   32.39
   5  -2   1  374.33   26.47
  -5  -2  -1  478.69   28.36
   5  -2   1  442.75   26.46
   5  -2   2  249.90   17.89
  -5  -2  -2  279.57   44.96
  -5  -2  -2  262.09   43.58
  -5  -2  -2  233.36   19.34
   5  -2   2  274.80   44.22
   5  -2   2  207.77   17.68
   5  -2   2  233.34   21.12
  -5  -2  -2  235.18   17.25
  -5  -2  -2  223.58   18.46
  -5  -2  -3  149.95   13.26
  -5  -2  -3  135.31   14.32
   5  -2   3  159.86   14.21
  -5  -2  -3  147.16   32.64
  -5  -2  -3  158.92   15.65
  -5  -2  -3  143.28   13.54
   5  -2   3  167.30   17.77
   5  -2   3  161.06   36.30
  -5  -2  -4  280.36   19.74
  -5  -2  -4  274.07   21.35
   5  -2   4  272.46   20.04
  -5  -2  -4  310.18   46.88
   5  -2   4  291.36   24.51
  -5  -2  -4  296.97   20.38
  -5  -2  -4  291.10   19.37
   5  -2   4  233.09   22.62
   5  -2   4  226.32   43.76
  -5  -2  -5 1000.88   53.03
   5  -2   5 1155.24   55.54
  -5  -2  -5 1020.36   91.26
   5  -2   5 1150.51   60.12
  -5  -2  -5 1128.87   54.06
  -5  -2  -5 1122.21   53.49
   5  -2   5 1045.22  100.98
   5  -2   5 1020.95   59.01
   5  -2   6  136.20   14.08
  -5  -2  -6  107.19   27.64
  -5  -2  -6  115.10   25.31
   5  -2   6  153.14   17.19
  -5  -2  -6  158.28   13.85
  -5  -2  -6  145.04   13.70
   5  -2   6  111.76   15.36
  -5  -2  -7  306.31   42.77
  -5  -2  -7  361.95   24.05
  -5  -2  -7  402.67   25.24
   5  -2   7  378.88   25.99
  -5  -2  -8  325.35   22.35
  -5  -2  -8  318.56   22.41
   5  -2   8  333.12   24.18
  -5  -2  -9  133.97   14.09
  -5  -2  -9  165.77   31.09
  -5  -2  -9  181.92   15.47
   5  -2   9  174.01   43.38
   5  -2   9  183.35   17.03
   5  -2  10  571.86   35.13
  -5  -2 -10  577.43   33.62
  -5  -2 -10  591.02   33.34
   5  -2  11  233.83   19.42
  -5  -2 -11  267.49   19.57
  -5  -2 -11  208.62   17.19
  -5  -2 -11  224.68   17.42
  -5  -2 -12  105.59   11.81
  -5  -2 -12  109.35   11.35
   5  -2  12  118.11   12.96
  -5  -2 -13  345.91   21.75
  -5  -2 -14   88.99    8.85
  -5  -2 -14   78.44    9.88
  -5  -2 -15  106.27    8.55
  -5  -2 -15  116.50    9.58
  -5  -2 -15  118.89   10.09
   5  -1 -17    2.91    2.75
   5  -1 -17    0.46    2.75
   5  -1 -16  188.24   14.91
   5  -1 -16  174.47   15.20
   5  -1 -16  143.89   13.02
   5  -1 -15   79.18    8.15
   5  -1 -15   76.40   10.56
   5  -1 -15   77.58    8.95
   5  -1 -15   73.16   10.27
   5  -1 -14  817.22   40.44
   5  -1 -14  860.66   46.64
   5  -1 -14  829.84   42.35
   5  -1 -14  767.29   44.87
   5  -1 -13  362.55   22.23
   5  -1 -13  362.05   27.24
   5  -1 -13  371.33   24.31
   5  -1 -13  333.89   26.43
   5  -1 -12   25.89    8.85
   5  -1 -12   24.34    6.52
   5  -1 -12   18.82    6.57
   5  -1 -12   32.76    8.66
   5  -1 -12   28.34    5.75
   5  -1 -12   15.77    6.69
   5  -1 -11  378.61   52.40
   5  -1 -11  427.19   31.17
   5  -1 -11  392.54   28.36
   5  -1 -11  397.46   29.99
   5  -1 -11  444.71   25.21
   5  -1 -11  379.84   28.49
  -5  -1  11  390.49   63.88
   5  -1 -10  353.98   50.07
   5  -1 -10  421.09   30.59
  -5  -1  10  327.73   51.41
  -5  -1  10  357.25   63.93
   5  -1 -10  383.31   28.36
   5  -1 -10  383.43   29.30
   5  -1 -10  409.43   24.01
   5  -1 -10  374.33   28.05
  -5  -1  10  340.74   59.82
  -5  -1   9 1695.71  125.38
  -5  -1   9 1874.87  148.58
   5  -1  -9 1659.05   78.60
   5  -1  -9 1673.04   81.54
   5  -1  -9 1571.42   81.78
  -5  -1   9 1793.78  139.89
   5  -1  -9 1816.26  122.99
   5  -1  -9 1674.58   82.64
  -5  -1   8  402.33   56.09
  -5  -1   8  481.97   59.84
  -5  -1   8  475.63   69.31
   5  -1  -8  440.77   28.42
   5  -1  -8  451.22   31.01
   5  -1  -8  430.32   30.85
  -5  -1   8  454.61   65.06
   5  -1  -8  465.83   31.80
   5  -1  -8  506.17   57.52
  -5  -1   7  859.18   85.11
  -5  -1   7 1045.50   88.94
   5  -1  -7  922.04   50.63
   5  -1  -7  869.67   49.98
  -5  -1   7 1075.74  102.28
   5  -1  -7  902.86   47.44
  -5  -1   7 1030.48   95.16
   5  -1  -7  923.69   50.81
   5  -1  -7  929.42   80.92
  -5  -1   6   29.28   16.24
  -5  -1   6   19.96   15.01
   5  -1  -6   17.35    5.22
   5  -1  -6   16.40    5.55
   5  -1  -6    6.86    9.43
   5  -1  -6   23.63    6.82
  -5  -1   6   31.18   18.13
  -5  -1   5  642.28   70.60
  -5  -1   5  646.60   69.78
   5  -1  -5  745.73   51.50
   5  -1  -5  651.43   35.75
  -5  -1   5  621.30   33.47
   5  -1  -5  631.97   62.59
   5  -1  -5  653.34   38.02
   5  -1  -4 1029.19   52.45
   5  -1  -4 1030.45   82.01
  -5  -1   4 1058.40   91.10
  -5  -1   4  934.29   86.70
   5  -1  -4 1078.57   65.30
  -5  -1   4 1203.90   88.64
   5  -1  -4 1049.64   50.44
  -5  -1   4  881.31   52.10
  -5  -1   4  981.49   48.24
   5  -1  -4 1044.47   45.94
  -5  -1   3 1085.03   89.91
  -5  -1   3 1169.33   94.02
   5  -1  -3 1119.67   64.62
  -5  -1   3 1094.75   84.01
   5  -1  -3 1056.79   50.50
  -5  -1   3  957.62   52.77
  -5  -1   3  998.11   49.00
   5  -1  -3 1036.84   52.44
   5  -1  -3  969.07   81.52
  -5  -1   2  214.41   37.31
  -5  -1   2  204.54   37.75
   5  -1  -2  219.81   23.80
  -5  -1   2  274.72   37.30
   5  -1  -2  234.03   16.99
  -5  -1   2  222.07   18.82
  -5  -1   2  236.59   16.22
   5  -1  -2  225.33   19.04
  -5  -1   1  901.32   78.60
  -5  -1   1 1003.29   85.28
  -5  -1   1  859.91   74.22
   5  -1  -1  872.76   43.50
   5  -1  -1  851.14   53.70
  -5  -1   1  931.56   72.13
  -5  -1   1  819.83   42.17
   5  -1  -1  879.62   46.32
  -5  -1   0  846.22   78.78
   5  -1   0  856.92   52.27
  -5  -1   0  837.35   66.73
  -5  -1   0  815.36   72.29
   5  -1   0  851.03   42.26
  -5  -1   0  788.41   40.94
   5  -1   0  826.37   44.46
  -5  -1  -1  301.10   45.65
   5  -1   1  312.57   27.78
  -5  -1  -1  284.31   35.46
   5  -1   1  360.33   22.08
  -5  -1  -1  220.17   37.59
  -5  -1  -1  321.95   22.88
  -5  -1  -1  316.18   20.44
  -5  -1  -1  299.12   18.06
   5  -1   1  337.51   46.15
   5  -1   1  327.19   23.22
  -5  -1  -2  821.06   46.96
  -5  -1  -2 1043.86   89.99
   5  -1   2  973.48   56.35
  -5  -1  -2  909.21   66.61
   5  -1   2  965.93   47.07
  -5  -1  -2  862.28   76.82
  -5  -1  -2  890.37   48.15
  -5  -1  -2  941.87   45.72
  -5  -1  -2  950.35   43.40
   5  -1   2 1045.41   86.47
   5  -1   2  856.35   47.73
   5  -1   3  102.21   12.60
   5  -1   3  132.12   31.45
  -5  -1  -3  118.13   20.20
   5  -1   3  136.10   17.81
   5  -1   3  159.94   14.03
  -5  -1  -3  161.81   31.70
  -5  -1  -3  109.86   12.88
  -5  -1  -3  124.46   10.72
  -5  -1  -3  133.26   13.87
  -5  -1  -3  130.74   11.22
   5  -1   4  647.61   71.86
   5  -1   4  552.95   35.84
   5  -1   4  522.70   41.36
  -5  -1  -4  659.89   37.89
  -5  -1  -4  664.49   34.66
  -5  -1  -4  670.00   33.22
  -5  -1  -4  593.90   32.73
  -5  -1  -4  592.01   36.33
   5  -1   4  714.13   37.06
  -5  -1  -4  647.53   66.46
  -5  -1  -5  269.61   40.91
  -5  -1  -5  277.28   22.17
   5  -1   5  290.36   21.82
  -5  -1  -5  326.98   20.80
  -5  -1  -5  296.30   19.41
   5  -1   5  316.74   50.68
  -5  -1  -5  263.13   18.87
  -5  -1  -6  780.53   72.95
  -5  -1  -6  835.50   47.03
   5  -1   6  822.39   45.86
  -5  -1  -6  834.09   43.01
  -5  -1  -6  867.58   42.85
   5  -1   6  738.74   83.78
  -5  -1  -7  347.07   46.86
  -5  -1  -7  412.47   25.66
   5  -1   7  449.25   29.51
  -5  -1  -7  414.40   25.71
  -5  -1  -7  426.14   25.89
   5  -1   7  301.82   55.20
  -5  -1  -8  827.89   77.74
  -5  -1  -8  996.02   47.18
   5  -1   8  916.24   51.03
  -5  -1  -8  873.43   46.39
  -5  -1  -8  911.76   45.97
   5  -1   8  772.32   91.13
  -5  -1  -9  175.69   34.00
  -5  -1  -9  211.18   16.98
   5  -1   9  226.77   20.47
  -5  -1  -9  198.10   15.73
  -5  -1  -9  226.08   17.54
   5  -1   9  175.63   42.67
  -5  -1 -10  132.43   29.68
   5  -1  10  202.61   19.33
  -5  -1 -10  163.08   13.59
  -5  -1 -10  200.18   16.19
  -5  -1 -10  172.41   15.03
   5  -1  10  112.59   34.77
  -5  -1 -11   96.24   11.08
   5  -1  11  117.07   14.85
  -5  -1 -11  124.10   12.28
  -5  -1 -12  235.83   17.92
   5  -1  12  218.51   20.29
  -5  -1 -12  226.82   17.27
  -5  -1 -13  166.05   13.99
   5  -1  13  172.50   16.60
  -5  -1 -13  167.92   13.68
  -5  -1 -14   72.59    8.09
   5  -1  14   70.43    9.75
  -5  -1 -15  133.12   11.48
  -5  -1 -15  114.98    9.40
  -5  -1 -15  152.39   10.58
   5  -1  15  166.60   12.99
   5  -1  16  150.69   10.54
  -5  -1 -16  182.85   11.01
  -5   0  18   32.95    5.03
   5   0 -17    0.82    2.71
   5   0 -16  318.23   21.12
   5   0 -15   56.73    8.28
   5   0 -15   68.63    9.79
   5   0 -15   49.97    6.94
   5   0 -14  131.18   11.45
   5   0 -14  107.23   10.83
   5   0 -13 1190.89   53.39
   5   0 -13 1155.32   54.05
   5   0 -12    2.13    3.13
   5   0 -12   -1.73    3.96
   5   0 -12    1.75    3.58
   5   0 -12    2.31    4.22
  -5   0  11   59.51   25.11
  -5   0  11  104.35   27.83
   5   0 -11   94.30   12.30
  -5   0  11  135.46   37.95
  -5   0  11   69.25   30.86
   5   0 -11   76.05   23.85
   5   0 -11  108.69   10.83
  -5   0  10  126.64   35.78
  -5   0  10  212.94   37.60
  -5   0  10  228.74   40.77
   5   0 -10  156.39   16.10
  -5   0  10  166.65   42.52
  -5   0  10  173.84   45.46
   5   0 -10  194.94   36.86
   5   0 -10  196.34   15.20
  -5   0   9   43.77   21.22
  -5   0   9   24.33   13.49
  -5   0   9   12.18   13.18
  -5   0   9    5.64    9.79
  -5   0   9   37.98   20.55
   5   0  -9   12.18    5.70
   5   0  -9   23.35   14.33
   5   0  -9    8.91    4.01
  -5   0   8 1578.63  127.79
  -5   0   8 1531.03  104.22
  -5   0   8 1509.72  111.42
  -5   0   8 1654.12  130.63
  -5   0   8 1378.69  127.21
   5   0  -8 1508.87   69.52
   5   0  -8 1463.00  108.12
   5   0  -8 1355.68   62.59
  -5   0   7   15.20   15.22
  -5   0   7   23.00   11.16
  -5   0   7   11.10   11.12
   5   0  -7   10.95    7.60
  -5   0   7    4.90   12.02
  -5   0   7    5.50   13.49
   5   0  -7   14.33    5.17
   5   0  -7   21.54   13.93
   5   0  -7   12.37    5.37
   5   0  -7    5.08    2.74
  -5   0   6   33.86   17.85
  -5   0   6   30.90   12.30
  -5   0   6   38.51   16.12
   5   0  -6   40.94   12.11
  -5   0   6   36.35   19.35
  -5   0   6   25.48   18.80
   5   0  -6   31.48    6.72
   5   0  -6   40.22    5.78
   5   0  -6   28.33    5.17
   5   0  -6   31.03   15.88
   5   0  -6   34.11    7.15
   5   0  -5  242.81   38.35
  -5   0   5  280.62   47.70
  -5   0   5  224.67   31.56
   5   0  -5  302.76   32.05
  -5   0   5  304.54   42.14
  -5   0   5  321.85   48.20
   5   0  -5  274.49   19.59
  -5   0   5  237.18   44.79
   5   0  -5  270.41   17.38
   5   0  -5  266.86   16.72
   5   0  -5  266.20   17.01
   5   0  -4  588.73   60.44
  -5   0   4  548.91   68.67
  -5   0   4  618.55   51.70
   5   0  -4  699.25   51.45
  -5   0   4  624.51   67.86
   5   0  -4  656.55   35.62
   5   0  -4  649.58   32.81
   5   0  -4  663.79   32.22
   5   0  -4  668.07   32.67
   5   0  -3  950.09   80.03
  -5   0   3 1180.14   94.43
   5   0  -3 1141.37   69.52
  -5   0   3 1136.06   84.43
   5   0  -3  936.34   56.06
  -5   0   3 1089.11   95.25
   5   0  -3 1092.97   51.90
   5   0  -3 1078.27   48.84
  -5   0   3 1046.95   49.09
   5   0  -3 1078.79   47.99
   5   0  -3 1065.82   48.59
   5   0  -2 3279.07  152.20
  -5   0   2 3342.30  198.37
   5   0  -2 3549.44  163.49
  -5   0   2 3603.17  184.65
   5   0  -2 3416.83  143.06
  -5   0   2 3277.33  140.63
   5   0  -2 3427.60  139.80
  -5   0   2 3712.85  197.73
  -5   0   1   39.23   17.03
   5   0  -1   45.32   10.34
   5   0  -1   48.35   12.15
  -5   0   1   45.70   15.91
   5   0  -1   39.41    6.69
  -5   0   1   47.59    6.59
   5   0  -1   52.48    6.09
  -5   0   1   38.41    6.40
   5   0   0   92.65   15.64
  -5   0   0   79.81   19.86
   5   0   0  107.86   17.66
   5   0   0   98.60   10.55
  -5   0   0   99.51   26.27
  -5   0   0  110.34   19.88
  -5   0   0  102.21    9.83
  -5   0   0  109.20   10.72
   5   0   0   89.00   23.21
   5   0   1  468.56   52.62
   5   0   1  471.21   37.20
  -5   0  -1  467.91   57.69
  -5   0  -1  389.58   43.12
   5   0   1  447.99   37.79
   5   0   1  409.50   25.26
  -5   0  -1  436.57   53.63
  -5   0  -1  397.64   23.87
  -5   0  -1  429.50   41.25
  -5   0  -1  384.97   22.92
  -5   0  -1  417.35   25.04
   5   0   2  179.92   33.10
   5   0   2  155.75   21.60
  -5   0  -2  174.62   35.23
  -5   0  -2  158.29   26.07
   5   0   2  149.11   21.14
   5   0   2  141.72   13.55
  -5   0  -2  153.09   32.01
  -5   0  -2  162.45   25.16
  -5   0  -2  156.45   12.95
  -5   0  -2  136.62   11.67
  -5   0  -2  137.89   12.86
   5   0   3 1739.88  118.50
  -5   0  -3 1518.83   76.50
   5   0   3 1625.62   93.45
  -5   0  -3 1780.87  124.57
  -5   0  -3 1777.24  101.92
   5   0   3 1636.07   93.18
   5   0   3 1734.85   76.97
  -5   0  -3 1648.56  120.46
  -5   0  -3 1637.08  100.27
  -5   0  -3 1666.59   74.31
  -5   0  -3 1641.95   77.57
  -5   0  -3 1688.53   71.71
  -5   0  -3 1602.80   73.10
  -5   0  -3 1587.31   71.45
   5   0   4 1186.76   96.14
  -5   0  -4 1055.89   55.77
   5   0   4 1133.16   73.66
  -5   0  -4 1163.86   97.50
  -5   0  -4 1071.73   73.75
   5   0   4 1125.06   72.37
   5   0   4 1121.78   55.85
  -5   0  -4 1028.06   92.97
  -5   0  -4 1158.98   56.92
  -5   0  -4 1085.68   52.21
  -5   0  -4 1083.43   50.93
  -5   0  -4 1080.15   53.63
   5   0   5   16.57   15.26
  -5   0  -5   27.82    7.00
  -5   0  -5   34.14   17.37
   5   0   5   13.94    7.76
  -5   0  -5   21.45    8.66
   5   0   5   15.32    5.98
  -5   0  -5   21.99   15.28
  -5   0  -5   19.82   10.11
  -5   0  -5   19.60    4.96
  -5   0  -5   17.97    4.52
  -5   0  -5   18.38    5.37
   5   0   6  307.43   49.08
  -5   0  -6  299.79   22.71
  -5   0  -6  309.08   48.96
   5   0   6  280.71   33.23
   5   0   6  265.84   21.55
  -5   0  -6  270.84   19.43
  -5   0  -6  246.44   33.92
  -5   0  -6  263.18   18.74
  -5   0  -6  264.73   19.51
  -5   0  -6  251.55   17.86
   5   0   7   75.92   25.53
  -5   0  -7   85.92   24.38
   5   0   7   59.62   15.91
  -5   0  -7   71.56    8.01
   5   0   7   71.53   11.27
  -5   0  -7   79.03   19.33
  -5   0  -7   76.31    9.53
  -5   0  -7   74.39    9.22
  -5   0  -7   65.70    9.10
  -5   0  -7   78.09    9.30
   5   0   8  917.81   96.03
  -5   0  -8 1061.61   88.55
   5   0   8  990.03   75.26
  -5   0  -8 1013.68   50.70
   5   0   8 1181.69   59.63
  -5   0  -8 1089.42   79.94
  -5   0  -8 1127.57   53.79
  -5   0  -8 1114.19   53.29
  -5   0  -8 1112.67   52.99
   5   0   9  800.29   93.06
  -5   0  -9  972.62   85.97
   5   0   9  819.29   70.78
  -5   0  -9 1032.89   77.12
  -5   0  -9 1075.87   51.37
  -5   0  -9 1056.83   51.14
  -5   0  -9 1079.25   51.12
  -5   0  -9  985.80   49.12
   5   0   9 1112.89   58.07
   5   0  10   47.60   22.57
  -5   0 -10   53.21   18.77
  -5   0 -10   55.62   15.96
  -5   0 -10   65.96    8.52
  -5   0 -10   46.63    7.48
  -5   0 -10   50.60    7.53
   5   0  10   49.31   10.63
  -5   0 -10   68.45    8.96
  -5   0 -11   71.38    8.68
   5   0  11   73.56   12.58
  -5   0 -11   69.94    8.43
  -5   0 -12  116.98   11.55
  -5   0 -12  111.10   10.72
   5   0  12  123.54   14.92
  -5   0 -12  137.50   12.72
  -5   0 -13   36.08    5.96
  -5   0 -13   34.54    5.78
   5   0  13   39.93    9.07
  -5   0 -13   32.11    6.41
   5   0  14  542.21   32.91
  -5   0 -14  545.58   29.16
  -5   0 -15  170.98   12.58
  -5   0 -15  221.47   13.61
   5   0  15  195.56   15.74
   5   0  16    2.05    2.47
  -5   0 -16    1.16    2.42
   5   1 -17    1.69    1.96
   5   1 -17    3.41    1.89
   5   1 -16  157.06   12.91
   5   1 -16  194.27   12.41
   5   1 -15   64.88    7.59
   5   1 -14  773.20   40.33
   5   1 -14  864.55   41.28
   5   1 -13  389.91   23.59
   5   1 -13  433.08   25.44
   5   1 -12   42.68    7.31
   5   1 -12   34.00    5.31
   5   1 -12   39.25    6.84
   5   1 -11  385.55   52.42
  -5   1  11  480.88   74.24
  -5   1  11  382.82   56.07
   5   1 -11  335.25   36.17
  -5   1  11  417.44   54.31
  -5   1  11  398.77   65.78
  -5   1  11  462.04   74.48
   5   1 -11  391.53   22.41
   5   1 -11  413.67   25.74
   5   1 -10  396.10   52.46
  -5   1  10  496.92   74.49
  -5   1  10  370.57   54.97
   5   1 -10  328.15   35.23
  -5   1  10  390.35   53.08
  -5   1  10  375.33   64.23
  -5   1  10  448.88   73.69
   5   1 -10  346.45   21.15
   5   1 -10  386.94   22.79
   5   1 -10  391.09   24.83
   5   1  -9 1519.81  113.99
  -5   1   9 1597.80  141.28
  -5   1   9 1567.58  119.73
   5   1  -9 1527.50   90.24
  -5   1   9 1765.50  121.35
  -5   1   9 1918.38  145.98
  -5   1   9 1708.55  145.78
   5   1  -9 1527.07   74.38
   5   1  -9 1567.62   69.01
   5   1  -9 1503.31   68.78
   5   1  -9 1572.27   70.21
   5   1  -9 1617.30   71.81
   5   1  -8  527.93   58.81
  -5   1   8  393.09   66.80
  -5   1   8  422.64   55.74
   5   1  -8  425.82   38.37
  -5   1   8  507.58   58.97
  -5   1   8  476.43   68.76
  -5   1   8  449.33   70.56
   5   1  -8  444.32   28.82
   5   1  -8  463.89   24.80
   5   1  -8  437.14   24.38
   5   1  -8  461.06   25.64
   5   1  -8  490.52   27.09
  -5   1   7  854.82   97.68
  -5   1   7  943.68   83.42
   5   1  -7  931.33   61.38
  -5   1   7 1023.50   85.96
  -5   1   7  917.20   94.36
  -5   1   7  972.53  100.79
   5   1  -7 1019.98   50.76
   5   1  -7 1053.14   86.43
   5   1  -7  926.25   44.70
   5   1  -7  959.41   46.07
   5   1  -7  988.83   47.39
   5   1  -7 1052.87   48.25
  -5   1   6   44.01   22.42
   5   1  -6   35.27    9.64
  -5   1   6   28.19   14.40
   5   1  -6   31.16    4.62
   5   1  -6   42.27    6.29
   5   1  -6   37.05    5.97
  -5   1   6   68.26   27.36
   5   1  -6   31.79    6.75
   5   1  -6   34.29   15.22
  -5   1   6   51.55   20.77
  -5   1   5  677.10   73.53
   5   1  -5  664.46   33.40
   5   1  -5  639.73   33.49
   5   1  -5  588.81   43.55
  -5   1   5  683.18   66.00
   5   1  -5  641.89   35.60
   5   1  -5  658.69   33.96
   5   1  -5  665.08   64.03
   5   1  -4  876.05   78.38
  -5   1   4 1168.54   96.07
   5   1  -4  949.20   59.94
   5   1  -4  956.11   58.22
   5   1  -4 1011.14   68.76
  -5   1   4 1098.19   84.12
   5   1  -4  996.35   49.23
  -5   1   4  962.78   51.78
   5   1  -4 1014.05   47.22
   5   1  -4  983.97   46.43
   5   1  -4  982.87   46.78
   5   1  -3 1015.05   83.05
  -5   1   3 1179.06   95.41
  -5   1   3 1193.24  102.45
   5   1  -3 1087.35   65.15
   5   1  -3 1009.98   60.45
   5   1  -3 1154.33   72.64
  -5   1   3 1132.45   86.19
   5   1  -3 1095.78   52.41
   5   1  -3 1092.22   50.43
  -5   1   3  996.96   50.34
   5   1  -3 1111.94   49.87
   5   1  -2  257.92   26.53
  -5   1   2  177.61   37.97
   5   1  -2  252.32   29.21
   5   1  -2  254.49   23.45
   5   1  -2  254.62   17.50
  -5   1   2  232.32   26.93
  -5   1   2  216.25   15.03
  -5   1   2  200.39   15.65
  -5   1   2  172.32   34.28
  -5   1   1  847.61   76.95
  -5   1   1  888.15   84.02
   5   1  -1  888.58   56.89
   5   1  -1  813.97   49.60
  -5   1   1  777.30   67.66
   5   1  -1  921.81   61.34
   5   1  -1  900.86   42.56
  -5   1   1  873.62   60.37
  -5   1   1  770.57   39.70
  -5   1   1  793.05   38.70
  -5   1   1  780.21   41.07
  -5   1   0  783.36   78.55
   5   1   0  882.51   57.28
  -5   1   0  780.83   67.34
  -5   1   0  847.12   60.10
   5   1   0  824.03   59.23
   5   1   0  794.39   48.96
   5   1   0  798.09   40.99
  -5   1   0  776.05   39.59
  -5   1   0  815.43   38.66
  -5   1   0  757.90   40.48
   5   1   1  345.31   34.06
  -5   1  -1  409.05   54.01
  -5   1  -1  419.60   40.46
  -5   1  -1  446.49   46.66
   5   1   1  312.15   34.84
   5   1   1  314.06   27.98
   5   1   1  356.23   23.13
  -5   1  -1  375.16   22.50
  -5   1  -1  356.39   21.23
  -5   1  -1  367.19   23.21
   5   1   2 1152.44   85.60
  -5   1  -2  919.02   49.94
   5   1   2  933.37   64.72
  -5   1  -2  962.70   88.40
  -5   1  -2  999.29   77.02
  -5   1  -2  965.32   69.79
   5   1   2 1057.07   69.97
   5   1   2  914.83   56.97
   5   1   2 1014.15   49.28
  -5   1  -2 1005.12   76.19
  -5   1  -2  962.08   47.59
  -5   1  -2 1014.27   46.79
  -5   1  -2  948.01   44.72
  -5   1  -2  940.71   48.20
   5   1   3  148.27   30.18
  -5   1  -3  150.36   14.71
   5   1   3  154.43   23.69
  -5   1  -3  121.03   30.17
  -5   1  -3  156.47   25.75
  -5   1  -3  129.11   25.48
   5   1   3  144.48   23.67
  -5   1  -3  159.17   27.81
   5   1   3  141.21   13.70
  -5   1  -3  147.50   12.95
  -5   1  -3  141.16   14.05
  -5   1  -3  136.27   11.91
  -5   1  -3  123.91   11.01
  -5   1  -3  126.98   10.62
   5   1   4  644.37   64.85
  -5   1  -4  594.80   35.93
   5   1   4  667.46   53.59
  -5   1  -4  704.81   71.46
   5   1   4  603.81   45.82
  -5   1  -4  649.43   56.51
  -5   1  -4  530.40   53.47
   5   1   4  630.63   53.47
   5   1   4  650.05   35.87
  -5   1  -4  623.90   33.88
  -5   1  -4  591.70   32.75
  -5   1  -4  583.28   31.57
  -5   1  -4  599.64   31.43
   5   1   5  291.17   43.26
  -5   1  -5  295.66   22.50
   5   1   5  278.33   34.48
  -5   1  -5  282.37   46.50
   5   1   5  245.59   28.88
  -5   1  -5  244.13   34.42
   5   1   5  284.94   35.70
   5   1   5  283.04   21.80
  -5   1  -5  323.58   52.89
  -5   1  -5  268.15   19.45
  -5   1  -5  283.78   18.82
  -5   1  -5  297.48   18.78
  -5   1  -5  288.94   20.57
   5   1   6  658.72   71.49
  -5   1  -6  843.65   46.69
   5   1   6  805.19   64.67
  -5   1  -6  858.63   82.66
   5   1   6  702.70   56.43
  -5   1  -6  729.07   62.89
   5   1   6  752.07   64.72
   5   1   6  855.71   46.26
  -5   1  -6  789.62   87.90
  -5   1  -6  885.76   43.83
  -5   1  -6  827.72   42.56
  -5   1  -6  824.77   41.88
  -5   1  -6  852.55   41.68
  -5   1  -6  816.66   43.48
   5   1   7  276.15   45.05
  -5   1  -7  439.88   51.70
   5   1   7  343.62   37.34
  -5   1  -7  361.42   43.63
   5   1   7  360.42   43.55
   5   1   7  334.19   26.21
  -5   1  -7  360.49   23.97
  -5   1  -7  357.95   23.14
  -5   1  -7  393.83   23.56
  -5   1  -7  353.87   21.12
  -5   1  -7  405.81   25.07
  -5   1  -8  904.16   81.18
   5   1   8  828.99   65.81
  -5   1  -8  954.54   75.32
   5   1   8  812.35   73.28
   5   1   8  884.70   52.09
  -5   1  -8  991.18   49.16
  -5   1  -8 1023.92   48.89
  -5   1  -8 1039.16   48.90
  -5   1  -8  877.29   45.28
  -5   1  -8  993.35   48.19
  -5   1  -8 1012.85   49.34
  -5   1  -9  173.67   33.86
   5   1   9  171.07   26.77
   5   1   9  164.15   30.15
  -5   1  -9  202.81   31.82
  -5   1  -9  177.34   13.94
   5   1   9  208.79   19.86
  -5   1  -9  225.12   17.12
  -5   1  -9  191.38   16.08
  -5   1  -9  206.98   16.36
  -5   1  -9  177.38   14.22
  -5   1  -9  205.22   16.14
  -5   1  -9  205.07   16.27
  -5   1 -10  148.48   31.30
   5   1  10  159.93   30.09
  -5   1 -10  162.25   13.27
   5   1  10  189.55   18.83
  -5   1 -10  197.94   15.55
  -5   1 -10  190.11   15.61
  -5   1 -10  169.59   13.70
  -5   1 -10  162.45   14.17
  -5   1 -10  193.48   15.48
  -5   1 -10  141.11   26.47
  -5   1 -10  178.99   14.92
  -5   1 -11   86.76    9.48
   5   1  11   89.50   13.41
  -5   1 -11  109.69   10.85
  -5   1 -11   99.17   10.02
  -5   1 -11  101.70   10.83
  -5   1 -11   96.17   10.25
  -5   1 -12  224.06   15.60
   5   1  12  252.41   21.42
  -5   1 -12  234.62   16.95
  -5   1 -12  233.70   16.35
  -5   1 -13  162.48   12.10
   5   1  13  171.26   16.60
  -5   1 -14   76.60    7.18
   5   1  14   66.99    9.90
  -5   1 -15  174.93   11.46
   5   1  15  126.66   12.28
  -5   1 -16  199.64   10.83
   5   1  16  135.58   11.16
  -5   2  16   12.45    3.46
   5   2 -16   10.53    2.73
   5   2 -16    7.27    2.76
   5   2 -15  106.25    8.96
   5   2 -15  103.44    9.60
   5   2 -14  110.13    9.84
   5   2 -14   93.70    9.94
   5   2 -13   24.58    4.69
   5   2 -13   27.81    6.15
   5   2 -12  826.86   39.89
   5   2 -12  782.97   38.89
   5   2 -12  839.66   42.95
   5   2 -11  256.36   17.47
   5   2 -11  255.01   16.89
   5   2 -11  259.79   17.45
   5   2 -11  284.50   18.84
   5   2 -10  259.80   40.65
  -5   2  10  406.62   71.59
  -5   2  10  393.95   59.62
   5   2 -10  293.27   34.15
  -5   2  10  243.13   50.48
  -5   2  10  382.77   65.63
   5   2 -10  324.07   19.63
   5   2 -10  260.42   17.05
   5   2 -10  286.98   18.37
   5   2 -10  295.15   19.09
   5   2 -10  291.61   19.63
   5   2  -9  202.98   35.40
  -5   2   9  164.86   46.87
   5   2  -9  133.60   22.68
  -5   2   9  104.69   29.87
  -5   2   9  206.97   37.29
   5   2  -9  145.38   11.84
   5   2  -9  155.48   12.57
   5   2  -9  145.49   12.87
   5   2  -9  157.43   13.52
  -5   2   9  170.01   43.38
   5   2  -9  145.86   12.30
   5   2  -9  127.26   10.82
  -5   2   9  202.28   46.58
  -5   2   8  133.96   37.05
   5   2  -8  147.74   23.42
  -5   2   8  157.62   36.10
   5   2  -8  154.25   27.07
  -5   2   8  122.98   30.94
   5   2  -8  163.60   12.74
   5   2  -8  152.20   13.05
   5   2  -8  145.23   13.07
   5   2  -8  160.33   13.68
   5   2  -8  153.41   12.02
  -5   2   8  132.10   40.08
   5   2  -8  141.15   14.19
   5   2  -8  136.63   11.02
   5   2  -8  140.92   30.80
  -5   2   7  308.47   53.21
   5   2  -7  326.22   20.48
   5   2  -7  371.72   22.68
   5   2  -7  308.62   34.42
   5   2  -7  335.34   39.56
  -5   2   7  304.07   46.29
   5   2  -7  329.02   23.12
   5   2  -7  352.40   22.38
   5   2  -7  387.01   48.99
   5   2  -6 1497.20  107.57
  -5   2   6 1613.59  124.57
  -5   2   6 1621.48  140.88
   5   2  -6 1511.44   90.03
   5   2  -6 1587.51   98.45
  -5   2   6 1787.47  118.97
   5   2  -6 1526.06   71.90
  -5   2   6 1420.94   74.42
   5   2  -6 1563.96   70.67
   5   2  -6 1578.38   70.93
   5   2  -5   39.08   16.18
  -5   2   5   89.10   26.89
   5   2  -5   41.86   11.88
   5   2  -5   54.70   15.37
  -5   2   5  107.02   26.12
   5   2  -5   76.90    9.66
  -5   2   5   62.40    9.83
   5   2  -5   71.92    8.62
   5   2  -5   62.78    8.13
   5   2  -4  639.68   63.67
  -5   2   4  748.88   86.04
   5   2  -4  668.99   51.49
   5   2  -4  822.88   61.16
  -5   2   4  743.26   71.06
  -5   2   4  706.15   74.61
   5   2  -4  727.44   38.32
   5   2  -4  698.36   37.15
   5   2  -4  737.33   37.04
   5   2  -4  704.61   37.03
  -5   2   3    4.00    8.49
  -5   2   3    5.22   11.09
   5   2  -3    1.70    4.67
   5   2  -3   11.36    7.88
  -5   2   3    3.50    8.59
   5   2  -3    4.58    3.78
   5   2  -3    3.10    8.49
  -5   2   3    4.83    3.16
  -5   2   2  281.78   49.94
   5   2  -2  269.30   28.93
   5   2  -2  293.78   34.36
  -5   2   2  270.55   40.71
  -5   2   2  253.48   29.72
   5   2  -2  283.55   19.01
  -5   2   2  256.79   17.25
   5   2  -2  257.32   38.40
  -5   2   2  240.82   18.18
  -5   2   1 1595.89   75.54
  -5   2   1 1697.29  133.15
   5   2  -1 1724.39   77.23
  -5   2   1 1824.49  101.02
   5   2  -1 1796.08  103.97
   5   2  -1 1791.57   95.42
  -5   2   1 1756.92  131.53
   5   2  -1 1843.90  101.91
  -5   2   0 1138.39   76.84
   5   2   0 1246.87   80.59
   5   2   0 1131.88   70.89
  -5   2   0 1360.66  111.89
   5   2   0 1173.29   55.19
  -5   2   0 1132.82   54.36
  -5   2   0 1082.93   52.51
  -5   2   0 1198.15  102.43
   5   2   0 1267.12   78.71
  -5   2  -1  416.43   57.89
   5   2   1  571.48   48.00
  -5   2  -1  567.50   58.02
  -5   2  -1  519.74   47.93
   5   2   1  475.14   40.94
  -5   2  -1  507.55   67.93
   5   2   1  509.83   28.71
  -5   2  -1  459.08   27.68
  -5   2  -1  473.02   26.74
  -5   2  -1  441.49   29.25
   5   2   2  205.33   29.38
  -5   2  -2  158.80   34.70
  -5   2  -2  246.36   32.73
  -5   2  -2  191.60   34.50
   5   2   2  238.79   28.06
  -5   2  -2  243.84   42.07
   5   2   2  252.20   18.00
  -5   2  -2  227.81   44.64
  -5   2  -2  206.94   15.15
  -5   2  -2  214.08   16.89
  -5   2  -2  226.07   16.25
  -5   2  -2  217.93   18.32
  -5   2  -3  161.73   15.47
   5   2   3  155.36   25.63
  -5   2  -3  114.14   29.83
  -5   2  -3  224.06   31.65
  -5   2  -3  194.66   34.20
  -5   2  -3  160.63   34.84
   5   2   3  151.68   14.12
  -5   2  -3  172.61   39.88
  -5   2  -3  157.82   13.01
  -5   2  -3  165.70   14.49
  -5   2  -3  163.15   12.81
  -5   2  -3  171.82   14.09
  -5   2  -3  156.53   12.28
  -5   2  -4  220.32   19.27
   5   2   4  259.32   33.50
  -5   2  -4  209.92   39.95
  -5   2  -4  274.35   36.83
  -5   2  -4  216.97   36.35
  -5   2  -4  227.84   41.99
   5   2   4  232.65   18.58
  -5   2  -4  214.49   45.41
  -5   2  -4  231.71   17.06
  -5   2  -4  257.29   18.97
  -5   2  -4  243.99   16.89
  -5   2  -4  225.91   17.43
  -5   2  -4  242.13   16.46
  -5   2  -5 1116.11   56.56
  -5   2  -5  941.53   87.70
  -5   2  -5 1070.04   82.30
  -5   2  -5 1002.17   84.06
   5   2   5 1123.47   83.45
   5   2   5 1072.52   54.82
  -5   2  -5 1187.44  109.72
  -5   2  -5  907.38   89.34
  -5   2  -5 1069.73   52.43
  -5   2  -5 1134.73   54.64
  -5   2  -5 1047.03   51.73
  -5   2  -5 1084.95   53.29
  -5   2  -5 1099.40   51.67
  -5   2  -6  141.30   28.64
   5   2   6  130.04   25.23
   5   2   6  113.30   22.58
   5   2   6  128.87   26.36
  -5   2  -6   98.57   24.02
   5   2   6  119.47   13.68
  -5   2  -6  152.41   28.20
  -5   2  -6  147.59   13.37
  -5   2  -6  157.51   13.91
  -5   2  -6  144.99   13.08
  -5   2  -6  136.85   13.91
  -5   2  -6  143.55   12.72
   5   2   7  358.03   42.96
  -5   2  -7  326.07   44.47
   5   2   7  322.76   39.54
  -5   2  -7  298.13   41.89
   5   2   7  333.10   44.95
   5   2   7  332.80   25.10
  -5   2  -7  367.06   23.88
  -5   2  -7  355.87   24.41
  -5   2  -7  346.95   23.12
  -5   2  -7  401.27   24.79
  -5   2  -7  372.84   24.92
  -5   2  -7  367.16   23.16
   5   2   8  241.17   36.46
  -5   2  -8  272.70   40.91
   5   2   8  224.14   33.56
   5   2   8  191.21   35.63
  -5   2  -8  325.87   41.88
   5   2   8  281.83   22.74
  -5   2  -8  326.01   21.77
  -5   2  -8  314.15   22.14
  -5   2  -8  311.60   21.16
  -5   2  -8  313.51   21.99
  -5   2  -8  310.19   20.77
  -5   2  -9  170.92   32.01
   5   2   9  153.37   27.04
  -5   2  -9  175.55   30.39
   5   2   9  143.36   29.69
   5   2   9  195.98   18.25
  -5   2  -9  214.57   16.75
  -5   2  -9  172.79   13.60
  -5   2  -9  194.69   16.19
  -5   2  -9  225.62   16.69
  -5   2  -9  205.45   16.73
  -5   2  -9  210.50   16.66
   5   2  10  516.86   34.49
  -5   2 -10  591.73   32.99
  -5   2 -10  591.09   32.84
  -5   2 -10  648.08   33.33
  -5   2 -10  546.90   30.05
  -5   2 -10  582.17   32.22
  -5   2 -10  595.38   33.09
   5   2  11  222.02   19.76
  -5   2 -11  240.41   17.59
  -5   2 -11  271.93   18.62
  -5   2 -11  247.23   16.30
  -5   2 -11  270.89   18.30
  -5   2 -11  241.29   17.54
   5   2  12  104.11   12.71
  -5   2 -12  120.15   11.05
  -5   2 -12  142.98   12.03
  -5   2 -12  105.74    9.75
  -5   2 -12  139.69   11.82
  -5   2 -12  133.80   11.18
  -5   2 -13  352.72   19.62
  -5   2 -13  322.95   18.60
   5   2  14   52.49    7.17
  -5   2 -15  117.21    8.52
   5   3 -15   30.17    3.71
   5   3 -14   56.76    6.02
   5   3 -14   54.41    6.03
   5   3 -14   62.58    7.34
   5   3 -13  297.26   17.86
   5   3 -13  315.82   20.03
   5   3 -12  215.60   14.57
   5   3 -12  198.06   13.76
   5   3 -12  182.42   14.14
   5   3 -12  202.00   15.93
   5   3 -11  609.22   31.36
   5   3 -11  555.13   30.16
   5   3 -11  577.98   30.95
   5   3 -11  597.05   31.74
   5   3 -11  587.08   33.30
   5   3 -10  441.21   25.14
   5   3 -10  372.13   22.89
   5   3 -10  407.29   24.06
   5   3 -10  428.76   24.87
   5   3 -10  439.43   25.63
   5   3 -10  457.57   27.54
   5   3 -10  422.92   25.15
   5   3  -9  187.26   14.07
   5   3  -9  203.61   15.27
   5   3  -9  179.61   15.17
   5   3  -9  201.94   16.97
   5   3  -9  220.82   16.14
   5   3  -9  205.62   14.99
   5   3  -8  100.74   25.85
  -5   3   8  196.60   44.57
   5   3  -8  133.75   23.88
   5   3  -8  136.93   25.55
  -5   3   8  119.05   42.30
   5   3  -8  165.80   13.71
   5   3  -8  180.16   14.58
   5   3  -8  159.60   15.35
   5   3  -8  172.88   14.40
   5   3  -8  165.74   13.35
  -5   3   7  260.28   57.38
   5   3  -7  335.47   48.18
   5   3  -7  295.92   35.69
   5   3  -7  288.53   37.65
  -5   3   7  358.15   51.18
   5   3  -7  302.65   20.59
   5   3  -7  315.46   21.07
   5   3  -7  317.03   21.08
  -5   3   6  131.13   40.02
   5   3  -6  127.98   30.66
   5   3  -6  117.50   21.92
  -5   3   6  145.13   32.16
   5   3  -6  101.12   21.92
   5   3  -6  137.49   12.45
   5   3  -6  134.32   12.52
   5   3  -6  124.96   12.36
  -5   3   5  701.42   93.68
   5   3  -5  795.92   80.57
   5   3  -5  902.19   45.15
   5   3  -5  942.01   45.45
   5   3  -5  914.56   45.22
   5   3  -5  768.29   62.82
   5   3  -5  893.48   69.23
  -5   3   5  820.33   82.40
  -5   3   4  542.46   79.18
   5   3  -4  577.62   51.24
   5   3  -4  563.14   53.29
  -5   3   4  592.96   68.45
   5   3  -4  619.37   33.57
   5   3  -4  608.51   33.61
   5   3  -4  600.94   33.34
   5   3  -3  145.61   23.63
   5   3  -3  145.65   26.11
  -5   3   3  122.58   30.05
   5   3  -3  119.68   11.87
  -5   3   3   98.21   32.83
   5   3  -3  123.78   29.78
  -5   3   3  119.97   33.95
   5   3  -2  847.22   80.03
  -5   3   2  915.64   97.46
   5   3  -2  796.01   62.61
   5   3  -2  875.49   68.74
  -5   3   2  908.12   83.75
  -5   3   2  817.65   92.75
  -5   3   1  130.65   22.84
  -5   3   1  113.21   11.11
  -5   3   1  126.42   38.37
   5   3  -1   84.33   18.54
   5   3  -1   67.98   18.34
  -5   3   1  189.88   36.32
  -5   3   1  132.04   35.48
  -5   3   0 1159.92   56.49
  -5   3   0 1285.45  116.51
  -5   3   0 1109.12   80.04
  -5   3   0 1079.99   95.60
   5   3   0 1247.67   85.64
   5   3   0 1219.31   80.41
  -5   3   0 1090.49  101.59
   5   3   0 1264.81   86.15
  -5   3  -1 1096.23   80.66
   5   3   1 1062.50   81.73
   5   3   1 1092.08   76.90
  -5   3  -1 1100.53  107.21
  -5   3  -1 1155.51  110.28
  -5   3  -1 1198.47   56.06
  -5   3  -1 1081.88   53.30
  -5   3  -1  986.31   94.58
   5   3   1 1358.02   87.90
   5   3   2   73.10   17.55
   5   3   2   56.96   18.34
  -5   3  -2   84.50   25.31
  -5   3  -2   99.55   32.64
  -5   3  -2   43.89   22.48
  -5   3  -2   63.04    8.14
  -5   3  -2   76.17   19.45
  -5   3  -2   73.40    9.72
  -5   3  -2   68.97    8.94
  -5   3  -2   61.83   21.61
  -5   3  -3   41.56   15.04
  -5   3  -3   22.09    5.14
  -5   3  -3   60.29   25.17
  -5   3  -3   33.28   21.53
  -5   3  -3   24.48    5.69
  -5   3  -3   20.65    4.78
   5   3   3    7.31    6.74
   5   3   3   26.64   12.07
  -5   3  -3   32.08   16.34
   5   3   4  166.73   29.65
  -5   3  -4  243.05   41.31
   5   3   4  191.43   32.37
   5   3   4  181.73   28.73
  -5   3  -4  190.53   42.91
  -5   3  -4  185.93   43.83
  -5   3  -4  204.52   16.06
  -5   3  -4  188.57   32.41
  -5   3  -4  209.57   15.63
  -5   3  -4  192.77   16.18
  -5   3  -4  186.36   14.51
   5   3   5  237.63   35.08
   5   3   5  179.54   32.04
  -5   3  -5  215.69   38.86
  -5   3  -5  197.22   33.21
  -5   3  -5  182.74   42.32
  -5   3  -5  184.52   15.54
  -5   3  -5  181.05   15.03
  -5   3  -5  192.83   16.32
  -5   3  -5  174.57   14.49
   5   3   6 1456.91  103.47
   5   3   6 1510.74  103.61
  -5   3  -6 1482.94  113.52
   5   3   6 1575.09  109.45
  -5   3  -6 1490.38  106.75
  -5   3  -6 1320.21  122.79
  -5   3  -6 1580.28   72.66
  -5   3  -6 1648.22   74.89
  -5   3  -6 1589.32   72.15
  -5   3  -6 1581.20   73.43
  -5   3  -6 1510.45   71.01
   5   3   7  194.15   32.08
   5   3   7  176.90   30.95
  -5   3  -7  195.53   33.42
   5   3   7  182.67   33.40
  -5   3  -7  194.75   35.48
  -5   3  -7  197.62   16.52
  -5   3  -7  237.64   16.99
  -5   3  -7  201.30   16.47
  -5   3  -7  215.22   17.57
  -5   3  -8  124.65   12.58
  -5   3  -8  114.04   12.72
  -5   3  -8  126.99   12.14
  -5   3  -8  116.04   12.06
  -5   3  -8  124.47   12.82
  -5   3  -9   15.11    5.18
  -5   3  -9   17.51    5.58
  -5   3  -9   19.46    5.28
  -5   3  -9   18.91    5.86
  -5   3  -9   16.10    5.47
  -5   3  -9   22.21    5.82
  -5   3 -10   38.76    6.92
  -5   3 -10   34.88    6.47
  -5   3 -10   37.56    6.73
  -5   3 -10   45.34    7.23
  -5   3 -10   42.23    7.32
  -5   3 -11  303.37   19.55
  -5   3 -11  286.14   18.97
  -5   3 -11  301.86   19.45
  -5   3 -11  314.29   19.60
  -5   3 -12  336.39   19.85
  -5   3 -12  333.98   20.11
  -5   3 -12  360.04   20.61
  -5   3 -12  363.66   20.49
  -5   3 -13   11.08    3.14
  -5   3 -13   20.67    3.92
  -5   3 -14   10.89    2.71
   5   4 -13   95.08    7.46
   5   4 -13   81.56    6.34
   5   4 -13  104.27    8.38
   5   4 -12  163.73   11.21
   5   4 -12  151.36   10.62
   5   4 -12  146.88   11.67
   5   4 -11  143.23   11.02
   5   4 -11  119.53    9.95
   5   4 -11  129.38   10.56
   5   4 -11  128.96   10.69
   5   4 -11  131.16   11.38
   5   4 -10  256.73   16.92
   5   4 -10  230.54   15.50
   5   4 -10  252.97   16.39
   5   4 -10  235.87   16.34
   5   4 -10  273.28   17.35
   5   4 -10  265.28   18.01
   5   4  -9   36.42    5.74
   5   4  -9   39.78    6.14
   5   4  -9   41.44    6.41
   5   4  -9   44.15    6.81
   5   4  -9   41.15    7.28
   5   4  -9   38.56    6.22
   5   4  -8  553.59   31.06
   5   4  -8  609.95   32.19
   5   4  -8  579.19   32.78
   5   4  -8  580.52   31.16
   5   4  -8  556.12   30.82
   5   4  -7   93.05   10.25
   5   4  -7  102.61   10.80
   5   4  -7  113.53   12.00
   5   4  -7  114.25   10.98
   5   4  -6  380.27   23.20
   5   4  -6  388.51   25.19
   5   4  -6  383.96   23.77
   5   4  -6  367.46   23.02
   5   4  -5  130.30   12.10
   5   4  -5  125.79   12.91
   5   4  -5  138.35   12.78
   5   4  -5  127.56   11.94
  -5   4   4   54.31   26.18
   5   4  -4  113.98   22.59
  -5   4   4  105.44   28.99
   5   4  -4   93.07   20.67
   5   4  -4  135.62   12.49
   5   4  -4  164.47   13.75
   5   4  -4  152.01   12.95
   5   4  -4  138.61   32.74
   5   4  -3  122.47   23.45
   5   4  -3   89.96   20.70
  -5   4   3  111.65   29.85
   5   4  -3  112.78   11.55
   5   4  -3  132.41   12.13
   5   4  -3   99.53   27.95
   5   4  -2  327.91   39.89
   5   4  -2  283.57   37.57
  -5   4   2  374.51   54.73
   5   4  -2  350.42   22.54
   5   4  -2  347.18   22.46
   5   4  -2  328.67   50.34
  -5   4   1  147.08   41.45
   5   4  -1   99.43   22.70
   5   4  -1  131.82   25.32
  -5   4   1  108.96   30.33
  -5   4   0   92.48   10.60
  -5   4   0  102.68   36.78
   5   4   0   76.95   20.14
   5   4   0  116.19   23.31
  -5   4   0  113.80   30.80
  -5   4  -1  351.00   23.41
  -5   4  -1  321.40   61.24
  -5   4  -1  317.88   51.25
   5   4   1  307.21   39.95
   5   4   1  347.20   42.24
   5   4   2   43.67   15.01
   5   4   2   43.78   15.22
  -5   4  -2   27.12   16.66
  -5   4  -2   26.16   21.25
  -5   4  -2   38.23   14.46
  -5   4  -2   22.15    5.12
  -5   4  -2   23.46    5.53
   5   4   2   33.74   14.11
   5   4   3  599.65   60.17
   5   4   3  590.66   57.84
  -5   4  -3  676.66   35.68
   5   4   3  659.80   63.17
  -5   4  -3  645.10   34.35
  -5   4  -3  723.74   36.78
  -5   4  -3  585.84   82.68
  -5   4  -4  359.09   22.38
  -5   4  -4  373.97   23.80
  -5   4  -4  352.75   22.94
  -5   4  -5  203.80   15.76
  -5   4  -5  211.59   16.88
  -5   4  -5  197.88   15.01
  -5   4  -5  214.65   16.57
  -5   4  -6   21.76    6.18
  -5   4  -6    9.32    4.49
  -5   4  -6   18.64    5.11
  -5   4  -6   17.51    4.63
  -5   4  -6   14.79    4.96
  -5   4  -7  137.60   12.25
  -5   4  -7  113.60   12.05
  -5   4  -7  114.81   11.02
  -5   4  -7  136.75   12.45
  -5   4  -7  137.61   13.62
  -5   4  -8  242.16   16.94
  -5   4  -8  238.20   17.63
  -5   4  -8  244.58   18.22
  -5   4  -8  245.13   16.63
  -5   4  -8  233.20   17.24
  -5   4  -8  250.97   18.47
  -5   4  -9  221.16   15.67
  -5   4  -9  232.34   16.55
  -5   4  -9  233.35   16.72
  -5   4  -9  223.71   15.46
  -5   4  -9  243.60   16.54
  -5   4 -10  194.67   14.10
  -5   4 -10  195.08   13.65
  -5   4 -10  180.48   12.94
  -5   4 -10  197.91   13.94
  -5   4 -10  173.28   13.62
  -5   4 -11   41.16    5.42
  -5   4 -11   30.86    5.02
  -5   4 -11   34.89    5.03
  -5   4 -12   10.64    2.75
  -5   4 -12   11.99    2.95
  -5   4 -12   17.34    3.18
   5   5 -11   14.12    2.71
   5   5 -11   12.80    2.44
   5   5 -10   41.46    5.02
   5   5 -10   38.64    4.76
   5   5 -10   41.18    4.99
   5   5  -9  507.74   25.53
   5   5  -9  462.55   24.44
   5   5  -9  503.99   25.33
   5   5  -9  512.90   25.58
   5   5  -8   75.73    7.79
   5   5  -8   80.42    7.67
   5   5  -8   82.36    8.10
   5   5  -8   72.12    7.63
   5   5  -7  104.09    9.55
   5   5  -7  102.49    8.95
   5   5  -7   94.69    9.16
   5   5  -6    9.38    3.68
   5   5  -6   19.06    4.16
   5   5  -5   19.86    4.60
   5   5  -4  539.05   28.04
   5   5  -4  574.28   29.74
   5   5  -4  521.53   27.76
   5   5  -3  487.96   26.91
   5   5  -3  476.41   26.51
   5   5  -2   39.42    6.18
   5   5  -2   42.94    6.83
   5   5  -2   42.49    6.27
   5   5  -1  299.86   19.33
   5   5  -1  306.14   19.01
   5   5   0   19.71    4.76
   5   5   0   11.61    3.86
  -5   5  -1   25.79    5.44
   5   5   1   21.64    4.88
  -5   5  -2  502.47   28.75
  -5   5  -3  147.77   11.98
  -5   5  -3  149.52   12.10
  -5   5  -3  179.22   14.44
  -5   5  -4  187.89   14.24
  -5   5  -4  213.61   14.70
  -5   5  -4  203.13   15.91
  -5   5  -5   91.93    8.76
  -5   5  -5  106.97   10.06
  -5   5  -5  102.60    9.71
  -5   5  -5  116.10   11.30
  -5   5  -6   16.81    4.75
  -5   5  -6    9.98    3.63
  -5   5  -6   10.65    3.27
  -5   5  -6    6.79    3.23
  -5   5  -7  202.50   13.07
  -5   5  -7  207.35   13.86
  -5   5  -7  194.83   14.78
  -5   5  -7  168.19   11.75
  -5   5  -7  203.55   13.72
  -5   5  -7  216.71   15.04
  -5   5  -8  266.57   15.72
  -5   5  -8  239.97   14.57
  -5   5  -8  228.91   13.77
  -5   5  -8  251.80   16.15
  -5   5  -8  257.09   15.38
  -5   5  -8  267.61   16.51
  -5   5  -9    4.65    2.01
  -5   5  -9    4.11    2.46
  -5   5  -9    5.14    2.32
  -5   5 -10  110.84    7.88
   5   6  -7   46.51    4.55
   5   6  -7   44.37    4.42
   5   6  -6  182.83   10.94
   5   6  -6  159.75   10.27
   5   6  -6  187.35   10.85
   5   6  -5   24.59    3.91
   5   6  -5   19.32    3.23
   5   6  -5   28.85    3.98
   5   6  -4   90.67    7.62
   5   6  -4   80.89    6.92
   5   6  -3   65.14    6.18
   5   6  -3   49.86    5.01
   5   6  -2  252.93   14.28
  -5   6   1   27.82    4.54
   5   6  -1   35.71    4.63
  -5   6   0   64.92    7.10
   5   6   0   58.18    6.04
  -5   6  -1   50.70    6.59
   5   6   1   38.22    4.92
  -5   6  -2    3.75    2.94
   5   6   2    2.71    2.22
  -5   6  -3  147.35   11.50
  -5   6  -4   56.09    6.63
  -5   6  -5   33.48    4.86
  -6  -6   2  119.22    7.96
  -6  -5   9  124.58   11.47
   6  -5  -9  108.33    9.72
   6  -5  -8  241.64   17.42
  -6  -5   8  235.89   16.40
  -6  -5   8  232.89   17.87
   6  -5  -8  206.91   15.93
   6  -5  -7   17.53    5.80
  -6  -5   7   34.54    6.89
  -6  -5   7   15.57    5.74
   6  -5  -7   16.41    5.71
  -6  -5   6   79.26   10.89
   6  -5  -6   82.61   10.52
  -6  -5   5   31.09    5.99
  -6  -5   5   30.95    7.90
   6  -5  -5   21.62    6.20
   6  -5  -4   15.00    6.50
   6  -5  -4    5.83    4.99
  -6  -5   4    6.79    4.06
   6  -5  -3  481.41   32.48
  -6  -5   3  516.60   32.25
   6  -5  -3  464.03   30.60
  -6  -5   3  513.81   28.86
   6  -5  -2  108.32   14.51
  -6  -5   2  129.32   14.73
  -6  -5   2  127.65   12.47
   6  -5  -1   43.78   10.28
  -6  -5   1   48.44    8.05
  -6  -5   1   48.36    9.46
  -6  -5   0   66.73   10.37
  -6  -5   0   58.57    8.79
  -6  -5   0   68.04    7.89
  -6  -5  -1   44.77    6.52
   6  -5   1   38.85   10.14
   6  -5   2  162.36   17.86
   6  -5   2  197.89   18.02
  -6  -5  -2  188.89   13.70
  -6  -5  -2  179.62   14.85
   6  -5   3  453.72   28.53
  -6  -5  -3  402.62   23.93
  -6  -5  -3  409.90   22.70
  -6  -5  -4    8.70    3.94
   6  -5   4    0.74    4.43
  -6  -5  -4    6.34    3.34
   6  -5   5   91.71   11.40
  -6  -5  -5  111.11    9.36
   6  -5   6    5.35    4.01
  -6  -5  -6    7.48    2.91
   6  -5   7    7.45    3.61
  -6  -5  -7    3.81    2.20
   6  -4 -12  125.04   10.61
   6  -4 -12   79.09    8.66
   6  -4 -11  160.71   14.37
   6  -4 -11  158.16   13.74
   6  -4 -10  105.98   12.56
  -6  -4  10  116.63   10.94
   6  -4 -10   85.18    9.36
   6  -4 -10   97.66   11.74
   6  -4  -9  114.44   13.99
  -6  -4   9  142.14   13.84
   6  -4  -9  104.62   11.34
   6  -4  -9  118.98   13.62
   6  -4  -8   92.67   13.24
  -6  -4   8   99.62   12.64
   6  -4  -8   67.17    9.74
   6  -4  -8   74.10   11.71
   6  -4  -7  390.75   29.28
   6  -4  -7  440.10   29.10
   6  -4  -7  398.19   28.31
  -6  -4   7  358.84   22.70
   6  -4  -7  324.19   24.36
   6  -4  -6  148.63   17.65
   6  -4  -6  134.74   16.31
   6  -4  -6  107.40   12.94
  -6  -4   6  117.86   12.33
   6  -4  -6  141.77   16.55
   6  -4  -5  324.67   27.28
   6  -4  -5  340.74   27.69
  -6  -4   5  303.10   21.81
   6  -4  -5  295.68   25.21
   6  -4  -4  127.86   17.25
   6  -4  -4   97.37   15.24
  -6  -4   4  146.02   14.21
   6  -4  -4  118.29   15.29
   6  -4  -3  124.89   17.47
   6  -4  -3  158.75   19.40
   6  -4  -3  126.63   16.18
  -6  -4   3  149.98   15.00
   6  -4  -2  711.64   45.02
   6  -4  -2  725.39   44.74
  -6  -4   2  706.55   39.54
   6  -4  -2  588.52   40.21
   6  -4  -1  422.30   30.65
  -6  -4   1  347.86   23.55
   6  -4   0  302.96   27.28
   6  -4   0  275.69   25.19
  -6  -4   0  261.23   20.20
   6  -4   1   46.79   12.47
   6  -4   1   67.78   12.69
  -6  -4  -1   57.78    9.10
   6  -4   2  146.58   18.93
   6  -4   2  144.82   17.80
  -6  -4  -2  146.22   14.25
   6  -4   3  182.66   20.75
   6  -4   3  222.29   21.63
  -6  -4  -3  218.70   17.44
   6  -4   4  281.86   25.39
  -6  -4  -4  263.39   19.92
   6  -4   4  297.07   25.17
  -6  -4  -4  288.30   20.33
   6  -4   5  190.61   19.53
   6  -4   5  172.17   18.80
   6  -4   6  195.12   19.22
   6  -4   7   66.51   11.06
  -6  -4  -7   88.04    9.43
   6  -4   8   27.57    7.62
  -6  -4  -8   56.81    7.01
   6  -4   9  208.11   17.68
  -6  -4  -9  263.52   15.57
  -6  -4 -10  179.54   11.52
  -6  -4 -10  191.66   12.20
   6  -3 -14   33.99    5.45
   6  -3 -13  139.24   11.04
   6  -3 -13  159.89   11.39
   6  -3 -13  130.35   12.62
   6  -3 -12  381.72   25.09
   6  -3 -12  327.58   21.51
   6  -3 -12  403.19   21.77
   6  -3 -12  344.04   23.56
   6  -3 -12  304.00   23.07
   6  -3 -11    0.85    4.88
   6  -3 -11    0.77    4.44
   6  -3 -11    2.06    3.68
   6  -3 -11    0.80    4.40
   6  -3 -10  670.07   41.44
  -6  -3  10  688.17   38.20
   6  -3 -10  754.09   37.16
   6  -3 -10  608.71   37.26
   6  -3 -10  689.68   40.60
   6  -3 -10  623.82   39.95
   6  -3  -9   62.62   11.95
   6  -3  -9   55.21   10.87
   6  -3  -9   48.33    8.26
   6  -3  -9   38.69    8.60
   6  -3  -9   47.01   10.16
   6  -3  -8   38.45    9.31
  -6  -3   8   47.85    9.08
   6  -3  -8   59.63   12.03
  -6  -3   7  169.70   15.34
   6  -3  -7  242.97   21.81
   6  -3  -7  236.50   22.54
  -6  -3   7  206.26   18.84
  -6  -3   6  331.90   22.82
   6  -3  -6  312.98   25.12
   6  -3  -6  371.39   28.23
   6  -3  -6  343.05   28.70
  -6  -3   6  335.29   25.12
   6  -3  -5  302.02   26.94
  -6  -3   5  279.02   22.97
  -6  -3   5  295.67   48.89
   6  -3  -5  302.80   24.14
   6  -3  -5  327.04   26.61
  -6  -3   5  323.59   22.59
   6  -3  -4  645.01   42.02
  -6  -3   4  629.01   36.97
  -6  -3   4  529.45   68.92
   6  -3  -4  551.22   37.58
   6  -3  -4  553.98   36.37
   6  -3  -3  100.42   15.18
  -6  -3   3   92.94   12.16
  -6  -3   3   74.99   26.23
   6  -3  -3   74.26   11.55
   6  -3  -3   81.69   12.61
  -6  -3   2   62.44   10.14
   6  -3  -2   78.06   13.57
  -6  -3   2   35.67   20.88
  -6  -3   2   73.45   10.80
   6  -3  -2   44.13    9.41
   6  -3  -2  105.17   15.15
   6  -3  -1  411.47   30.99
  -6  -3   1  297.33   24.07
  -6  -3   1  307.83   53.22
  -6  -3   1  334.41   24.79
   6  -3  -1  317.83   25.19
   6  -3  -1  436.20   31.62
  -6  -3   0   35.19    8.05
  -6  -3   0   28.33    7.39
   6  -3   0   24.72    7.41
   6  -3   0   33.16    9.98
   6  -3   1  809.08   49.12
  -6  -3  -1  682.83   80.10
  -6  -3  -1  692.61   39.21
   6  -3   1  704.81   45.36
   6  -3   2  141.20   18.52
  -6  -3  -2  135.66   34.78
   6  -3   2  149.93   34.94
   6  -3   2  144.54   18.06
  -6  -3  -2  148.00   14.42
  -6  -3  -3  167.43   15.55
   6  -3   3  164.28   20.08
  -6  -3  -3  137.38   35.17
  -6  -3  -3  169.04   16.22
   6  -3   3  176.33   19.76
   6  -3   3  139.30   34.96
   6  -3   4  151.66   18.71
  -6  -3  -4  172.53   16.08
  -6  -3  -4  151.88   14.65
   6  -3   4  172.30   19.99
  -6  -3  -5  281.85   21.30
   6  -3   5  302.18   26.10
  -6  -3  -5  318.93   22.72
  -6  -3  -5  315.77   22.31
   6  -3   5  291.00   25.93
   6  -3   6  267.46   24.46
  -6  -3  -6  277.29   20.62
  -6  -3  -6  317.81   21.47
   6  -3   6  229.94   22.72
   6  -3   7  584.51   39.54
  -6  -3  -7  673.20   35.31
  -6  -3  -7  697.42   36.31
   6  -3   7  532.79   37.19
   6  -3   8   46.74   10.07
  -6  -3  -8   69.28    9.16
   6  -3   9    2.46    4.60
  -6  -3  -9    0.55    3.51
   6  -3  10   24.05    6.34
  -6  -3 -10   34.22    6.22
  -6  -3 -11    9.11    3.56
  -6  -3 -12  291.88   18.17
  -6  -3 -13   59.03    5.36
  -6  -3 -13   55.44    5.85
   6  -2 -15   58.75    6.29
   6  -2 -15   50.94    6.51
   6  -2 -15   49.59    5.97
   6  -2 -14    6.86    4.33
   6  -2 -14    7.41    3.58
   6  -2 -14    6.57    3.37
   6  -2 -14    7.91    4.11
  -6  -2  14    6.47    3.83
   6  -2 -13   70.49    8.72
   6  -2 -13   69.55   10.18
   6  -2 -13   68.01   10.08
  -6  -2  13   65.61   10.22
   6  -2 -12  216.41   19.34
   6  -2 -12  226.37   19.78
  -6  -2  12  241.32   20.51
   6  -2 -11  825.42   47.07
   6  -2 -11  791.80   46.69
  -6  -2  11  846.46   47.90
   6  -2 -10  152.81   16.98
   6  -2 -10  152.61   17.21
  -6  -2  10  145.84   17.41
   6  -2  -9  111.35   14.86
   6  -2  -9   96.84   14.05
  -6  -2   9  132.80   16.40
   6  -2  -8    7.35    7.82
   6  -2  -8    9.27    6.82
   6  -2  -8   13.93    6.59
  -6  -2   8   30.62   17.71
  -6  -2   8   11.60    6.48
   6  -2  -7   81.55   10.77
  -6  -2   7  106.42   14.62
   6  -2  -7   63.16   20.68
   6  -2  -7  105.74   14.51
  -6  -2   7   85.64   27.85
   6  -2  -7   88.37   12.92
  -6  -2   6  853.36   87.51
   6  -2  -6  952.17   48.39
   6  -2  -6  963.66   54.37
  -6  -2   6  923.62   53.02
   6  -2  -6  932.98   53.20
  -6  -2   6  792.72   87.85
   6  -2  -6  845.70   50.45
  -6  -2   5 1610.08  123.50
   6  -2  -5 1756.35   76.90
   6  -2  -5 1541.09   81.32
  -6  -2   5 1560.81   80.78
   6  -2  -5 1518.38   78.27
   6  -2  -5 1669.88   81.79
   6  -2  -5 1673.32  117.52
  -6  -2   5 1726.84  131.26
  -6  -2   4   98.93   27.64
  -6  -2   4  197.98   38.60
   6  -2  -4  197.53   16.47
   6  -2  -4  185.49   19.64
  -6  -2   4  167.34   17.93
  -6  -2   4  171.69   15.63
   6  -2  -4  179.16   34.35
   6  -2  -4  195.57   19.20
   6  -2  -4  181.30   17.59
  -6  -2   3   -4.28   11.75
  -6  -2   3    3.98    9.76
   6  -2  -3    6.02    4.27
  -6  -2   3    6.59    5.30
   6  -2  -3    4.13    4.20
  -6  -2   3    6.32    3.76
   6  -2  -3   -3.70    6.42
   6  -2  -3   12.32    6.04
   6  -2  -3    6.59    4.85
  -6  -2   2  349.95   53.10
  -6  -2   2  396.83   51.69
   6  -2  -2  423.37   26.40
   6  -2  -2  396.11   30.21
  -6  -2   2  430.98   29.90
  -6  -2   2  462.45   27.90
   6  -2  -2  330.23   26.06
   6  -2  -2  446.98   31.70
   6  -2  -2  344.81   48.37
  -6  -2   1  396.05   57.20
  -6  -2   1  320.28   44.00
   6  -2  -1  368.51   23.16
   6  -2  -1  277.16   25.09
  -6  -2   1  335.36   25.44
  -6  -2   1  371.56   24.45
   6  -2  -1  207.44   38.68
   6  -2  -1  270.59   22.11
   6  -2  -1  316.11   26.25
  -6  -2   0 1104.60   58.82
  -6  -2   0 1100.52  100.81
  -6  -2   0 1158.41   87.47
  -6  -2   0 1224.53   61.37
   6  -2   0 1202.13   62.83
   6  -2   0 1022.58   90.05
   6  -2   0  948.41   56.15
  -6  -2   0 1268.37   59.21
   6  -2   0 1252.09   57.47
  -6  -2  -1   92.50   12.62
  -6  -2  -1  138.38   12.76
   6  -2   1  141.73   13.61
  -6  -2  -1  131.35   34.07
  -6  -2  -1   91.38   28.66
  -6  -2  -1  108.44   14.31
  -6  -2  -1  134.27   14.13
   6  -2   1  100.91   12.61
   6  -2   1  108.21   30.34
   6  -2   1  120.86   15.69
  -6  -2  -2  549.40   31.20
  -6  -2  -2  485.60   32.82
   6  -2   2  535.62   32.09
  -6  -2  -2  498.17   65.86
  -6  -2  -2  542.80   35.14
  -6  -2  -2  566.13   33.84
   6  -2   2  580.56   71.31
   6  -2   2  532.56   35.98
   6  -2   3  116.43   12.43
  -6  -2  -3  112.68   30.17
   6  -2   3   86.10   13.84
  -6  -2  -3   93.85   10.76
  -6  -2  -3   97.22   12.53
   6  -2   3   97.66   13.92
   6  -2   3   80.12   27.05
   6  -2   4  188.45   16.38
  -6  -2  -4  141.66   34.27
   6  -2   4  170.05   18.87
  -6  -2  -4  173.97   15.09
  -6  -2  -4  171.02   16.91
   6  -2   4  152.30   18.08
   6  -2   4  135.07   35.52
   6  -2   5  894.61   51.64
  -6  -2  -5  830.17   75.27
  -6  -2  -5  848.05   85.37
  -6  -2  -5  893.91   46.21
   6  -2   5  832.54   50.56
   6  -2   5  967.16   48.52
  -6  -2  -6  344.41   45.98
  -6  -2  -6  289.84   46.80
   6  -2   6  359.07   28.65
  -6  -2  -6  403.60   25.91
   6  -2   6  436.91   27.44
   6  -2   7  241.82   22.70
  -6  -2  -7  294.02   21.50
  -6  -2  -7  288.68   20.36
  -6  -2  -7  259.55   20.10
   6  -2   7  327.56   22.89
   6  -2   8  758.12   39.83
  -6  -2  -8  725.72   37.88
  -6  -2  -8  718.92   38.18
  -6  -2  -8  665.41   36.72
   6  -2   9   90.33   11.38
  -6  -2  -9   82.28   10.06
  -6  -2  -9   82.93    9.87
  -6  -2  -9   82.85    9.86
  -6  -2 -10   68.25    8.91
   6  -2  10   63.24    9.54
  -6  -2 -11  349.10   21.42
  -6  -2 -11  290.19   19.26
  -6  -2 -12   30.58    5.80
  -6  -2 -13  107.40    9.23
  -6  -2 -13  126.18   11.15
  -6  -2 -14   34.84    4.18
  -6  -2 -14   42.68    4.84
  -6  -2 -14   39.46    5.20
   6  -1 -16  112.37    9.28
  -6  -1  16  120.13   10.75
   6  -1 -15   13.50    4.57
   6  -1 -15   11.65    3.28
   6  -1 -15   13.18    4.31
  -6  -1  15   12.85    5.54
   6  -1 -14  547.30   27.95
   6  -1 -14  489.35   29.68
   6  -1 -14  490.95   25.33
   6  -1 -14  472.15   29.21
  -6  -1  14  483.37   31.60
   6  -1 -13  214.71   16.02
   6  -1 -13  192.89   17.58
   6  -1 -13  163.33   16.43
   6  -1 -13  203.61   13.76
   6  -1 -12  206.91   16.81
   6  -1 -12  189.00   18.16
   6  -1 -12  166.45   17.27
   6  -1 -12  197.70   14.10
   6  -1 -11   21.27    7.21
   6  -1 -11   12.81    5.87
   6  -1 -11   20.08    4.74
   6  -1 -10  287.49   23.81
   6  -1 -10  274.97   18.14
   6  -1 -10  260.39   22.84
  -6  -1   9  298.63   49.65
   6  -1  -9  255.35   42.95
   6  -1  -9  295.19   24.89
   6  -1  -9  315.88   23.23
   6  -1  -9  308.96   19.47
  -6  -1   9  292.75   55.02
   6  -1  -9  294.32   24.39
   6  -1  -8  331.55   24.60
   6  -1  -8  391.15   28.50
   6  -1  -8  308.50   48.49
  -6  -1   8  379.13   62.14
  -6  -1   8  326.40   52.64
  -6  -1   7  156.29   36.33
   6  -1  -7  130.53   13.98
  -6  -1   7  150.25   38.36
   6  -1  -7  147.00   32.50
   6  -1  -7  131.47   15.59
  -6  -1   6  284.12   47.25
  -6  -1   6  201.91   42.58
   6  -1  -6  274.39   20.65
   6  -1  -6  240.51   21.69
   6  -1  -6  255.88   42.84
  -6  -1   6  224.99   45.65
  -6  -1   5  499.31   68.22
  -6  -1   5  473.66   61.08
  -6  -1   5  385.93   59.94
   6  -1  -5  548.30   32.08
  -6  -1   5  498.17   29.14
   6  -1  -5  500.57   33.16
   6  -1  -5  498.09   60.50
  -6  -1   4  336.76   53.84
   6  -1  -4  265.81   30.63
  -6  -1   4  228.89   42.91
  -6  -1   4  276.87   48.73
   6  -1  -4  314.44   22.28
  -6  -1   4  289.13   20.30
   6  -1  -4  308.30   23.74
   6  -1  -4  279.97   44.76
  -6  -1   3 1210.57  105.80
   6  -1  -3 1145.10   72.28
  -6  -1   3 1152.26   96.15
  -6  -1   3 1150.91  105.13
   6  -1  -3 1188.05   58.01
  -6  -1   3 1201.61   56.82
   6  -1  -3 1110.22   59.37
   6  -1  -3 1089.67   93.37
   6  -1  -2  456.29   39.49
  -6  -1   2  507.24   58.00
  -6  -1   2  481.08   64.32
  -6  -1   2  413.43   57.51
   6  -1  -2  510.36   29.81
  -6  -1   2  497.83   29.01
   6  -1  -2  418.17   28.39
   6  -1  -2  442.47   56.05
   6  -1  -1  394.07   35.55
  -6  -1   1  439.56   52.01
  -6  -1   1  388.10   57.59
  -6  -1   1  486.99   60.15
   6  -1  -1  443.03   26.73
  -6  -1   1  411.70   25.30
   6  -1  -1  317.00   24.07
   6  -1  -1  411.52   28.49
  -6  -1   0  405.82   48.35
  -6  -1   0  452.80   61.91
  -6  -1   0  387.11   54.12
   6  -1   0  451.46   27.11
  -6  -1   0  417.78   25.66
   6  -1   0  315.73   23.54
   6  -1   0  398.98   28.13
  -6  -1  -1  515.11   33.29
  -6  -1  -1  507.83   53.40
  -6  -1  -1  481.51   65.45
  -6  -1  -1  491.89   60.86
   6  -1   1  608.98   32.83
  -6  -1  -1  575.17   31.60
   6  -1   1  657.88   71.66
   6  -1   1  471.03   32.21
   6  -1   1  423.23   28.62
  -6  -1  -2  632.56   39.67
  -6  -1  -2  554.14   55.81
  -6  -1  -2  767.39   82.77
  -6  -1  -2  635.42   70.25
   6  -1   2  723.32   38.97
  -6  -1  -2  688.25   37.60
   6  -1   2  670.85   76.67
  -6  -1  -3  983.12   96.92
  -6  -1  -3  959.89   47.27
  -6  -1  -3  956.27   52.69
  -6  -1  -3  973.63   89.72
   6  -1   3 1077.09   52.13
  -6  -1  -3  911.77   46.17
   6  -1   3 1139.26  101.33
  -6  -1  -4   71.02   23.09
  -6  -1  -4   75.55   11.75
   6  -1   4   66.83   10.45
  -6  -1  -4   76.55    8.89
  -6  -1  -4   69.34    8.79
   6  -1   4   60.32   24.04
  -6  -1  -5  283.72   45.72
  -6  -1  -5  332.50   25.91
   6  -1   5  322.61   24.67
  -6  -1  -5  326.95   21.48
  -6  -1  -5  361.98   23.89
   6  -1   5  317.94   55.04
  -6  -1  -6  211.14   16.57
   6  -1   6  226.04   19.75
  -6  -1  -6  211.90   16.37
  -6  -1  -6  196.41   17.03
   6  -1   6  157.09   39.59
  -6  -1  -7  458.31   57.19
  -6  -1  -7  552.97   31.29
   6  -1   7  585.47   35.77
  -6  -1  -7  552.17   31.49
  -6  -1  -7  545.63   31.97
   6  -1   8  347.33   25.15
  -6  -1  -8  288.24   20.47
  -6  -1  -8  291.21   20.48
  -6  -1  -8  243.11   40.25
  -6  -1  -8  277.12   19.81
  -6  -1  -9  288.04   19.81
   6  -1   9  260.18   22.52
  -6  -1  -9  286.02   19.62
  -6  -1  -9  322.85   21.08
  -6  -1 -10  128.20   11.68
   6  -1  10  103.71   13.72
  -6  -1 -10  131.61   12.25
  -6  -1 -11  104.28   11.25
   6  -1  11   91.22   12.19
  -6  -1 -11  116.80   10.99
  -6  -1 -12  390.34   23.30
   6  -1  12  426.19   26.49
  -6  -1 -12  406.79   23.34
  -6  -1 -13  185.83   12.86
  -6  -1 -13  188.90   13.03
   6  -1  13  187.04   14.92
   6  -1  14  158.12   11.64
  -6  -1 -14  156.19   11.34
  -6  -1 -15    7.11    2.41
  -6   0  16   16.90    4.91
   6   0 -16   11.20    2.96
   6   0 -15  554.23   25.43
   6   0 -15  497.95   24.65
   6   0 -15  507.42   27.19
   6   0 -14   25.03    4.78
   6   0 -14   24.37    5.96
   6   0 -14   26.14    5.06
   6   0 -14   25.71    5.82
   6   0 -13  369.86   22.82
   6   0 -13  353.23   24.74
   6   0 -13  380.16   22.09
   6   0 -12  137.16   15.12
   6   0 -12  157.24   12.85
   6   0 -11    8.49    5.71
   6   0 -11    5.61    3.54
   6   0 -10  692.72   41.79
   6   0 -10  719.65   37.26
  -6   0   9 1170.56  115.37
  -6   0   9 1048.15   96.81
  -6   0   9  887.20  100.04
   6   0  -9 1050.16   54.73
   6   0  -9 1125.29   95.29
   6   0  -9 1014.69   55.45
   6   0  -9 1047.48   50.98
  -6   0   8  148.09   39.39
  -6   0   8   99.73   28.71
   6   0  -8  120.88   13.51
   6   0  -8  138.44   32.04
   6   0  -8  111.18   13.86
  -6   0   8   90.44   30.82
  -6   0   7 2247.77  167.28
   6   0  -7 2026.01  120.24
  -6   0   7 2305.62  152.13
   6   0  -7 2175.68   96.88
  -6   0   7 2021.45  102.09
   6   0  -7 2028.18   96.91
   6   0  -7 2171.41  145.36
  -6   0   7 2170.72  162.29
  -6   0   6  366.17   60.20
  -6   0   6  383.28   62.45
   6   0  -6  356.41   39.44
  -6   0   6  370.51   52.86
   6   0  -6  378.93   25.75
  -6   0   6  341.53   28.36
   6   0  -6  332.06   24.87
   6   0  -6  381.27   52.45
   6   0  -6  355.87   21.61
   6   0  -6  372.53   22.24
  -6   0   5   15.90   15.95
  -6   0   5   16.95   18.35
   6   0  -5   22.82   10.13
   6   0  -5   34.82    7.54
  -6   0   5   15.36    7.05
   6   0  -5   20.75    4.58
   6   0  -5   23.79    4.88
   6   0  -5   12.15   11.14
   6   0  -4  827.65   80.20
  -6   0   4  990.28   95.89
  -6   0   4  904.90   95.74
   6   0  -4  835.58   64.09
  -6   0   4  996.98   87.07
   6   0  -4  953.03   48.30
  -6   0   4  855.09   50.80
   6   0  -4  938.35   44.31
   6   0  -4  884.16   42.78
   6   0  -4  887.88   43.54
   6   0  -3   66.59   22.78
  -6   0   3   92.94   28.34
  -6   0   3   96.40   30.29
   6   0  -3  107.89   19.53
  -6   0   3  103.46   26.80
   6   0  -3   84.12   10.57
  -6   0   3   76.09   11.89
   6   0  -3   81.00    8.77
  -6   0   3   89.50    9.51
   6   0  -3   84.92    8.33
   6   0  -3   90.27    8.96
   6   0  -2  896.18   83.41
  -6   0   2  991.67   98.99
   6   0  -2  960.16   67.60
  -6   0   2 1005.65   85.65
   6   0  -2 1082.48   51.52
  -6   0   2  924.17   53.02
   6   0  -2  991.29   46.76
  -6   0   2  989.51   48.43
   6   0  -2  945.41   45.19
   6   0  -2 1009.79   46.75
   6   0  -1  992.50   67.21
  -6   0   1 1098.04   86.66
  -6   0   1  853.49   89.20
   6   0  -1  997.18   50.07
  -6   0   1  940.94   52.42
   6   0  -1  954.47   45.66
  -6   0   1  952.57   47.78
  -6   0   1  971.65   97.39
   6   0   0   32.08   10.74
  -6   0   0   33.56   15.42
   6   0   0   16.07    5.39
  -6   0   0    4.76   14.30
  -6   0   0   27.12    6.98
  -6   0   0   10.84    4.48
   6   0   0   16.90    4.06
   6   0   0   16.54    8.14
   6   0   1   40.38   11.99
  -6   0  -1   67.16   20.07
   6   0   1   45.67    8.15
  -6   0  -1   28.55   17.59
  -6   0  -1   46.21    9.29
  -6   0  -1   44.38    7.54
   6   0   1   38.58    5.81
   6   0   1   42.24   12.85
  -6   0  -1   60.06   23.83
  -6   0  -2  483.27   64.74
   6   0   2  428.88   41.50
  -6   0  -2  393.29   48.00
   6   0   2  458.03   42.41
  -6   0  -2  447.63   62.71
   6   0   2  459.76   29.29
  -6   0  -2  476.83   28.30
  -6   0  -2  455.57   30.97
  -6   0  -2  402.29   29.54
   6   0   2  532.70   64.02
  -6   0  -3  190.37   41.23
  -6   0  -3  225.90   33.83
   6   0   3  218.63   29.00
   6   0   3  253.44   19.97
  -6   0  -3  195.75   41.64
  -6   0  -3  228.45   33.64
  -6   0  -3  226.10   20.44
  -6   0  -3  211.07   17.70
   6   0   3  226.01   42.04
  -6   0  -3  221.89   20.22
  -6   0  -4 1629.44   78.11
  -6   0  -4 1727.41  132.38
   6   0   4 1472.49   93.71
   6   0   4 1657.44   76.80
  -6   0  -4 1741.17  133.11
  -6   0  -4 1535.18   73.48
  -6   0  -4 1706.01  107.31
  -6   0  -4 1494.26   69.85
   6   0   4 1476.71  122.00
  -6   0  -5   77.51   12.39
  -6   0  -5  111.76   31.94
   6   0   5   62.39   16.03
   6   0   5   83.84   12.01
  -6   0  -5  102.64   31.64
  -6   0  -5   84.98    9.42
  -6   0  -5   83.33   10.23
   6   0   5  105.95   30.29
   6   0   6   54.67   23.71
   6   0   6   34.28   12.09
  -6   0  -6   54.32   17.10
  -6   0  -6   59.59    8.90
  -6   0  -6   70.40   11.40
  -6   0  -6   57.49    8.00
   6   0   6   52.16   10.17
  -6   0  -7   45.58   18.74
  -6   0  -7   38.91   15.26
  -6   0  -7   55.93    8.56
  -6   0  -7   50.54    7.83
   6   0   7   60.66   24.09
   6   0   7   48.64   10.14
  -6   0  -8   41.89   16.89
  -6   0  -8   36.12    7.26
  -6   0  -8   23.80    5.83
   6   0   8   38.35    8.60
   6   0   8   35.40   19.65
   6   0   9  382.95   28.46
  -6   0  -9  355.36   23.53
  -6   0  -9  380.45   23.90
   6   0  10  559.90   36.10
  -6   0 -10  565.07   31.52
  -6   0 -10  552.21   30.72
  -6   0 -11    6.89    3.68
   6   0  11    1.67    4.93
  -6   0 -11    8.45    3.95
  -6   0 -12    3.51    2.84
  -6   0 -12    8.42    3.68
   6   0  12    7.42    4.99
  -6   0 -13   23.49    4.56
   6   0  13   30.97    6.74
  -6   0 -14  144.64    9.67
   6   0  14  126.97   11.26
   6   0  15  260.19   15.35
   6   1 -16  121.76    8.08
  -6   1  16  104.88    9.88
  -6   1  15   10.58    4.85
  -6   1  14  520.35   32.72
   6   1 -13  222.59   15.52
   6   1 -12  185.64   14.30
   6   1 -12  206.01   15.40
   6   1 -11   18.47    5.17
   6   1 -10  258.44   17.10
   6   1 -10  292.75   20.27
  -6   1   9  305.13   57.67
  -6   1   9  276.20   57.07
  -6   1   9  258.85   45.44
   6   1  -9  261.48   21.27
   6   1  -9  405.43   52.80
   6   1  -9  278.50   20.47
   6   1  -9  275.20   17.74
  -6   1   8  329.11   59.46
  -6   1   8  290.38   59.53
   6   1  -8  379.61   42.92
  -6   1   8  362.82   53.56
   6   1  -8  331.43   24.46
  -6   1   8  338.04   28.68
   6   1  -8  399.67   53.71
   6   1  -8  351.02   20.80
   6   1  -8  346.36   22.23
  -6   1   7  129.45   36.40
  -6   1   7   79.88   30.92
  -6   1   7   82.27   23.87
  -6   1   7   70.80   24.74
   6   1  -7  130.48   24.47
   6   1  -7  161.80   15.13
  -6   1   7  102.49   15.18
   6   1  -7  123.13   10.70
   6   1  -7  137.89   12.23
   6   1  -7  125.67   12.00
   6   1  -7   90.01   26.03
   6   1  -6  187.38   36.83
  -6   1   6  253.94   50.26
  -6   1   6  194.64   47.96
  -6   1   6  209.79   36.59
   6   1  -6  244.21   33.30
  -6   1   6  194.88   39.02
   6   1  -6  250.54   19.69
  -6   1   6  198.39   21.19
   6   1  -6  249.89   17.63
   6   1  -6  228.70   15.65
   6   1  -6  234.65   16.91
   6   1  -6  250.73   17.54
   6   1  -5  380.13   54.15
  -6   1   5  437.39   64.93
  -6   1   5  456.35   71.95
   6   1  -5  472.46   47.30
  -6   1   5  501.46   61.65
   6   1  -5  485.01   30.64
  -6   1   5  488.06   33.95
   6   1  -5  487.02   28.14
   6   1  -5  472.69   27.28
   6   1  -5  509.03   28.35
  -6   1   4  237.89   46.84
   6   1  -4  269.49   17.78
   6   1  -4  246.88   17.89
   6   1  -4  243.48   32.66
  -6   1   4  306.33   46.47
   6   1  -4  266.98   20.42
  -6   1   4  252.94   22.46
   6   1  -4  252.82   18.01
   6   1  -4  285.54   44.40
  -6   1   3 1327.77  112.09
  -6   1   3 1151.49   58.72
   6   1  -3 1240.10   57.23
   6   1  -3 1224.24   58.03
   6   1  -3 1183.63   82.56
   6   1  -3 1344.81   61.96
  -6   1   3 1183.46   63.88
   6   1  -3 1262.75   58.29
  -6   1   3 1268.27   57.70
   6   1  -3 1137.06   97.23
   6   1  -2  465.81   42.29
  -6   1   2  566.28   75.34
   6   1  -2  538.73   49.43
  -6   1   2  495.36   59.80
   6   1  -2  590.11   32.85
  -6   1   2  529.33   34.33
  -6   1   2  505.39   29.29
   6   1  -2  536.93   29.66
  -6   1   2  533.73   31.16
   6   1  -2  560.74   28.99
   6   1  -1  420.87   43.29
  -6   1   1  555.70   60.20
  -6   1   1  389.08   60.12
   6   1  -1  481.17   28.47
  -6   1   1  391.87   42.50
  -6   1   1  414.01   25.54
  -6   1   1  413.55   29.17
   6   1  -1  406.64   39.50
  -6   1   1  428.48   64.24
  -6   1   1  406.49   26.76
   6   1   0  436.29   40.84
  -6   1   0  311.34   55.22
   6   1   0  447.76   43.95
  -6   1   0  402.86   51.38
  -6   1   0  358.73   58.60
   6   1   0  417.75   26.73
  -6   1   0  452.09   45.67
  -6   1   0  430.83   28.90
  -6   1   0  382.03   24.68
  -6   1   0  394.76   23.80
  -6   1   0  363.21   25.58
   6   1   1  506.52   46.83
  -6   1  -1  420.03   63.06
  -6   1  -1  536.01   60.03
   6   1   1  547.85   50.71
  -6   1  -1  406.31   63.53
   6   1   1  567.14   32.75
  -6   1  -1  496.94   50.50
  -6   1  -1  538.88   31.03
  -6   1  -1  513.22   33.55
  -6   1  -1  529.12   29.71
  -6   1  -1  530.54   32.19
  -6   1  -2  604.91   38.86
   6   1   2  703.32   56.54
  -6   1  -2  513.54   69.85
  -6   1  -2  663.49   65.62
   6   1   2  618.27   55.46
  -6   1  -2  609.07   77.03
   6   1   2  713.07   38.78
  -6   1  -2  643.26   59.60
  -6   1  -2  648.80   36.41
  -6   1  -2  671.71   39.61
  -6   1  -2  653.45   35.35
  -6   1  -2  639.71   37.35
  -6   1  -3  904.39   51.92
   6   1   3  999.69   72.27
  -6   1  -3  995.24   95.74
  -6   1  -3 1038.26   82.80
   6   1   3  880.48   70.97
  -6   1  -3  922.43   97.89
   6   1   3  970.58   50.71
  -6   1  -3 1010.07   77.51
  -6   1  -3  922.06   48.72
  -6   1  -3  984.92   48.03
  -6   1  -3  934.54   49.88
  -6   1  -4   95.65   12.81
   6   1   4   66.30   17.95
  -6   1  -4   93.21   28.39
   6   1   4   76.87   19.20
  -6   1  -4   72.21   19.87
   6   1   4   86.11   11.79
  -6   1  -4  111.21   34.24
  -6   1  -4   78.22   20.77
  -6   1  -4   80.91   10.50
  -6   1  -4   77.98    9.79
  -6   1  -4   67.12    8.12
   6   1   5  380.61   53.19
  -6   1  -5  342.62   26.17
   6   1   5  368.60   41.95
  -6   1  -5  304.80   51.00
  -6   1  -5  225.67   36.00
   6   1   5  293.89   39.16
   6   1   5  362.00   25.85
  -6   1  -5  311.67   56.70
  -6   1  -5  329.58   43.08
  -6   1  -5  341.48   23.69
  -6   1  -5  344.03   22.99
  -6   1  -5  326.64   21.04
  -6   1  -5  354.01   24.77
   6   1   6  149.85   28.12
  -6   1  -6  209.27   41.57
   6   1   6  178.46   30.10
   6   1   6  231.20   20.08
  -6   1  -6  197.55   16.47
  -6   1  -6  197.79   15.50
  -6   1  -6  204.31   17.80
  -6   1  -7  532.42   56.00
  -6   1  -7  629.73   33.90
   6   1   7  495.40   34.33
  -6   1  -7  500.46   59.32
  -6   1  -7  561.23   31.08
  -6   1  -7  559.58   33.06
  -6   1  -8  353.24   23.91
   6   1   8  362.08   26.87
  -6   1  -8  371.53   23.04
  -6   1  -8  334.17   23.42
   6   1   9  268.45   22.77
  -6   1  -9  268.17   19.38
  -6   1  -9  285.80   19.32
  -6   1  -9  266.61   19.61
  -6   1 -10  159.29   13.66
   6   1  10  147.05   15.92
  -6   1 -10  157.81   13.54
   6   1  11   94.21   12.61
  -6   1 -11  100.33    9.87
  -6   1 -11  107.13   10.39
  -6   1 -11   97.42   10.01
   6   1  12  399.70   26.14
  -6   1 -12  403.78   22.87
   6   1  13  185.50   15.32
  -6   1 -13  200.81   13.17
   6   1  14  130.25   11.28
  -6   1 -14  160.03   10.16
   6   2 -15   63.71    6.07
   6   2 -15   72.88    6.19
  -6   2  14    4.31    3.39
   6   2 -14    8.77    3.34
   6   2 -14    8.07    3.02
   6   2 -13   88.92    9.00
  -6   2  13   59.31    9.12
   6   2 -12  243.19   17.13
  -6   2  12  199.32   18.62
   6   2 -11  821.92   39.91
   6   2 -11  853.99   42.79
  -6   2  11  763.39   45.71
  -6   2  10  103.62   14.10
   6   2 -10  111.76   10.53
   6   2 -10  129.58   12.79
   6   2 -10  123.16   10.37
  -6   2   9  118.61   15.26
   6   2  -9  114.13   10.43
   6   2  -9  129.98   10.70
   6   2  -9  136.88   11.73
   6   2  -8    9.37    3.23
   6   2  -8    6.75    3.44
  -6   2   8    4.68    9.95
  -6   2   8   13.33   10.90
   6   2  -8    2.75    9.56
  -6   2   8    1.95    4.48
  -6   2   8    5.72   12.16
   6   2  -8    3.70    6.43
   6   2  -7  116.35    9.92
   6   2  -7  106.82   10.57
   6   2  -7  109.00   11.09
  -6   2   7   96.81   27.99
  -6   2   7  103.04   28.83
   6   2  -7   99.62   22.36
   6   2  -7   96.79   11.72
  -6   2   7   86.41   13.04
   6   2  -7   93.74   25.51
  -6   2   7   56.19   24.21
   6   2  -6  918.10   82.81
  -6   2   6  774.57   90.85
  -6   2   6  985.58  112.93
   6   2  -6  798.68   68.68
  -6   2   6  932.70   89.17
   6   2  -6  913.41   48.30
  -6   2   6  873.58   50.89
   6   2  -6  952.40   46.89
   6   2  -6  916.14   43.37
   6   2  -6  932.07   46.17
   6   2  -5 1585.26  117.74
  -6   2   5 1874.54  141.60
  -6   2   5 1750.35  153.45
   6   2  -5 1484.21   92.70
   6   2  -5 1715.16  107.83
  -6   2   5 1835.57  130.91
   6   2  -5 1750.15   79.43
  -6   2   5 1592.94   81.60
   6   2  -5 1728.66   77.55
   6   2  -5 1728.72   77.09
   6   2  -4  139.29   23.44
  -6   2   4  130.00   40.36
   6   2  -4  121.30   20.22
   6   2  -4  172.84   28.82
  -6   2   4  195.45   38.57
   6   2  -4  150.87   14.95
  -6   2   4  195.95   18.31
   6   2  -4  125.00   30.06
   6   2  -4  187.06   14.55
   6   2  -3    2.21    6.09
  -6   2   3   24.99   20.28
   6   2  -3   12.26    6.81
  -6   2   3   -4.27    9.08
   6   2  -3   10.40    4.68
  -6   2   3   13.31    5.42
   6   2  -3   33.87   16.00
  -6   2   3   18.41    5.30
   6   2  -3   12.15    4.52
  -6   2   2  382.16   63.26
   6   2  -2  388.63   40.51
   6   2  -2  309.54   33.35
  -6   2   2  366.67   64.24
   6   2  -2  374.10   24.60
  -6   2   2  347.42   25.40
  -6   2   2  369.85   22.56
   6   2  -2  298.81   47.31
  -6   2   2  347.44   24.02
   6   2  -1  352.97   38.61
  -6   2   1  249.64   50.51
   6   2  -1  288.55   30.79
  -6   2   1  309.24   48.79
  -6   2   1  276.08   55.28
   6   2  -1  313.90   21.61
  -6   2   1  268.38   34.96
  -6   2   1  287.20   22.25
  -6   2   1  280.09   19.82
  -6   2   1  288.42   21.63
   6   2  -1  288.13   45.09
  -6   2   0 1086.59   60.17
   6   2   0 1226.76   83.31
  -6   2   0 1125.28  108.88
   6   2   0 1082.69   71.86
  -6   2   0 1219.81  100.00
  -6   2   0  972.15   96.95
  -6   2   0 1198.48  116.21
   6   2   0 1261.53   59.12
  -6   2   0 1224.19   84.51
  -6   2   0 1176.63   59.71
  -6   2   0 1242.81   57.76
  -6   2   0 1186.63   55.40
  -6   2   0 1148.22   58.94
  -6   2  -1   83.50   12.33
   6   2   1  109.82   22.29
  -6   2  -1  125.29   34.12
   6   2   1   93.34   17.79
   6   2   1  122.87   24.55
  -6   2  -1   75.74   24.28
  -6   2  -1  110.09   29.85
  -6   2  -1   82.69   30.99
   6   2   1  113.43   12.28
  -6   2  -1  113.78   23.43
  -6   2  -1  112.52   11.92
  -6   2  -1  107.42   13.02
  -6   2  -1   94.41   10.39
  -6   2  -1  105.13   12.79
  -6   2  -2  496.68   32.96
   6   2   2  480.54   49.66
  -6   2  -2  433.58   64.60
  -6   2  -2  516.31   61.32
  -6   2  -2  475.58   51.39
   6   2   2  538.26   53.54
   6   2   2  473.90   42.68
  -6   2  -2  555.02   76.17
   6   2   2  510.24   31.36
  -6   2  -2  525.19   31.24
  -6   2  -2  516.62   29.66
  -6   2  -2  547.16   33.01
  -6   2  -3   89.97   12.61
   6   2   3   92.73   21.45
  -6   2  -3  115.27   31.92
   6   2   3   61.84   20.42
  -6   2  -3   99.10   25.85
   6   2   3   77.45   10.70
  -6   2  -3   65.28   26.48
  -6   2  -3  109.52   23.86
  -6   2  -3   91.36   11.15
  -6   2  -3  110.58   11.25
  -6   2  -3   84.46    9.08
  -6   2  -3  102.02   12.59
  -6   2  -4  174.75   17.56
   6   2   4  143.11   27.44
  -6   2  -4  174.67   37.96
  -6   2  -4  158.37   32.91
   6   2   4  194.09   32.01
   6   2   4  183.43   16.59
  -6   2  -4  137.29   38.59
  -6   2  -4  172.53   30.98
  -6   2  -4  170.52   15.80
  -6   2  -4  167.42   14.95
  -6   2  -4  180.89   13.97
  -6   2  -4  164.45   16.23
  -6   2  -4  143.69   12.52
   6   2   5  945.61   75.89
  -6   2  -5  827.28   85.59
  -6   2  -5  897.54   79.42
  -6   2  -5  840.65   79.06
   6   2   5  837.98   75.27
  -6   2  -5  904.05   77.14
  -6   2  -5  948.76  103.39
   6   2   5  930.45   50.00
  -6   2  -5 1025.14   50.33
  -6   2  -5  967.12   48.53
  -6   2  -5  942.65   46.68
  -6   2  -5  947.06   45.99
   6   2   6  318.35   42.77
  -6   2  -6  307.77   44.93
  -6   2  -6  381.14   47.37
   6   2   6  295.36   42.25
   6   2   6  387.88   26.97
  -6   2  -6  398.98   25.65
  -6   2  -6  419.62   24.98
  -6   2  -6  410.89   27.27
  -6   2  -6  407.25   24.15
  -6   2  -6  415.39   27.20
   6   2   7  279.72   22.31
  -6   2  -7  329.66   21.96
  -6   2  -7  294.50   20.36
  -6   2  -7  309.60   22.41
  -6   2  -7  289.36   19.79
   6   2   8  688.48   42.14
  -6   2  -8  781.63   41.76
  -6   2  -8  832.31   41.13
  -6   2  -8  797.72   42.35
  -6   2  -8  790.49   40.21
  -6   2  -8  812.13   42.62
   6   2   9   78.81   11.05
  -6   2  -9  101.57   10.87
  -6   2  -9   89.10    9.76
  -6   2  -9   97.26   10.91
   6   2  10   54.11    9.08
  -6   2 -10   67.26    8.60
  -6   2 -10   65.72    8.09
  -6   2 -10   64.25    8.36
  -6   2 -11  305.18   18.72
  -6   2 -11  304.83   18.43
  -6   2 -11  316.82   18.89
   6   2  12   20.21    4.82
  -6   2 -12   17.45    3.95
  -6   2 -12   22.63    4.32
   6   2  13   61.68    7.08
  -6   2 -13  103.25    7.53
   6   3 -14   42.36    4.39
   6   3 -13  160.75   10.75
   6   3 -13  153.41   11.44
   6   3 -12  414.17   23.66
   6   3 -11    0.72    2.21
   6   3 -11    2.45    2.65
   6   3 -11    2.08    3.44
   6   3 -10  754.91   37.19
   6   3 -10  752.54   37.96
   6   3 -10  807.98   40.65
   6   3  -9   73.07    8.14
   6   3  -9   69.93    7.68
   6   3  -9   68.83    8.12
   6   3  -9   71.28    9.52
   6   3  -9   61.53    8.06
   6   3  -8   50.24    6.68
   6   3  -8   50.75    7.46
   6   3  -8   43.18    7.84
   6   3  -8   60.20    8.09
   6   3  -7  196.04   14.77
   6   3  -7  225.54   16.49
   6   3  -7  230.63   16.76
   6   3  -7  226.84   16.91
   6   3  -7  198.69   14.32
   6   3  -6  346.41   22.36
   6   3  -6  323.17   20.47
   6   3  -6  321.17   21.89
   6   3  -6  358.41   22.61
   6   3  -5  257.47   34.37
  -6   3   5  206.70   50.53
  -6   3   5  272.52   57.00
   6   3  -5  251.27   35.66
  -6   3   5  268.06   46.29
   6   3  -5  301.03   20.51
   6   3  -5  302.29   20.45
  -6   3   4  615.18   86.29
   6   3  -4  579.04   54.94
  -6   3   4  511.57   78.11
   6   3  -4  545.12   50.50
   6   3  -4  536.20   55.36
  -6   3   4  616.68   72.21
   6   3  -4  677.63   35.70
   6   3  -4  662.17   35.37
   6   3  -3  111.24   22.62
  -6   3   3   69.32   28.15
  -6   3   3   71.01   28.82
   6   3  -3   76.09   17.53
   6   3  -3   93.07   21.69
  -6   3   3  132.45   32.42
   6   3  -3  108.28   11.61
  -6   3   3   96.98   11.36
   6   3  -3  116.40   11.76
   6   3  -2   57.24   16.92
  -6   3   2   65.68   27.53
   6   3  -2   45.80   15.36
   6   3  -2   71.26   19.01
  -6   3   2  100.03   28.56
  -6   3   2   57.15   27.11
   6   3  -2   70.42    9.52
  -6   3   2   75.34   10.23
   6   3  -1  317.30   37.23
   6   3  -1  309.85   41.06
  -6   3   1  379.09   55.86
  -6   3   1  349.53   60.88
  -6   3   1  444.34   68.90
  -6   3   1  385.90   23.74
   6   3  -1  312.91   41.10
  -6   3   1  331.67   57.86
  -6   3   1  412.85   26.60
   6   3   0   17.12   10.56
  -6   3   0   15.82   15.89
   6   3   0   20.10   11.68
   6   3   0   20.65   10.91
  -6   3   0   46.43   23.64
  -6   3   0   43.29   22.78
  -6   3   0   35.66    6.74
  -6   3   0   37.29    8.22
   6   3   1  664.74   61.72
  -6   3  -1  600.83   58.59
  -6   3  -1  653.28   73.55
   6   3   1  628.36   55.25
   6   3   1  707.95   64.60
  -6   3  -1  649.02   85.38
  -6   3  -1  604.00   79.31
  -6   3  -1  679.53   37.56
  -6   3  -1  664.09   35.33
  -6   3  -1  735.44   40.33
   6   3   2  126.66   26.15
   6   3   2  101.53   20.46
   6   3   2  110.58   24.78
  -6   3  -2  112.76   29.92
  -6   3  -2   80.64   28.29
  -6   3  -2   60.63   26.11
  -6   3  -2  111.23   12.26
  -6   3  -2  101.05   22.87
  -6   3  -2  108.28   11.30
  -6   3  -2  124.33   13.89
   6   3   3  142.84   27.74
   6   3   3  153.30   29.35
  -6   3  -3  151.96   33.71
   6   3   3  170.77   26.69
  -6   3  -3  175.48   15.76
  -6   3  -3   95.60   23.19
  -6   3  -3  156.37   40.19
  -6   3  -3  156.21   13.99
  -6   3  -3  162.30   16.25
   6   3   4  116.63   25.28
  -6   3  -4  150.26   14.70
  -6   3  -4  145.67   13.08
  -6   3  -4  146.01   15.72
  -6   3  -4  153.47   13.96
  -6   3  -4  155.08   12.64
  -6   3  -5  356.21   23.59
  -6   3  -5  276.41   18.68
  -6   3  -5  339.34   22.15
  -6   3  -5  299.21   19.84
  -6   3  -6  295.63   21.15
  -6   3  -6  249.76   17.35
  -6   3  -6  318.54   22.23
  -6   3  -6  262.35   19.55
  -6   3  -6  248.37   17.90
  -6   3  -7  683.70   37.84
  -6   3  -7  724.34   38.49
  -6   3  -7  646.47   34.32
  -6   3  -7  711.71   37.03
  -6   3  -7  646.03   34.97
  -6   3  -8   57.38    8.68
  -6   3  -8   46.63    6.74
  -6   3  -8   61.20    8.33
  -6   3  -8   50.89    7.22
  -6   3  -9    3.15    3.53
  -6   3  -9    2.55    2.81
  -6   3  -9    3.23    3.10
  -6   3  -9    0.55    3.43
  -6   3  -9   -0.51    3.21
  -6   3 -10   46.38    6.70
  -6   3 -10   36.40    5.54
  -6   3 -10   47.66    6.58
  -6   3 -11   16.95    3.59
  -6   3 -11   10.98    3.28
  -6   3 -12  319.30   17.13
   6   4 -12   98.64    7.64
   6   4 -11  166.36   11.55
   6   4 -11  163.23   10.54
   6   4 -10  117.69    9.03
   6   4 -10  119.63   10.33
   6   4 -10  130.42    9.65
   6   4  -9  141.71   10.70
   6   4  -9  150.08   12.15
   6   4  -9  150.95   11.23
   6   4  -8   90.86    8.79
   6   4  -8   91.47    9.83
   6   4  -8  107.99    9.78
   6   4  -8  114.60    9.85
   6   4  -7  400.85   22.51
   6   4  -7  383.30   23.87
   6   4  -7  390.16   23.00
   6   4  -7  383.15   21.86
   6   4  -6  133.72   11.39
   6   4  -6  146.89   13.12
   6   4  -6  128.55   11.74
   6   4  -6  132.54   11.60
   6   4  -5  312.72   21.24
   6   4  -5  311.68   20.40
   6   4  -5  302.62   20.02
   6   4  -5  318.87   20.29
   6   4  -4  145.28   12.94
   6   4  -4  159.17   13.17
   6   4  -4  138.23   12.51
  -6   4   3  124.98   12.82
   6   4  -3  174.20   14.36
   6   4  -3  175.53   14.10
   6   4  -3  166.63   13.72
  -6   4   2  654.76   37.57
   6   4  -2  732.38   37.73
   6   4  -2  734.41   37.58
   6   4  -2  670.12   37.00
  -6   4   1  328.40   23.51
   6   4  -1  347.35   22.46
   6   4  -1  347.43   22.61
  -6   4   0  288.92   21.13
  -6   4   0  241.26   17.72
  -6   4  -1   66.30   10.20
  -6   4  -1   66.91    8.99
  -6   4  -2  109.18   11.71
  -6   4  -2  130.56   14.07
  -6   4  -2  106.46   10.21
  -6   4  -3  217.36   16.79
  -6   4  -3  218.24   18.15
  -6   4  -3  168.30   14.06
  -6   4  -4  313.10   21.44
  -6   4  -4  327.23   23.12
  -6   4  -4  288.73   19.50
  -6   4  -5  199.21   16.12
  -6   4  -5  196.73   16.65
  -6   4  -5  178.71   14.35
  -6   4  -6  193.31   15.41
  -6   4  -6  181.93   14.15
  -6   4  -6  170.40   12.58
  -6   4  -7   60.93    8.29
  -6   4  -7   73.10    9.10
  -6   4  -7   69.17    8.03
  -6   4  -7   59.96    6.82
  -6   4  -8   35.85    6.03
  -6   4  -8   31.23    4.44
  -6   4  -8   31.75    4.93
  -6   4  -8   42.04    6.41
  -6   4  -8   37.67    5.87
  -6   4  -9  243.59   15.18
  -6   4  -9  219.86   13.23
  -6   4  -9  262.43   15.36
  -6   4 -10  194.79   12.77
  -6   4 -10  222.90   13.03
   6   5  -9  140.12    8.98
   6   5  -8  217.97   12.86
   6   5  -8  239.18   13.55
   6   5  -7   24.54    3.91
   6   5  -7   28.43    4.33
   6   5  -7   18.44    3.35
   6   5  -6   82.66    7.50
   6   5  -6   92.42    8.24
   6   5  -6   76.26    7.23
   6   5  -6   75.54    7.05
   6   5  -5   36.21    5.05
   6   5  -5   27.58    4.83
   6   5  -5   31.85    4.90
   6   5  -4    9.04    3.29
   6   5  -3  467.66   24.48
   6   5  -3  426.56   22.91
   6   5  -3  425.88   23.11
   6   5  -2  105.96    9.17
   6   5  -2  101.08    9.32
  -6   5   1   49.35    7.11
   6   5  -1   59.10    7.26
   6   5  -1   47.66    6.01
   6   5  -1   41.36    6.02
  -6   5   0   52.97    7.44
   6   5   0   39.66    5.63
   6   5   0   41.74    6.10
   6   5   1   22.37    4.34
   6   5   1   21.99    4.60
  -6   5  -2  140.44   11.14
  -6   5  -2  175.82   14.34
   6   5   2  151.18   11.44
   6   5   2  158.37   12.12
  -6   5  -3  332.53   19.46
   6   5   3  300.98   18.64
   6   5   3  337.64   19.78
  -6   5  -4    3.04    3.17
  -6   5  -4    3.16    2.61
  -6   5  -5  117.50   10.48
  -6   5  -5   95.49    8.92
  -6   5  -6    7.91    2.71
  -6   5  -6    3.10    1.74
  -6   5  -7    3.54    2.06
  -6   5  -7    8.75    2.90
  -7  -5   6   50.37    5.12
  -7  -5   5   30.76    4.30
  -7  -5   5   36.17    5.78
   7  -5  -4    5.65    3.52
  -7  -5   4    4.97    2.53
  -7  -5   3   99.15    8.13
  -7  -5   3   80.84    7.65
  -7  -5   3   81.79    9.49
  -7  -5   2  323.76   18.51
  -7  -5   2  316.07   20.26
  -7  -5   2  352.96   18.53
  -7  -5   1   25.00    4.73
  -7  -5   1   18.92    5.14
  -7  -5   1   24.85    4.31
  -7  -5   0  100.45    9.11
   7  -5   0   95.45   11.30
  -7  -5   0  104.97    8.67
  -7  -5  -1    4.19    2.35
   7  -5   1    2.94    4.01
  -7  -5  -2    8.54    2.62
  -7  -5  -3  185.97   12.10
  -7  -5  -3  190.34   11.39
  -7  -5  -4  107.59    7.48
   7  -4  -9  103.51   10.08
  -7  -4   8  103.48   10.62
   7  -4  -8   93.49   10.67
  -7  -4   7  143.77   14.11
   7  -4  -7  144.16   14.09
   7  -4  -7  165.41   14.77
  -7  -4   6  135.69   11.01
   7  -4  -6  177.97   16.34
  -7  -4   5  171.17   13.61
   7  -4  -5  197.42   18.54
  -7  -4   4  177.84   14.54
  -7  -4   4  197.45   15.00
   7  -4  -4  180.39   18.61
  -7  -4   3  305.88   19.66
  -7  -4   3  261.07   19.04
  -7  -4   2   31.20    6.76
  -7  -4   2   37.72    6.47
  -7  -4   1  314.86   22.06
   7  -4  -1  355.87   27.66
  -7  -4   1  337.21   21.62
   7  -4   0  129.10   16.01
  -7  -4   0  126.62   11.81
   7  -4   1  216.76   20.39
  -7  -4  -1  193.01   15.21
   7  -4   1  214.37   19.49
   7  -4   2   59.45   11.15
   7  -4   2   70.25   11.05
  -7  -4  -2   74.50    8.71
   7  -4   3   51.57   10.06
   7  -4   3   68.95   10.55
   7  -4   4  131.02   14.52
   7  -4   4  132.71   14.24
   7  -4   5  239.78   18.76
  -7  -4  -6  113.41    9.75
   7  -4   6   96.44   10.70
  -7  -4  -7   29.80    4.71
   7  -4   7   27.62    5.20
  -7  -4  -8   77.63    6.84
   7  -3 -12   92.21    7.08
   7  -3 -12   68.45    6.99
   7  -3 -11  224.25   13.64
   7  -3 -11  201.23   14.22
   7  -3 -11  191.30   14.51
   7  -3 -10   96.76    8.92
   7  -3 -10   69.74    9.42
  -7  -3   9  303.29   21.09
   7  -3  -9  318.84   19.27
   7  -3  -9  267.93   21.19
   7  -3  -8   77.66   10.34
   7  -3  -8  100.88   10.05
   7  -3  -8   78.22   11.47
   7  -3  -7   51.49    9.02
   7  -3  -7   69.97   11.25
   7  -3  -6  483.93   31.23
   7  -3  -6  525.41   34.14
  -7  -3   5   55.90    8.24
   7  -3  -5   51.14    9.73
  -7  -3   5   55.95    9.43
   7  -3  -5   81.70   12.41
  -7  -3   4  383.34   24.28
   7  -3  -4  327.82   25.08
   7  -3  -4  355.28   27.96
  -7  -3   4  382.70   25.95
   7  -3  -3  529.11   35.52
  -7  -3   3  700.19   37.69
   7  -3  -2   69.80   11.03
  -7  -3   2   81.32   11.74
  -7  -3   1   96.27   10.99
   7  -3  -1  127.93   17.28
  -7  -3   1   96.50   12.51
   7  -3   0  220.31   21.16
  -7  -3   0  177.64   17.13
  -7  -3   0  202.17   16.47
   7  -3   0  252.62   23.86
   7  -3   1  227.22   21.44
  -7  -3  -1  222.68   18.70
  -7  -3  -1  221.90   17.42
   7  -3   1  242.19   23.48
   7  -3   2  757.21   45.98
  -7  -3  -2  758.39   40.61
   7  -3   2  830.22   48.55
  -7  -3  -3   82.40   11.02
  -7  -3  -3   80.70    9.81
   7  -3   3   69.53   11.78
   7  -3   3   74.78   12.74
   7  -3   4  105.35   14.03
  -7  -3  -4  105.16   11.87
  -7  -3  -4  126.74   12.30
   7  -3   4  103.28   14.25
   7  -3   5   43.38    8.95
  -7  -3  -5   49.44    7.93
  -7  -3  -5   46.13    7.74
   7  -3   5   64.13   10.55
   7  -3   6   29.81    7.32
  -7  -3  -6   25.30    5.61
  -7  -3  -6   19.63    5.65
   7  -3   6   30.85    6.80
   7  -3   7  389.77   26.36
  -7  -3  -7  437.94   24.88
  -7  -3  -8  171.77   12.92
  -7  -3  -9   35.39    5.34
  -7  -3 -10    9.32    3.16
   7  -2 -14   26.99    3.80
   7  -2 -13    1.27    2.44
   7  -2 -13    0.33    2.27
  -7  -2  12   84.04    9.91
   7  -2 -12   68.06    8.96
  -7  -2  11  455.10   27.75
   7  -2 -11  440.74   26.87
   7  -2 -11  438.27   26.13
   7  -2 -10  484.71   30.77
  -7  -2  10  587.77   34.54
   7  -2 -10  577.14   33.85
   7  -2 -10  538.89   32.22
  -7  -2   9   67.40   11.26
   7  -2  -9   64.06   10.00
   7  -2  -9   94.33   12.27
   7  -2  -9   78.84   10.92
   7  -2  -8   73.56   11.10
  -7  -2   8   77.18   12.04
   7  -2  -8   76.85   11.75
   7  -2  -8   80.73   11.47
   7  -2  -7   73.79   11.31
  -7  -2   7   89.55   12.85
   7  -2  -7   65.35   10.97
   7  -2  -7   70.38   10.77
   7  -2  -7   73.29    9.69
   7  -2  -6   65.72   11.07
  -7  -2   6   90.27   13.37
   7  -2  -6   71.56   11.79
   7  -2  -6   67.29   10.74
   7  -2  -6   80.58   10.21
   7  -2  -5  571.46   37.41
  -7  -2   5  603.17   38.82
   7  -2  -5  588.34   36.47
   7  -2  -5  619.80   34.82
   7  -2  -4  154.10   17.34
  -7  -2   4  179.34   18.57
   7  -2  -4  171.80   17.05
   7  -2  -4  182.25   15.92
   7  -2  -3  345.11   23.12
  -7  -2   3  292.25   52.37
   7  -2  -3  304.55   25.06
  -7  -2   3  335.90   26.31
  -7  -2   3  311.59   22.68
   7  -2  -3  284.38   22.95
  -7  -2   2   52.74    9.97
   7  -2  -2   67.35    9.43
  -7  -2   2   37.29   19.74
  -7  -2   2   56.22   21.62
  -7  -2   2   61.25   10.91
  -7  -2   2   60.57    9.46
   7  -2  -2   57.26    9.83
  -7  -2   1   36.59    8.80
  -7  -2   1   33.38    6.52
   7  -2  -1   43.44    7.82
  -7  -2   1   24.22   16.87
  -7  -2   1   43.28    9.40
  -7  -2   1   42.28    8.34
   7  -2  -1   39.67   17.60
   7  -2  -1   27.28    7.48
  -7  -2   0  165.20   14.29
  -7  -2   0  151.91   16.24
   7  -2   0  170.98   15.28
  -7  -2   0  202.99   42.32
  -7  -2   0  168.55   17.72
  -7  -2   0  159.12   15.82
   7  -2   0  134.66   14.72
  -7  -2  -1  496.00   29.99
  -7  -2  -1  500.82   33.42
   7  -2   1  561.45   32.35
  -7  -2  -1  522.74   69.33
  -7  -2  -1  551.46   35.60
  -7  -2  -1  529.49   33.42
   7  -2   1  559.11   36.01
   7  -2   2   74.70   12.04
   7  -2   2   99.27   14.59
   7  -2   2   85.83   10.71
  -7  -2  -2   80.95   11.81
  -7  -2  -2   79.44    9.85
  -7  -2  -2   67.44   10.80
  -7  -2  -3  161.83   14.60
   7  -2   3  184.27   18.66
   7  -2   3  221.61   21.00
   7  -2   3  223.74   17.70
  -7  -2  -3  202.75   17.90
  -7  -2  -3  180.01   17.50
   7  -2   4   35.43    8.97
   7  -2   4   43.62    8.94
   7  -2   4   60.70    9.04
   7  -2   5  191.03   17.01
  -7  -2  -5  232.10   17.44
  -7  -2  -5  236.79   18.92
   7  -2   6  723.20   40.19
  -7  -2  -6  754.15   39.44
  -7  -2  -6  786.61   41.48
   7  -2   7  134.03   13.59
  -7  -2  -7  137.40   12.71
  -7  -2  -7  166.74   14.35
   7  -2   8   43.68    7.37
  -7  -2  -8   47.53    7.26
  -7  -2  -8   36.03    6.17
  -7  -2  -9   34.72    5.74
  -7  -2 -10    5.62    3.76
  -7  -2 -10    8.52    3.02
  -7  -2 -11  230.55   14.47
  -7  -2 -12  199.52   11.66
  -7  -2 -12  200.46   13.10
  -7  -1  15   49.07    5.65
   7  -1 -14   61.19    6.90
   7  -1 -14   55.43    6.22
   7  -1 -14   76.24    6.70
   7  -1 -13  494.69   25.26
   7  -1 -13  433.85   25.50
   7  -1 -12   80.60    8.97
   7  -1 -12   77.26    9.73
   7  -1 -11  121.35   12.88
   7  -1 -10   79.57   11.10
   7  -1  -9  239.37   20.50
   7  -1  -8  637.81   36.06
   7  -1  -8  572.60   36.75
   7  -1  -7  426.21   27.76
   7  -1  -7  374.03   27.91
   7  -1  -6  257.90   20.70
   7  -1  -6  247.72   21.43
  -7  -1   6  289.87   53.11
  -7  -1   5  101.48   29.09
  -7  -1   5  125.95   33.65
   7  -1  -5   90.99   11.54
  -7  -1   5  107.12   11.19
   7  -1  -5   81.12   24.84
   7  -1  -5   99.77   12.79
   7  -1  -5   79.21   11.94
  -7  -1   4  174.65   36.99
  -7  -1   4  123.05   34.69
   7  -1  -4  171.48   16.29
  -7  -1   4  174.88   15.05
   7  -1  -4  189.20   37.84
   7  -1  -4  148.07   15.61
  -7  -1   3  789.21   80.91
  -7  -1   3  863.93   92.28
   7  -1  -3  833.93   43.93
  -7  -1   3  826.20   42.53
   7  -1  -3  690.23   41.96
   7  -1  -3  675.28   75.43
  -7  -1   2 1263.95  102.62
  -7  -1   2 1190.76  113.03
   7  -1  -2 1331.06   62.27
  -7  -1   2 1364.69   61.43
   7  -1  -2 1039.41   58.86
   7  -1  -2 1105.75  100.30
  -7  -1   1  145.89   31.44
  -7  -1   1  180.78   41.84
   7  -1  -1  158.75   15.51
  -7  -1   1  194.31   16.52
   7  -1  -1  109.81   32.42
   7  -1  -1  124.81   13.48
  -7  -1   0  395.03   29.58
  -7  -1   0  357.80   48.76
  -7  -1   0  461.15   66.25
   7  -1   0  390.24   27.41
  -7  -1   0  499.27   29.59
   7  -1   0  322.27   52.77
   7  -1   1  145.14   14.75
  -7  -1  -1  119.94   13.19
  -7  -1  -1  114.61   14.92
   7  -1   2  348.88   24.67
  -7  -1  -2  334.72   23.67
  -7  -1  -2  280.49   53.33
  -7  -1  -2  289.54   24.86
   7  -1   3  456.24   30.07
  -7  -1  -3  472.69   29.58
  -7  -1  -3  399.89   63.41
  -7  -1  -3  409.57   58.39
  -7  -1  -3  459.89   31.84
   7  -1   4  464.50   30.22
  -7  -1  -4  427.08   30.73
  -7  -1  -5  182.56   14.81
  -7  -1  -5  206.16   17.02
  -7  -1  -6  110.08   10.94
   7  -1   6   90.00   12.41
  -7  -1  -6  110.16   12.00
  -7  -1  -7  221.32   16.14
   7  -1   7  264.36   20.65
  -7  -1  -7  243.62   17.92
  -7  -1  -7  203.55   15.59
  -7  -1  -8   78.96    8.55
   7  -1   8   83.24   11.40
  -7  -1  -8   81.13    8.90
   7  -1   9  385.30   24.47
  -7  -1  -9  312.83   19.92
   7  -1  10   14.04    5.09
  -7  -1 -10    8.18    3.46
   7  -1  11  212.55   15.80
  -7  -1 -11  216.50   14.18
   7  -1  12   56.51    7.00
  -7  -1 -12   59.49    5.68
  -7  -1 -13   39.75    4.72
  -7   0  15   78.54    7.85
   7   0 -14  259.40   14.71
  -7   0  14  316.81   20.03
   7   0 -13   15.09    3.68
  -7   0  13   11.61    5.73
  -7   0  12  384.39   26.80
   7   0 -12  372.34   21.52
   7   0 -12  374.28   20.00
  -7   0  11   47.51   10.01
   7   0 -11   36.40    6.80
   7   0 -11   42.84    5.97
  -7   0  10    8.42    6.71
   7   0 -10    4.89    3.04
   7   0 -10    3.87    4.27
  -7   0   9  243.50   23.13
   7   0  -9  223.67   16.14
   7   0  -9  227.09   18.97
  -7   0   8  190.85   21.12
   7   0  -8  219.41   18.72
  -7   0   7  654.93   43.09
   7   0  -7  623.52   37.50
  -7   0   6  133.93   38.54
   7   0  -6  121.55   22.91
   7   0  -6  165.88   15.93
  -7   0   6  167.77   19.49
   7   0  -6  143.74   33.04
  -7   0   6  138.69   38.89
  -7   0   5   65.13   30.09
  -7   0   5   67.56   28.35
  -7   0   5  102.56   29.31
   7   0  -5   64.93   16.69
   7   0  -5   82.06   11.28
  -7   0   5   79.07   13.51
   7   0  -5   62.17   22.66
   7   0  -5   77.49    8.64
  -7   0   4   42.64   22.59
   7   0  -4   59.17   15.88
  -7   0   4   68.34   23.87
   7   0  -4   82.37   11.43
  -7   0   4   94.31   31.64
  -7   0   4   66.42   12.20
   7   0  -4   72.55    7.73
   7   0  -4   75.62    8.47
   7   0  -4   62.39   22.71
   7   0  -3  584.71   69.84
  -7   0   3  535.00   76.78
   7   0  -3  539.27   51.52
  -7   0   3  653.78   73.53
   7   0  -3  696.62   38.90
  -7   0   3  599.05   80.07
  -7   0   3  626.07   41.16
  -7   0   3  636.40   35.13
   7   0  -3  670.96   33.99
   7   0  -3  626.06   33.12
   7   0  -2    9.01   12.38
  -7   0   2    5.96   12.69
   7   0  -2   22.82    9.72
  -7   0   2    4.27   10.49
   7   0  -2   24.73    6.75
  -7   0   2   16.92   18.31
  -7   0   2   35.34    9.05
  -7   0   2   17.65    5.18
   7   0  -2   17.73    4.54
  -7   0   2   24.21    6.00
   7   0  -2   17.21    4.41
   7   0  -1 1751.12  135.92
  -7   0   1 1858.20  151.25
   7   0  -1 1837.94  110.86
  -7   0   1 1920.95  135.68
  -7   0   1 1722.24  145.86
   7   0  -1 2071.10   91.66
  -7   0   1 2103.62   95.94
   7   0  -1 1923.37   85.23
  -7   0   1 1959.94   88.68
   7   0  -1 1929.07   85.18
   7   0   0   22.17    9.48
  -7   0   0   19.35   13.47
   7   0   0   37.80    7.64
  -7   0   0   16.36   16.42
  -7   0   0   29.18    7.97
  -7   0   0   26.22    7.00
   7   0   0   30.14    5.37
   7   0   0   19.74    4.61
   7   0   1   13.17    8.08
  -7   0  -1   18.15   13.36
  -7   0  -1    6.96    6.46
  -7   0  -1    6.98    6.12
   7   0   1    5.40    2.83
  -7   0  -1    6.40    4.19
   7   0   1    9.77    5.48
  -7   0  -1   10.80   13.25
  -7   0  -2  150.05   38.26
   7   0   2  160.63   16.29
  -7   0  -2  146.25   38.29
  -7   0  -2  180.92   18.36
  -7   0  -2  159.37   15.21
  -7   0  -2  141.72   16.80
   7   0   3   71.61   11.25
  -7   0  -3  111.67   32.77
  -7   0  -3   91.13   11.45
  -7   0  -3   86.56   12.93
  -7   0  -3   49.89   23.77
  -7   0  -4  474.88   68.34
   7   0   4  640.98   37.54
  -7   0  -4  588.60   34.87
  -7   0  -4  563.82   37.53
  -7   0  -4  521.37   72.30
  -7   0  -5  930.86   52.10
   7   0   5  907.04   50.33
   7   0   6  167.85   16.79
  -7   0  -6  147.93   14.34
  -7   0  -6  125.66   11.37
   7   0   7   16.97    6.26
  -7   0  -7   12.40    3.96
  -7   0  -7   10.45    4.83
   7   0   8  368.89   26.06
  -7   0  -8  388.61   23.27
   7   0   9  111.59   13.16
  -7   0  -9  122.47   11.12
  -7   0  -9   96.72    9.62
   7   0  10  514.10   30.19
  -7   0 -10  514.96   26.00
  -7   0 -10  468.51   25.75
  -7   0 -10  448.46   25.11
  -7   0 -11  134.41   10.25
   7   0  11  144.20   13.27
  -7   0 -12   -1.87    2.36
   7   0  12   -1.40    3.33
   7   0  13   23.94    4.22
  -7   1  14   52.81    7.01
   7   1 -14   59.19    5.43
  -7   1  13  468.82   28.87
   7   1 -13  508.43   24.97
  -7   1  12   81.60   11.48
   7   1 -12  106.74    9.08
   7   1 -11  161.76   12.71
  -7   1  11  157.11   16.84
   7   1 -10   84.10    9.54
  -7   1  10  111.07   14.61
   7   1  -9  227.42   17.32
  -7   1   9  253.56   22.96
   7   1  -8  664.36   38.25
  -7   1   8  667.91   42.68
   7   1  -7  394.87   24.03
   7   1  -7  442.09   28.30
  -7   1   7  387.35   30.66
   7   1  -6  294.27   22.81
  -7   1   6  324.40   26.60
   7   1  -6  300.04   19.80
   7   1  -6  326.61   20.88
  -7   1   6  258.05   51.88
   7   1  -5   86.19   26.31
  -7   1   5  106.47   35.88
   7   1  -5  117.04   23.31
  -7   1   5   60.67   24.06
   7   1  -5  147.80   14.69
  -7   1   5   91.76   14.11
   7   1  -5  135.21   12.33
   7   1  -5  114.96   10.92
   7   1  -5  132.91   12.12
   7   1  -4  179.52   13.91
   7   1  -4  171.19   14.27
   7   1  -4  137.75   25.43
   7   1  -4  180.41   16.69
  -7   1   4  196.29   47.95
  -7   1   4  165.20   18.30
   7   1  -4  174.90   14.40
   7   1  -4  121.72   31.80
   7   1  -3  789.06   39.45
   7   1  -3  789.06   40.87
   7   1  -3  731.77   63.26
  -7   1   3  738.68   80.10
   7   1  -3  837.56   44.56
  -7   1   3  833.16   98.29
  -7   1   3  746.65   46.52
   7   1  -3  821.24   41.13
  -7   1   3  768.52   40.05
   7   1  -3  745.59   79.04
   7   1  -2  944.36   95.53
  -7   1   2 1036.52  111.94
   7   1  -2 1128.38   82.51
  -7   1   2 1157.10  101.80
  -7   1   2 1193.75  119.67
   7   1  -2 1245.91   60.75
  -7   1   2 1241.86   63.83
   7   1  -2 1214.12   56.98
  -7   1   2 1179.69   56.96
   7   1  -2 1180.43   55.16
   7   1  -2 1169.42   56.60
   7   1  -1   93.73   30.15
  -7   1   1  121.31   36.99
   7   1  -1  159.22   27.14
  -7   1   1  111.61   29.99
  -7   1   1  129.61   39.11
   7   1  -1  190.88   16.86
  -7   1   1  175.41   18.03
   7   1  -1  177.20   14.35
  -7   1   1  133.54   13.50
   7   1  -1  171.26   13.08
   7   1  -1  169.10   14.14
   7   1   0  301.09   51.70
  -7   1   0  360.03   28.07
  -7   1   0  253.16   52.60
   7   1   0  326.97   40.66
  -7   1   0  310.37   49.01
  -7   1   0  237.22   52.65
   7   1   0  432.13   27.41
  -7   1   0  407.53   29.00
  -7   1   0  337.34   23.93
   7   1   0  384.86   23.65
   7   1   0  403.78   22.41
  -7   1  -1  116.67   14.89
   7   1   1  121.50   22.45
  -7   1  -1  160.30   40.00
   7   1   1  110.41   23.05
  -7   1  -1   87.22   25.23
  -7   1  -1  114.06   36.37
   7   1   1  124.58   14.13
  -7   1  -1  119.72   14.73
  -7   1  -1  137.33   13.46
   7   1   1  123.82   11.79
  -7   1  -1  117.87   13.57
   7   1   1  109.93   10.21
   7   1   2  279.11   35.78
  -7   1  -2  294.82   54.21
   7   1   2  248.53   35.35
  -7   1  -2  330.41   46.71
  -7   1  -2  291.25   54.92
   7   1   2  318.48   23.68
  -7   1  -2  298.08   22.07
  -7   1  -2  314.86   25.53
  -7   1  -2  344.44   24.28
   7   1   3  418.78   46.12
  -7   1  -3  506.75   70.00
   7   1   3  439.44   47.57
  -7   1  -3  433.44   53.76
  -7   1  -3  477.17   52.79
  -7   1  -3  495.52   30.37
  -7   1  -3  517.76   32.14
  -7   1  -3  412.17   66.49
   7   1   3  480.88   31.55
  -7   1  -3  491.48   33.52
  -7   1  -4  483.66   29.39
  -7   1  -4  399.25   61.16
  -7   1  -4  372.22   62.58
   7   1   4  427.59   29.51
  -7   1  -4  444.78   31.39
   7   1   5  198.13   18.58
  -7   1  -5  205.24   17.53
   7   1   6  118.70   14.06
   7   1   7  276.14   21.89
   7   1   8   64.44   10.04
  -7   1  -8   74.61    9.26
  -7   1  -8   64.95    7.30
   7   1   9  363.23   24.36
  -7   1  -9  404.53   22.77
   7   1  10   15.02    5.47
  -7   1 -10   15.90    3.56
  -7   1 -10   20.76    4.58
   7   1  11  173.42   14.13
  -7   1 -11  167.77   10.99
   7   1  12   58.90    7.17
   7   2 -13    1.97    1.93
   7   2 -12   83.92    8.06
   7   2 -11  438.73   23.41
  -7   2  11  340.66   23.51
   7   2 -10  580.64   30.89
  -7   2  10  522.74   32.31
   7   2  -9   79.84    9.75
  -7   2   9   90.77   11.74
   7   2  -8   87.66    9.30
  -7   2   8   72.04   11.00
   7   2  -7  106.99   11.63
   7   2  -7   86.02    8.64
   7   2  -7   83.35    9.39
  -7   2   7   76.50   11.60
   7   2  -6  102.26   11.72
   7   2  -6   86.45    8.78
   7   2  -6   90.81    9.72
   7   2  -6   83.94    9.93
  -7   2   6   91.00   12.53
   7   2  -5  700.58   38.81
   7   2  -5  674.60   36.00
   7   2  -5  691.97   36.94
  -7   2   5  676.83   40.55
   7   2  -4  171.10   15.63
   7   2  -4  167.34   14.41
   7   2  -4  152.05   13.21
   7   2  -4  155.22   13.91
  -7   2   4  149.77   16.10
   7   2  -3  360.83   24.59
  -7   2   3  288.60   58.62
  -7   2   3  334.81   25.41
   7   2  -3  350.79   22.95
   7   2  -3  332.74   21.72
   7   2  -3  360.89   23.00
  -7   2   2   56.52   26.76
   7   2  -2   39.37   14.37
  -7   2   2   59.07   22.39
  -7   2   2   52.82   26.94
   7   2  -2   51.28    8.68
  -7   2   2   54.38    9.90
   7   2  -2   62.29    8.56
  -7   2   2   77.19   10.21
   7   2  -2   39.19    6.80
   7   2  -2   54.99    8.20
   7   2  -1   53.49   20.25
  -7   2   1   40.29    9.48
  -7   2   1   36.16   20.97
   7   2  -1   42.44   14.81
  -7   2   1   53.58   21.27
   7   2  -1   46.12    8.34
  -7   2   1   38.96   22.59
  -7   2   1   37.90    8.55
   7   2  -1   43.54    7.51
  -7   2   1   35.83    6.63
  -7   2   1   48.35    8.86
   7   2  -1   42.14    6.76
   7   2   0  112.03   29.51
  -7   2   0  171.52   17.78
   7   2   0  124.64   23.98
  -7   2   0  121.05   36.63
   7   2   0  145.55   27.22
  -7   2   0  165.46   35.62
  -7   2   0  171.76   14.90
  -7   2   0  174.30   16.37
   7   2   0  176.28   14.06
   7   2   0  177.28   14.95
  -7   2   0  153.37   41.98
   7   2   0  170.60   16.00
  -7   2  -1  628.10   34.51
  -7   2  -1  573.16   35.58
  -7   2  -1  589.01   37.22
  -7   2  -1  490.58   75.15
   7   2   1  576.06   34.54
   7   2   2   88.74   11.48
  -7   2  -2   88.41   11.85
  -7   2  -2   85.24   10.88
  -7   2  -2   90.35   10.17
  -7   2  -2   94.51   12.99
   7   2   3  194.15   17.23
  -7   2  -3  204.86   18.17
  -7   2  -3  220.43   17.72
  -7   2  -3  176.87   15.25
  -7   2  -3  201.40   18.65
  -7   2  -4   61.94    9.49
  -7   2  -4   54.82   10.09
   7   2   4   62.60    9.67
  -7   2  -4   66.95    9.10
  -7   2  -5  203.40   17.12
  -7   2  -5  199.27   16.10
   7   2   5  191.87   16.93
  -7   2  -6  789.78   41.16
  -7   2  -6  812.23   42.13
  -7   2  -6  738.32   39.38
   7   2   6  693.69   40.27
  -7   2  -7  150.54   13.78
  -7   2  -7  137.72   13.35
   7   2   7  121.71   13.10
  -7   2  -7  159.97   13.46
   7   2   8   44.06    7.57
  -7   2  -8   51.57    7.49
   7   2   9   26.66    5.72
  -7   2  -9   35.73    6.05
   7   2  10    5.61    3.40
  -7   2 -10    8.51    3.23
   7   2  11  140.31   10.27
   7   3 -12   84.68    6.66
   7   3 -11  231.97   14.62
   7   3 -10   93.53    9.18
   7   3  -9  300.30   17.79
   7   3  -9  341.34   20.47
   7   3  -8   95.95    8.88
   7   3  -8  107.12   10.91
   7   3  -7   67.89    7.80
   7   3  -7   77.70    9.61
   7   3  -6  559.30   30.28
   7   3  -6  610.15   31.95
   7   3  -5   61.12    8.39
   7   3  -5   66.00    8.34
   7   3  -5   68.20    8.62
   7   3  -4  439.58   26.10
   7   3  -4  415.80   25.24
   7   3  -4  435.48   25.99
   7   3  -3  747.70   37.80
  -7   3   3  635.99   36.02
   7   3  -3  707.28   36.74
   7   3  -3  692.04   37.06
   7   3  -2   99.31   11.04
  -7   3   2   79.10   10.53
   7   3  -2  110.59   10.99
   7   3  -2  118.88   11.83
  -7   3   1   98.27   11.52
   7   3  -1   81.14    9.68
   7   3  -1   89.90   10.39
  -7   3   0  182.88   14.68
  -7   3   0  178.31   16.27
  -7   3  -1  207.98   16.51
  -7   3  -1  227.47   18.68
  -7   3  -2  737.71   37.94
  -7   3  -2  783.33   40.45
  -7   3  -2  775.23   42.37
  -7   3  -3   75.81    8.81
  -7   3  -3   71.29    9.47
  -7   3  -3   77.17   10.57
  -7   3  -4  115.53   11.16
  -7   3  -4  114.70   11.98
  -7   3  -4  123.35   13.35
  -7   3  -5   86.69    9.59
  -7   3  -5   79.72    9.99
  -7   3  -5  108.55   11.87
  -7   3  -6   40.56    7.04
  -7   3  -6   37.89    6.43
  -7   3  -7  526.38   28.97
  -7   3  -7  577.77   30.53
  -7   3  -7  563.47   30.73
  -7   3  -8  193.65   13.67
  -7   3  -8  203.71   14.41
  -7   3  -8  202.24   14.44
  -7   3  -9   27.28    4.55
  -7   3 -10   12.93    2.93
   7   4  -9  112.20    8.20
   7   4  -9  133.87    9.26
   7   4  -8  116.58    8.82
   7   4  -8  123.62    9.63
   7   4  -7  154.41   10.55
   7   4  -7  155.28   11.00
   7   4  -7  156.03   11.71
   7   4  -7  155.59   11.23
   7   4  -6  141.05   10.87
   7   4  -6  135.11   11.34
   7   4  -6  153.74   11.29
   7   4  -5  206.79   14.17
   7   4  -5  201.72   14.80
   7   4  -5  217.56   14.54
   7   4  -5  204.66   14.18
   7   4  -4  188.45   13.52
   7   4  -4  169.83   13.61
   7   4  -4  179.65   13.42
   7   4  -4  198.92   13.82
   7   4  -3  274.74   17.98
   7   4  -3  285.22   18.11
   7   4  -2   19.65    4.95
  -7   4   2   27.08    5.37
   7   4  -2   30.30    5.72
   7   4  -1  315.49   20.28
  -7   4   1  338.83   21.34
   7   4  -1  339.26   20.65
   7   4   0  127.65   11.40
  -7   4   0  136.41   12.51
   7   4   0  125.88   11.22
   7   4   0  123.44   11.38
   7   4   1  200.30   14.56
  -7   4  -1  162.63   12.48
  -7   4  -1  181.74   15.02
   7   4   1  181.32   13.78
   7   4   1  181.67   13.87
   7   4   2   83.40    9.01
  -7   4  -2   61.05    7.48
  -7   4  -2   67.04    8.92
  -7   4  -3   51.92    6.99
  -7   4  -3   73.92    9.27
  -7   4  -4  145.40   11.85
  -7   4  -4  148.76   12.93
  -7   4  -5  241.62   14.97
  -7   4  -5  257.58   16.63
  -7   4  -5  297.57   18.37
  -7   4  -6  106.20    8.53
  -7   4  -6  120.51    9.81
  -7   4  -7   38.63    5.11
  -7   4  -7   36.07    5.18
  -7   4  -8   73.89    6.50
   7   5  -5   29.31    3.50
   7   5  -5   25.33    3.41
   7   5  -4    6.94    2.19
   7   5  -3   86.35    7.14
   7   5  -2  280.11   15.66
   7   5  -1   14.61    2.93
   7   5  -1   18.41    3.44
   7   5  -1   15.34    2.80
   7   5   0   88.97    7.17
   7   5   0  100.93    7.76
   7   5   1    2.67    1.68
   7   5   1    4.29    2.25
   7   5   1    6.82    2.01
   7   5   2    2.58    1.79
  -7   5  -2    4.64    2.31
   7   5   3  131.66    8.86
   8  -4  -6  124.13   10.25
   8  -4  -5   44.85    6.66
  -8  -4   5   36.34    6.09
  -8  -4   5   32.88    4.14
  -8  -4   4  181.15   11.39
  -8  -4   3   38.90    4.94
  -8  -4   2   56.19    6.31
  -8  -4   2   51.61    5.97
   8  -4  -2   48.20    8.07
  -8  -4   1  119.10    9.95
  -8  -4   1  119.20    9.25
   8  -4  -1  116.59   12.48
  -8  -4   0  155.36   11.61
   8  -4   0  143.29   13.84
  -8  -4  -1   58.27    6.81
   8  -4   1   57.67    8.25
   8  -4   2   19.29    4.89
  -8  -4  -2   22.49    4.04
  -8  -4  -2   25.87    4.64
  -8  -4  -3  156.15    9.93
  -8  -4  -3  110.80    9.47
  -8  -4  -4   17.67    3.16
   8  -3  -9  166.88   11.71
  -8  -3   8  137.25    9.04
  -8  -3   8  143.65   11.36
   8  -3  -8  119.45   10.71
  -8  -3   7   61.54    6.21
   8  -3  -7   54.59    7.67
  -8  -3   6   67.09    6.92
   8  -3  -6   66.89    8.39
  -8  -3   5  319.50   18.66
   8  -3  -4   36.80    9.17
  -8  -3   4   34.46    5.52
  -8  -3   4   39.40    5.81
  -8  -3   3  399.16   23.38
   8  -3  -3  458.04   30.46
  -8  -3   3  394.29   22.70
   8  -3  -2   49.09   10.23
  -8  -3   2   51.01    6.76
   8  -3  -1   46.64   10.22
  -8  -3   1   28.64    5.24
   8  -3   0  198.12   18.26
  -8  -3   0  139.34   11.59
   8  -3   1   82.98   11.91
  -8  -3  -1   76.90    7.92
   8  -3   2  171.81   16.88
  -8  -3  -2  214.66   14.94
   8  -3   3  120.00   12.85
  -8  -3  -3  147.56   11.79
   8  -3   4   16.76    4.86
  -8  -3  -4   26.08    4.89
  -8  -3  -5   41.29    5.61
  -8  -3  -6  161.29   11.06
  -8  -3  -7   23.29    3.98
  -8  -3  -7   21.84    3.49
  -8  -3  -8  228.33   12.53
   8  -2 -11   23.34    4.16
   8  -2 -10  424.69   21.74
  -8  -2  10  430.15   23.67
   8  -2  -9  135.56   11.96
  -8  -2   9  155.50   13.67
   8  -2  -8   42.23    7.06
  -8  -2   8   49.63    8.31
   8  -2  -7   16.41    5.13
  -8  -2   7   21.73    6.26
   8  -2  -6   59.78    8.75
  -8  -2   6   87.21   11.41
  -8  -2   5   62.69   10.04
   8  -2  -5   50.16    8.29
   8  -2  -5   59.52    8.07
  -8  -2   5   49.72    8.64
  -8  -2   4 1285.30   58.25
   8  -2  -4  898.21   51.63
   8  -2  -4 1108.02   52.13
  -8  -2   4 1073.95   54.35
  -8  -2   3   37.56    8.64
   8  -2  -3   34.83    7.28
  -8  -2   3   44.04    8.15
   8  -2  -3   39.87    7.14
  -8  -2   2  150.59   15.80
  -8  -2   2  144.73   14.67
  -8  -2   2  122.78   12.78
   8  -2  -2  154.31   13.64
  -8  -2   1   45.72    8.75
  -8  -2   1   31.59    7.49
  -8  -2   1   29.24    6.61
   8  -2  -1   34.78    6.79
   8  -2   0  163.60   18.11
  -8  -2   0  159.92   15.38
  -8  -2   0  175.97   15.50
   8  -2   0  158.93   14.24
   8  -2   1  914.66   49.09
  -8  -2  -1  827.34   44.77
   8  -2   1  773.03   42.46
  -8  -2  -1  896.61   45.00
   8  -2   2  297.37   23.91
  -8  -2  -2  350.38   23.08
   8  -2   2  323.35   21.55
   8  -2   3   12.55    5.77
  -8  -2  -3   17.84    5.46
   8  -2   3   15.58    4.83
  -8  -2  -3   25.13    5.38
  -8  -2  -4  152.41   12.51
  -8  -2  -5   27.39    5.15
  -8  -2  -6  128.14   11.36
  -8  -2  -6  116.69    9.85
  -8  -2  -7  246.87   15.67
  -8  -2  -7  221.08   13.85
  -8  -2  -8    5.20    2.49
  -8  -2  -8    2.37    1.68
  -8  -2  -9   67.15    6.33
   8  -1 -12  117.77    9.39
   8  -1 -12  143.60    9.48
   8  -1 -11  123.39    9.73
   8  -1 -11  101.01    9.56
   8  -1 -10   12.77    4.33
   8  -1  -9  130.81   12.25
   8  -1  -8  116.39   11.92
   8  -1  -7  499.97   28.28
   8  -1  -7  411.12   27.08
   8  -1  -6  152.69   14.13
   8  -1  -6  140.02   13.65
   8  -1  -5  308.16   21.35
   8  -1  -5  249.92   19.44
   8  -1  -4  109.54   12.03
   8  -1  -4   73.78    9.79
  -8  -1   3  172.83   14.37
   8  -1  -3  190.58   16.31
  -8  -1   2  359.18   27.17
   8  -1  -2  407.14   26.04
  -8  -1   2  331.68   23.09
  -8  -1   1  277.97   23.17
   8  -1  -1  315.98   21.98
  -8  -1   1  253.43   19.79
  -8  -1   0   59.36   10.32
   8  -1   0   60.40    8.98
  -8  -1   0   79.41   10.28
  -8  -1  -1  123.28   14.65
  -8  -1  -1  128.64   13.22
   8  -1   1  118.10   13.10
   8  -1   2  108.25   13.25
  -8  -1  -2   95.08   13.37
   8  -1   2  104.07   12.26
  -8  -1  -2  122.83   12.80
  -8  -1  -3  113.39   10.56
  -8  -1  -3  117.30   13.89
   8  -1   3  125.43   13.19
  -8  -1  -3   89.78   11.66
  -8  -1  -4  477.87   26.46
   8  -1   4  500.94   30.35
  -8  -1  -4  514.56   30.50
   8  -1   5  101.77   11.59
  -8  -1  -5  104.74   11.57
   8  -1   6  201.42   16.37
   8  -1   7   14.66    5.08
  -8  -1  -7   19.57    5.02
   8  -1   8  221.00   16.03
  -8  -1  -8  222.44   15.24
  -8  -1  -9   99.94    8.43
   8  -1   9  109.70    9.71
  -8  -1  -9   99.82    8.56
   8  -1  10  107.33    8.66
  -8  -1 -10  107.64    7.41
  -8   0  13  136.43   10.17
  -8   0  12   77.51    8.79
   8   0 -12   67.10    6.69
  -8   0  11  381.12   23.50
   8   0 -11  372.53   19.53
  -8   0  10    6.59    4.92
   8   0 -10    3.79    3.24
  -8   0   9   55.07    9.89
   8   0  -9   42.90    6.96
  -8   0   8  402.38   27.59
   8   0  -8  361.40   23.22
  -8   0   7   -1.89    5.18
   8   0  -7    3.50    3.43
   8   0  -7    1.35    3.80
  -8   0   6  545.71   34.46
   8   0  -6  555.12   31.17
  -8   0   5  121.25   15.22
   8   0  -5  113.30   12.94
  -8   0   4    6.99    6.62
   8   0  -4   22.58    6.55
  -8   0   3  329.77   27.04
   8   0  -3  340.75   24.26
  -8   0   2  169.81   17.98
  -8   0   2  162.70   17.60
  -8   0   2  157.49   13.83
   8   0  -2  164.01   15.75
  -8   0   1  379.12   28.51
  -8   0   1  362.46   28.11
  -8   0   1  369.37   24.08
   8   0  -1  381.58   26.18
  -8   0   0  616.18   39.07
  -8   0   0  599.13   38.72
   8   0   0  649.99   36.92
  -8   0   0  611.80   34.83
  -8   0   0  587.26   34.13
  -8   0  -1   13.20    6.89
   8   0   1   16.97    6.25
  -8   0  -1   29.04    6.67
  -8   0  -2  107.38   13.83
   8   0   2   94.31   12.28
  -8   0  -2  108.96   11.88
  -8   0  -3  476.29   32.60
   8   0   3  495.17   31.25
  -8   0  -3  504.07   29.91
   8   0   4   -0.74    4.06
  -8   0  -4    4.46    4.21
   8   0   5  770.40   41.94
  -8   0  -5  757.26   40.09
   8   0   6  346.60   23.62
   8   0   7   36.97    7.40
  -8   0  -7   37.78    6.22
   8   0   8  100.87   10.87
  -8   0  -8   99.04    9.22
   8   0   9   17.26    4.79
   8   0  10   61.32    6.96
  -8   0 -10   53.99    5.78
  -8   1  12   98.30    8.58
  -8   1  11  128.10   11.25
   8   1 -11   81.50    7.23
  -8   1  10   20.40    5.81
   8   1 -10   14.17    3.37
  -8   1   9  154.85   14.92
   8   1  -9  142.06   11.26
  -8   1   8  152.14   15.39
   8   1  -8  125.09   11.21
  -8   1   7  496.95   32.55
   8   1  -7  515.59   30.11
  -8   1   6  162.22   16.96
   8   1  -6  164.47   14.97
  -8   1   5  341.95   25.87
   8   1  -5  338.95   23.62
  -8   1   4   97.53   13.45
   8   1  -4  101.41   12.14
   8   1  -4   96.74    9.56
  -8   1   3  216.88   19.91
   8   1  -3  202.85   17.45
   8   1  -3  196.52   14.76
   8   1  -2  394.09   23.12
  -8   1   2  410.81   28.81
   8   1  -2  395.49   26.49
   8   1  -2  366.18   22.83
  -8   1   2  425.32   30.09
   8   1  -1  299.93   19.67
  -8   1   1  369.79   26.13
  -8   1   1  343.64   21.21
   8   1  -1  291.46   19.49
  -8   1   1  314.93   20.80
  -8   1   1  351.10   26.24
   8   1  -1  293.78   22.43
   8   1   0   62.55    7.92
   8   1   0   64.15    7.84
  -8   1   0   62.53    8.73
  -8   1   0   68.17   10.99
   8   1   0   80.71   10.45
   8   1   1  117.45   10.86
  -8   1  -1  119.23   12.10
  -8   1  -1  116.48   14.43
   8   1   1  139.17   14.12
   8   1   2   89.88    9.24
  -8   1  -2   95.10   11.01
  -8   1  -2   96.20   12.92
   8   1   2   79.61   11.11
  -8   1  -3  124.40   12.44
  -8   1  -3  107.80   13.73
   8   1   3  123.71   13.50
   8   1   4  507.00   31.10
  -8   1  -4  516.59   30.04
   8   1   5  113.79   12.47
  -8   1  -5  110.39   11.45
   8   1   6  171.00   15.22
  -8   1  -6  177.23   14.30
   8   1   7   19.07    5.54
   8   1   8  206.91   15.87
  -8   1  -8  229.83   14.94
   8   1   9   91.19    9.20
  -8   1  -9  114.89    8.87
   8   1  10   92.70    8.07
   8   2 -11   33.45    3.79
   8   2 -11   35.50    4.14
   8   2 -10  421.39   21.92
   8   2  -9  169.19   12.25
   8   2  -8   57.79    7.18
   8   2  -7   22.51    5.17
   8   2  -6   78.82    7.80
  -8   2   6   55.17    8.28
   8   2  -6   79.78    9.15
  -8   2   5   55.42    8.37
   8   2  -5   47.08    7.61
   8   2  -5   52.34    6.69
   8   2  -5   51.08    6.91
  -8   2   5   42.38    8.51
  -8   2   4 1098.44   55.53
   8   2  -4 1161.35   55.18
   8   2  -4 1128.55   51.92
   8   2  -4 1138.04   53.11
  -8   2   4 1139.87   58.20
   8   2  -3   28.48    5.09
   8   2  -3   27.00    5.55
  -8   2   3   38.52    7.39
   8   2  -3   30.27    5.83
  -8   2   3   49.50    8.93
   8   2  -3   26.51    6.31
   8   2  -2  145.04   12.24
   8   2  -2  139.10   12.11
  -8   2   2  126.31   14.52
   8   2  -2  141.55   13.48
   8   2  -1   31.31    6.15
  -8   2   1   29.86    5.44
   8   2  -1   39.31    6.34
  -8   2   1   35.21    8.02
   8   2  -1   34.67    6.95
   8   2   0  173.24   13.69
   8   2   0  166.98   13.41
  -8   2   0  148.13   12.95
  -8   2   0  178.66   16.54
   8   2   0  157.55   14.42
   8   2   1  871.76   41.85
   8   2   1  812.54   40.89
  -8   2  -1  785.08   41.31
  -8   2  -1  820.52   45.08
   8   2   1  852.31   43.18
  -8   2  -2  286.61   19.84
   8   2   2  295.31   19.09
  -8   2  -2  344.34   23.45
   8   2   2  293.74   20.65
   8   2   3   22.14    5.48
   8   2   3   27.47    5.21
  -8   2  -3   25.61    5.84
   8   2   4  138.73   12.69
  -8   2  -4  146.42   12.80
   8   2   5   18.44    4.87
  -8   2  -5   30.27    5.80
   8   2   6  107.81   10.51
  -8   2  -6  139.95   11.51
   8   2   7  182.13   13.88
  -8   2  -7  266.20   15.64
   8   2   8   -3.44    3.16
  -8   2  -9   51.45    5.23
   8   3  -9  223.62   13.33
   8   3  -8  183.56   12.39
   8   3  -7   93.14    8.77
   8   3  -6   94.25    9.29
   8   3  -6   88.22    7.86
   8   3  -5  312.21   18.08
   8   3  -4   38.09    5.40
   8   3  -3  389.75   21.68
   8   3  -2   64.34    7.21
   8   3  -1   42.64    6.33
   8   3  -1   35.51    5.35
   8   3   0  183.16   13.43
   8   3   0  164.21   12.18
   8   3   1   68.92    7.99
  -8   3  -1   74.73    7.61
   8   3   2  186.36   13.20
  -8   3  -2  154.31   12.18
   8   3   2  186.32   13.45
  -8   3  -3  124.53   10.52
   8   3   3  130.92   10.59
   8   3   3  122.44   10.50
   8   3   4   28.23    4.74
  -8   3  -4   22.16    4.53
  -8   3  -5   55.74    6.46
   8   3   5   47.50    5.74
  -8   3  -6  158.25   11.16
  -8   3  -7   23.11    3.66
   8   4  -5   43.19    4.59
   8   4  -4  168.09   10.59
   8   4  -3   37.12    4.62
   8   4  -3   41.28    4.79
   8   4  -3   34.96    4.52
   8   4  -2   46.29    5.35
   8   4  -2   44.61    4.89
   8   4  -2   39.69    4.87
   8   4  -2   43.17    5.13
   8   4  -1  130.43    9.60
   8   4  -1  134.62    9.43
   8   4  -1  134.31    9.73
   8   4   0  130.56    9.80
   8   4   0  138.89    9.62
   8   4   0  151.13   10.18
   8   4   1   57.49    5.97
   8   4   1   56.97    5.53
   8   4   1   50.34    5.62
   8   4   2   21.00    3.53
   8   4   3  115.93    8.38
   9  -3  -5  130.12   10.23
   9  -3  -4   41.61    6.00
   9  -3  -3   85.88    8.89
   9  -3  -2  121.84   10.74
  -9  -3   1   37.49    4.50
   9  -3  -1   22.88    4.83
  -9  -3   0   15.33    2.98
   9  -3   0    8.59    3.08
  -9  -3  -1   72.23    6.00
   9  -2  -7  112.13   10.31
  -9  -2   7   88.06    8.14
   9  -2  -6   82.28    9.70
  -9  -2   6   81.19    8.37
   9  -2  -5    9.12    4.61
   9  -2  -4  435.35   27.04
   9  -2  -3  327.13   22.55
   9  -2  -2   66.81    9.60
   9  -2  -1   17.40    5.45
  -9  -2   0   45.90    5.62
   9  -2   0   37.55    6.69
  -9  -2  -1   38.44    4.96
   9  -2   1   24.58    5.14
  -9  -2  -2  279.88   15.47
  -9  -2  -3   56.56    5.23
  -9  -2  -3   59.90    6.66
  -9  -2  -4   72.18    7.01
  -9  -1   9    1.62    2.10
  -9  -1   8  117.09   10.24
  -9  -1   7  173.45   13.71
  -9  -1   6  199.53   15.47
   9  -1  -5  219.93   15.23
  -9  -1   5  215.88   16.68
   9  -1  -4   76.26    8.66
  -9  -1   4   83.58   10.37
   9  -1  -3  120.51   11.01
  -9  -1   3  111.25   12.13
   9  -1  -2  153.43   12.62
  -9  -1   2  126.31   12.91
   9  -1  -1  311.22   21.66
   9  -1  -1  362.11   20.95
  -9  -1   1  319.54   21.63
   9  -1   0  102.20   11.15
   9  -1   0  129.46   11.48
  -9  -1   0  141.05   13.09
  -9  -1   0  111.23   10.26
   9  -1   1  108.16   10.71
  -9  -1  -1  115.96   11.91
  -9  -1  -1  108.04   10.15
  -9  -1  -2   10.53    3.77
   9  -1   2    1.95    3.17
  -9  -1  -3  212.82   14.96
   9  -1   3  220.60   15.35
  -9  -1  -4  185.22   13.68
   9  -1   4  218.64   14.53
  -9  -1  -5  265.82   16.39
   9  -1   5  281.38   16.82
  -9  -1  -6   15.21    3.34
   9  -1   6    6.36    2.84
  -9   0   9   23.82    4.64
  -9   0   9   27.03    5.22
  -9   0   8   95.57    9.77
  -9   0   8   88.24    9.73
  -9   0   7  400.14   24.23
  -9   0   7  376.63   24.18
  -9   0   6   13.17    5.22
   9   0  -6    2.35    3.21
  -9   0   6    1.92    4.23
  -9   0   5  362.76   23.98
   9   0  -5  346.15   21.59
  -9   0   5  349.11   23.85
  -9   0   4   49.29    8.67
   9   0  -4   47.10    7.37
  -9   0   4   45.18    8.28
  -9   0   3   66.61    9.76
  -9   0   3   58.30    9.34
   9   0  -3   64.50    8.38
  -9   0   2  171.31   16.35
   9   0  -2  201.26   15.38
   9   0  -1   39.03    6.47
  -9   0   1   50.81    8.55
  -9   0   1   33.24    5.16
   9   0   0  418.96   25.01
  -9   0   0  367.98   22.25
   9   0   1  158.62   13.58
  -9   0  -1  174.14   15.36
  -9   0  -1  145.02   12.02
   9   0   2    6.54    4.18
  -9   0  -2    8.17    3.35
   9   0   3   41.56    6.86
  -9   0  -3   43.18    6.28
   9   0   4  111.58   10.66
  -9   0  -4  115.52   10.13
   9   0   5  146.68   11.79
  -9   0  -5  134.64   10.76
   9   0   6   53.03    6.68
  -9   0  -6   59.93    6.50
   9   0   7   30.80    4.62
  -9   0  -7   33.27    4.21
  -9   1   9    6.12    2.87
  -9   1   8  106.09    9.15
  -9   1   8  123.44   10.71
  -9   1   7  156.65   12.48
  -9   1   7  182.84   14.33
  -9   1   6  193.08   14.76
  -9   1   6  199.69   15.90
  -9   1   5  212.98   15.84
  -9   1   5  205.60   16.63
   9   1  -5  197.88   14.56
  -9   1   4   62.42    9.35
   9   1  -4   71.67    8.53
  -9   1   3  116.27   12.22
   9   1  -3   88.11    9.80
  -9   1   2  162.09   14.49
   9   1  -2  129.54   12.00
  -9   1   1  331.43   22.99
   9   1  -1  337.29   21.40
  -9   1   0  157.41   14.32
   9   1   0  133.34   12.31
  -9   1  -1  112.34   11.84
   9   1   1  122.28   11.09
  -9   1  -2    7.18    2.99
   9   1   2   12.04    4.45
  -9   1  -3  196.45   13.50
   9   1   3  203.24   14.81
  -9   1  -4  193.59   13.30
   9   1   4  206.53   14.41
  -9   1  -5  258.46   15.60
   9   1   5  261.55   16.35
  -9   1  -6    6.17    2.25
   9   1   6   12.46    3.31
   9   2  -7   83.64    6.78
   9   2  -6   85.24    7.03
  -9   2   6   41.32    5.64
   9   2  -5   10.23    3.20
  -9   2   5    7.15    3.17
  -9   2   4  362.45   21.36
  -9   2   3  316.76   18.96
   9   2  -3  263.38   16.55
  -9   2   2   59.50    7.53
   9   2  -2   47.40    6.23
  -9   2   1   15.37    4.56
   9   2  -1   11.82    3.83
   9   2   0   44.54    5.98
   9   2   1   25.96    4.65
   9   2   2  244.13   14.81
  -9   2  -3   73.33    6.61
  -9   2  -4   47.81    5.16
   9   3  -1   28.56    3.65
   9   3   0    9.18    2.19
   0   0   0    0.00    0.00


TITL songxh_210301 in P2(1)
REM P2(1) (#4 in standard setting)
CELL 1.54184   7.962947   6.035215  16.020955  90.0000  93.6369  90.0000
ZERR    3.00   0.000124   0.000099   0.000235   0.0000   0.0014   0.0000
LATT -1
SYMM -x, y+1/2,-z
SFAC C H N O
UNIT 33.00 30.00 3.00 3.00
TREF
HKLF 4
END
_computing_structure_solution     'SHELXT 2018/2 (Sheldrick, 2018)'
;
_shelx_hkl_checksum              41855
_olex2_submission_special_instructions 'No special instructions were received'
_oxdiff_exptl_absorpt_empirical_details
;
Empirical correction (ABSPACK) includes:
- Absorption correction using spherical harmonics
- Frame scaling
;
_oxdiff_exptl_absorpt_empirical_full_max 2.032
_oxdiff_exptl_absorpt_empirical_full_min 0.583
loop_
_space_group_symop_operation_xyz
'x, y, z'
'-x, y+1/2, -z'
loop_
_atom_site_label
_atom_site_type_symbol
_atom_site_fract_x
_atom_site_fract_y
_atom_site_fract_z
_atom_site_U_iso_or_equiv
_atom_site_adp_type
_atom_site_occupancy
_atom_site_site_symmetry_order
_atom_site_calc_flag
_atom_site_refinement_flags_posn
_atom_site_refinement_flags_adp
_atom_site_refinement_flags_occupancy
_atom_site_disorder_assembly
_atom_site_disorder_group
Br10 Br 1.07213(7) 0.70832(9) 0.90430(3) 0.02814(14) Uani 1 1 d . . . . .
Br9 Br 1.17197(7) 0.90858(10) 0.73036(3) 0.03012(15) Uani 1 1 d . . . . .
O19 O 0.4639(5) 0.0913(7) 0.9315(2) 0.0297(8) Uani 1 1 d . . . . .
O11 O 0.6916(5) 0.7053(9) 0.4054(2) 0.0355(9) Uani 1 1 d . . . . .
C16 C 0.5569(6) 0.2301(10) 0.8863(3) 0.0254(11) Uani 1 1 d . . . . .
C17 C 0.7172(7) 0.1520(9) 0.8687(3) 0.0284(12) Uani 1 1 d . . . . .
H17 H 0.752641 0.012214 0.886699 0.034 Uiso 1 1 calc R U . . .
C18 C 0.8217(7) 0.2844(9) 0.8243(3) 0.0269(12) Uani 1 1 d . . . . .
H18 H 0.927458 0.231814 0.812575 0.032 Uiso 1 1 calc R U . . .
C8 C 1.0201(6) 0.7310(10) 0.7870(3) 0.0264(11) Uani 1 1 d . . . . .
C2 C 0.8880(7) 0.5062(11) 0.6010(3) 0.0280(11) Uani 1 1 d . . . . .
H2 H 0.953068 0.385818 0.619499 0.034 Uiso 1 1 calc R U . . .
C7 C 0.8858(6) 0.6372(9) 0.7493(3) 0.0226(10) Uani 1 1 d . . . . .
C4 C 0.7383(6) 0.7048(12) 0.4887(3) 0.0271(10) Uani 1 1 d . . . . .
C13 C 0.7722(6) 0.4940(10) 0.7969(3) 0.0226(10) Uani 1 1 d . . . . .
C1 C 0.8414(6) 0.6659(9) 0.6580(3) 0.0245(11) Uani 1 1 d . . . . .
C15 C 0.5046(7) 0.4387(10) 0.8581(3) 0.0259(12) Uani 1 1 d . . . . .
H15 H 0.398578 0.491151 0.869433 0.031 Uiso 1 1 calc R U . . .
C5 C 0.6924(7) 0.8650(10) 0.5453(3) 0.0294(12) Uani 1 1 d . . . . .
H5 H 0.627351 0.985737 0.527051 0.035 Uiso 1 1 calc R U . . .
C3 C 0.8380(7) 0.5260(11) 0.5169(3) 0.0309(12) Uani 1 1 d . . . . .
H3 H 0.870890 0.419973 0.479052 0.037 Uiso 1 1 calc R U . . .
C20 C 0.3109(7) 0.1792(11) 0.9604(3) 0.0303(12) Uani 1 1 d . . . . .
H20A H 0.230620 0.199091 0.913745 0.045 Uiso 1 1 calc R U . . .
H20B H 0.333306 0.319279 0.987200 0.045 Uiso 1 1 calc R U . . .
H20C H 0.266364 0.077994 0.999604 0.045 Uiso 1 1 calc R U . . .
C14 C 0.6110(6) 0.5683(9) 0.8130(3) 0.0245(11) Uani 1 1 d . . . . .
H14 H 0.574598 0.706181 0.793210 0.029 Uiso 1 1 calc R U . . .
C6 C 0.7445(8) 0.8433(10) 0.6293(4) 0.0326(13) Uani 1 1 d . . . . .
H6 H 0.713383 0.950553 0.667091 0.039 Uiso 1 1 calc R U . . .
C12 C 0.5908(9) 0.8871(15) 0.3738(4) 0.0491(18) Uani 1 1 d . . . . .
H12A H 0.564243 0.866858 0.315003 0.074 Uiso 1 1 calc R U . . .
H12B H 0.652084 1.022912 0.382737 0.074 Uiso 1 1 calc R U . . .
H12C H 0.488683 0.893229 0.402461 0.074 Uiso 1 1 calc R U . . .
loop_
_atom_site_aniso_label
_atom_site_aniso_U_11
_atom_site_aniso_U_22
_atom_site_aniso_U_33
_atom_site_aniso_U_23
_atom_site_aniso_U_13
_atom_site_aniso_U_12
Br10 0.0268(3) 0.0341(3) 0.0234(2) -0.0015(2) 0.00056(19) 0.0006(2)
Br9 0.0265(3) 0.0343(3) 0.0304(3) -0.0007(2) 0.0089(2) -0.0031(3)
O19 0.0287(19) 0.031(2) 0.0303(19) 0.0049(16) 0.0091(16) 0.0012(17)
O11 0.041(2) 0.046(2) 0.0201(16) 0.001(2) 0.0025(15) 0.014(2)
C16 0.030(3) 0.028(3) 0.018(2) 0.000(2) 0.0034(19) -0.001(2)
C17 0.033(3) 0.024(3) 0.028(3) 0.003(2) 0.004(2) 0.005(2)
C18 0.028(3) 0.027(3) 0.026(3) 0.001(2) 0.008(2) 0.006(2)
C8 0.027(3) 0.026(3) 0.027(2) -0.003(2) 0.0037(19) 0.001(2)
C2 0.029(3) 0.032(3) 0.024(2) 0.002(2) 0.002(2) 0.007(2)
C7 0.025(2) 0.020(3) 0.023(2) -0.0009(18) 0.0047(19) 0.0048(19)
C4 0.026(2) 0.035(3) 0.020(2) 0.003(3) 0.0046(18) 0.002(3)
C13 0.021(2) 0.030(3) 0.017(2) -0.004(2) -0.0017(19) 0.000(2)
C1 0.023(2) 0.028(3) 0.022(2) 0.001(2) 0.0006(19) -0.003(2)
C15 0.022(2) 0.032(3) 0.023(2) 0.000(2) 0.0037(19) 0.000(2)
C5 0.035(3) 0.029(3) 0.025(2) 0.006(2) 0.005(2) 0.008(2)
C3 0.036(3) 0.037(3) 0.020(2) -0.002(2) 0.003(2) 0.010(3)
C20 0.027(3) 0.038(4) 0.027(2) 0.003(2) 0.005(2) 0.001(3)
C14 0.025(3) 0.028(3) 0.021(2) 0.0027(19) 0.000(2) 0.000(2)
C6 0.042(3) 0.031(3) 0.025(3) -0.003(2) 0.007(2) 0.006(2)
C12 0.055(4) 0.064(5) 0.029(3) 0.009(3) 0.004(3) 0.023(4)
loop_
_atom_type_symbol
_atom_type_description
_atom_type_scat_dispersion_real
_atom_type_scat_dispersion_imag
_atom_type_scat_source
C C 0.0181 0.0091 'International Tables Vol C Tables 4.2.6.8 and 6.1.1.4'
H H 0.0000 0.0000 'International Tables Vol C Tables 4.2.6.8 and 6.1.1.4'
Br Br -0.6763 1.2805 'International Tables Vol C Tables 4.2.6.8 and 6.1.1.4'
O O 0.0492 0.0322 'International Tables Vol C Tables 4.2.6.8 and 6.1.1.4'
loop_
_geom_angle_atom_site_label_1
_geom_angle_atom_site_label_2
_geom_angle_atom_site_label_3
_geom_angle
_geom_angle_site_symmetry_1
_geom_angle_site_symmetry_3
_geom_angle_publ_flag
C16 O19 C20 116.6(5) . . ?
C4 O11 C12 117.4(5) . . ?
O19 C16 C17 115.7(5) . . ?
O19 C16 C15 124.7(5) . . ?
C15 C16 C17 119.6(5) . . ?
C16 C17 H17 120.2 . . ?
C18 C17 C16 119.6(5) . . ?
C18 C17 H17 120.2 . . ?
C17 C18 H18 119.3 . . ?
C17 C18 C13 121.4(5) . . ?
C13 C18 H18 119.3 . . ?
Br9 C8 Br10 114.1(3) . . ?
C7 C8 Br10 122.6(4) . . ?
C7 C8 Br9 123.2(4) . . ?
C1 C2 H2 119.8 . . ?
C3 C2 H2 119.8 . . ?
C3 C2 C1 120.4(5) . . ?
C8 C7 C13 120.8(5) . . ?
C8 C7 C1 122.1(5) . . ?
C1 C7 C13 117.0(4) . . ?
O11 C4 C5 124.8(6) . . ?
O11 C4 C3 115.6(5) . . ?
C5 C4 C3 119.6(5) . . ?
C18 C13 C7 121.3(5) . . ?
C18 C13 C14 118.7(5) . . ?
C14 C13 C7 120.0(5) . . ?
C2 C1 C7 120.3(5) . . ?
C6 C1 C2 118.9(5) . . ?
C6 C1 C7 120.6(5) . . ?
C16 C15 H15 120.1 . . ?
C14 C15 C16 119.9(5) . . ?
C14 C15 H15 120.1 . . ?
C4 C5 H5 120.3 . . ?
C6 C5 C4 119.5(5) . . ?
C6 C5 H5 120.3 . . ?
C2 C3 C4 120.2(5) . . ?
C2 C3 H3 119.9 . . ?
C4 C3 H3 119.9 . . ?
O19 C20 H20A 109.5 . . ?
O19 C20 H20B 109.5 . . ?
O19 C20 H20C 109.5 . . ?
H20A C20 H20B 109.5 . . ?
H20A C20 H20C 109.5 . . ?
H20B C20 H20C 109.5 . . ?
C13 C14 H14 119.6 . . ?
C15 C14 C13 120.8(5) . . ?
C15 C14 H14 119.6 . . ?
C1 C6 C5 121.4(5) . . ?
C1 C6 H6 119.3 . . ?
C5 C6 H6 119.3 . . ?
O11 C12 H12A 109.5 . . ?
O11 C12 H12B 109.5 . . ?
O11 C12 H12C 109.5 . . ?
H12A C12 H12B 109.5 . . ?
H12A C12 H12C 109.5 . . ?
H12B C12 H12C 109.5 . . ?
loop_
_geom_bond_atom_site_label_1
_geom_bond_atom_site_label_2
_geom_bond_distance
_geom_bond_site_symmetry_2
_geom_bond_publ_flag
Br10 C8 1.904(5) . ?
Br9 C8 1.890(6) . ?
O19 C16 1.357(7) . ?
O19 C20 1.432(6) . ?
O11 C4 1.362(6) . ?
O11 C12 1.433(8) . ?
C16 C17 1.406(8) . ?
C16 C15 1.393(8) . ?
C17 H17 0.9300 . ?
C17 C18 1.382(8) . ?
C18 H18 0.9300 . ?
C18 C13 1.388(8) . ?
C8 C7 1.322(7) . ?
C2 H2 0.9300 . ?
C2 C1 1.395(8) . ?
C2 C3 1.386(7) . ?
C7 C13 1.495(8) . ?
C7 C1 1.492(7) . ?
C4 C5 1.391(8) . ?
C4 C3 1.397(9) . ?
C13 C14 1.399(7) . ?
C1 C6 1.381(8) . ?
C15 H15 0.9300 . ?
C15 C14 1.389(7) . ?
C5 H5 0.9300 . ?
C5 C6 1.390(8) . ?
C3 H3 0.9300 . ?
C20 H20A 0.9600 . ?
C20 H20B 0.9600 . ?
C20 H20C 0.9600 . ?
C14 H14 0.9300 . ?
C6 H6 0.9300 . ?
C12 H12A 0.9600 . ?
C12 H12B 0.9600 . ?
C12 H12C 0.9600 . ?
loop_
_geom_torsion_atom_site_label_1
_geom_torsion_atom_site_label_2
_geom_torsion_atom_site_label_3
_geom_torsion_atom_site_label_4
_geom_torsion
_geom_torsion_site_symmetry_1
_geom_torsion_site_symmetry_2
_geom_torsion_site_symmetry_3
_geom_torsion_site_symmetry_4
_geom_torsion_publ_flag
Br10 C8 C7 C13 -4.0(8) . . . . ?
Br10 C8 C7 C1 176.7(4) . . . . ?
Br9 C8 C7 C13 178.6(4) . . . . ?
Br9 C8 C7 C1 -0.7(8) . . . . ?
O19 C16 C17 C18 -178.8(5) . . . . ?
O19 C16 C15 C14 179.3(5) . . . . ?
O11 C4 C5 C6 178.4(6) . . . . ?
O11 C4 C3 C2 -178.0(5) . . . . ?
C16 C17 C18 C13 0.3(8) . . . . ?
C16 C15 C14 C13 -1.4(8) . . . . ?
C17 C16 C15 C14 -0.2(7) . . . . ?
C17 C18 C13 C7 179.8(5) . . . . ?
C17 C18 C13 C14 -1.8(8) . . . . ?
C18 C13 C14 C15 2.4(7) . . . . ?
C8 C7 C13 C18 -72.1(7) . . . . ?
C8 C7 C13 C14 109.5(6) . . . . ?
C8 C7 C1 C2 96.7(7) . . . . ?
C8 C7 C1 C6 -87.5(7) . . . . ?
C2 C1 C6 C5 0.2(9) . . . . ?
C7 C13 C14 C15 -179.2(5) . . . . ?
C7 C1 C6 C5 -175.6(5) . . . . ?
C4 C5 C6 C1 0.1(9) . . . . ?
C13 C7 C1 C2 -82.6(6) . . . . ?
C13 C7 C1 C6 93.3(6) . . . . ?
C1 C2 C3 C4 -0.9(9) . . . . ?
C1 C7 C13 C18 107.1(6) . . . . ?
C1 C7 C13 C14 -71.3(6) . . . . ?
C15 C16 C17 C18 0.8(8) . . . . ?
C5 C4 C3 C2 1.3(9) . . . . ?
C3 C2 C1 C7 176.0(5) . . . . ?
C3 C2 C1 C6 0.1(9) . . . . ?
C3 C4 C5 C6 -0.9(9) . . . . ?
C20 O19 C16 C17 171.4(4) . . . . ?
C20 O19 C16 C15 -8.1(7) . . . . ?
C12 O11 C4 C5 1.4(9) . . . . ?
C12 O11 C4 C3 -179.3(6) . . . . ?
