#------------------------------------------------------------------------------
#$Date: 2022-03-31 00:55:50 +0300 (Thu, 31 Mar 2022) $
#$Revision: 274131 $
#$URL: file:///home/coder/svn-repositories/cod/cif/7/12/99/7129907.cif $
#------------------------------------------------------------------------------
#
# This file is available in the Crystallography Open Database (COD),
# http://www.crystallography.net/
#
# All data on this site have been placed in the public domain by the
# contributors.
#
data_7129907
loop_
_publ_author_name
'Solanke, Pooja R.'
'Cinsani, Radhika'
'Nayani, Kiranmai'
'Mainkar, Prathama S.'
'Chandrasekhar, Srivari'
_publ_section_title
;
 Quaternary Carbon Construction through Piancatelli Rearrangement: Easy
 Access to Spirocyclopentenones
;
_journal_name_full               'Chemical Communications'
_journal_paper_doi               10.1039/D2CC00050D
_journal_year                    2022
_chemical_formula_moiety         'C20 H14 N2 O2'
_chemical_formula_sum            'C20 H14 N2 O2'
_chemical_formula_weight         314.33
_space_group_crystal_system      triclinic
_space_group_IT_number           2
_space_group_name_Hall           '-P 1'
_space_group_name_H-M_alt        'P -1'
_atom_sites_solution_hydrogens   mixed
_audit_creation_method           SHELXL-2018/3
_audit_update_record
;
2021-08-21 deposited with the CCDC.	2022-03-29 downloaded from the CCDC.
;
_cell_angle_alpha                102.836(3)
_cell_angle_beta                 101.585(8)
_cell_angle_gamma                99.182(9)
_cell_formula_units_Z            2
_cell_length_a                   6.5740(7)
_cell_length_b                   8.6042(6)
_cell_length_c                   14.8471(8)
_cell_measurement_reflns_used    9889
_cell_measurement_temperature    294(2)
_cell_measurement_theta_max      28.97
_cell_measurement_theta_min      2.68
_cell_volume                     783.60(12)
_computing_cell_refinement       '<i>SAINT</i> (Bruker, 2016)'
_computing_data_collection       '<i>APEX3</i> (Bruker, 2016)'
_computing_data_reduction        'Bruker SAINT'
_computing_molecular_graphics    'Bruker SHELXTL'
_computing_publication_material  'Bruker SHELXTL'
_computing_structure_refinement  'SHELXL-2018/3 (Sheldrick, 2018)'
_computing_structure_solution    'SHELXT 2018/2 (Sheldrick, 2018)'
_diffrn_ambient_temperature      294(2)
_diffrn_measured_fraction_theta_full 0.998
_diffrn_measured_fraction_theta_max 0.996
_diffrn_measurement_device_type  'Bruker D8 QUEST PHOTON-100'
_diffrn_measurement_method       '\w and \f'
_diffrn_radiation_type           MoK\a
_diffrn_radiation_wavelength     0.71073
_diffrn_reflns_av_R_equivalents  0.0797
_diffrn_reflns_av_unetI/netI     0.0750
_diffrn_reflns_Laue_measured_fraction_full 0.998
_diffrn_reflns_Laue_measured_fraction_max 0.996
_diffrn_reflns_limit_h_max       8
_diffrn_reflns_limit_h_min       -8
_diffrn_reflns_limit_k_max       10
_diffrn_reflns_limit_k_min       -10
_diffrn_reflns_limit_l_max       17
_diffrn_reflns_limit_l_min       -18
_diffrn_reflns_number            10367
_diffrn_reflns_point_group_measured_fraction_full 0.998
_diffrn_reflns_point_group_measured_fraction_max 0.996
_diffrn_reflns_theta_full        25.242
_diffrn_reflns_theta_max         26.388
_diffrn_reflns_theta_min         2.485
_exptl_absorpt_coefficient_mu    0.088
_exptl_absorpt_correction_T_max  0.7454
_exptl_absorpt_correction_T_min  0.5215
_exptl_absorpt_correction_type   multi-scan
_exptl_absorpt_process_details
;
 SADABS 2016/2: Krause, L., Herbst-Irmer, R., Sheldrick G.M. & Stalke D.,
 J. Appl. Cryst. 48 (2015) 3-10
;
_exptl_crystal_colour            colorless
_exptl_crystal_density_diffrn    1.332
_exptl_crystal_description       block
_exptl_crystal_F_000             328
_exptl_crystal_size_max          0.260
_exptl_crystal_size_mid          0.240
_exptl_crystal_size_min          0.160
_refine_diff_density_max         0.220
_refine_diff_density_min         -0.196
_refine_diff_density_rms         0.039
_refine_ls_extinction_method     none
_refine_ls_goodness_of_fit_ref   1.012
_refine_ls_hydrogen_treatment    mixed
_refine_ls_matrix_type           full
_refine_ls_number_parameters     224
_refine_ls_number_reflns         3214
_refine_ls_number_restraints     0
_refine_ls_restrained_S_all      1.012
_refine_ls_R_factor_all          0.0852
_refine_ls_R_factor_gt           0.0451
_refine_ls_shift/su_max          0.005
_refine_ls_shift/su_mean         0.001
_refine_ls_structure_factor_coef Fsqd
_refine_ls_weighting_details
'w=1/[\s^2^(Fo^2^)+(0.0717P)^2^+0.0353P] where P=(Fo^2^+2Fc^2^)/3'
_refine_ls_weighting_scheme      calc
_refine_ls_wR_factor_gt          0.1211
_refine_ls_wR_factor_ref         0.1393
_reflns_Friedel_coverage         0.000
_reflns_number_gt                2187
_reflns_number_total             3214
_reflns_threshold_expression     'I > 2\s(I)'
_cod_data_source_file            d2cc00050d2.cif
_cod_data_source_block           KB14_0m
_cod_original_cell_volume        783.60(11)
_cod_database_code               7129907
_shelx_shelxl_version_number     2018/3
_shelx_space_group_comment
;
The symmetry employed for this shelxl refinement is uniquely defined
by the following loop, which should always be used as a source of
symmetry information in preference to the above space-group names.
They are only intended as comments.
;
_shelx_estimated_absorpt_t_min   0.978
_shelx_estimated_absorpt_t_max   0.986
_shelx_res_file
;
TITL KB14_0m_a.res in P-1
    KB14_0m.res
    created by SHELXL-2018/3 at 16:51:44 on 31-May-2021
CELL 0.71073 6.5740 8.6042 14.8471 102.836 101.585 99.182
ZERR 2.00 0.0007 0.0006 0.0008 0.003 0.008 0.009
LATT 1
SFAC C H N O
UNIT 40 28 4 4
LIST 6 ! automatically inserted. Change 6 to 4 for CHECKCIF!!
TEMP 21.000
ACTA
L.S. 4
FMAP 2
PLAN -4 0 0.00
EQIV $1 x-1, y-1, z
EQIV $2 -x+1, -y, -z+1
EQIV $3 x-1, y, z
EQIV $4 -x+1, -y+1, -z+1
HTAB N1 O1_$1
HTAB N1 O2_$2
HTAB N2 O1_$3
HTAB N2 O2_$4
BOND $H
OMIT 0 0 1
OMIT 0 -6 3
OMIT -3 55
CONF
SIZE 0.26 0.24 0.16
ACTA
WGHT    0.071700    0.035300
FVAR       1.02506
C1    1    0.569406    0.157866    0.751397    11.00000    0.04865    0.03368 =
         0.03615    0.01433    0.01089    0.00946
C2    1    0.396911    0.021473    0.718925    11.00000    0.05120    0.03444 =
         0.04141    0.01567    0.00920    0.00874
C3    1    0.242244   -0.004273    0.768407    11.00000    0.05953    0.04676 =
         0.05731    0.02370    0.01884    0.00446
AFIX  43
H3    2    0.131059   -0.095566    0.746123    11.00000   -1.20000
AFIX   0
C4    1    0.260409    0.110721    0.851596    11.00000    0.07772    0.06623 =
         0.05928    0.02750    0.03482    0.01432
AFIX  43
H4    2    0.158817    0.096938    0.886261    11.00000   -1.20000
AFIX   0
C5    1    0.426633    0.247617    0.885707    11.00000    0.08773    0.05939 =
         0.04580    0.00878    0.02940    0.01047
AFIX  43
H5    2    0.433125    0.323530    0.942182    11.00000   -1.20000
AFIX   0
C6    1    0.582036    0.272411    0.836961    11.00000    0.06696    0.04581 =
         0.04210    0.01026    0.01612    0.00387
AFIX  43
H6    2    0.693256    0.363610    0.860512    11.00000   -1.20000
AFIX   0
C7    1    0.696639    0.141488    0.682698    11.00000    0.04443    0.02892 =
         0.03875    0.01036    0.00895    0.00973
C8    1    0.599457    0.000805    0.614739    11.00000    0.05564    0.03529 =
         0.04215    0.01041    0.01570    0.01088
AFIX  43
H8    2    0.648610   -0.040681    0.561751    11.00000   -1.20000
AFIX   0
C9    1    0.900667    0.252043    0.687129    11.00000    0.03953    0.03449 =
         0.04020    0.00967    0.00690    0.01218
AFIX  13
H9    2    0.994364    0.265945    0.749975    11.00000   -1.20000
AFIX   0
C10   1    0.890066    0.426960    0.675564    11.00000    0.02466    0.03115 =
         0.03488    0.00638    0.00847    0.00571
C11   1    1.064804    0.462344    0.622797    11.00000    0.02897    0.04653 =
         0.04448    0.00943    0.01191    0.00599
C12   1    1.112344    0.305991    0.581168    11.00000    0.03574    0.05658 =
         0.06696    0.00290    0.02563    0.01278
AFIX  43
H12   2    1.195580    0.289399    0.537571    11.00000   -1.20000
AFIX   0
C13   1    1.018963    0.191711    0.614942    11.00000    0.03907    0.04347 =
         0.06126    0.00538    0.01294    0.01874
AFIX  43
H13   2    1.026155    0.082691    0.595452    11.00000   -1.20000
AFIX   0
C14   1    0.902024    0.559255    0.762396    11.00000    0.03345    0.03158 =
         0.03303    0.00822    0.00838    0.00245
C15   1    0.729966    0.631975    0.744680    11.00000    0.03960    0.03246 =
         0.03413    0.00669    0.01226    0.00785
C16   1    0.682333    0.431284    0.607305    11.00000    0.02881    0.02919 =
         0.03165    0.00875    0.01159    0.00373
C17   1    1.045233    0.611453    0.850022    11.00000    0.05343    0.04671 =
         0.04240    0.00824   -0.00146    0.00739
AFIX  43
H17   2    1.162473    0.564808    0.862795    11.00000   -1.20000
AFIX   0
C18   1    1.009863    0.736142    0.919144    11.00000    0.09392    0.05113 =
         0.03259    0.00103    0.00028    0.00391
AFIX  43
H18   2    1.104539    0.772862    0.978883    11.00000   -1.20000
AFIX   0
C19   1    0.838255    0.805042    0.900351    11.00000    0.09939    0.04811 =
         0.03896   -0.00098    0.02088    0.01633
AFIX  43
H19   2    0.817895    0.887641    0.947790    11.00000   -1.20000
AFIX   0
C20   1    0.693940    0.754910    0.812422    11.00000    0.07036    0.04807 =
         0.04862    0.00627    0.02202    0.02569
AFIX  43
H20   2    0.577448    0.802356    0.799660    11.00000   -1.20000
AFIX   0
O1    4    1.144702    0.596776    0.619409    11.00000    0.04584    0.04943 =
         0.07148    0.01546    0.02969   -0.00171
O2    4    0.602895    0.342072    0.528054    11.00000    0.03849    0.04055 =
         0.03373    0.00395    0.00595    0.00570
N1    3    0.419357   -0.071461    0.634950    11.00000    0.05509    0.03248 =
         0.04792    0.00656    0.01067    0.00113
H1N   2    0.340101   -0.166910    0.599279    11.00000    0.06086
N2    3    0.606541    0.556548    0.651659    11.00000    0.03497    0.04146 =
         0.03889    0.00631    0.00555    0.01640
H2N   2    0.492232    0.587082    0.622235    11.00000   -1.50000
HKLF 4 1 1 0 0 0 1 0 0 0 1




REM  KB14_0m_a.res in P-1
REM wR2 = 0.1393, GooF = S = 1.012, Restrained GooF = 1.012 for all data
REM R1 = 0.0451 for 2187 Fo > 4sig(Fo) and 0.0852 for all 3214 data
REM 224 parameters refined using 0 restraints

END

WGHT      0.0520      0.0948

REM Highest difference peak  0.220,  deepest hole -0.196,  1-sigma level  0.039
Q1    1   0.8764  0.3418  0.6769  11.00000  0.05    0.22
Q2    1   0.9753  0.4366  0.6550  11.00000  0.05    0.19
Q3    1   0.7622  0.5529  0.7636  11.00000  0.05    0.19
Q4    1   0.8030  0.4328  0.6384  11.00000  0.05    0.17
;
_shelx_res_checksum              40737
_shelx_hkl_file
;
  -1   0   0    0.23    0.43
  -1   0   0    0.19    0.51
  -1   0   0   -0.40    0.55
  -1   0   0    0.80    2.71
   1   0   0   -1.00    0.50
   1   0   0   -1.15    2.96
   1   0   0    0.00    0.51
   1   0   0    0.43    0.46
  -2   0   0  313.41   29.30
  -2   0   0  309.61   20.89
  -2   0   0  312.78   20.83
   2   0   0  322.30   20.85
   2   0   0  336.39   29.87
   2   0   0  322.35   20.92
   2   0   0  307.16   20.94
  -3   0   0  233.92   16.44
  -3   0   0  238.82   16.37
  -3   0   0  306.41   30.31
   3   0   0  256.07   28.68
   3   0   0  246.24   16.51
   3   0   0  248.19   16.44
  -4   0   0  467.74   32.63
  -4   0   0  496.95   50.33
   4   0   0  505.53   32.41
   4   0   0  502.60   50.53
   4   0   0  484.43   32.52
  -5   0   0    2.82   19.86
  -5   0   0    2.02    1.81
   5   0   0   11.86   20.10
   5   0   0    0.48    1.49
   5   0   0    2.41    1.58
  -6   0   0  192.88   45.84
  -6   0   0  151.21   12.80
   6   0   0  156.73   40.51
   6   0   0  179.99   12.56
   6   0   0  186.79   12.88
  -7   0   0   47.26    5.54
   7   0   0   45.54    5.12
   7  -1   0   16.99   40.78
  -7   1   0   35.62   48.90
   6  -1   0   -1.64    1.54
   6  -1   0  -32.06   26.41
  -6   1   0   11.92   26.98
  -6   1   0   -0.55    1.97
   5  -1   0  199.96   12.84
   5  -1   0  203.39   36.64
   5  -1   0  179.76   12.97
  -5   1   0  248.15   39.58
  -5   1   0  164.06   13.13
   4  -1   0  275.59   35.03
   4  -1   0  298.12   20.07
   4  -1   0  330.95   19.97
  -4   1   0  276.00   20.02
  -4   1   0  285.32   20.22
  -4   1   0  294.95   37.27
   3  -1   0  311.82   20.19
   3  -1   0  309.60   31.75
   3  -1   0  320.46   20.08
  -3   1   0  293.00   20.18
  -3   1   0  296.09   20.30
  -3   1   0  347.13   32.51
  -3   1   0  281.28   20.04
   2  -1   0    1.16    0.61
   2  -1   0    0.02    0.64
   2  -1   0    7.22    6.51
   2  -1   0   -0.42    0.56
  -2   1   0   -3.33    5.25
  -2   1   0    0.47    0.62
   1  -1   0 1888.27  125.18
  -1   1   0 1861.94  125.18
   0  -1   0  332.51   23.32
   0   1   0  334.60   21.96
   0   1   0  346.09   23.31
  -1  -1   0 2161.32  142.70
   1   1   0 2042.24  142.31
  -2  -1   0  405.23   25.94
  -2  -1   0  426.80   36.52
   2   1   0  390.88   26.01
   2   1   0  411.82   35.96
   2   1   0  380.09   25.93
   2   1   0  380.47   25.94
  -3  -1   0  490.51   44.44
  -3  -1   0  413.18   28.27
   3   1   0  425.06   41.75
   3   1   0  421.61   28.49
   3   1   0  422.69   28.15
  -4  -1   0  103.61   26.48
  -4  -1   0   75.34    5.95
   4   1   0   69.09    5.78
   4   1   0   73.04    5.76
   4   1   0   80.56   22.94
  -5  -1   0   84.72    7.20
  -5  -1   0   62.64   29.80
   5   1   0  102.82   31.40
   5   1   0   82.29    7.01
   5   1   0   94.32    7.07
  -6  -1   0    1.34    2.19
   6   1   0    2.87    2.05
   6   1   0  -25.43   30.14
   6   1   0   -0.51    1.99
  -7  -1   0    6.01    2.93
   7   1   0    9.32    2.85
   7   1   0    7.12    2.74
   8  -2   0   -1.95    2.02
  -8   2   0    2.29    3.03
   7  -2   0  -23.14   39.34
   7  -2   0    1.70    1.90
  -7   2   0    2.42    2.51
  -7   2   0  -21.37   37.70
   6  -2   0    1.19    1.61
   6  -2   0  -29.53   23.20
  -6   2   0   -1.54    2.04
  -6   2   0   14.84   30.72
   5  -2   0   40.15   24.03
   5  -2   0   18.74    2.58
   5  -2   0   27.80    2.91
  -5   2   0   15.20    2.85
  -5   2   0   -3.61   18.21
   4  -2   0   71.72    5.50
   4  -2   0   80.31    5.54
   4  -2   0   97.80   21.84
  -4   2   0   73.16    5.82
  -4   2   0   66.57   20.11
  -4   2   0   70.12    5.57
   3  -2   0    0.80    0.54
   3  -2   0    2.68    0.96
   3  -2   0   -6.06    8.27
  -3   2   0    1.01    0.93
  -3   2   0    0.02    0.84
  -3   2   0    0.64    0.74
  -3   2   0    4.78    8.23
   2  -2   0   48.88    3.21
   2  -2   0   29.90    8.26
   2  -2   0   38.26    3.04
   2  -2   0   46.17    3.05
  -2   2   0   42.09    3.14
  -2   2   0   49.34    9.81
  -2   2   0   39.38    3.12
   1  -2   0    6.28    2.65
   1  -2   0    5.04    0.78
  -1   2   0    5.74    0.63
  -1   2   0    5.54    0.77
  -1   2   0   -0.24    2.75
   0  -2   0    5.71    0.61
   0  -2   0    4.32    2.87
   0  -2   0    8.09    0.92
   0  -2   0    6.05    0.55
   0   2   0    8.30    0.66
   0   2   0    8.22    0.91
   0   2   0    6.33    0.74
   0   2   0    3.15    2.57
  -1  -2   0  450.90   26.68
  -1  -2   0  345.64   26.72
   1   2   0  391.32   32.51
   1   2   0  408.04   26.71
   1   2   0  407.37   26.66
   1   2   0  416.75   33.99
   1   2   0  426.08   26.82
  -2  -2   0  613.96   41.93
  -2  -2   0  728.34   54.70
   2   2   0  676.94   54.05
   2   2   0  619.28   41.95
  -3  -2   0   25.17   12.91
  -3  -2   0    3.25    1.33
   3   2   0   18.87   13.13
   3   2   0    5.79    1.46
   3   2   0    4.46    1.42
   3   2   0    8.17    1.53
  -4  -2   0   54.88   23.26
  -4  -2   0   36.80    3.76
   4   2   0   34.00   19.96
   4   2   0   40.12    3.81
   4   2   0   32.14    3.59
  -5  -2   0   28.92    3.91
   5   2   0  -19.45   22.47
   5   2   0   22.35    3.28
   5   2   0   28.20    3.72
  -6  -2   0   40.79    5.17
   6   2   0   41.11    5.10
   6   2   0   44.42    4.94
  -7  -2   0   33.89    4.89
   7   2   0   18.40    3.67
   7   2   0   20.67    3.94
   8  -3   0    5.30    2.52
  -8   3   0    5.79    3.26
   7  -3   0   18.55    3.00
   7  -3   0   15.85   37.12
  -7   3   0   53.63   43.39
  -7   3   0   28.73    4.25
   6  -3   0    0.02    1.62
   6  -3   0   30.08   24.88
  -6   3   0   -3.16    1.75
  -6   3   0   -3.37   24.31
   5  -3   0  207.75   34.88
   5  -3   0  172.30   10.68
   5  -3   0  127.56   10.41
  -5   3   0  157.11   11.14
  -5   3   0  121.64   26.60
   4  -3   0   27.78    2.68
   4  -3   0   46.34   16.06
   4  -3   0   26.13    2.27
  -4   3   0   23.90    2.52
  -4   3   0   32.02   14.99
  -4   3   0   23.43    2.66
   3  -3   0    7.49    8.01
   3  -3   0   13.80    1.36
  -3   3   0    9.05    1.47
  -3   3   0    8.25    1.34
  -3   3   0   13.60    1.58
  -3   3   0   12.74    9.69
   2  -3   0   15.85    5.48
  -2   3   0   10.28    5.73
  -2   3   0    4.40    0.88
  -2   3   0    6.80    1.12
  -2   3   0    6.68    0.93
   1  -3   0 1110.65   70.89
  -1   3   0 1068.18   71.43
  -1   3   0  999.65   68.58
   0  -3   0  102.98   11.64
   0   3   0  117.81    7.64
   0   3   0  115.85    7.75
   0   3   0  120.26   11.50
   0   3   0  113.47    7.81
  -1  -3   0    4.36    0.77
  -1  -3   0    4.50    0.92
   1   3   0    3.23    0.80
   1   3   0    3.03    5.83
   1   3   0    4.11    5.92
   1   3   0    3.15    0.92
  -2  -3   0   -0.77    0.84
   2   3   0    0.60    1.06
   2   3   0    2.35    1.07
   2   3   0    0.27    0.89
   2   3   0    9.29   10.86
   2   3   0   -1.10    9.57
  -3  -3   0    7.18    1.66
   3   3   0    5.26    1.43
   3   3   0   -2.33   13.05
   3   3   0    4.96   14.81
   3   3   0    7.86    1.67
   3   3   0    7.52    1.75
  -4  -3   0   36.32    3.95
   4   3   0   25.56   20.79
   4   3   0   29.77    3.51
   4   3   0   21.68   19.55
   4   3   0   28.48    3.57
  -5  -3   0    1.68    1.89
   5   3   0  -10.55   26.46
   5   3   0    1.25    2.00
   5   3   0    0.24    1.84
  -6  -3   0   70.38    6.80
   6   3   0   79.76    6.95
   6   3   0   72.55    6.90
   7   3   0   18.47    3.93
   7   3   0   25.20    4.19
   7  -4   0  -29.09   34.07
   7  -4   0   -0.08    1.91
  -7   4   0   -0.06    2.24
   6  -4   0  114.34   36.41
  -6   4   0  116.41   31.89
  -6   4   0  154.13   11.45
   5  -4   0  -11.70   17.17
  -5   4   0    3.57    1.81
  -5   4   0    6.26   19.66
   4  -4   0    3.83    1.18
   4  -4   0    9.45   11.59
   4  -4   0    1.30    0.79
  -4   4   0    2.10   13.16
  -4   4   0    2.41    1.17
  -4   4   0    3.45    1.37
   3  -4   0  133.36    8.51
   3  -4   0  115.35   16.71
  -3   4   0  121.27    8.44
  -3   4   0  112.43   17.96
  -3   4   0  115.59    8.52
   2  -4   0  588.06   37.66
   2  -4   0  584.72   41.24
  -2   4   0  493.70   42.57
  -2   4   0  561.42   37.53
  -2   4   0  606.05   37.47
   1  -4   0    5.93    1.14
   1  -4   0    5.32    3.42
  -1   4   0    4.58    0.67
  -1   4   0    7.33    3.70
  -1   4   0    5.78    0.72
   0  -4   0   27.44    2.47
   0   4   0   29.48    2.37
   0   4   0   30.99    2.20
   0   4   0   23.41    6.34
  -1  -4   0   13.22    1.47
  -1  -4   0   13.68    1.59
   1   4   0   15.19    1.71
   1   4   0   15.10    9.52
   1   4   0   15.35    1.53
   1   4   0   24.17    8.83
  -2  -4   0    7.46    1.33
   2   4   0    8.36    1.53
   2   4   0    4.31    1.18
   2   4   0    4.42   11.34
   2   4   0    4.99   10.36
  -3  -4   0  144.87    9.93
   3   4   0  124.94    9.76
   3   4   0  102.26   23.93
   3   4   0  151.61   10.05
   3   4   0  125.39    9.93
   3   4   0  192.54   33.14
  -4  -4   0   35.31    3.97
   4   4   0   36.84    4.14
   4   4   0   30.96   24.56
   4   4   0   36.84    4.15
   5   4   0   58.40    5.87
   5   4   0   76.86   33.14
   5   4   0   58.65    5.64
   6   4   0   12.01    3.09
   6   4   0   10.51    3.31
   7  -5   0    1.99    1.81
  -7   5   0    4.34    2.69
   6  -5   0   41.94   27.86
   6  -5   0   54.75    4.64
  -6   5   0   45.49    5.06
  -6   5   0   17.36   28.67
   5  -5   0    1.14   15.60
   5  -5   0   14.34    2.27
  -5   5   0   20.00   19.41
  -5   5   0   13.87    2.63
   4  -5   0   15.33   11.40
   4  -5   0   10.88    1.80
  -4   5   0   13.51   14.20
  -4   5   0    6.53    1.69
  -4   5   0   10.62    1.72
   3  -5   0  138.45   15.75
   3  -5   0  142.26    9.56
  -3   5   0  136.96    9.38
  -3   5   0  133.09    9.48
  -3   5   0  132.97   19.39
   2  -5   0  372.62   26.70
   2  -5   0  350.52   23.08
  -2   5   0  316.95   27.95
  -2   5   0  332.25   22.84
  -2   5   0  358.27   22.81
   1  -5   0  118.34   13.26
   1  -5   0  122.81    8.61
  -1   5   0  120.83    8.32
  -1   5   0  121.97   12.70
  -1   5   0  128.15    8.25
   0  -5   0  395.38   26.49
   0   5   0  406.90   32.41
   0   5   0  412.70   26.39
   0   5   0  387.94   26.19
   0   5   0  398.13   35.06
  -1  -5   0    1.32    0.95
   1   5   0    0.88    0.76
   1   5   0    1.01    0.92
   1   5   0   -0.67   10.53
   1   5   0    5.95    8.66
  -2  -5   0   74.35    5.60
   2   5   0   82.00   19.68
   2   5   0   82.63    5.98
   2   5   0   68.69    5.67
   2   5   0   80.27   19.84
   3   5   0   17.88   16.90
   3   5   0   48.36    4.70
   3   5   0   46.34    4.29
   4   5   0   -0.68    1.82
   4   5   0   -0.61   27.19
   4   5   0   -0.33    1.92
   5   5   0   33.89   36.64
   6   5   0    4.38    3.04
   6   5   0    6.64    2.79
   7  -6   0   17.84    3.00
  -7   6   0   13.94    3.51
   6  -6   0   48.13   26.53
   6  -6   0   18.96    2.77
  -6   6   0   16.70    3.12
   5  -6   0   69.89    5.55
   5  -6   0   70.20   19.97
  -5   6   0   67.25    5.80
  -5   6   0   28.39   21.37
   4  -6   0   19.99    2.65
   4  -6   0   20.87   11.07
  -4   6   0   22.83    2.75
  -4   6   0   22.06    2.53
  -4   6   0   37.95   16.67
   3  -6   0   47.96    3.89
   3  -6   0   41.34    8.93
  -3   6   0   42.66   12.82
  -3   6   0   40.92    3.58
  -3   6   0   45.99    3.57
   2  -6   0  108.39    7.82
   2  -6   0   91.28   11.99
  -2   6   0  109.72   14.18
  -2   6   0  110.45    7.43
  -2   6   0  109.64    7.44
   1  -6   0   75.98    5.92
  -1   6   0   78.48    5.60
  -1   6   0   76.55   11.07
  -1   6   0   82.70    5.45
   0  -6   0   88.11    6.77
   0   6   0   97.76    6.68
   0   6   0   77.23   16.01
   0   6   0   91.94    6.44
   0   6   0  111.86   15.64
  -1  -6   0  101.78    7.22
   1   6   0   93.44   22.22
   1   6   0  104.47    7.31
   1   6   0   89.08   17.14
   1   6   0   91.54    7.01
   2   6   0   13.22    2.13
   2   6   0   15.24   15.36
   3   6   0   70.19   25.95
   3   6   0   57.21    5.32
   3   6   0   63.39    5.82
   4   6   0   26.72   31.14
   5   6   0   37.08    5.00
   5   6   0   27.70    4.25
   7  -7   0    0.18    2.01
   6  -7   0    1.95    1.92
  -6   7   0   -2.80    1.73
   5  -7   0   25.06    3.14
   5  -7   0   17.42   15.36
  -5   7   0    6.37   22.37
  -5   7   0   19.97    2.96
   4  -7   0   15.71    2.54
   4  -7   0    8.22   10.26
  -4   7   0   18.21   15.60
  -4   7   0   14.42    2.13
   3  -7   0  174.03   17.87
   3  -7   0  166.60   12.24
  -3   7   0  178.43   11.88
  -3   7   0  179.77   20.97
  -3   7   0  175.32   11.91
   2  -7   0  150.07   11.06
   2  -7   0  136.00   16.31
  -2   7   0  168.28   10.57
  -2   7   0  155.54   10.66
  -2   7   0  146.28   16.93
   1  -7   0    5.42    1.80
  -1   7   0    7.44    1.34
  -1   7   0    1.71   10.47
  -1   7   0    6.82    1.05
  -1   7   0    8.20    7.72
   0  -7   0  198.26   13.43
   0   7   0  147.05   25.53
   0   7   0  189.79   13.00
   0   7   0  175.33   21.80
   0   7   0  199.53   13.25
  -1  -7   0    3.62    1.64
   1   7   0   10.33   13.03
   1   7   0    5.41    1.45
   2   7   0   87.12   23.88
   2   7   0  104.47    7.83
   3   7   0   56.55    5.43
   3   7   0   34.99   27.33
   3   7   0   68.36    6.24
   4   7   0   49.61    5.93
   4   7   0   55.11    5.59
   6  -8   0   -1.99    1.85
  -6   8   0    2.39    2.13
   5  -8   0   -2.86   13.92
   5  -8   0    7.99    2.42
  -5   8   0    8.96    2.21
   4  -8   0    1.84    9.45
   4  -8   0    4.09    1.90
  -4   8   0    3.71    1.48
  -4   8   0   15.65   14.94
   3  -8   0    6.41    2.07
  -3   8   0    6.06    8.24
  -3   8   0    6.63    1.32
   2  -8   0   87.56    6.95
  -2   8   0   86.49    6.45
  -2   8   0   82.95   13.44
  -2   8   0   91.89    6.23
  -2   8   0   88.42   12.57
   1  -8   0   96.94    7.64
  -1   8   0  111.37   15.13
  -1   8   0   77.55   18.26
  -1   8   0  102.81    7.03
   0  -8   0    1.49    1.55
   0   8   0    3.12   10.70
   0   8   0    1.08    1.12
   1   8   0   13.63   16.49
   1   8   0    7.09    1.75
   2   8   0   -0.04    1.51
   3   8   0    5.56    2.98
   3   8   0    6.67    2.39
   5  -9   0   -1.17    2.06
  -5   9   0   -0.47    1.61
   4  -9   0   19.92    3.23
  -4   9   0   16.89    2.29
   3  -9   0    0.84    1.86
  -3   9   0    2.76    1.17
   2  -9   0   44.30    4.58
  -2   9   0   46.84    3.65
   1  -9   0    4.30    1.99
  -1   9   0    0.79    1.00
  -1   9   0    7.06   10.96
   0  -9   0   15.94    2.75
   0   9   0   12.52    2.01
   1   9   0    8.58    2.00
   2   9   0   -2.02    1.60
   4 -10   0    2.32    2.41
   3 -10   0    2.80    2.26
  -3  10   0   -0.69    1.16
   2 -10   0   16.62    3.11
  -2  10   0    8.44    1.62
   1 -10   0    3.68    2.11
  -1  10   0    2.62    1.36
   0 -10   0   15.15    2.97
   0  10   0   15.70    2.47
   1  10  -1   53.32    4.99
   0  10  -1    3.77    1.64
   0 -10   1    5.00    2.19
  -1  10  -1   68.99    5.25
   1 -10   1   66.89    6.07
  -2  10  -1    2.46    1.17
   2 -10   1    5.48    2.36
  -3  10  -1    1.78    1.09
   3 -10   1    3.05    2.14
  -4  10  -1   27.10    2.86
   4 -10   1   27.39    3.81
   2   9  -1    4.20    2.01
   2   9  -1    1.95    2.61
   1   9  -1   40.21    3.89
   0   9  -1   47.93   14.02
   0   9  -1   60.27    4.86
   0  -9   1   65.00    5.46
  -1   9  -1    9.64    1.47
   1  -9   1   12.80    2.48
  -2   9  -1   75.37    5.28
   2  -9   1   70.60    6.17
  -3   9  -1   27.32    2.53
   3  -9   1   25.05    3.53
  -4   9  -1   36.15    3.30
   4  -9   1   31.55    4.05
  -5   9  -1    0.70    1.58
   5  -9   1   -3.33    1.80
   3   8  -1    4.87    2.69
   3   8  -1    2.99    2.06
   2   8  -1   12.66    3.00
   2   8  -1   13.89    2.48
   1   8  -1   48.66   17.04
   1   8  -1   39.50    3.66
   0   8  -1    4.44    1.18
   0   8  -1   18.74    9.99
   0   8  -1  -17.67   17.48
   0  -8   1    3.69    1.62
  -1   8  -1   55.06    9.24
  -1   8  -1   63.33   11.60
  -1   8  -1   60.32    4.65
  -1   8  -1   62.99    4.46
   1  -8   1   62.59    5.23
  -2   8  -1  105.95    6.94
  -2   8  -1   99.12    7.11
   2  -8   1   95.62    7.68
  -3   8  -1   10.02    1.52
  -3   8  -1   12.17    1.60
   3  -8   1   14.34    2.43
  -4   8  -1   16.26    2.15
   4  -8   1   16.82    2.72
  -5   8  -1    2.40    1.63
   5  -8   1  -15.01   11.96
   5  -8   1    0.97    1.80
  -6   8  -1    7.05    2.40
   6  -8   1   10.92    2.59
   4   7  -1    7.31    2.95
   4   7  -1    4.10    2.37
   3   7  -1   53.36    5.59
   3   7  -1   50.99    5.01
   2   7  -1   -2.45   16.49
   2   7  -1    2.39    1.43
   1   7  -1    7.24    1.51
   1   7  -1    3.39   11.95
   1   7  -1   32.76   18.40
   0   7  -1   65.15    5.01
   0   7  -1   68.29    4.82
   0   7  -1   83.81   13.44
   0   7  -1   66.72   16.21
   0  -7   1   61.86    5.26
  -1   7  -1   84.80   11.51
  -1   7  -1  101.89   13.91
  -1   7  -1  109.34    7.07
  -1   7  -1  104.68    7.23
   1  -7   1  101.97    7.69
  -2   7  -1   23.81    2.11
  -2   7  -1   22.06    1.96
   2  -7   1   23.00    2.83
  -3   7  -1  286.39   18.87
  -3   7  -1  288.85   18.80
   3  -7   1  255.64   20.78
   3  -7   1  291.08   19.27
  -4   7  -1    6.97   13.60
  -4   7  -1    2.49    1.38
  -4   7  -1    7.43    2.15
   4  -7   1    2.66    1.70
   4  -7   1    0.63    8.11
  -5   7  -1   33.43   22.20
  -5   7  -1    9.52    2.11
   5  -7   1    9.39    2.19
   5  -7   1    8.37   15.58
  -6   7  -1   -0.81    1.85
   6  -7   1    1.23    1.86
   5   6  -1   28.66    4.62
   5   6  -1   35.22    4.60
   4   6  -1    1.90    2.43
   4   6  -1    0.74    1.88
   4   6  -1   13.34   28.99
   3   6  -1  127.80   27.21
   3   6  -1   86.67    7.52
   3   6  -1   91.15    7.16
   2   6  -1  200.30   30.41
   2   6  -1  252.46   36.49
   2   6  -1  224.49   15.40
   1   6  -1    8.91   12.80
   1   6  -1    2.42    9.97
  -1  -6   1    0.04    1.08
   0   6  -1   50.48    3.60
   0   6  -1   50.71    3.80
   0   6  -1   66.33   14.09
   0   6  -1   52.25   10.25
   0  -6   1   44.82    3.98
  -1   6  -1  138.06    8.78
  -1   6  -1  128.52   14.30
  -1   6  -1  130.29    8.88
  -1   6  -1  125.85   12.35
   1  -6   1  129.56    9.29
  -2   6  -1   17.82    4.82
  -2   6  -1   21.58    1.81
  -2   6  -1   22.16    1.81
   2  -6   1   22.03    2.39
   2  -6   1   15.32    3.91
  -3   6  -1   -0.50    0.79
  -3   6  -1   12.03    9.29
  -3   6  -1    2.20    0.93
   3  -6   1   -1.89    5.02
   3  -6   1    2.21    1.28
  -4   6  -1   22.10   15.05
  -4   6  -1   24.01    2.65
  -4   6  -1   23.68    2.77
   4  -6   1   27.66    2.87
   4  -6   1   40.95   12.55
  -5   6  -1  122.01   30.89
  -5   6  -1  192.74   13.69
   5  -6   1  202.33   13.47
   5  -6   1  172.83   28.73
  -6   6  -1   -1.07    1.71
   6  -6   1  -13.12   27.94
   6  -6   1    1.25    1.74
  -7   6  -1   22.49    3.83
   7  -6   1   17.58    2.94
   6   5  -1   -1.96    2.63
   6   5  -1   -1.11    2.28
   5   5  -1    4.31    2.49
   5   5  -1    4.82    2.37
   5   5  -1  -34.81   32.88
   4   5  -1  -27.24   22.00
   4   5  -1   -1.09    1.71
   4   5  -1    1.58    2.21
   3   5  -1    8.47    1.98
   3   5  -1   23.47   16.46
   3   5  -1  -16.18   19.58
   3   5  -1   10.54    2.45
  -3  -5   1   16.93    2.71
   2   5  -1   25.60   13.63
   2   5  -1   40.10   17.86
   2   5  -1   33.35    2.98
   2   5  -1   25.36    2.73
  -2  -5   1   27.91    2.53
   1   5  -1    0.83    0.72
   1   5  -1    6.55   10.98
   1   5  -1    1.54    0.85
   1   5  -1    8.96    8.06
  -1  -5   1    0.13    0.87
  -1  -5   1    1.78    0.38
   0   5  -1    4.69    6.98
   0   5  -1    1.05    0.47
   0   5  -1    0.82    0.58
   0   5  -1   -0.40    4.96
   0  -5   1    0.70    0.83
  -1   5  -1  187.61   12.65
  -1   5  -1  177.38   15.09
  -1   5  -1  211.89   16.34
  -1   5  -1  195.24   12.61
   1  -5   1  194.40   13.04
  -2   5  -1   21.02    6.39
  -2   5  -1   34.58    2.48
  -2   5  -1   33.61    2.51
   2  -5   1   33.07    2.87
   2  -5   1   42.36    5.79
  -3   5  -1   30.73    2.65
  -3   5  -1   29.40    2.60
  -3   5  -1   18.94   10.08
   3  -5   1   30.97    8.71
   3  -5   1   34.21    2.83
  -4   5  -1   -0.50    1.05
  -4   5  -1    5.77   12.77
  -4   5  -1    1.71    1.07
   4  -5   1   -2.43    1.07
   4  -5   1   -3.97   10.57
  -5   5  -1    1.17    1.56
  -5   5  -1  -12.10   19.17
   5  -5   1    2.04    1.40
   5  -5   1   -0.77   17.84
  -6   5  -1    2.30   26.61
  -6   5  -1   -1.55    1.76
   6  -5   1   40.71   29.34
   6  -5   1    2.69    1.63
  -7   5  -1   26.06    4.18
   7  -5   1   24.40    3.26
   6   4  -1    2.19    2.58
   6   4  -1    6.60    2.62
   5   4  -1   74.94    6.40
   5   4  -1   25.52   29.16
   5   4  -1   57.95    5.89
   4   4  -1   37.84   20.07
   4   4  -1   41.70    4.40
   4   4  -1   36.09    4.28
   4   4  -1   69.40   27.86
  -4  -4   1   41.41    4.16
   3   4  -1   44.71    3.75
   3   4  -1   37.74   19.14
   3   4  -1   33.55    3.84
   3   4  -1   28.88   16.10
   3   4  -1   34.31    3.64
  -3  -4   1   43.00    3.71
   2   4  -1  594.39   50.59
   2   4  -1  496.95   35.46
   2   4  -1  546.60   47.55
   2   4  -1  522.05   35.72
   2   4  -1  578.59   35.72
   1   4  -1   22.63    8.47
   1   4  -1   17.36    1.78
   1   4  -1   20.33    1.97
   1   4  -1   23.07    9.71
  -1  -4   1   23.26    1.97
  -1  -4   1   20.06    1.66
   0   4  -1   52.38    3.62
   0   4  -1   53.61    8.31
   0   4  -1   61.06   10.13
   0  -4   1   53.48    3.95
  -1   4  -1  144.11   11.61
   1  -4   1  142.99   11.40
   1  -4   1  152.10   10.03
  -2   4  -1  475.91   32.86
  -2   4  -1  440.79   37.11
   2  -4   1  539.07   33.14
   2  -4   1  553.68   36.53
  -3   4  -1   62.31   13.48
  -3   4  -1   46.21    3.34
  -3   4  -1   37.19    3.33
   3  -4   1   44.35   10.34
   3  -4   1   42.63    3.34
  -4   4  -1    5.16    1.49
  -4   4  -1    6.19    1.32
  -4   4  -1    8.53   13.58
   4  -4   1    6.65    1.43
   4  -4   1    6.37    0.96
   4  -4   1   21.71   12.22
  -5   4  -1  106.64   26.70
  -5   4  -1   80.89    6.66
   5  -4   1   92.55   25.88
  -6   4  -1  115.10    9.09
  -6   4  -1   69.75   32.92
   6  -4   1  117.18   35.78
  -7   4  -1    2.60    2.50
   7  -4   1    7.50   42.28
   7   3  -1    2.36    2.72
   7   3  -1    0.45    2.80
   6   3  -1   14.43    3.11
   6   3  -1   17.60    3.48
  -6  -3   1   24.97    3.73
   5   3  -1   29.16    4.09
   5   3  -1   37.20    4.56
  -5  -3   1   36.47    4.30
   4   3  -1   39.02    4.02
   4   3  -1   39.98    4.24
   4   3  -1   44.42   23.94
  -4  -3   1   27.81   26.29
  -4  -3   1   43.65    4.24
   3   3  -1   30.41   16.14
   3   3  -1   40.16    3.82
   3   3  -1   35.41    3.58
   3   3  -1   44.95    3.73
  -3  -3   1   46.71    3.77
  -3  -3   1   28.69   15.18
   2   3  -1  279.89   18.69
   2   3  -1  255.53   18.47
   2   3  -1  272.66   30.69
   2   3  -1  282.51   18.64
  -2  -3   1  288.89   18.57
   1   3  -1  222.61   15.47
   1   3  -1  229.22   22.73
  -1  -3   1  212.42   15.40
  -1  -3   1  263.87   15.37
   0   3  -1   76.62    4.67
   0   3  -1   71.48    4.90
   0   3  -1   71.92    8.86
   0   3  -1   74.80    7.67
   0   3  -1   64.94    4.73
   0  -3   1   66.47    4.91
  -1   3  -1 1765.78  122.70
   1  -3   1 1967.68  122.24
  -2   3  -1  678.87   48.63
  -2   3  -1  630.92   42.81
  -2   3  -1  673.09   42.85
  -2   3  -1  662.94   42.79
   2  -3   1  635.18   47.90
  -3   3  -1   73.09   13.74
  -3   3  -1   51.98    4.07
  -3   3  -1   52.57    4.13
   3  -3   1   60.58    3.95
   3  -3   1   51.41   13.02
  -4   3  -1    0.96    1.40
  -4   3  -1   11.50   13.88
  -4   3  -1    3.09    1.12
   4  -3   1    3.62    1.01
   4  -3   1  -12.38   12.56
  -5   3  -1   21.86   20.10
  -5   3  -1   10.14    2.22
   5  -3   1    9.90    1.89
   5  -3   1   22.87   18.67
  -6   3  -1   53.90    5.75
  -6   3  -1   34.24   30.94
   6  -3   1   45.90   31.62
   6  -3   1   63.14    5.05
   7  -3   1   18.31   37.65
   7   2  -1   11.60    3.18
   7   2  -1   12.87    3.34
  -7  -2   1   13.74    3.64
   6   2  -1    4.80    2.32
   6   2  -1    0.85    2.15
  -6  -2   1    5.86    2.40
   5   2  -1  158.36   10.88
   5   2  -1  147.60   10.85
   5   2  -1  172.23   36.31
  -5  -2   1  126.49   10.76
  -5  -2   1  120.59   38.63
   4   2  -1    1.61    1.46
   4   2  -1  -12.35   15.93
   4   2  -1   -0.24    1.32
  -4  -2   1  -20.44   16.16
   3   2  -1   13.79    1.86
   3   2  -1   15.73   12.93
   3   2  -1    7.36    1.62
   3   2  -1    7.34    1.59
  -3  -2   1   11.48    1.91
  -3  -2   1    6.64   13.01
   2   2  -1    5.78    1.18
   2   2  -1   14.49    8.49
  -2  -2   1    7.02    1.18
  -2  -2   1    1.50    7.57
  -2  -2   1    5.07    1.24
   1   2  -1  191.39   19.03
   1   2  -1  179.83   12.52
   1   2  -1  180.25   12.45
   1   2  -1  186.89   12.43
  -1  -2   1  202.25   12.43
   0   2  -1 5165.67  348.43
   0   2  -1 5521.05  349.01
  -1   2  -1 1924.14  122.81
   1  -2   1 1784.87  122.54
  -2   2  -1   10.00    1.15
  -2   2  -1    8.03    5.82
  -2   2  -1    9.89    1.48
  -2   2  -1   10.00    1.11
   2  -2   1   11.34    1.22
   2  -2   1   10.84    1.06
   2  -2   1    9.84    1.02
   2  -2   1    9.95    5.87
  -3   2  -1  312.56   21.35
  -3   2  -1  308.81   21.43
  -3   2  -1  342.22   32.60
  -3   2  -1  289.02   21.17
   3  -2   1  323.72   32.76
   3  -2   1  368.31   21.24
  -4   2  -1   16.51   13.05
  -4   2  -1   11.49    1.74
  -4   2  -1   11.97    1.70
   4  -2   1    8.95    1.60
   4  -2   1   -9.81   12.47
  -5   2  -1   28.48   21.89
  -5   2  -1   22.91    3.27
   5  -2   1   26.51    2.82
   5  -2   1   -1.67   18.58
   5  -2   1   22.41    2.84
  -6   2  -1    2.42    2.10
  -6   2  -1    0.75   28.54
   6  -2   1  -32.53   24.94
   6  -2   1   -1.09    1.50
  -7   2  -1   13.91    3.32
   7  -2   1   -9.20   37.92
   7   1  -1   39.89    4.91
   7   1  -1   37.12    4.91
  -7  -1   1   38.26    5.19
   6   1  -1   48.85    5.03
   6   1  -1   71.29   34.58
   6   1  -1   49.32    5.10
  -6  -1   1   41.48    4.99
   5   1  -1    4.33    1.89
   5   1  -1   41.44   23.19
   5   1  -1    4.86    1.90
  -5  -1   1  -21.79   20.89
  -5  -1   1    3.19    2.13
   4   1  -1    3.69    1.56
   4   1  -1    4.05    1.61
   4   1  -1   -6.88   15.34
  -4  -1   1    4.88    1.70
  -4  -1   1   27.88   16.67
   3   1  -1   77.47    5.68
   3   1  -1   60.86   17.87
   3   1  -1   69.26    5.62
  -3  -1   1   79.69    5.83
  -3  -1   1   72.36   18.99
   2   1  -1   12.32    1.55
   2   1  -1   20.29    8.99
   2   1  -1   11.22    1.55
  -2  -1   1   18.43    1.88
  -2  -1   1   12.53    1.41
  -2  -1   1   11.33    1.63
  -2  -1   1   17.77    8.57
   1   1  -1 1199.63   83.48
   0   1  -1   16.63    1.09
   0   1  -1   17.78    2.36
   0  -1   1   12.40    1.06
  -1   1  -1 6554.63  422.83
   1  -1   1 6358.93  422.73
  -2   1  -1 3298.11  219.72
   2  -1   1 3206.43  219.52
  -3   1  -1   46.34   14.27
  -3   1  -1   31.16    2.51
  -3   1  -1   29.47    2.70
  -3   1  -1   24.00    2.69
   3  -1   1   34.33    2.57
   3  -1   1   16.98   12.38
   3  -1   1   28.55    2.65
  -4   1  -1  131.64   26.07
  -4   1  -1   83.31    6.57
   4  -1   1   94.04    6.71
   4  -1   1   92.98   21.83
   4  -1   1   89.01    6.46
  -5   1  -1   46.18   22.03
  -5   1  -1   32.34    3.84
   5  -1   1   35.87    3.48
   5  -1   1   34.45    3.59
   5  -1   1   55.90   24.62
  -6   1  -1    1.47    2.10
   6  -1   1   -8.95   27.30
   6  -1   1    1.02    1.61
  -7   1  -1   80.68    7.56
   7  -1   1  103.74   43.51
   7  -1   1   80.51    6.77
   7   0  -1   25.34    3.85
  -7   0   1   33.39    4.66
   6   0  -1   22.19    3.55
   6   0  -1   55.58   32.91
   6   0  -1   22.95    3.28
  -6   0   1   49.80   29.64
  -6   0   1   27.34    4.10
   5   0  -1   35.36   21.54
   5   0  -1   22.32    2.96
   5   0  -1   26.64    3.29
  -5   0   1   35.82   22.50
  -5   0   1   27.11    3.55
   4   0  -1  749.01   49.66
   4   0  -1  666.83   65.55
   4   0  -1  781.23   49.57
  -4   0   1  775.55   67.59
  -4   0   1  745.50   49.81
   3   0  -1    7.31   11.37
   3   0  -1    1.92    1.46
   3   0  -1   -1.41    0.90
  -3   0   1    0.87    0.80
  -3   0   1    0.54    0.80
  -3   0   1   -0.42    1.27
  -3   0   1    8.00   10.99
   2   0  -1 1086.52   75.86
   2   0  -1 1032.48   66.82
  -2   0   1  976.02   66.75
  -2   0   1 1040.50   66.89
  -2   0   1 1126.24   76.52
  -2   0   1  963.25   66.78
   1   0  -1 1315.38   89.68
  -1   0   1 1309.08   89.85
   0   0  -1   -0.09    0.05
   0   0  -1   -0.11    0.09
   0   0   1    0.42    0.71
   0   0   1    0.00    0.09
   0   0   1   -0.06    0.07
  -1   0  -1  227.20   14.41
  -1   0  -1  217.68   14.43
   1   0   1  232.51   19.52
   1   0   1  229.36   14.44
   1   0   1  214.87   14.34
   1   0   1  201.14   18.39
   1   0   1  204.24   14.39
  -2   0  -1  185.80   12.56
  -2   0  -1  185.90   12.72
  -2   0  -1  183.02   12.64
  -2   0  -1  215.48   21.90
   2   0   1  185.23   12.66
   2   0   1  183.53   20.92
   2   0   1  187.08   12.57
   2   0   1  199.53   12.73
  -3   0  -1  173.53   26.50
  -3   0  -1  117.57    8.39
  -3   0  -1  114.76    8.49
   3   0   1  122.41   22.88
   3   0   1  118.81    8.55
   3   0   1  129.96    8.47
  -4   0  -1  157.68   28.81
   4   0   1  165.41   11.11
   4   0   1  151.32   11.21
   4   0   1  164.84   29.82
  -5   0  -1   18.78   22.39
  -5   0  -1   19.86    3.26
   5   0   1   17.70    2.81
   5   0   1   34.46   23.35
   5   0   1   21.99    2.82
  -6   0  -1  113.48    9.75
   6   0   1  170.00   42.64
   6   0   1  128.95    9.39
   6   0   1  125.66    9.65
  -7   0  -1   11.69    3.25
   7   0   1    3.98    2.30
   8  -1  -1   -4.58    2.02
  -8   1   1    0.84    2.76
   7  -1  -1   60.28   42.39
  -7   1   1  -26.86   37.54
  -7   1   1   27.89    4.39
   6  -1  -1   18.68   27.03
   6  -1  -1   36.85    4.00
  -6   1   1   34.25    4.65
  -6   1   1   41.24   28.89
   5  -1  -1  114.72   29.06
   5  -1  -1  149.10   10.18
   5  -1  -1  141.87   10.26
  -5   1   1  132.60   10.51
  -5   1   1  182.33   32.62
   4  -1  -1  345.41   20.49
   4  -1  -1  302.29   20.50
   4  -1  -1  297.32   41.32
  -4   1   1  275.13   20.46
  -4   1   1  303.17   20.73
  -4   1   1  255.31   33.81
   3  -1  -1   36.56   13.52
   3  -1  -1   31.64    2.75
   3  -1  -1   33.01    2.75
  -3   1   1   32.52    2.78
  -3   1   1   50.93   13.38
  -3   1   1   29.25    3.20
  -3   1   1   29.43    2.66
   2  -1  -1   11.04    1.28
   2  -1  -1   13.35    1.36
   2  -1  -1    4.49    5.55
  -2   1   1   10.65    1.22
  -2   1   1    9.89    1.33
  -2   1   1    8.90    6.18
  -2   1   1   10.00    1.23
   1  -1  -1   23.34    5.07
   1  -1  -1   16.49    1.62
  -1   1   1   19.75    4.87
  -1   1   1   24.05    1.77
  -1   1   1   17.62    1.70
  -1   1   1   23.63    1.69
   0  -1  -1 1880.88  125.09
   0   1   1 1894.18  125.02
  -1  -1  -1   13.05    1.27
  -1  -1  -1   11.94    1.42
   1   1   1   12.77    1.30
   1   1   1    9.20    5.29
   1   1   1   16.72    5.29
   1   1   1   13.94    1.45
  -2  -1  -1    2.04    0.80
  -2  -1  -1    0.45    0.85
   2   1   1    1.92    0.88
   2   1   1    0.52    0.79
   2   1   1    2.42    0.95
   2   1   1    6.37    7.38
   3   1   1   27.98    2.79
   3   1   1   40.42   15.78
  -4  -1  -1   25.60    3.02
   4   1   1   25.28    2.88
   4   1   1   25.35    3.09
   4   1   1    1.88   18.26
  -5  -1  -1    1.29    1.90
   5   1   1   -1.54    1.56
   5   1   1   -0.47    1.73
   5   1   1    2.64   21.49
  -6  -1  -1    3.85    2.36
   6   1   1  -28.17   29.71
   6   1   1    4.77    2.22
   6   1   1    1.70    2.10
  -7  -1  -1   19.24    3.89
   7   1   1   19.38    3.30
   7   1   1   17.19    3.94
   8  -2  -1    0.85    2.29
  -8   2   1    7.70    3.32
   7  -2  -1    1.54    2.00
   7  -2  -1  -38.53   33.22
  -7   2   1  -38.58   40.36
  -7   2   1    3.26    2.70
   6  -2  -1    1.48    1.76
   6  -2  -1  -10.76   27.33
   6  -2  -1   -2.57    2.28
  -6   2   1   -1.84    2.00
  -6   2   1  -14.05   27.67
   5  -2  -1    6.18    1.76
   5  -2  -1    9.01    1.82
   5  -2  -1   30.98   20.52
  -5   2   1    2.75    1.82
  -5   2   1   -5.16   18.93
  -5   2   1    9.66    1.54
   4  -2  -1  294.36   18.64
   4  -2  -1  285.62   33.08
   4  -2  -1  300.02   18.67
  -4   2   1  254.16   18.68
  -4   2   1  260.50   18.87
  -4   2   1  256.32   32.70
   3  -2  -1   12.17    9.78
   3  -2  -1    6.22    1.27
   3  -2  -1    5.62    1.12
  -3   2   1   10.69    8.53
  -3   2   1    5.39    1.25
  -3   2   1    5.75    1.18
  -3   2   1    5.20    1.34
   2  -2  -1   37.85    2.77
   2  -2  -1   29.02    7.78
  -2   2   1   32.13    2.67
  -2   2   1   34.62    8.90
  -2   2   1   33.71    2.63
   1  -2  -1   20.76    4.22
   1  -2  -1   15.88    1.37
   1  -2  -1   18.35    1.37
   1  -2  -1   19.64    1.54
  -1   2   1   21.43    4.75
  -1   2   1   20.74    1.50
  -1   2   1   17.54    1.50
   0  -2  -1   36.26    2.79
   0  -2  -1   25.54    5.80
   0  -2  -1   40.71    2.69
   0   2   1   38.98    2.78
   0   2   1   36.94    2.81
   0   2   1   41.33    2.72
   0   2   1   50.97    7.46
  -1  -2  -1 1030.70   71.75
  -1  -2  -1 1236.55   71.68
   1   2   1 1092.87   71.80
   1   2   1 1103.17   78.62
   1   2   1 1037.23   71.67
  -2  -2  -1  228.35   17.55
   2   2   1  248.55   28.87
   2   2   1  268.96   17.31
   2   2   1  283.94   27.97
   2   2   1  286.96   17.74
   3   2   1    0.13   11.83
   3   2   1    8.25   11.81
   3   2   1    4.04    1.31
   3   2   1    3.41    1.36
  -4  -2  -1   22.28    3.08
   4   2   1   19.99    2.95
   4   2   1   22.76    3.00
   4   2   1   -9.50   17.90
   4   2   1   29.82   19.99
  -5  -2  -1    6.69    2.44
   5   2   1    0.81    1.89
   5   2   1   13.38   24.47
   5   2   1   11.01   24.98
   5   2   1    6.16    2.23
  -6  -2  -1    1.67    2.08
   6   2   1   -0.18    1.87
   6   2   1    3.18    2.25
  -7  -2  -1    0.84    2.76
   7   2   1    8.06    2.88
   7   2   1    5.79    2.71
   8  -3  -1    3.16    2.54
  -8   3   1   17.68    3.90
   7  -3  -1   -0.37    1.89
   7  -3  -1  -13.45   36.48
  -7   3   1  -47.16   36.39
  -7   3   1    1.69    2.32
   6  -3  -1   32.67   27.99
   6  -3  -1   52.13    4.53
  -6   3   1   45.45   30.69
  -6   3   1   38.86    4.81
   5  -3  -1   96.06    7.09
   5  -3  -1  105.86    7.28
   5  -3  -1   91.53   25.08
  -5   3   1   88.62    7.54
  -5   3   1   69.27   24.82
   4  -3  -1  446.91   45.28
  -4   3   1  526.16   33.17
  -4   3   1  452.68   45.60
  -4   3   1  494.94   32.93
   3  -3  -1  179.67   10.82
   3  -3  -1  147.18   19.13
  -3   3   1  149.95   11.05
  -3   3   1  142.27   21.48
  -3   3   1  154.82   10.94
   2  -3  -1   54.58    9.37
   2  -3  -1   63.30    4.04
   2  -3  -1   52.89    3.58
   2  -3  -1   44.73    3.57
  -2   3   1   52.56    3.87
  -2   3   1   54.56    3.80
  -2   3   1   51.53    3.96
  -2   3   1   61.09   11.11
   1  -3  -1   64.09    7.30
  -1   3   1   51.22    3.65
  -1   3   1   49.13    3.55
  -1   3   1   49.93    7.72
  -1   3   1   51.22    3.58
   0  -3  -1  988.35   72.46
   0  -3  -1  962.88   67.28
   0  -3  -1  992.10   67.19
   0   3   1 1058.20   67.37
   0   3   1 1144.86   72.68
   0   3   1 1079.96   67.39
  -1  -3  -1  185.21   12.57
   1   3   1  184.01   12.59
   1   3   1  195.35   12.78
   1   3   1  173.60   19.89
   1   3   1  188.90   12.57
   1   3   1  197.55   21.59
   2   3   1  157.91   10.65
   2   3   1  143.47   10.42
   2   3   1  155.81   26.14
   2   3   1  166.09   23.83
  -3  -3  -1  358.32   23.89
   3   3   1  352.34   23.84
   3   3   1  391.20   41.34
   3   3   1  412.97   42.80
   3   3   1  334.54   23.74
   4   3   1  150.79   11.08
   4   3   1  153.35   11.08
   4   3   1  101.11   26.38
   4   3   1  222.99   38.28
  -5  -3  -1   24.16    3.40
   5   3   1   44.36   29.81
   5   3   1   20.35    3.23
   5   3   1   19.92    3.37
  -6  -3  -1   60.28    6.07
   6   3   1   60.46    6.21
   6   3   1   61.22    6.33
   7  -4  -1   46.27   33.91
   6  -4  -1   86.67    6.71
   6  -4  -1   98.87   31.79
  -6   4   1   79.56    7.18
  -6   4   1   30.72   28.23
   5  -4  -1   81.84   23.07
  -5   4   1   46.27    4.55
  -5   4   1   26.53   20.27
   4  -4  -1  178.06   25.65
   4  -4  -1  180.04   11.45
  -4   4   1  166.06   11.71
  -4   4   1  152.18   11.47
  -4   4   1  158.00   27.60
   3  -4  -1   53.51    4.04
   3  -4  -1   48.91   11.27
   3  -4  -1   52.36    3.55
  -3   4   1   54.13    4.02
  -3   4   1   51.68    4.14
  -3   4   1   30.30   11.51
   2  -4  -1   59.21    4.29
   2  -4  -1   59.88    9.11
  -2   4   1   38.90    9.41
  -2   4   1   59.26    4.20
  -2   4   1   58.03    4.24
   1  -4  -1  192.49   13.33
   1  -4  -1  202.03   17.82
  -1   4   1  182.81   17.51
  -1   4   1  202.98   13.20
  -1   4   1  203.40   13.14
   0  -4  -1  187.55   13.42
   0  -4  -1  204.00   13.68
   0  -4  -1  208.43   20.62
   0   4   1  236.48   20.18
   0   4   1  209.95   13.49
   0   4   1  205.73   13.66
  -1  -4  -1   13.45    1.58
  -1  -4  -1   13.61    1.32
   1   4   1    8.41    1.32
   1   4   1   12.54    1.68
   1   4   1    7.25    9.84
   1   4   1    7.64    7.68
   2   4   1    5.14   11.35
   2   4   1   12.95   11.88
  -3  -4  -1  243.66   15.80
   3   4   1  214.46   15.79
   3   4   1  286.83   39.92
   3   4   1  245.31   38.90
   3   4   1  216.63   15.66
  -4  -4  -1   14.76    2.69
   4   4   1   36.32   23.23
   4   4   1    7.78    2.29
   4   4   1   14.67    2.66
   5   4   1   -0.73    2.06
   5   4   1   -0.62    1.95
   5   4   1    3.20   31.78
   6   4   1   19.36    4.00
   6   4   1   22.74    3.91
   7  -5  -1   18.82    2.89
  -7   5   1   23.01    4.00
   6  -5  -1  150.92   10.68
   6  -5  -1  149.10   33.97
  -6   5   1  146.04   11.32
  -6   5   1  159.36   34.60
   5  -5  -1   58.62    4.70
   5  -5  -1   77.46   20.69
  -5   5   1   61.39   24.92
  -5   5   1   50.76    5.05
   4  -5  -1   -2.63   10.69
   4  -5  -1    5.77    1.58
  -4   5   1    4.67    1.54
  -4   5   1   -4.95   12.86
  -4   5   1    3.74    1.35
   3  -5  -1   74.64   12.40
   3  -5  -1   71.86    5.66
  -3   5   1   79.13    5.70
  -3   5   1   64.69   14.54
  -3   5   1   79.46    5.58
   2  -5  -1   41.43    3.37
   2  -5  -1   42.70    8.03
  -2   5   1   40.53    3.16
  -2   5   1   39.71    3.16
  -2   5   1   42.43   10.47
   1  -5  -1  168.00   17.88
   1  -5  -1  184.09   12.82
  -1   5   1  201.01   18.50
  -1   5   1  190.21   12.64
  -1   5   1  192.62   12.52
   0  -5  -1   68.62    5.42
   0  -5  -1   73.88   13.90
   0   5   1   74.20    5.20
   0   5   1   77.52    5.43
   0   5   1   99.48   14.36
  -1  -5  -1   37.32    3.02
  -1  -5  -1   38.57    3.20
   1   5   1   15.56   12.90
   1   5   1   36.92    3.13
   1   5   1   75.95   15.49
   1   5   1   40.26    3.42
   2   5   1    7.99    1.66
   2   5   1   -4.13   15.95
   2   5   1    3.63   12.99
   2   5   1    8.87    1.87
   3   5   1   11.69   19.07
   3   5   1    2.66    2.08
   3   5   1    3.62    1.76
   4   5   1   23.41   26.90
   4   5   1    2.27    1.96
   4   5   1    5.02    2.20
   5   5   1  -28.26   39.23
   5   5   1    2.17    2.42
   5   5   1    8.68    2.79
   7  -6  -1    5.26    2.15
  -7   6   1    2.89    2.72
   6  -6  -1   16.08    2.64
   6  -6  -1   42.06   24.57
  -6   6   1   14.02    2.90
   5  -6  -1    3.93    1.88
   5  -6  -1   -9.15   15.25
  -5   6   1    2.20    1.81
  -5   6   1   14.54   19.44
   4  -6  -1  313.67   21.40
   4  -6  -1  300.14   30.74
  -4   6   1  289.01   35.53
  -4   6   1  314.02   21.29
  -4   6   1  332.34   21.50
   3  -6  -1   -3.67    6.47
   3  -6  -1   -1.49    1.18
  -3   6   1   -6.83   10.19
  -3   6   1   -0.87    1.02
  -3   6   1    1.31    1.08
   2  -6  -1    6.83    1.46
   2  -6  -1    5.09    6.48
  -2   6   1    8.10    8.49
  -2   6   1    5.66    1.23
  -2   6   1    7.23    1.13
   1  -6  -1    1.47    1.27
   1  -6  -1    6.87    7.77
  -1   6   1    4.90    6.48
  -1   6   1    1.40    0.95
  -1   6   1    2.96    0.75
   0  -6  -1  277.31   18.23
   0   6   1  280.51   30.88
   0   6   1  267.78   17.92
   0   6   1  243.61   25.81
   0   6   1  268.69   18.15
  -1  -6  -1    4.96    1.43
   1   6   1    4.89    1.52
   1   6   1    8.76   15.56
   1   6   1   -4.53   11.39
   1   6   1    3.29    1.20
   2   6   1   34.98   17.13
   3   6   1   69.55    6.51
   3   6   1   76.16    6.14
   3   6   1   67.63   24.96
   4   6   1  -35.00   34.67
   5   6   1    2.78    2.44
   5   6   1   -1.13    2.60
   7  -7  -1    2.18    2.31
  -7   7   1    6.40    2.91
   6  -7  -1    0.64    1.86
  -6   7   1    0.45    2.19
   5  -7  -1   19.49    2.84
   5  -7  -1    9.26   16.73
  -5   7   1   18.57    2.83
  -5   7   1   21.90   22.09
   4  -7  -1   26.47    3.29
   4  -7  -1   21.37   11.25
  -4   7   1   27.53    3.06
  -4   7   1   37.78   17.40
   3  -7  -1  216.12   14.96
   3  -7  -1  227.33   23.01
  -3   7   1  223.89   14.64
  -3   7   1  191.47   25.33
  -3   7   1  208.27   14.60
   2  -7  -1    7.14    8.94
   2  -7  -1    1.38    1.48
  -2   7   1    2.46    0.95
  -2   7   1    2.53    1.24
  -2   7   1   -3.89    9.07
   1  -7  -1   -0.28    1.26
  -1   7   1    0.40    0.80
  -1   7   1   -3.93    8.66
  -1   7   1   -0.61    1.05
   0  -7  -1   -0.18    1.37
   0   7   1   -1.23    9.70
   0   7   1   19.09   15.43
   0   7   1    2.01    1.02
  -1  -7  -1   -0.96    1.27
   1   7   1    0.40    1.23
   1   7   1    0.75   13.63
   2   7   1  126.44    9.29
   2   7   1  110.38   25.02
   3   7   1    9.45   38.63
   3   7   1   16.26    3.01
   3   7   1   19.86    3.80
   4   7   1   11.92    3.07
   4   7   1   20.00    3.92
   6  -8  -1   27.50    3.92
  -6   8   1   29.56    4.11
   5  -8  -1   -2.23   14.34
   5  -8  -1   -0.09    1.86
  -5   8   1   -2.21    1.60
   4  -8  -1   13.20    2.61
   4  -8  -1    5.04   11.82
  -4   8   1   11.99    2.06
  -4   8   1   28.97   17.90
   3  -8  -1   -5.06   10.24
   3  -8  -1    2.57    1.83
  -3   8   1    1.11    1.14
  -3   8   1    5.42   13.13
   2  -8  -1   15.25    2.55
  -2   8   1    8.51   10.99
  -2   8   1   12.96    1.65
   1  -8  -1   55.16    4.99
  -1   8   1   56.64   13.85
  -1   8   1   59.61    4.44
   0  -8  -1  137.23   10.17
   0   8   1  127.46   21.55
   0   8   1  142.73    9.82
   1   8   1    9.26   17.01
   1   8   1   15.78    2.42
   2   8   1    0.08    1.67
   3   8   1   29.58    3.80
   3   8   1   16.43    3.51
   5  -9  -1    3.54    2.39
  -5   9   1    5.04    2.02
   4  -9  -1   -9.05   12.27
   4  -9  -1    0.99    2.04
  -4   9   1    4.43    1.59
   3  -9  -1    0.12    1.96
  -3   9   1    0.22   12.13
  -3   9   1    0.44    1.18
   2  -9  -1    3.47    2.09
  -2   9   1  -14.00   12.59
  -2   9   1    3.15    1.16
   1  -9  -1    0.13    1.68
  -1   9   1    1.20    1.21
  -1   9   1    1.15   15.26
   0  -9  -1   -1.61    1.60
   0   9   1   -0.29    1.37
   1   9   1    2.29    1.73
   2   9   1   -0.93    1.72
   3 -10  -1    2.25    2.31
  -3  10   1   -0.93    1.30
   2 -10  -1   14.64    3.07
  -2  10   1   18.35    2.30
   1 -10  -1   36.01    4.39
  -1  10   1   35.19    3.59
   0 -10  -1   13.16    2.73
   0  10   1    8.90    2.17
   1  10  -2   -0.16    1.58
   0  10  -2   41.65    3.86
   0 -10   2   44.97    4.58
  -1  10  -2   41.56    3.58
   1 -10   2   46.74    4.63
  -2  10  -2   -1.57    0.81
   2 -10   2    1.12    1.96
  -3  10  -2   37.41    2.99
   3 -10   2   31.26    4.21
  -4  10  -2    2.21    1.16
   4 -10   2    6.09    2.51
   3   9  -2    2.04    2.87
   2   9  -2   13.28    3.28
   2   9  -2   20.86    3.00
   1   9  -2   78.15    6.16
   0   9  -2    1.88    1.10
   0   9  -2   14.98    9.16
   0  -9   2    4.19    1.83
  -1   9  -2    4.50    1.04
   1  -9   2    5.36    1.97
  -2   9  -2   15.08    1.51
  -2   9  -2   11.34    1.61
   2  -9   2   13.30    2.61
  -3   9  -2   24.40    2.23
   3  -9   2   25.25    3.36
  -4   9  -2   13.55    1.91
   4  -9   2   10.36    2.56
  -5   9  -2   -0.07    1.39
   5  -9   2    1.05    2.02
   4   8  -2   -0.18    2.72
   4   8  -2   -0.82    2.22
   3   8  -2   11.29    2.62
   3   8  -2   23.36    3.81
   2   8  -2   11.48    2.33
   2   8  -2   -0.69   18.00
   2   8  -2   14.52    3.40
   1   8  -2   33.62    3.25
   1   8  -2   43.71   15.51
   0   8  -2   24.03    2.83
   0   8  -2   16.73    8.23
   0   8  -2   26.28   13.78
   0   8  -2   21.51    2.20
   0  -8   2   19.14    2.83
  -1   8  -2   64.88    4.47
  -1   8  -2   61.12    4.60
   1  -8   2   63.04    5.29
  -2   8  -2   34.53    2.54
  -2   8  -2   32.68    2.69
   2  -8   2   32.16    3.57
  -3   8  -2   44.55    3.69
  -3   8  -2   53.52    3.75
   3  -8   2   45.11    4.38
  -4   8  -2    8.26    1.59
   4  -8   2    9.91    2.35
  -5   8  -2   42.15    4.15
   5  -8   2   45.83    4.58
   5  -8   2   59.93   13.27
  -6   8  -2    0.42    1.92
   6  -8   2    0.84    2.09
   5   7  -2   -1.44    2.78
   5   7  -2    1.08    2.59
   4   7  -2   -0.11    2.14
   4   7  -2   -1.84    2.25
   3   7  -2   -1.13    1.59
   3   7  -2   -0.89   21.60
   3   7  -2    1.55    2.23
   2   7  -2    4.24    1.60
   2   7  -2   -0.85   16.13
   2   7  -2    7.05    2.28
   1   7  -2   32.74   17.06
   1   7  -2   16.96   11.81
   1   7  -2   17.60    2.20
   1   7  -2   20.07    2.46
   0   7  -2   17.44   11.01
   0   7  -2    4.33    6.53
   0   7  -2    9.99    1.31
   0   7  -2   11.13    1.52
   0  -7   2    9.48    1.95
  -1   7  -2  154.51    9.55
  -1   7  -2  132.67    9.65
   1  -7   2  143.95   10.23
  -2   7  -2   77.73    5.29
  -2   7  -2   77.05    5.29
   2  -7   2   77.02    5.99
  -3   7  -2   76.51    5.20
  -3   7  -2   67.54    5.20
   3  -7   2   72.13    5.68
  -4   7  -2   45.33    3.71
  -4   7  -2   41.13    3.82
   4  -7   2   48.73    4.18
   4  -7   2   51.10   10.36
   4  -7   2   34.11   11.50
   5  -7   2   19.83   15.77
  -6   7  -2    1.35    1.97
   6  -7   2   -1.94    1.78
   5   6  -2   19.97    3.82
   5   6  -2   15.81    3.35
   4   6  -2    2.48    2.13
   4   6  -2   11.72   27.57
   4   6  -2   -1.56    2.10
   3   6  -2  -30.03   17.44
   3   6  -2    0.59    1.51
   3   6  -2   -0.38    1.81
   2   6  -2   31.78    3.77
   2   6  -2   41.32   16.50
   2   6  -2   31.14    4.41
   2   6  -2   42.78   18.20
   2   6  -2   29.59    3.07
   1   6  -2    8.98   13.73
   1   6  -2   28.60    2.61
   1   6  -2   24.02    2.37
   1   6  -2   33.87   11.82
   0   6  -2   16.31    8.51
   0   6  -2   20.71    7.05
   0   6  -2   17.02    1.49
   0   6  -2   15.35    1.65
   0  -6   2   17.02    2.12
  -1   6  -2   31.08    2.22
   1  -6   2   30.45    2.86
  -2   6  -2   14.67    1.27
  -2   6  -2   16.35    1.28
   2  -6   2   16.00    2.06
  -3   6  -2    1.51    0.86
  -3   6  -2   -0.14    0.67
   3  -6   2   -2.48    5.56
   3  -6   2    0.95    1.20
   3  -6   2    2.75    4.75
  -4   6  -2   89.74    7.02
  -4   6  -2   96.58    7.22
   4  -6   2  108.27   17.04
   4  -6   2  111.09    7.31
  -5   6  -2   17.37    2.72
   5  -6   2   22.52    2.71
   5  -6   2   26.16   18.04
  -6   6  -2   -0.68    1.70
   6  -6   2    1.76    1.72
   6  -6   2  -20.48   27.67
  -7   6  -2    3.85    2.65
   7  -6   2   -0.67    1.77
   6   5  -2    6.98    3.46
   6   5  -2    5.69    2.68
   5   5  -2  115.77    9.32
   5   5  -2  107.14    8.95
   5   5  -2  125.04   38.41
   4   5  -2   41.61   26.76
   3   5  -2   -3.08   16.61
   3   5  -2   13.25    2.55
   3   5  -2   23.33   18.02
   3   5  -2   23.29    2.85
   2   5  -2    9.86   12.04
   2   5  -2    5.85   13.58
   2   5  -2    8.90    1.65
   2   5  -2   17.95    2.02
   2   5  -2   11.93    2.21
  -2  -5   2   13.45    1.47
   1   5  -2  321.75   30.12
   1   5  -2  305.97   21.62
   1   5  -2  345.87   21.82
   1   5  -2  347.50   33.03
   0   5  -2  229.68   18.18
   0   5  -2  204.16   13.63
   0   5  -2  192.37   19.09
   0  -5   2  207.41   14.01
   1  -5   2  354.94   23.57
  -2   5  -2   84.81    5.53
  -2   5  -2   79.12    5.54
   2  -5   2   87.09    6.00
  -3   5  -2  100.24    7.12
   3  -5   2  107.64    7.32
   3  -5   2   94.78   13.93
  -4   5  -2   11.99    1.72
  -4   5  -2    6.66   13.38
   4  -5   2   11.99    1.84
   4  -5   2    5.50   11.26
  -5   5  -2   50.66    4.88
   5  -5   2   48.13   21.97
   5  -5   2   59.84    4.55
  -6   5  -2   27.15    3.98
   6  -5   2   19.21   28.47
   6  -5   2   32.60    3.26
  -7   5  -2   69.43    6.74
   7  -5   2   71.17    5.92
   6   4  -2   11.26    2.97
   6   4  -2   11.66    3.09
   5   4  -2   16.18    3.16
   5   4  -2   13.35    2.88
   4   4  -2   15.52   22.23
   4   4  -2   26.78    3.60
   4   4  -2   29.14    3.78
  -4  -4   2   29.49    3.56
   3   4  -2   76.31    6.24
   3   4  -2  124.41   25.52
   3   4  -2   90.55    6.43
   3   4  -2   76.83    6.50
  -3  -4   2   90.33   25.69
  -3  -4   2   80.98    6.22
   2   4  -2  183.58   27.57
   2   4  -2  170.72   12.37
   2   4  -2  166.71   12.11
   2   4  -2  187.59   12.29
  -2  -4   2  249.65   28.42
   1   4  -2   37.80   10.24
   1   4  -2   33.01    2.64
   1   4  -2   35.85    2.79
  -1  -4   2   32.12    2.33
   0   4  -2  529.28   38.93
   0   4  -2  556.73   34.78
   0   4  -2  503.36   34.84
   0   4  -2  559.60   38.13
   0  -4   2  530.32   35.10
   1  -4   2   57.06    4.19
  -2   4  -2   91.42    6.32
  -2   4  -2   94.82    6.32
   2  -4   2   79.10   10.19
   2  -4   2  100.93    6.59
  -3   4  -2   -0.54    0.64
  -3   4  -2   -1.35    0.67
  -3   4  -2   -0.73    0.74
  -3   4  -2    5.42    8.68
   3  -4   2    1.43    0.87
   3  -4   2    0.13    7.59
  -4   4  -2   14.75    1.92
  -4   4  -2   19.59    2.12
  -4   4  -2  -16.05   12.20
   4  -4   2    6.03   13.03
   4  -4   2   17.95    1.60
   4  -4   2   19.58    2.15
  -5   4  -2   19.00    2.88
  -5   4  -2   -9.06   19.48
   5  -4   2   26.32   19.69
   5  -4   2   20.47    2.33
  -6   4  -2   -2.58    1.67
   6  -4   2    4.44   29.48
  -7   4  -2    1.37    2.47
   7   3  -2   33.58    4.84
   7   3  -2   25.38    4.36
   6   3  -2   50.17    5.52
   6   3  -2   48.41    5.35
  -6  -3   2   53.00    5.43
   5   3  -2   53.60    5.44
   5   3  -2   56.03    5.38
  -5  -3   2   52.17    5.22
   4   3  -2   59.43    5.08
   4   3  -2   64.60   21.93
   4   3  -2   52.45    5.18
  -4  -3   2   62.48    5.23
  -4  -3   2   46.52   23.02
   3   3  -2   42.54    4.14
   3   3  -2   54.94    4.22
   3   3  -2   27.67   16.01
   3   3  -2   49.03    4.32
  -3  -3   2   51.11    4.17
  -3  -3   2   59.36   20.36
   2   3  -2  153.16   10.47
   2   3  -2  143.08   10.26
   2   3  -2  196.00   26.78
  -2  -3   2  147.87   10.22
   1   3  -2    5.08    6.28
   1   3  -2    1.99    1.07
   1   3  -2    2.80    0.80
   1   3  -2    5.76    0.87
  -1  -3   2   -1.02    6.04
  -1  -3   2    3.50    0.63
  -1  -3   2    5.13    0.68
   0   3  -2   58.26    7.01
   0   3  -2   62.32    4.30
   0   3  -2   57.23    4.00
   0   3  -2   63.59    4.00
   0  -3   2   62.40    4.32
  -1   3  -2  695.12   45.36
  -2   3  -2  405.71   28.30
  -2   3  -2  442.04   28.30
  -2   3  -2  423.70   28.32
   2  -3   2  434.04   34.29
   2  -3   2  458.46   28.38
  -3   3  -2    5.27   10.02
  -3   3  -2   20.01    1.90
  -3   3  -2   22.08    2.07
  -3   3  -2   17.09    2.09
   3  -3   2   25.57    2.03
   3  -3   2   23.06   10.62
   3  -3   2   25.07    1.87
  -4   3  -2   20.03    2.26
  -4   3  -2   16.28   13.20
  -4   3  -2   19.05    2.10
  -4   3  -2   18.28    2.50
   4  -3   2    6.25   12.69
   4  -3   2   24.72    2.28
   4  -3   2   25.63    2.15
  -5   3  -2   -8.38   17.68
   5  -3   2   30.01   20.19
   5  -3   2   -0.93    1.21
  -6   3  -2   14.57    3.02
   6  -3   2   22.26   31.44
   6  -3   2   16.43    2.48
   7  -3   2    6.99    2.12
   7  -3   2  -16.43   42.74
   7   2  -2   20.79    3.99
   7   2  -2   25.25    4.34
  -7  -2   2   37.36    4.91
   6   2  -2   99.10    8.07
   6   2  -2   86.35    7.75
  -6  -2   2   95.15    8.00
   5   2  -2   11.05    2.47
   5   2  -2    9.44    2.33
   5   2  -2  -30.18   22.33
  -5  -2   2    6.76    2.33
  -5  -2   2    3.74   25.33
   4   2  -2   13.32    2.23
   4   2  -2    8.16    1.88
   4   2  -2   -4.80   14.71
  -4  -2   2   13.05   16.62
   3   2  -2    8.73    1.74
   3   2  -2    7.66    1.61
   3   2  -2    7.93   11.53
  -3  -2   2    5.40   13.08
  -3  -2   2    6.47    1.61
   2   2  -2  342.21   23.65
   2   2  -2  349.37   33.35
  -2  -2   2  347.98   23.54
  -2  -2   2  360.97   23.64
  -2  -2   2  361.01   23.70
  -2  -2   2  415.43   34.66
   1   2  -2 2664.81  179.53
   0   2  -2 1294.43   81.39
   0  -2   2 1151.72   81.55
  -1   2  -2  841.50   59.88
   1  -2   2  997.45   63.22
   1  -2   2  953.87   62.32
  -2   2  -2 1202.73   77.91
  -2   2  -2 1175.90   77.76
   2  -2   2 1185.79   85.28
   2  -2   2 1272.08   77.82
   2  -2   2 1138.58   77.80
  -3   2  -2    9.71    1.16
  -3   2  -2    4.81    1.28
  -3   2  -2    6.25    1.26
  -3   2  -2   -7.18    9.74
   3  -2   2    6.90   10.09
  -4   2  -2    4.78    1.12
  -4   2  -2    4.05    1.40
  -4   2  -2    5.94    1.35
  -4   2  -2   -6.61   13.90
   4  -2   2    4.69    1.25
   4  -2   2    3.10   13.52
   4  -2   2    5.48    1.22
   5  -2   2    4.42    1.48
   5  -2   2    1.64    1.33
   5  -2   2   -5.41   18.73
  -6   2  -2   49.70    5.17
   6  -2   2   67.99   31.25
   6  -2   2   44.93    4.25
  -7   2  -2   -0.44    2.41
   7  -2   2   -7.75   38.70
   7  -2   2    3.31    1.88
   7   1  -2    7.77    2.83
   7   1  -2    7.94    2.95
  -7  -1   2   14.64    3.60
   6   1  -2   50.93    5.41
   6   1  -2  -16.45   30.57
   6   1  -2   53.03    5.37
  -6  -1   2   57.69    5.52
   5   1  -2  213.95   14.35
   5   1  -2  176.50   37.32
   5   1  -2  199.61   14.34
  -5  -1   2  189.47   14.43
  -5  -1   2  219.32   39.21
   4   1  -2    2.42    1.48
   4   1  -2    1.09    1.32
   4   1  -2  -16.24   13.68
  -4  -1   2    7.64   15.05
  -4  -1   2    0.74    1.40
   3   1  -2  116.41    8.61
   3   1  -2   89.59   20.07
  -3  -1   2  130.96    8.78
  -3  -1   2  111.50   22.28
   2   1  -2  585.13   36.98
   2   1  -2  536.69   36.95
   2   1  -2  576.89   46.51
   2   1  -2  591.04   36.97
  -2  -1   2  541.07   46.03
  -2  -1   2  566.98   36.99
  -2  -1   2  556.48   36.93
  -2  -1   2  540.24   36.89
   0   1  -2  387.06   23.89
   0   1  -2  376.24   23.91
   0  -1   2  425.02   26.03
   0  -1   2  338.16   23.86
   0  -1   2  320.54   23.84
   0  -1   2  375.13   23.91
  -1   1  -2 5591.93  366.96
  -2   1  -2 1824.10  117.61
  -2   1  -2 1787.00  117.78
   2  -1   2 1816.38  126.53
   2  -1   2 1811.95  117.76
  -3   1  -2   58.22    4.66
  -3   1  -2   59.48    4.38
  -3   1  -2   60.04    4.62
   3  -1   2   64.18    4.40
   3  -1   2   56.33   16.07
   3  -1   2   58.47    4.60
  -4   1  -2    2.65    1.01
  -4   1  -2    0.67    1.16
   4  -1   2    0.65    1.18
   4  -1   2   -4.31   13.19
   5  -1   2  121.41    8.60
   5  -1   2  117.50    8.85
   5  -1   2   83.51   27.21
  -6   1  -2    4.35    2.31
   6  -1   2    5.38    1.93
   6  -1   2  -23.98   29.92
   7  -1   2   26.67   42.12
   8   0  -2    1.80    2.39
  -8   0   2    0.62    2.61
   7   0  -2   -7.20   62.74
   7   0  -2    0.19    2.11
   7   0  -2   -0.11    1.92
  -7   0   2    4.25    2.51
   6   0  -2   51.46    5.08
   6   0  -2   51.68    4.95
   6   0  -2   53.05   30.70
  -6   0   2   39.41    5.02
  -6   0   2    0.42   29.19
   5   0  -2   20.44   20.54
   5   0  -2   42.75    4.07
   5   0  -2   41.13    4.00
  -5   0   2    0.20   20.37
  -5   0   2   40.04    4.30
   4   0  -2   83.66    6.49
   4   0  -2   78.82   21.18
   4   0  -2   94.22    6.73
  -4   0   2   85.92    6.84
  -4   0   2   51.84   19.15
   3   0  -2   13.95    1.94
   3   0  -2   12.78   10.95
  -3   0   2   17.37    1.97
  -3   0   2   -1.25   10.01
  -3   0   2   11.74    2.00
   2   0  -2 2025.99  126.19
   2   0  -2 1740.44  116.59
  -2   0   2 1643.00  124.76
   1   0  -2   18.89    5.30
   1   0  -2   12.54    1.47
   1   0  -2   14.44    1.38
   1   0  -2   15.81    1.41
  -1   0   2   11.55    1.34
  -1   0   2   11.11    1.39
  -1   0   2   14.61    5.01
  -1   0   2   14.09    1.39
   0   0  -2 3761.40  245.40
   0   0   2 3720.38  245.29
  -1   0  -2  202.15   15.53
  -1   0  -2  264.06   15.55
  -1   0  -2  200.10   19.87
   1   0   2  231.49   15.52
   1   0   2  245.00   15.56
   1   0   2  267.97   20.94
  -2   0  -2  211.64   14.37
  -2   0  -2  217.87   14.31
   2   0   2  222.08   22.70
   2   0   2  219.35   14.21
   2   0   2  231.88   14.40
   2   0   2  228.22   23.74
   2   0   2  182.78   14.27
  -3   0  -2   31.71    2.82
  -3   0  -2   31.48    2.99
   3   0   2   35.43   14.38
   3   0   2   52.44   15.74
   3   0   2   31.63    2.80
   3   0   2   31.20    2.93
  -4   0  -2   22.55    2.91
   4   0   2   21.19    2.78
   4   0   2   27.33   16.04
   4   0   2   17.84   16.75
   4   0   2   23.05    2.53
   5   0   2   59.42    5.06
   5   0   2   78.74   29.24
   5   0   2   34.06   23.59
   5   0   2   58.82    5.24
  -6   0  -2   60.15    5.92
   6   0   2   63.96    5.40
   6   0   2   38.42   33.48
   6   0   2   54.77    5.52
  -7   0  -2   10.74    3.24
   7   0   2    8.30    2.49
   8  -1  -2    0.65    2.43
  -8   1   2    1.38    2.85
   7  -1  -2  -48.81   35.18
   7  -1  -2   -1.39    1.80
  -7   1   2  -42.06   37.45
  -7   1   2    5.30    2.63
   6  -1  -2   13.38    2.48
   6  -1  -2    7.21   28.06
  -6   1   2    7.77    2.67
  -6   1   2   44.76   29.02
   5  -1  -2    1.43    1.44
   5  -1  -2    0.94    1.40
   5  -1  -2   -6.52   17.67
  -5   1   2   -1.18    1.63
  -5   1   2   10.65   18.87
   4  -1  -2   74.58    5.25
   4  -1  -2   67.17    5.25
   4  -1  -2   59.67   17.41
  -4   1   2   57.07   18.66
  -4   1   2   62.46    5.12
  -4   1   2   65.86    5.46
   3  -1  -2   19.23    2.10
   3  -1  -2   30.64   11.65
  -3   1   2   14.27    2.21
  -3   1   2   -4.21    9.12
  -3   1   2   16.93    1.98
  -3   1   2   14.28    1.84
   2  -1  -2   15.69    7.78
   2  -1  -2   17.60    1.65
   2  -1  -2   16.25    1.61
   2  -1  -2   20.61    1.74
  -2   1   2   20.72    8.10
  -2   1   2   16.48    1.63
  -2   1   2   15.51    1.62
  -2   1   2   16.91    1.80
   1  -1  -2  844.69   63.25
   1  -1  -2 1074.82   67.59
  -1   1   2 1058.56   67.96
   0  -1  -2 2006.34  136.68
   0   1   2 2088.02  136.69
  -1  -1  -2  396.09   27.46
  -1  -1  -2  451.39   27.41
  -1  -1  -2  382.56   33.41
   1   1   2  434.72   27.50
   1   1   2  408.32   27.24
   1   1   2  425.50   33.69
   1   1   2  408.21   27.40
  -2  -1  -2   11.62    1.47
  -2  -1  -2    7.84    1.44
   2   1   2   11.07    1.58
   2   1   2    8.64    1.40
   2   1   2   15.89    9.88
   2   1   2   11.77    8.74
   2   1   2    9.10    1.42
   3   1   2  902.54   74.11
   3   1   2  852.17   57.61
   3   1   2  931.54   72.83
   4   1   2    2.49   17.49
   4   1   2   -1.44    1.19
   4   1   2    1.48    1.36
   4   1   2   -3.58   16.56
  -5  -1  -2   -2.76    1.70
   5   1   2    0.61    1.66
   5   1   2   -1.35    1.68
   5   1   2  -72.24   22.77
   5   1   2  -18.63   22.28
  -6  -1  -2    2.78    2.22
   6   1   2  -19.45   58.65
   6   1   2    6.67    2.46
   6   1   2    3.38    2.11
  -7  -1  -2    2.37    2.40
   7   1   2    1.27    2.06
   8  -2  -2    1.26    2.28
  -8   2   2    5.09    3.14
   7  -2  -2    5.84    2.44
   7  -2  -2    5.90   36.33
  -7   2   2   -3.80   37.62
  -7   2   2    4.18    2.57
   6  -2  -2   -2.96   24.07
   6  -2  -2    6.87    2.10
   6  -2  -2   12.32    2.32
  -6   2   2   39.31   30.90
  -6   2   2    8.09    2.68
   5  -2  -2   13.91    2.16
   5  -2  -2   24.33   18.25
   5  -2  -2   10.89    2.14
  -5   2   2   13.25    2.04
  -5   2   2    7.52    2.22
  -5   2   2  -13.40   17.18
   4  -2  -2    2.12    1.20
   4  -2  -2    2.04    1.27
   4  -2  -2    0.25   12.28
  -4   2   2    5.18    1.34
  -4   2   2    3.12    1.41
  -4   2   2    5.42   12.09
   3  -2  -2  330.12   32.75
   3  -2  -2  351.02   22.87
   3  -2  -2  373.18   22.10
  -3   2   2  291.32   32.94
  -3   2   2  315.54   22.24
  -3   2   2  302.81   22.09
   2  -2  -2   19.51    1.81
   2  -2  -2   27.44    2.12
   2  -2  -2   26.98    8.02
  -2   2   2   22.81    1.92
  -2   2   2   19.02    7.41
  -2   2   2   18.72    1.98
   1  -2  -2    8.27    3.57
   1  -2  -2    6.74    0.78
   1  -2  -2    8.48    0.92
  -1   2   2    5.13    0.83
  -1   2   2    4.97    0.78
  -1   2   2    7.07    3.92
   0  -2  -2  158.47    9.73
   0  -2  -2  149.78   14.79
   0  -2  -2  142.75    9.74
   0  -2  -2  141.62    9.80
   0   2   2  138.75    9.71
   0   2   2  144.42    9.84
   0   2   2  146.72    9.73
   0   2   2  171.55   14.72
  -1  -2  -2   76.25    4.82
  -1  -2  -2   64.18    4.91
  -1  -2  -2   54.14   11.47
  -1  -2  -2   65.42    4.70
   1   2   2   70.67   12.53
   1   2   2   70.80    4.97
   1   2   2   67.10    4.68
   1   2   2   65.12    4.80
  -2  -2  -2   69.33    5.39
   2   2   2   71.40    5.28
   2   2   2   74.87    5.48
   2   2   2   78.08   16.92
   2   2   2   69.51    4.97
   2   2   2   70.03   15.51
  -3  -2  -2    1.94    1.23
   3   2   2    3.47   12.94
   3   2   2   -0.79    1.07
   3   2   2   -0.50    1.10
   3   2   2   -4.07   11.91
   4   2   2   15.08    2.53
   4   2   2   20.85    2.91
   4   2   2   44.68   21.44
   4   2   2   41.63   21.29
  -5  -2  -2  103.35    8.75
   5   2   2   90.49   35.21
   5   2   2  106.55    8.67
   5   2   2  173.19   37.77
   5   2   2  119.73    8.71
  -6  -2  -2    0.91    2.02
   6   2   2    4.45    2.33
   6   2   2   -1.64    1.84
  -7  -2  -2   -0.89    2.83
   7   2   2    0.58    2.24
   7   2   2    2.74    2.63
   8  -3  -2    4.14    2.58
  -8   3   2    6.65    3.19
   7  -3  -2   76.33   40.31
   7  -3  -2   35.04    4.24
  -7   3   2    3.30   38.52
  -7   3   2   32.64    4.75
   6  -3  -2   54.20    4.92
   6  -3  -2  100.30   32.42
  -6   3   2   63.94   31.83
  -6   3   2   46.73    5.37
   5  -3  -2    1.43   15.77
   5  -3  -2   -1.04    1.28
   5  -3  -2    3.27    1.60
  -5   3   2   -0.72    1.63
  -5   3   2    5.88   19.46
   4  -3  -2  146.88   24.93
   4  -3  -2  158.25   10.19
  -4   3   2  107.69   23.68
  -4   3   2  143.33   10.17
  -4   3   2  134.06   10.32
   3  -3  -2  344.28   32.80
  -3   3   2  364.58   24.07
  -3   3   2  301.31   33.43
  -3   3   2  383.51   24.25
   2  -3  -2    2.40    4.69
   2  -3  -2    1.33    0.64
   2  -3  -2   -1.03    0.52
  -2   3   2    0.47    0.90
  -2   3   2   -0.31    1.04
  -2   3   2   -4.38    5.45
  -2   3   2    0.07    0.77
   1  -3  -2   64.62    4.77
   1  -3  -2   73.15    4.93
   1  -3  -2   69.71   10.13
  -1   3   2   82.71    9.98
  -1   3   2   68.43    4.91
  -1   3   2   73.41    4.90
   0  -3  -2  673.08   44.54
   0  -3  -2  670.95   50.98
   0  -3  -2  657.25   44.65
   0   3   2  669.93   44.62
   0   3   2  787.84   51.36
   0   3   2  686.85   44.73
  -1  -3  -2    7.39    7.74
  -1  -3  -2   -0.69    0.64
  -1  -3  -2    0.46    0.66
   1   3   2   -0.72    0.66
   1   3   2    0.14    0.64
   1   3   2    0.48    5.95
   1   3   2   -0.80    0.77
  -2  -3  -2   96.57    7.26
   2   3   2   92.26    7.14
   2   3   2   85.74   19.03
   2   3   2   97.25   19.67
   2   3   2  113.82    7.46
   3   3   2    9.92    1.96
   3   3   2    9.02   14.89
   3   3   2    5.27   16.52
   3   3   2   10.26    2.01
  -4  -3  -2   60.67    5.68
   4   3   2   63.62    5.62
   4   3   2   67.17    5.71
   4   3   2  103.58   31.18
   4   3   2   81.74   25.83
  -5  -3  -2   56.71    5.57
   5   3   2  104.05   35.04
   5   3   2   55.74    5.71
   5   3   2   58.19    5.65
  -6  -3  -2   15.60    4.65
   6   3   2    3.13    2.50
   6   3   2    8.85    2.96
   8  -4  -2   30.92    4.48
  -8   4   2   53.61    5.96
   7  -4  -2   12.67    2.94
   7  -4  -2   24.63   32.12
  -7   4   2   20.10    3.79
   6  -4  -2   10.31    2.41
   6  -4  -2  -43.05   20.58
  -6   4   2   38.26   26.07
  -6   4   2    6.28    2.61
   5  -4  -2   22.70   17.67
  -5   4   2   20.25   20.51
  -5   4   2   15.67    2.79
   4  -4  -2  763.77   47.60
   4  -4  -2  673.74   59.43
   4  -4  -2  751.98   47.79
  -4   4   2  708.16   62.30
  -4   4   2  700.32   47.85
  -4   4   2  715.49   48.06
   3  -4  -2  -12.60    6.07
   3  -4  -2    0.40    0.60
   3  -4  -2    0.42    0.95
  -3   4   2    3.06    9.20
  -3   4   2    0.23    0.93
  -3   4   2    2.73    1.05
   2  -4  -2   36.53    3.19
   2  -4  -2   39.10    2.79
   2  -4  -2   44.10    8.77
  -2   4   2   46.86    3.27
  -2   4   2   33.93    9.98
  -2   4   2   41.16    3.18
   1  -4  -2  182.74   13.48
   1  -4  -2  205.70   13.78
   1  -4  -2  197.40   19.23
  -1   4   2  203.43   19.39
  -1   4   2  224.42   13.76
  -1   4   2  212.64   13.62
   0  -4  -2  144.26   17.57
   0  -4  -2  138.63   10.03
   0  -4  -2  130.24    9.91
   0   4   2  160.59   10.15
   0   4   2  165.12   17.76
   0   4   2  159.07    9.94
  -1  -4  -2   43.57    3.48
   1   4   2   44.69    3.74
   1   4   2   45.11    3.50
   1   4   2   44.08   13.60
   2   4   2    7.05    1.73
   2   4   2    4.90   10.55
   2   4   2    5.86    1.39
   2   4   2    9.75   13.77
  -3  -4  -2   84.73    6.47
   3   4   2   68.95    6.50
   3   4   2   86.45    6.42
   3   4   2   81.37   25.37
   3   4   2  116.32   27.29
  -4  -4  -2    0.95    1.81
   4   4   2    1.64    1.81
   4   4   2    8.10   22.94
   4   4   2   -0.46    1.83
   5   4   2   46.58    5.16
   5   4   2   40.19    5.13
   5   4   2    6.09   37.42
   6   4   2    3.65    2.56
   6   4   2    3.00    2.60
   7  -5  -2    3.90    2.03
  -7   5   2   11.06    3.26
   6  -5  -2   11.12   23.07
   6  -5  -2   13.80    2.35
  -6   5   2   50.73   29.12
  -6   5   2   10.23    2.85
   5  -5  -2   85.00    6.43
   5  -5  -2   87.66   21.97
  -5   5   2  106.91   26.31
  -5   5   2   79.35    6.80
   4  -5  -2   24.71   12.30
   4  -5  -2   38.49    3.31
  -4   5   2   32.86   17.70
  -4   5   2   42.09    3.46
  -4   5   2   30.93    3.52
   3  -5  -2  171.08   11.61
   3  -5  -2  158.27   18.74
  -3   5   2  169.14   11.63
  -3   5   2  172.31   11.53
  -3   5   2  126.75   21.44
   2  -5  -2  232.95   21.77
   2  -5  -2  233.04   15.64
  -2   5   2  229.99   15.52
  -2   5   2  192.21   22.99
  -2   5   2  240.29   15.50
   1  -5  -2  375.63   25.90
   1  -5  -2  368.20   32.93
  -1   5   2  374.57   32.40
  -1   5   2  416.76   25.69
  -1   5   2  390.35   25.83
   0  -5  -2   73.64   15.38
   0  -5  -2   80.78    6.32
   0   5   2  102.25   16.04
   0   5   2   90.72    6.41
   0   5   2   92.03    6.18
  -1  -5  -2  210.41   14.15
   1   5   2  233.10   24.98
   1   5   2  192.15   14.07
   1   5   2  195.98   28.98
   1   5   2  221.77   14.42
  -2  -5  -2   10.06    1.80
   2   5   2    7.97    1.73
   2   5   2   -2.33   16.00
   2   5   2    8.29   14.94
   3   5   2   17.81   21.26
   3   5   2   26.64    3.61
   3   5   2   22.18    3.05
   4   5   2    0.21    1.98
   4   5   2    2.82    2.11
   4   5   2   14.97   27.02
   5   5   2   58.78    6.30
   5   5   2   58.02   44.12
   5   5   2   67.17    6.27
   7  -6  -2    0.77    2.14
  -7   6   2   -0.94    2.53
   6  -6  -2   16.27   24.68
   5  -6  -2  135.93   24.52
   5  -6  -2  140.50   10.03
  -5   6   2  139.73   30.52
  -5   6   2  136.24   10.28
   4  -6  -2   16.26    2.39
   4  -6  -2   23.33   12.35
  -4   6   2    5.91   16.00
  -4   6   2   12.69    2.28
   3  -6  -2   -2.25    7.48
   3  -6  -2   -1.11    1.25
  -3   6   2   -0.41   11.87
  -3   6   2    0.51    1.12
  -3   6   2    0.14    1.11
   2  -6  -2  172.93   20.34
   2  -6  -2  186.35   13.25
  -2   6   2  188.19   13.08
  -2   6   2  197.70   23.02
  -2   6   2  204.62   13.00
   1  -6  -2   10.59    9.08
   1  -6  -2    5.91    1.48
  -1   6   2    3.98    1.29
  -1   6   2    5.81    1.06
  -1   6   2    3.99    7.73
   0  -6  -2   17.39   12.37
   0  -6  -2   19.70    2.49
   0   6   2   31.88   11.08
   0   6   2   22.34    2.49
   0   6   2   21.34    2.14
  -1  -6  -2  103.63    7.39
   1   6   2   96.63    7.25
   1   6   2  129.53   22.35
   1   6   2   75.49   22.03
   2   6   2   65.76    5.51
   2   6   2  101.43   25.17
   3   6   2   43.47   22.82
   4   6   2  175.34   44.36
   4   6   2  128.28   10.75
   4   6   2  145.33   10.75
   5   6   2   25.69    4.15
   5   6   2   27.36    4.36
   6  -7  -2    2.20    2.16
  -6   7   2    2.26    2.33
   5  -7  -2    5.89    2.09
   5  -7  -2   -4.25   16.46
  -5   7   2   19.60   23.60
  -5   7   2    4.51    2.06
   4  -7  -2   21.36    2.98
   4  -7  -2   22.90   12.60
  -4   7   2   24.67    2.96
  -4   7   2  -15.65   16.80
   3  -7  -2   13.82    2.48
   3  -7  -2   25.28   11.36
  -3   7   2   36.03   14.91
  -3   7   2   17.26    2.13
   2  -7  -2    0.44   10.46
   2  -7  -2   10.90    2.13
  -2   7   2   12.01   11.23
  -2   7   2   10.41    1.85
  -2   7   2   13.20    1.63
   1  -7  -2    3.78   11.89
   1  -7  -2   24.36    3.06
  -1   7   2   25.91   10.88
  -1   7   2   24.47    3.02
  -1   7   2   31.29    2.57
   0  -7  -2  225.68   15.42
   0   7   2  217.21   15.12
   0   7   2  252.90   27.00
  -1  -7  -2   69.96    5.27
   1   7   2   30.08   17.91
   1   7   2   60.41    5.12
   2   7   2   33.21    3.72
   2   7   2   57.03   24.08
   3   7   2   78.65    6.60
   3   7   2   68.99    6.90
   4   7   2   32.15    4.64
   4   7   2   21.29    3.84
   6  -8  -2    6.63    2.58
  -6   8   2    8.27    2.74
   5  -8  -2    1.41    2.07
  -5   8   2   -0.47    1.71
   4  -8  -2  -11.35   13.63
   4  -8  -2    5.07    2.15
  -4   8   2    8.21    1.92
  -4   8   2   21.77   19.41
   3  -8  -2   43.14    4.40
   3  -8  -2   33.33   14.67
  -3   8   2   38.27   15.80
  -3   8   2   47.09    3.87
   2  -8  -2   -2.91    1.55
   2  -8  -2    9.85   13.97
  -2   8   2    0.45    1.02
  -2   8   2    0.58   13.76
   1  -8  -2   18.33    2.78
  -1   8   2   15.36    2.01
  -1   8   2   16.65   14.36
   0  -8  -2   34.02    3.41
   0   8   2   27.34    3.01
   0   8   2   32.14   16.16
   1   8   2    2.39    1.65
   2   8   2   59.38    5.45
   3   8   2   10.70    3.21
   3   8   2    6.22    2.48
   5  -9  -2   15.18    3.12
  -5   9   2   17.06    2.84
   4  -9  -2   23.60    3.59
  -4   9   2   23.51    2.89
   3  -9  -2   12.56    2.85
   3  -9  -2   15.02   16.13
  -3   9   2   14.83    2.08
   2  -9  -2   51.02    5.23
  -2   9   2   61.42    4.64
   1  -9  -2   74.41    6.54
  -1   9   2   81.98    6.05
   0  -9  -2    1.65    1.73
   0   9   2    1.67    1.54
   1   9   2    7.30    2.21
   3 -10  -2    5.49    2.67
  -3  10   2    6.82    1.84
   2 -10  -2   27.62    3.94
  -2  10   2   29.57    3.26
   1 -10  -2   50.00    5.11
  -1  10   2   50.72    4.57
   1  10  -3    2.97    2.85
   1  10  -3    7.11    2.00
   0  10  -3   10.48    1.86
   0 -10   3   10.94    2.55
  -1  10  -3   45.24    3.53
   1 -10   3   39.44    4.48
  -2  10  -3    1.92    0.80
   2 -10   3    3.83    2.21
   3 -10   3    4.58    2.13
  -4  10  -3    3.22    1.17
   4 -10   3    4.63    2.36
   3   9  -3    2.28    2.07
   3   9  -3   -3.56    2.67
   2   9  -3    2.77    1.87
   2   9  -3    1.82    2.50
   1   9  -3   21.02    2.72
   0   9  -3    3.10    1.19
   0  -9   3   -0.08    1.56
  -1   9  -3    9.82    1.41
  -1   9  -3   10.20    1.27
   1  -9   3    9.09    2.26
  -2   9  -3  174.59   11.26
  -2   9  -3  164.85   11.37
   2  -9   3  170.18   12.23
  -3   9  -3   41.61    3.10
  -3   9  -3   37.01    3.03
   3  -9   3   40.29    4.11
  -4   9  -3   11.17    1.69
   4  -9   3   12.57    2.47
  -5   9  -3    0.41    1.33
   5  -9   3   -0.44    1.62
   4   8  -3    2.31    2.45
   4   8  -3    7.49    3.16
   3   8  -3   13.03    2.62
   3   8  -3   12.20    3.12
   2   8  -3   13.50    3.12
   2   8  -3   20.73    2.76
   2   8  -3    1.40   17.91
   1   8  -3    7.96   12.27
   1   8  -3    4.79    1.38
   0   8  -3    8.11    1.35
   0   8  -3    6.17    1.19
   0   8  -3   -1.60    9.13
   0   8  -3    5.48    6.08
   0  -8   3    8.63    2.11
  -1   8  -3    1.03    0.68
  -1   8  -3    0.73    0.55
   1  -8   3   -0.16    1.48
  -2   8  -3    3.39    0.61
  -2   8  -3    3.77    0.72
   2  -8   3    4.05    1.79
  -3   8  -3   68.51    5.04
  -3   8  -3   70.74    5.02
   3  -8   3   75.51    5.84
  -4   8  -3    2.11    1.11
   4  -8   3   -0.78    1.52
  -5   8  -3    0.84    1.39
   5  -8   3    0.76    1.86
   5  -8   3   -1.71   10.61
  -6   8  -3    7.93    2.29
   6  -8   3    8.95    2.50
   5   7  -3    5.57    2.96
   5   7  -3    0.29    2.97
   4   7  -3    8.36    3.22
   4   7  -3    9.19    2.79
   3   7  -3   25.32   23.05
   3   7  -3   16.28    2.77
   3   7  -3   21.84    3.45
   2   7  -3  157.65   11.81
   2   7  -3  179.84   28.53
   2   7  -3  156.50   11.25
   1   7  -3  255.47   17.48
   1   7  -3  264.99   33.04
   1   7  -3  251.29   17.33
   1   7  -3  296.72   28.46
   0   7  -3   30.71    6.79
   0   7  -3   24.05    9.15
   0   7  -3   29.04    2.31
   0   7  -3   27.20    2.42
   0  -7   3   24.46    2.88
  -1   7  -3   83.16    5.17
  -1   7  -3   71.08    5.25
   1  -7   3   77.94    5.97
  -2   7  -3    0.15    0.35
   2  -7   3    1.05    1.34
  -3   7  -3  126.37    8.87
   3  -7   3  138.00    9.48
  -4   7  -3   24.49    2.78
  -4   7  -3   30.89    2.62
   4  -7   3   31.25    9.23
   4  -7   3   24.18    8.82
   4  -7   3   29.74    3.19
   5  -7   3    7.55   16.05
   5  -7   3   -0.13    1.55
  -6   7  -3    7.76    2.39
   6  -7   3    7.70    2.27
   5   6  -3    3.26    2.24
   5   6  -3    0.29    2.79
   4   6  -3   69.42   28.38
   4   6  -3   67.77    5.99
   4   6  -3   65.52    6.35
   3   6  -3   86.13    6.96
   3   6  -3   79.08   24.18
   3   6  -3   88.74    7.39
   2   6  -3   -6.70   15.14
   2   6  -3   -1.11    1.05
   2   6  -3   -1.80    1.56
   2   6  -3    8.34   13.24
   2   6  -3    1.79    1.05
   1   6  -3   46.02   14.91
   1   6  -3   70.18   14.19
   1   6  -3   49.29    3.87
   0   6  -3   19.98    1.78
   0   6  -3   20.68    6.88
   0   6  -3   14.35    5.13
   1  -6   3   15.62    2.05
   2  -6   3    0.71    1.05
  -3   6  -3   86.35    6.62
  -3   6  -3   90.15    6.62
   3  -6   3   91.12    9.98
   3  -6   3  111.20   10.43
   3  -6   3  116.14    7.10
  -4   6  -3   88.66    6.76
   4  -6   3  102.29    7.03
   4  -6   3   68.50   16.40
   4  -6   3  107.89   17.32
  -5   6  -3    2.33    1.61
   5  -6   3   10.92   19.11
   5  -6   3    0.12    1.32
  -6   6  -3    0.71    1.79
   6  -6   3  -18.77   29.39
   6  -6   3    3.64    1.75
  -7   6  -3    7.99    2.83
   7  -6   3    7.68    2.25
   6   5  -3   -3.58    2.61
   6   5  -3    5.36    2.56
   5   5  -3   28.08    4.21
   5   5  -3   38.71    5.09
   4   5  -3   13.64    2.74
   4   5  -3   10.94    2.79
   3   5  -3   27.79    3.64
   3   5  -3   27.17    3.24
   3   5  -3   26.15   19.08
   2   5  -3   28.16   13.95
   2   5  -3    9.77    1.69
   2   5  -3    7.72    1.90
  -2  -5   3   13.02    1.28
   1   5  -3  121.23   18.31
   1   5  -3   90.64    6.55
   1   5  -3   95.36    6.68
   0   5  -3   92.20    6.11
   0   5  -3   83.73    9.82
   0   5  -3   89.70    6.18
   0   5  -3  104.49   11.01
   0  -5   3   92.33    6.52
   1  -5   3  215.59   14.52
  -2   5  -3    0.83    0.38
  -2   5  -3    0.16    0.30
   2  -5   3   -0.59    0.79
  -3   5  -3   44.68    3.74
  -3   5  -3   45.81    3.57
  -3   5  -3   47.46    3.63
   3  -5   3   55.72    3.85
   3  -5   3   45.10   10.12
   3  -5   3   46.21   11.13
  -4   5  -3   15.12    1.91
  -4   5  -3   10.01    1.89
   4  -5   3   29.20   14.33
   4  -5   3    0.20   12.89
   4  -5   3   16.07    2.07
   5  -5   3   45.30   23.16
   5  -5   3   76.82    5.77
  -6   5  -3    0.44    1.75
   6  -5   3    0.59    1.54
   6  -5   3   -6.14   31.18
  -7   5  -3   43.04    5.23
   7  -5   3   40.84    4.21
   6   4  -3    0.76    2.24
   6   4  -3    2.13    2.46
   5   4  -3   53.48    5.57
   5   4  -3   54.19    5.30
   4   4  -3    0.51    1.73
   4   4  -3    0.70    1.72
   4   4  -3   -0.04   23.07
  -4  -4   3    2.97    1.81
   3   4  -3  108.88   26.11
   3   4  -3   99.40    7.88
   3   4  -3   99.25    7.68
  -3  -4   3  109.40    7.57
   2   4  -3   35.20    3.23
   2   4  -3   56.18   15.39
   2   4  -3   39.67    3.34
   2   4  -3   36.34    3.59
  -2  -4   3   39.41    3.01
  -2  -4   3   77.10   19.26
   1   4  -3  309.61   22.07
   1   4  -3  313.59   29.57
   1   4  -3  327.93   22.42
   1   4  -3  320.09   22.15
  -1  -4   3  380.43   31.65
  -1  -4   3  330.48   21.76
  -1  -4   3  376.40   21.78
   0   4  -3    2.22    3.44
   0   4  -3    1.91    0.36
   0   4  -3    2.30    0.36
   0  -4   3    2.01    0.86
   1  -4   3   19.10    1.84
  -2   4  -3  710.93   50.14
  -2   4  -3  817.41   50.17
   2  -4   3  795.83   50.35
   2  -4   3  783.80   53.64
   2  -4   3  733.31   54.44
  -3   4  -3  314.33   21.49
  -3   4  -3  315.79   21.53
  -3   4  -3  301.17   21.35
   3  -4   3  357.74   30.31
   3  -4   3  309.67   30.81
   3  -4   3  362.85   21.52
  -4   4  -3   53.12    4.32
  -4   4  -3   53.80    4.45
  -4   4  -3   46.74    4.02
   4  -4   3   59.75    4.19
   4  -4   3   70.55   18.38
   4  -4   3   57.98    3.83
   4  -4   3   38.82   16.91
   5  -4   3   17.71    2.26
   5  -4   3   24.98   22.47
  -6   4  -3   43.87    5.09
   6  -4   3   55.29    4.29
   6  -4   3   48.02   29.10
  -7   4  -3   15.93    3.50
   7   3  -3    5.93    2.99
   7   3  -3    5.71    3.01
   6   3  -3    1.50    2.20
   6   3  -3   -2.24    2.16
   5   3  -3   60.42    5.85
   5   3  -3   67.64    6.04
  -5  -3   3   61.96    5.90
   4   3  -3  178.77   35.09
   4   3  -3  151.86   11.40
   4   3  -3  153.58   11.28
  -4  -3   3  160.66   11.31
  -4  -3   3  187.42   35.99
   3   3  -3  116.05   22.74
   3   3  -3   93.45    7.32
   3   3  -3   97.44    7.49
  -3  -3   3  100.61   25.78
  -3  -3   3  107.10    7.39
   2   3  -3  211.83   14.54
   2   3  -3  266.51   27.25
   2   3  -3  222.18   14.52
   2   3  -3  215.22   14.66
  -2  -3   3  201.74   14.34
   1   3  -3   48.83    9.59
   1   3  -3   44.66    3.44
   1   3  -3   46.31    3.48
   1   3  -3   43.83    3.48
   1   3  -3   48.24    3.80
  -1  -3   3   51.68    3.30
  -1  -3   3   51.62   11.55
  -1  -3   3   47.41    3.26
   0   3  -3  345.40   24.40
   0   3  -3  386.79   24.64
   0   3  -3  394.08   24.38
   0   3  -3  415.85   27.16
   0  -3   3  355.83   27.64
   0  -3   3  359.89   24.61
   1  -3   3 1207.77   75.57
   1  -3   3 1064.52   76.30
  -2   3  -3  308.91   19.84
  -2   3  -3  289.23   19.94
  -2   3  -3  301.30   19.95
   2  -3   3  286.34   26.35
   2  -3   3  316.90   19.95
   2  -3   3  302.37   25.22
  -3   3  -3  572.04   37.41
  -3   3  -3  550.32   37.15
  -3   3  -3  570.22   37.45
   3  -3   3  598.82   47.68
   3  -3   3  613.69   48.91
   3  -3   3  558.16   37.16
  -4   3  -3    3.31    1.31
  -4   3  -3    6.36    1.38
  -4   3  -3    5.10    1.03
   4  -3   3  -20.22   14.29
   4  -3   3    4.95    1.16
   4  -3   3    1.94   13.92
   5  -3   3  -14.82   20.20
   5  -3   3   -0.08    1.36
  -6   3  -3    7.90    2.39
   6  -3   3  -25.13   30.97
   6  -3   3    2.11    1.50
  -7   3  -3    7.60    2.86
   7  -3   3  -18.92   45.53
   7   2  -3    1.71    2.64
   7   2  -3   -0.68    2.31
  -7  -2   3    7.38    2.65
   6   2  -3   17.51    3.38
   6   2  -3   23.91    3.66
  -6  -2   3   28.72    3.96
   5   2  -3   90.83   30.86
   5   2  -3  108.24    8.61
   5   2  -3  113.22    8.69
  -5  -2   3   76.69   31.45
  -5  -2   3  112.18    8.79
   4   2  -3  270.56   19.97
   4   2  -3  302.11   20.05
   4   2  -3  335.80   45.76
  -4  -2   3  295.59   20.13
  -4  -2   3  394.05   49.30
   3   2  -3  189.92   13.98
   3   2  -3  241.71   28.75
   3   2  -3  191.92   14.01
   3   2  -3  224.43   14.17
  -3  -2   3  206.75   14.07
  -3  -2   3  206.52   31.33
   2   2  -3 2375.80  158.74
  -2  -2   3 2204.99  148.08
  -2  -2   3 2153.19  147.90
  -2  -2   3 2446.53  159.63
   1   2  -3  252.32   17.48
   1   2  -3  282.95   23.76
   1   2  -3  277.05   17.66
   1   2  -3  259.38   17.52
  -1  -2   3  262.28   17.45
  -1  -2   3  271.05   17.63
   0   2  -3 5993.86  376.97
   0  -2   3 5547.70  377.36
  -1   2  -3 8836.42  614.69
   1  -2   3 9999.00  614.56
   2  -2   3 2475.73  157.30
   2  -2   3 2103.78  149.70
   2  -2   3 2404.15  158.37
  -3   2  -3   -0.57    0.55
  -3   2  -3   -0.12    0.80
  -3   2  -3   -0.34    0.78
   3  -2   3   -1.64    9.63
   3  -2   3    0.61    0.65
  -4   2  -3  213.19   14.14
  -4   2  -3  188.71   13.73
  -4   2  -3  194.05   14.17
   4  -2   3  234.16   34.46
   4  -2   3  222.54   13.74
   4  -2   3  201.13   13.99
  -5   2  -3   16.26    2.85
   5  -2   3   13.91   23.03
   5  -2   3   21.53    2.73
   5  -2   3   22.98    2.51
   6  -2   3  166.08   11.59
   6  -2   3  141.31   39.93
  -7   2  -3   15.98    3.42
   7  -2   3   44.54   43.10
   7  -2   3    8.90    2.25
   7   1  -3   16.52    3.57
   7   1  -3   13.95    3.13
  -7  -1   3    6.68    3.00
   6   1  -3   40.24    4.86
   6   1  -3   41.41   32.42
   6   1  -3   46.63    4.92
  -6  -1   3   46.42    5.12
   5   1  -3   73.79    6.17
   5   1  -3   80.03    6.22
   5   1  -3   30.99   21.99
  -5  -1   3   64.66    6.21
  -5  -1   3   82.99   31.03
   4   1  -3   57.98    4.86
   4   1  -3   53.44    4.78
   4   1  -3   85.82   22.64
  -4  -1   3   58.96    5.02
  -4  -1   3   74.42   22.65
   3   1  -3   13.81    9.94
   3   1  -3    1.33    1.17
   3   1  -3    2.26    0.90
  -3  -1   3    4.79   10.57
  -3  -1   3    1.07    1.24
   2   1  -3 4080.87  272.12
  -2  -1   3 3996.55  272.55
   1   1  -3 1713.00  107.36
  -1  -1   3 1448.33  101.33
   0   1  -3  116.18    6.94
   0   1  -3  111.38    9.68
   0   1  -3  107.61    7.03
   0   1  -3  101.66    6.93
   0  -1   3   90.82    6.92
   0  -1   3  104.39    6.99
  -2   1  -3  459.82   29.02
   2  -1   3  442.77   37.88
   2  -1   3  442.37   28.98
   2  -1   3  434.62   28.76
   2  -1   3  423.70   28.98
  -3   1  -3   10.87    1.69
  -3   1  -3   10.30    1.58
   3  -1   3   15.07   11.35
   3  -1   3   19.01   11.79
   3  -1   3   11.29    1.41
   3  -1   3    8.40    1.56
  -4   1  -3   53.65    4.67
  -4   1  -3   54.75    4.44
   4  -1   3   52.54    4.48
   4  -1   3   86.46   21.78
   4  -1   3   17.66   16.28
   5  -1   3  115.20    8.03
   5  -1   3   87.23   29.04
   5  -1   3  105.25    8.35
  -6   1  -3   70.57    6.67
   6  -1   3   46.97   36.56
   6  -1   3   76.04    6.01
  -7   1  -3   26.43    4.54
   7  -1   3    2.07   45.72
   7  -1   3   32.46    3.77
   8   0  -3   -4.23    2.27
  -8   0   3    7.55    3.25
   7   0  -3    4.04    2.36
   7   0  -3    6.69    2.46
  -7   0   3    1.44    2.62
   6   0  -3   78.16    6.17
   6   0  -3   90.27   36.49
   6   0  -3   63.95    6.09
  -6   0   3   59.98    6.44
  -6   0   3   62.01   39.44
   5   0  -3  247.01   40.72
   5   0  -3  162.80   12.34
   5   0  -3  183.11   12.38
  -5   0   3  232.80   38.80
  -5   0   3  167.02   12.59
   4   0  -3  550.06   34.63
   4   0  -3  482.71   50.10
  -4   0   3  510.08   34.82
  -4   0   3  477.18   50.86
   3   0  -3  539.08   44.37
   3   0  -3  396.52   30.28
   3   0  -3  486.96   30.34
   3   0  -3  496.00   30.38
  -3   0   3  417.94   30.26
  -3   0   3  503.39   44.14
  -3   0   3  464.74   30.47
   2   0  -3  357.32   27.66
   2   0  -3  450.90   36.71
   2   0  -3  470.72   27.76
   2   0  -3  447.94   27.73
  -2   0   3  432.21   27.77
  -2   0   3  404.63   27.69
  -2   0   3  387.04   35.88
  -2   0   3  413.90   27.70
   1   0  -3    8.28    1.12
   1   0  -3    9.50    4.61
   1   0  -3   10.87    1.32
   1   0  -3    9.51    1.36
  -1   0   3   10.00    1.28
  -1   0   3    2.82    4.10
  -1   0   3   12.83    1.30
  -1   0   3    7.72    1.12
   0   0  -3  503.16   31.90
   0   0  -3  493.74   31.98
   0   0  -3  459.62   35.42
   0   0   3  475.83   35.44
   0   0   3  481.08   31.87
   0   0   3  499.37   31.90
   0   0   3  490.49   31.98
  -1   0  -3  864.33   64.14
  -1   0  -3  937.50   58.06
   1   0   3  859.17   58.09
   1   0   3  919.40   64.36
   1   0   3  871.92   58.06
  -2   0  -3 1255.45   86.72
  -2   0  -3 1345.84   86.67
   2   0   3 1347.05   97.71
   2   0   3 1440.57   86.77
   2   0   3 1255.77   86.67
   2   0   3 1419.21   96.90
   2   0   3 1286.44   86.52
  -3   0  -3  179.67   12.14
  -3   0  -3  171.15   12.24
   3   0   3  180.01   11.99
   3   0   3  170.41   12.16
   3   0   3  152.41   26.75
   3   0   3  223.57   26.37
   4   0   3   -7.99   15.00
   4   0   3    6.27    2.07
   4   0   3   -7.05   15.58
   5   0   3    4.84    1.92
   5   0   3  -44.68   22.70
   5   0   3    6.82    1.85
  -6   0  -3   34.97    4.84
   6   0   3   41.25    4.60
   6   0   3   35.88    4.04
   6   0   3   85.33   36.75
  -7   0  -3   -0.35    2.64
   7   0   3    1.57    2.06
   8  -1  -3    5.13    2.95
  -8   1   3   10.67    3.66
   7  -1  -3   17.37   37.89
   7  -1  -3   12.20    2.80
  -7   1   3   45.69   41.90
  -7   1   3   14.62    3.61
   6  -1  -3   35.13    4.12
   6  -1  -3   36.38    6.18
   6  -1  -3   30.33   27.26
  -6   1   3   32.81    4.55
  -6   1   3   42.11   28.45
   5  -1  -3   62.32   23.16
   5  -1  -3   65.59    5.41
   5  -1  -3   65.10    5.32
  -5   1   3   86.79   24.82
  -5   1   3   57.99    5.68
   4  -1  -3    7.64    1.60
   4  -1  -3    6.90   12.81
   4  -1  -3    7.31    1.61
  -4   1   3    9.16    1.52
  -4   1   3    3.89    1.62
  -4   1   3    3.36   12.54
   3  -1  -3 1014.54   71.44
   3  -1  -3 1158.53   83.86
  -3   1   3 1141.94   71.69
  -3   1   3 1102.80   84.15
  -3   1   3 1091.16   71.51
   2  -1  -3  460.88   37.65
   2  -1  -3  526.71   30.34
  -2   1   3  426.40   38.38
  -2   1   3  444.34   30.27
  -2   1   3  416.11   30.25
  -2   1   3  467.53   30.36
   1  -1  -3  729.41   45.34
   1  -1  -3  682.43   49.77
  -1   1   3  751.59   45.35
  -1   1   3  652.06   45.30
  -1   1   3  654.82   45.28
  -1   1   3  685.85   50.25
   0  -1  -3   15.43    1.48
   0  -1  -3   13.20    1.13
   0  -1  -3   12.17    4.78
   0   1   3   15.38    1.49
   0   1   3   14.12    1.14
   0   1   3   12.49    4.57
  -1  -1  -3  542.15   36.62
  -1  -1  -3  601.86   36.55
  -1  -1  -3  517.20   43.52
   1   1   3  552.93   36.33
   1   1   3  547.29   43.58
   1   1   3  545.11   36.53
   1   1   3  567.63   36.64
  -2  -1  -3   29.27    2.93
  -2  -1  -3   34.19    2.84
   2   1   3   31.06   10.49
   2   1   3   39.92    3.17
   2   1   3   31.69   11.69
   2   1   3   33.13    2.93
  -3  -1  -3    0.64    1.19
   3   1   3  -11.36   12.06
   3   1   3    0.78    1.30
   3   1   3    1.31   12.28
   3   1   3    1.31    1.19
  -4  -1  -3   32.13    3.62
   4   1   3   17.45   19.74
   4   1   3   34.70    3.52
   4   1   3   38.63    3.81
   4   1   3   46.80   20.88
   5   1   3   35.15   26.61
  -6  -1  -3   64.14    6.42
   6   1   3   69.30    6.01
   6   1   3   63.00    6.10
  -7  -1  -3   28.30    4.61
   7   1   3   21.07    3.58
   8  -2  -3   43.34   56.56
   7  -2  -3   -0.08    2.01
   7  -2  -3   10.60   34.11
  -7   2   3   -0.03    2.32
  -7   2   3  -19.98   36.42
   6  -2  -3    9.36    2.30
   6  -2  -3   10.44   26.97
   6  -2  -3    6.98    2.19
  -6   2   3   33.61   29.81
  -6   2   3    7.87    2.78
   5  -2  -3   48.40    4.31
   5  -2  -3   33.48   19.77
   5  -2  -3   47.10    4.23
  -5   2   3   69.87   24.89
  -5   2   3   44.74    4.71
   4  -2  -3   58.52   17.60
   4  -2  -3   69.13    4.70
   4  -2  -3   60.75    4.70
  -4   2   3   52.22    4.88
  -4   2   3   70.97   19.67
  -4   2   3   50.29    4.54
   3  -2  -3    2.83    1.28
   3  -2  -3   -5.99    7.21
   3  -2  -3    3.30    1.08
  -3   2   3    0.86    1.13
  -3   2   3    1.93    8.99
  -3   2   3    3.38    1.12
   2  -2  -3  352.07   29.37
   2  -2  -3  369.67   22.59
  -2   2   3  298.67   29.60
  -2   2   3  317.72   22.60
  -2   2   3  347.57   22.60
   1  -2  -3  210.76   19.08
   1  -2  -3  225.04   14.50
   1  -2  -3  217.63   14.57
  -1   2   3  218.94   14.60
  -1   2   3  224.72   19.79
  -1   2   3  216.92   14.53
   0  -2  -3  109.29    7.83
   0  -2  -3  118.09    7.73
   0  -2  -3  113.11   13.49
   0  -2  -3  114.45    7.70
   0   2   3  113.21    7.67
   0   2   3  107.16   12.83
   0   2   3  117.27    7.75
   0   2   3  117.88    7.90
  -1  -2  -3   66.76    4.49
  -1  -2  -3   58.04    4.72
  -1  -2  -3   55.04   12.56
   1   2   3   65.15    4.82
   1   2   3   66.81    4.46
   1   2   3   70.07   13.25
  -2  -2  -3   26.96    2.58
   2   2   3   24.30   13.39
   2   2   3   42.38   12.96
   2   2   3   23.32    2.47
   2   2   3   25.25    2.66
   2   2   3   28.07    2.11
   3   2   3   12.54    2.06
   3   2   3   28.34   15.71
   3   2   3    9.62    1.89
   3   2   3   13.04   16.11
  -4  -2  -3   25.19    3.22
   4   2   3   39.48   23.99
   4   2   3   48.39   22.19
   4   2   3   22.27    3.01
   4   2   3   18.71    2.97
   5   2   3  110.27    8.83
   5   2   3  117.87    9.13
   5   2   3  109.77   35.88
  -6  -2  -3   22.07    3.79
   6   2   3   21.43    3.64
   6   2   3   18.59    3.45
   8  -3  -3   -1.66    2.28
  -8   3   3    3.20    3.23
   7  -3  -3   12.90    2.81
   7  -3  -3   13.23   35.62
  -7   3   3  -29.03   36.24
  -7   3   3   21.20    3.86
   6  -3  -3  130.85    9.13
   6  -3  -3  134.10   34.10
  -6   3   3  107.07    9.55
  -6   3   3  102.02   33.37
   5  -3  -3  -16.19   17.44
   5  -3  -3   -0.56    1.28
   5  -3  -3   -0.36    1.58
  -5   3   3    1.30    1.68
  -5   3   3  -11.56   19.80
   4  -3  -3   65.81    5.42
   4  -3  -3   53.49   16.64
   4  -3  -3   75.33    5.21
  -4   3   3   76.24   19.89
  -4   3   3   68.22    5.32
  -4   3   3   62.87    5.50
   3  -3  -3  174.69   21.40
  -3   3   3  181.33   12.15
  -3   3   3  188.79   23.47
  -3   3   3  169.17   11.97
   2  -3  -3  973.43   70.52
  -2   3   3  982.48   64.18
  -2   3   3 1030.23   64.24
  -2   3   3  906.09   71.74
   1  -3  -3  426.08   27.43
   1  -3  -3  403.75   32.96
  -1   3   3  432.29   27.51
  -1   3   3  391.28   27.49
  -1   3   3  435.61   33.57
   0  -3  -3  260.87   17.75
   0  -3  -3  282.20   25.97
   0  -3  -3  259.83   17.82
   0   3   3  275.87   17.74
   0   3   3  267.71   17.90
   0   3   3  269.17   17.72
   0   3   3  281.18   24.64
  -1  -3  -3  106.48   18.95
  -1  -3  -3  108.54    8.25
  -1  -3  -3  121.52    8.07
   1   3   3  115.81    8.16
   1   3   3  150.96   17.80
   1   3   3  124.21    8.42
  -2  -3  -3   44.68    3.90
   2   3   3   51.06    4.09
   2   3   3   41.38   13.48
   2   3   3   44.00    3.80
   2   3   3   32.61   16.27
  -3  -3  -3  113.90    8.37
   3   3   3  127.15   25.20
   3   3   3  108.74    8.32
   3   3   3  111.19    8.34
   3   3   3  118.37   26.31
   4   3   3   13.46   23.26
   4   3   3    6.22    2.10
   4   3   3   -0.97   22.06
   4   3   3    6.67    2.13
  -5  -3  -3   96.88    8.15
   5   3   3   94.36    8.03
   5   3   3  103.46    8.21
   6   3   3   44.61    5.26
   6   3   3   43.31    5.30
   8  -4  -3    9.96    3.03
  -8   4   3   26.37    4.69
   7  -4  -3   78.49   34.62
   6  -4  -3  115.18   33.59
  -6   4   3  155.55   11.71
  -6   4   3  144.28   34.71
   5  -4  -3  -19.50   15.37
  -5   4   3    1.36    1.83
  -5   4   3    3.06   20.47
   4  -4  -3  184.30   12.16
   4  -4  -3  145.61   24.22
  -4   4   3  176.48   29.00
  -4   4   3  184.50   12.52
  -4   4   3  165.84   12.23
   3  -4  -3  263.37   17.28
   3  -4  -3  258.04   25.56
  -3   4   3  264.09   17.43
  -3   4   3  257.61   17.29
  -3   4   3  184.94   27.96
   2  -4  -3    3.06    5.30
   2  -4  -3    4.12    0.97
   2  -4  -3    1.53    0.64
  -2   4   3    2.65    0.93
  -2   4   3    3.68    1.08
  -2   4   3    0.34    7.89
   1  -4  -3  485.01   39.82
   1  -4  -3  502.15   32.91
   1  -4  -3  474.73   32.76
  -1   4   3  497.68   32.79
  -1   4   3  543.15   40.33
  -1   4   3  515.64   32.95
   0  -4  -3   15.86    8.13
   0  -4  -3   11.50    1.54
   0   4   3   13.36    1.46
   0   4   3   11.65    1.66
   0   4   3    1.74    6.81
  -1  -4  -3  122.62   21.92
  -1  -4  -3  147.81   10.63
  -1  -4  -3  165.42   10.53
   1   4   3  160.94   10.84
   1   4   3  141.27   10.53
   1   4   3  203.03   23.23
  -2  -4  -3    9.74    1.78
   2   4   3   11.66    2.12
   2   4   3   15.93   11.79
   2   4   3   28.00   16.37
   2   4   3   12.36    1.95
   3   4   3   -7.16   18.31
   3   4   3    7.99    2.02
   3   4   3   15.64   19.10
   4   4   3    3.32    2.08
   4   4   3    0.28    1.87
   4   4   3   -8.56   25.00
   5   4   3   30.78    4.47
   5   4   3   44.20    4.94
   6   4   3    0.32    2.37
   6   4   3    1.02    2.48
   7  -5  -3    0.08    1.81
  -7   5   3    0.99    2.65
   6  -5  -3   18.98    2.76
   6  -5  -3   24.88   26.43
  -6   5   3   14.01    3.21
  -6   5   3   -5.87   27.68
   5  -5  -3    6.43   16.64
   5  -5  -3   11.14    2.12
  -5   5   3    5.94    2.18
  -5   5   3    3.43   20.73
   4  -5  -3   74.56    5.77
   4  -5  -3   61.46   16.03
  -4   5   3   48.06   19.17
  -4   5   3   79.75    6.08
  -4   5   3   72.92    5.75
   3  -5  -3   27.47   10.09
   3  -5  -3   35.02    3.16
  -3   5   3   19.38   12.70
  -3   5   3   35.95    3.23
  -3   5   3   33.88    3.22
   2  -5  -3   94.81    6.66
   2  -5  -3   82.66    6.20
   2  -5  -3   90.16   14.12
  -2   5   3  102.37    6.56
  -2   5   3   99.99   17.21
  -2   5   3   89.55    6.61
   1  -5  -3    7.51    8.09
   1  -5  -3    2.32    0.55
   1  -5  -3    0.91    0.94
  -1   5   3    1.16    1.04
  -1   5   3    1.58    0.76
  -1   5   3    0.06    7.53
   0  -5  -3   56.48   14.21
   0  -5  -3   53.20    4.05
   0  -5  -3   49.74    3.84
   0   5   3   62.11   12.15
   0   5   3   51.16    3.91
   0   5   3   50.87    4.18
  -1  -5  -3   17.03    2.07
   1   5   3   11.70   11.13
   1   5   3   20.43    2.59
   1   5   3   12.81    1.90
   2   5   3   37.92   19.66
   2   5   3   19.84   14.76
   2   5   3   20.97    2.70
   3   5   3   -1.87   19.75
   3   5   3   -0.60    1.66
   4   5   3    6.33    2.32
   4   5   3    6.61    2.57
   4   5   3  -14.22   28.06
   5   5   3    7.38    2.85
   5   5   3   10.03    3.16
   7  -6  -3    2.09    2.16
  -7   6   3    4.74    3.14
   6  -6  -3   25.16   24.23
   6  -6  -3   13.38    2.61
  -6   6   3   11.26    3.00
   5  -6  -3   22.63   17.41
   5  -6  -3   21.78    3.06
  -5   6   3   25.08    3.48
  -5   6   3   -3.23   21.81
   4  -6  -3  290.63   31.18
   4  -6  -3  303.38   20.88
  -4   6   3  328.16   21.05
  -4   6   3  238.80   36.39
   3  -6  -3  176.20   12.46
   3  -6  -3  194.96   21.96
  -3   6   3  127.30   24.42
  -3   6   3  171.97   12.33
  -3   6   3  191.57   12.40
   2  -6  -3   -0.65    1.22
   2  -6  -3    1.34    8.42
  -2   6   3    0.59    0.97
  -2   6   3    4.03    9.90
  -2   6   3    0.45    1.20
   1  -6  -3   20.92   11.61
   1  -6  -3    5.32    1.51
  -1   6   3   13.25   10.05
  -1   6   3    3.78    1.46
  -1   6   3    6.79    1.21
   0  -6  -3   68.39    5.40
   0  -6  -3   59.26   16.56
   0   6   3   70.80   15.03
   0   6   3   70.72    5.58
   0   6   3   70.91    5.21
  -1  -6  -3  152.38   10.40
   1   6   3  145.07   10.40
   1   6   3  123.10   23.62
   2   6   3   36.42   20.34
   2   6   3   15.71    2.51
   3   6   3   16.33    2.85
   3   6   3   11.95   27.82
   4   6   3   65.94    6.73
   4   6   3   76.24    6.80
   6  -7  -3    4.03    2.23
  -6   7   3    8.77    2.78
   5  -7  -3   -0.70    1.86
   5  -7  -3    5.88   15.34
  -5   7   3    1.40    1.96
  -5   7   3    8.87   27.69
   4  -7  -3   13.88   13.42
   4  -7  -3   14.48    2.59
  -4   7   3    5.14   19.22
  -4   7   3   17.29    2.50
   3  -7  -3   11.26   12.02
   3  -7  -3   11.74    2.20
  -3   7   3   20.87   15.44
  -3   7   3    9.43    1.89
   2  -7  -3   51.47    4.78
   2  -7  -3   57.64   15.92
  -2   7   3   59.41    4.41
  -2   7   3   58.50   15.93
   1  -7  -3  282.29   34.51
   1  -7  -3  315.69   21.13
  -1   7   3  311.13   20.77
  -1   7   3  315.59   32.76
   0  -7  -3  114.14    7.98
   0   7   3   95.64   19.85
   0   7   3  100.03    7.61
  -1  -7  -3    3.34    1.48
   1   7   3    1.23    1.44
   1   7   3    6.94   16.72
   2   7   3   74.18    6.24
   2   7   3   92.81   27.70
   3   7   3    7.00    2.49
   6  -8  -3   17.37    3.39
  -6   8   3   18.43    3.56
   5  -8  -3   -3.24    1.92
  -5   8   3   -2.16    1.73
   4  -8  -3    4.13   16.28
   4  -8  -3   11.22    2.60
  -4   8   3   11.04    2.16
   3  -8  -3    2.65    1.91
   3  -8  -3    1.86   15.13
  -3   8   3   -0.02    1.31
  -3   8   3  -14.22   16.81
   2  -8  -3   -0.46   15.04
  -2   8   3   -3.06   15.74
   1  -8  -3  -21.13   16.62
   1  -8  -3    4.88    1.88
  -1   8   3  -16.31   14.77
  -1   8   3    3.89    1.40
   0  -8  -3  139.77   10.26
   0   8   3  151.20   25.66
   0   8   3  140.61   10.05
   1   8   3   16.57    2.62
   2   8   3   14.67    2.87
   5  -9  -3   -0.81    2.34
  -5   9   3    3.57    2.15
   4  -9  -3   52.64    5.30
  -4   9   3   54.48    4.84
   3  -9  -3    7.69    2.53
  -3   9   3   10.26    2.02
   2  -9  -3   25.85    3.62
  -2   9   3   26.52    2.98
   1  -9  -3    8.99    2.32
  -1   9   3    9.61    1.93
   0  -9  -3    2.60    1.90
   0   9   3    7.60    2.01
   1   9   3   20.91    3.21
   1  10  -4   -1.63    2.39
   1  10  -4    1.49    1.65
   0  10  -4   60.90    4.88
  -1  10  -4    3.81    1.04
   1 -10   4    2.61    1.99
  -2  10  -4    0.97    0.62
  -2  10  -4   -1.04    0.85
   2 -10   4    0.83    1.88
  -3  10  -4   11.42    1.29
   3 -10   4   12.60    2.57
  -4  10  -4   13.55    1.73
   4 -10   4   14.76    2.94
   3   9  -4    2.27    2.06
   3   9  -4    1.59    3.24
   2   9  -4   10.33    2.35
   2   9  -4    5.86    2.91
   1   9  -4   35.34    4.74
   1   9  -4   29.44   14.09
   1   9  -4   35.45    3.53
   0   9  -4   15.00    1.91
   0  -9   4   18.27    2.84
  -1   9  -4   18.87    1.78
  -1   9  -4   18.38    1.72
   1  -9   4   18.80    2.85
  -2   9  -4   15.81    1.55
  -2   9  -4   19.59    1.44
   2  -9   4   19.27    2.86
  -3   9  -4   42.19    3.39
  -3   9  -4   49.49    3.41
   3  -9   4   49.50    4.64
  -4   9  -4   12.14    1.78
   4  -9   4   20.79    2.99
  -5   9  -4    5.37    1.62
   5  -9   4    4.12    2.14
   4   8  -4   15.28    4.05
   4   8  -4   16.24    3.41
   3   8  -4   22.90    3.43
   3   8  -4   23.35    4.18
   2   8  -4   -6.91   17.09
   2   8  -4    8.19    2.06
   2   8  -4   14.30    3.07
   1   8  -4    9.24   11.40
   1   8  -4   10.89    2.68
   1   8  -4   12.71    1.92
   0   8  -4    4.42    1.02
   0   8  -4    3.16    0.92
   0  -8   4    2.55    1.70
  -1   8  -4   24.43    1.92
  -1   8  -4   23.15    1.83
   1  -8   4   26.07    3.05
   2  -8   4    5.45    1.78
  -3   8  -4   50.54    3.88
   3  -8   4   62.52    4.81
  -4   8  -4    8.30    1.46
   4  -8   4    6.72    1.96
  -5   8  -4    7.80    1.89
   5  -8   4    8.75    2.27
   5  -8   4    6.72   10.56
  -6   8  -4   27.20    3.71
   6  -8   4   34.04    3.92
   5   7  -4   -1.16    2.26
   5   7  -4   -2.73    2.53
   4   7  -4   -0.86    2.27
   4   7  -4   -2.18    1.85
   3   7  -4   -2.11    2.08
   3   7  -4   -0.34    1.66
   3   7  -4  -10.06   19.76
   2   7  -4   27.72   16.93
   2   7  -4   57.13    5.00
   2   7  -4   65.46    5.79
   1   7  -4  175.22   13.46
   1   7  -4  178.81   22.38
   1   7  -4  211.87   26.87
   1   7  -4  196.08   12.85
   0   7  -4    7.99    3.85
   0   7  -4    2.10    4.35
   0   7  -4    7.70    1.05
   0   7  -4    7.29    1.14
   0  -7   4    6.95    1.72
   1  -7   4   11.53    1.97
   2  -7   4    1.73    1.40
  -3   7  -4   74.42    5.57
  -3   7  -4   82.17    5.63
   3  -7   4   87.83    6.20
  -4   7  -4    6.71    1.80
   4  -7   4    5.12    8.24
   4  -7   4   13.36    7.74
   4  -7   4    6.95    1.81
  -5   7  -4    5.00    1.67
   5  -7   4    5.89    2.05
   5  -7   4    6.47   16.94
  -6   7  -4    2.54    1.89
   6  -7   4    0.57    1.80
   5   6  -4    3.30    2.49
   5   6  -4    1.06    2.82
   4   6  -4   -2.22    1.66
   4   6  -4    2.39    2.52
   3   6  -4   77.00    6.69
   3   6  -4   92.49    7.25
   2   6  -4   42.19   18.10
   2   6  -4   13.13    2.51
   2   6  -4   14.12    2.04
   1   6  -4  157.22   11.38
   1   6  -4  173.73   11.51
   1   6  -4  163.28   20.68
   1   6  -4  170.70   11.97
   1   6  -4  182.01   22.31
   0   6  -4  272.78   20.31
   0   6  -4  254.79   17.32
   0   6  -4  276.78   20.36
   0   6  -4  259.01   17.27
   0  -6   4  261.32   17.68
   1  -6   4   36.38    3.16
   2  -6   4    7.84    1.53
  -3   6  -4   91.51    6.30
  -3   6  -4   84.65    6.24
   3  -6   4   88.09   11.00
   3  -6   4   89.54    9.78
   3  -6   4   96.08    6.63
  -4   6  -4   17.07    2.06
  -4   6  -4   16.34    2.20
   4  -6   4   10.06   13.10
   4  -6   4   23.50   11.93
   4  -6   4   21.02    2.41
   5  -6   4  -16.57   20.07
  -6   6  -4    0.46    1.74
   6  -6   4   -2.76    1.50
  -7   6  -4   16.14    3.54
   7  -6   4   19.85    2.99
   6   5  -4    1.40    2.67
   6   5  -4    0.57    2.42
   5   5  -4   22.99    3.67
   5   5  -4   15.35    3.42
   4   5  -4  115.23    9.37
   4   5  -4  122.13    9.14
   3   5  -4   -1.40    1.47
   3   5  -4   13.35   18.31
   3   5  -4   -0.98    1.59
  -3  -5   4   -0.41   19.41
  -3  -5   4    0.66    1.48
   2   5  -4   17.70    2.71
   2   5  -4   14.76   15.03
   2   5  -4   19.21    2.20
   2   5  -4   19.71    2.26
  -2  -5   4   18.97    1.62
  -2  -5   4   16.22   14.32
   1   5  -4  275.55   19.23
   1   5  -4  286.16   19.66
   1   5  -4  290.49   28.05
   1   5  -4  298.20   19.32
  -1  -5   4  334.04   29.66
   0   5  -4   71.95    4.95
   0   5  -4   72.20    4.93
   0   5  -4   82.08    8.37
   0  -5   4   74.24    5.34
   1  -5   4   43.90    3.45
  -2   5  -4  141.33   10.26
  -2   5  -4  172.82   10.30
   2  -5   4  152.53   10.62
  -3   5  -4  107.45    7.19
  -3   5  -4  101.33    7.13
  -3   5  -4   89.83    7.06
   3  -5   4  114.64    7.33
   3  -5   4   87.52   15.74
   3  -5   4  122.02   14.68
  -4   5  -4   30.04    3.20
  -4   5  -4   34.68    3.07
   4  -5   4   21.02   13.84
   4  -5   4   40.31    3.22
   4  -5   4   63.81   18.68
  -5   5  -4    1.89    1.54
   5  -5   4    3.15    1.52
   5  -5   4    4.20   20.79
   6  -5   4   32.44    3.41
   6  -5   4   53.84   34.79
  -7   5  -4    2.45    2.46
   7  -5   4    0.34    1.66
   7   4  -4    4.66    3.11
   6   4  -4   12.17    3.60
   6   4  -4   10.54    3.08
   5   4  -4  179.38   13.46
   5   4  -4  188.21   13.71
   4   4  -4    6.04    2.26
   4   4  -4    7.03    2.09
   4   4  -4   -0.90   19.19
  -4  -4   4    8.14    1.90
   3   4  -4  120.48    8.79
   3   4  -4  134.40   25.99
   3   4  -4  119.40    8.97
   3   4  -4  118.22    8.78
  -3  -4   4  120.44    8.55
   2   4  -4  177.10   12.56
   2   4  -4  175.12   12.34
   2   4  -4  215.05   28.66
   2   4  -4  180.47   12.33
  -2  -4   4  163.80   25.88
  -2  -4   4  182.74   12.03
   1   4  -4  234.66   15.44
   1   4  -4  229.73   15.10
   1   4  -4  207.37   22.40
   1   4  -4  220.03   15.10
  -1  -4   4  223.92   23.31
   0   4  -4   81.40    7.92
   0   4  -4   67.92    4.49
   0   4  -4   63.09    4.54
   0  -4   4   70.41    4.84
   0  -4   4   61.52    9.49
   1  -4   4  836.69   55.45
   1  -4   4  825.81   55.77
  -2   4  -4  717.56   50.07
  -2   4  -4  818.53   50.10
   2  -4   4  771.90   53.92
   2  -4   4  765.91   50.21
   2  -4   4  765.64   56.02
  -3   4  -4    3.49    0.80
  -3   4  -4    2.21    0.89
  -3   4  -4    2.59    0.96
   3  -4   4   -0.02    8.46
   3  -4   4    1.71   10.26
   3  -4   4    3.78    1.04
  -4   4  -4   14.30    1.93
  -4   4  -4   14.26    1.56
  -4   4  -4   15.03    2.13
   4  -4   4   13.14    1.79
   4  -4   4   21.09   14.74
   4  -4   4   17.77   15.26
  -5   4  -4   -0.18    1.45
   5  -4   4   -2.61    1.00
   5  -4   4    5.28   23.25
   6  -4   4  -20.10   31.57
  -7   4  -4    1.55    2.49
   7  -4   4    3.72    1.77
   7   3  -4    4.33    2.90
   7   3  -4    2.24    2.73
   6   3  -4    5.63    2.53
   6   3  -4    3.10    2.66
  -6  -3   4   10.44    2.84
   5   3  -4   40.18    4.35
   5   3  -4   36.60    4.56
   4   3  -4  104.67    8.27
   4   3  -4  128.96   27.63
   4   3  -4  100.98    8.09
  -4  -3   4  112.57    8.17
  -4  -3   4  132.14   27.73
   3   3  -4    9.06    1.51
   3   3  -4    3.90   11.93
   3   3  -4    4.52    1.51
   3   3  -4    7.76    1.74
  -3  -3   4    4.67    1.34
  -3  -3   4    1.20   14.34
   2   3  -4  117.78    8.32
   2   3  -4  120.65    8.51
   2   3  -4  160.51   22.46
   2   3  -4  113.56    8.30
   1   3  -4 1819.76  118.28
   1   3  -4 1804.80  118.16
   1   3  -4 1827.57  124.88
  -1  -3   4 1802.86  117.94
  -1  -3   4 1825.94  126.04
   0   3  -4  199.00   12.98
   0   3  -4  209.41   12.78
   0   3  -4  179.41   12.84
   0   3  -4  200.35   15.80
   0   3  -4  196.26   13.06
   0  -3   4  192.11   12.96
   0  -3   4  186.48   16.93
  -1   3  -4  295.50   22.47
  -1   3  -4  297.42   18.78
  -1   3  -4  286.27   18.84
  -1   3  -4  272.48   18.75
   1  -3   4  292.40   21.66
   1  -3   4  283.60   18.87
  -2   3  -4  780.52   54.74
  -2   3  -4  879.69   55.02
  -2   3  -4  814.83   54.98
   2  -3   4  855.62   54.91
   2  -3   4  895.01   61.09
   2  -3   4  862.37   62.88
  -3   3  -4  557.33   35.83
  -3   3  -4  543.33   35.40
  -3   3  -4  539.01   35.75
   3  -3   4  510.18   35.51
   3  -3   4  557.77   46.03
   3  -3   4  602.46   48.53
  -4   3  -4   11.19    1.40
  -4   3  -4    9.87    1.82
  -4   3  -4   11.97    1.80
   4  -3   4   11.65    1.48
   4  -3   4   -1.47   16.00
   4  -3   4   20.26   13.37
   4  -3   4   10.42    1.50
  -5   3  -4    0.89    1.55
   5  -3   4   -2.19   20.43
   6  -3   4   11.15   32.00
   6  -3   4    8.27    1.89
  -7   3  -4   -2.30    2.20
   7   2  -4    3.14    2.76
   7   2  -4   14.23    3.29
  -7  -2   4    4.09    2.47
   6   2  -4   21.78    3.67
   6   2  -4   26.81    4.14
  -6  -2   4   22.38    3.84
   5   2  -4    1.90    1.99
   5   2  -4   -9.60   22.60
   5   2  -4    2.92    1.98
  -5  -2   4   -0.23   23.35
  -5  -2   4    3.08    2.15
   4   2  -4  176.49   12.46
   4   2  -4  150.44   30.53
   4   2  -4  169.42   12.43
  -4  -2   4  184.16   32.05
  -4  -2   4  179.58   12.50
   3   2  -4  666.89   55.21
   3   2  -4  545.33   39.83
   3   2  -4  584.07   39.87
   3   2  -4  631.98   39.98
  -3  -2   4  629.88   56.56
  -3  -2   4  627.79   39.89
   2   2  -4  170.61   12.59
   2   2  -4  214.03   22.70
  -2  -2   4  196.05   12.57
  -2  -2   4  200.12   26.24
   0   2  -4  161.33    9.51
   0   2  -4  143.78    9.54
   0   2  -4  130.36    9.57
   0   2  -4  137.17    9.57
   0   2  -4  163.86   13.02
   0  -2   4  146.95    9.46
   0  -2   4  134.63   13.19
   0  -2   4  139.28    9.59
  -1   2  -4   61.33    4.05
  -1   2  -4   58.18    3.86
  -1   2  -4   57.58    3.97
  -1   2  -4   64.99    9.60
   1  -2   4   50.61    3.89
   1  -2   4   57.29    3.92
   1  -2   4   55.81    3.88
   1  -2   4   71.01    8.25
  -2   2  -4   32.95    2.75
   2  -2   4   40.01    9.99
   2  -2   4   35.47    2.51
   2  -2   4   41.53   11.75
  -3   2  -4    4.31    1.22
  -3   2  -4    7.59    1.40
   3  -2   4    7.16    1.19
   3  -2   4   10.16   11.65
  -4   2  -4   30.07    2.97
  -4   2  -4   27.02    3.11
   4  -2   4   27.87    2.91
   4  -2   4   42.42   18.30
   4  -2   4   17.42   14.81
   4  -2   4   32.77    2.58
  -5   2  -4   30.82    3.79
   5  -2   4   40.87    3.48
   5  -2   4   67.28   26.86
   5  -2   4   32.03    3.72
   6  -2   4  -27.32   30.46
   7  -2   4   -7.52   45.30
   7   1  -4    1.96    2.70
   7   1  -4    5.74    2.54
  -7  -1   4    9.60    3.11
   6   1  -4   20.38    3.47
   6   1  -4   19.02    3.42
   6   1  -4   22.66   29.22
  -6  -1   4   21.73    3.69
   5   1  -4  131.47    9.62
   5   1  -4   96.10   28.99
   5   1  -4  130.18    9.66
  -5  -1   4  127.58   32.21
  -5  -1   4  122.04    9.70
   4   1  -4   53.30    4.48
   4   1  -4   49.05    4.43
   4   1  -4   98.29   22.64
  -4  -1   4   50.26   20.56
  -4  -1   4   49.78    4.52
   3   1  -4  144.64   10.06
   3   1  -4  133.31    9.97
   3   1  -4  195.22   28.67
  -3  -1   4  148.13   10.10
  -3  -1   4  157.11   25.76
   2   1  -4    3.06    1.07
   2   1  -4    4.70    6.68
   2   1  -4    4.60    0.96
  -2  -1   4    4.09    1.07
  -2  -1   4    3.12    0.90
  -2  -1   4    3.11    0.97
  -2  -1   4   -0.18    6.71
   1   1  -4  220.41   13.93
   1   1  -4  225.68   19.76
   1   1  -4  200.64   13.84
   1   1  -4  227.27   13.96
  -1  -1   4  195.42   13.87
  -1  -1   4  225.47   13.84
  -1  -1   4  166.89   18.76
  -1  -1   4  194.59   13.89
   0   1  -4  555.34   36.24
   0   1  -4  550.64   40.23
   0   1  -4  595.27   36.28
   0   1  -4  586.38   36.37
   0  -1   4  541.06   36.26
   0  -1   4  556.88   36.32
   0  -1   4  505.12   36.23
  -1   1  -4   50.86    3.55
  -1   1  -4   48.97    3.44
  -1   1  -4   62.95    9.75
   1  -1   4   46.64    3.13
   1  -1   4   44.28    3.43
   1  -1   4   45.76    3.43
  -2   1  -4  313.03   20.16
  -2   1  -4  322.88   20.09
   2  -1   4  293.81   28.79
   2  -1   4  296.12   19.78
   2  -1   4  278.07   20.03
  -3   1  -4   24.04    2.47
  -3   1  -4   22.23    2.26
   3  -1   4   18.69    2.23
   3  -1   4   19.45    1.90
   3  -1   4   28.11   11.75
   3  -1   4   30.76   13.57
  -4   1  -4   -0.85    1.25
   4  -1   4    1.89    1.34
   4  -1   4   -6.24   15.06
   4  -1   4    1.51    1.53
   4  -1   4   17.35   17.60
  -5   1  -4   26.43    3.68
   5  -1   4   28.59    2.92
   5  -1   4   18.83   23.89
   5  -1   4   25.64    3.18
   6  -1   4   -2.29   33.17
   6  -1   4    0.95    1.60
  -7   1  -4   12.04    3.55
   7  -1   4   25.68   54.91
   8   0  -4    2.70    2.96
  -8   0   4    2.33    3.27
   7   0  -4   31.64    4.23
   7   0  -4   22.84    3.74
  -7   0   4   36.52    4.91
   6   0  -4   97.06    7.78
   6   0  -4   92.36    7.72
   6   0  -4  127.97   34.19
  -6   0   4   94.67    8.06
  -6   0   4   75.31   33.04
   5   0  -4   11.47    2.36
   5   0  -4    2.46   19.82
   5   0  -4    8.43    2.23
  -5   0   4    3.45   20.46
  -5   0   4    9.93    2.40
   4   0  -4  342.37   38.94
   4   0  -4  356.16   23.12
  -4   0   4  329.24   23.26
  -4   0   4  342.15   40.13
   3   0  -4   85.76    6.01
   3   0  -4   57.77   15.18
   3   0  -4   89.85    5.96
  -3   0   4   76.49    6.03
  -3   0   4   68.47    5.75
  -3   0   4   85.92   20.02
   2   0  -4  766.81   43.49
   2   0  -4  568.75   43.34
   2   0  -4  700.22   52.44
  -2   0   4  655.87   52.73
  -2   0   4  627.28   43.39
  -2   0   4  615.51   43.38
  -2   0   4  723.20   43.49
   1   0  -4    2.46    0.91
   1   0  -4    1.65    0.74
   1   0  -4    7.31    3.92
   1   0  -4    1.78    0.68
  -1   0   4    2.35    4.70
  -1   0   4    1.80    0.83
  -1   0   4    1.47    0.67
  -1   0   4    0.99    0.66
   0   0  -4 3782.76  252.24
   0   0   4 3825.14  252.05
  -1   0  -4  760.42   44.59
  -1   0  -4  631.26   51.40
  -1   0  -4  691.04   44.66
   1   0   4  673.55   44.61
   1   0   4  695.56   51.41
   1   0   4  612.56   44.24
   1   0   4  689.93   44.57
  -2   0  -4 2541.84  151.42
  -2   0  -4 2128.79  161.25
   2   0   4 2466.36  162.38
   2   0   4 2150.03  151.35
   3   0   4   13.02   12.22
   3   0   4   21.39   12.46
  -4   0  -4    8.61    2.08
   4   0   4   21.43   19.68
   4   0   4    7.87   17.89
   4   0   4   12.48    2.03
  -5   0  -4    2.11    1.83
   5   0   4   -0.10    1.54
   5   0   4   -1.25   23.23
   5   0   4    1.08    1.88
   6   0   4    3.00    2.31
   6   0   4   -1.35    1.48
   6   0   4   -1.79   32.72
  -7   0  -4    2.20    2.81
   7   0   4   -3.47    1.71
   8  -1  -4   17.06    3.63
  -8   1   4   28.22    4.90
   7  -1  -4    2.39   35.01
   7  -1  -4   -0.91    2.07
  -7   1   4    3.53   41.14
  -7   1   4    3.82    2.58
   6  -1  -4   -2.18    1.72
   6  -1  -4  -21.42   23.16
   6  -1  -4   -1.00    1.83
  -6   1   4   -3.50    2.07
  -6   1   4   12.60   30.24
   5  -1  -4  245.23   41.63
   5  -1  -4  230.75   15.30
  -5   1   4  164.33   35.49
  -5   1   4  207.76   15.45
   4  -1  -4   47.37    4.12
   4  -1  -4   50.80    4.12
   4  -1  -4   67.30   18.11
  -4   1   4   43.72    3.89
  -4   1   4   44.62   19.07
  -4   1   4   50.84    4.36
   3  -1  -4  858.81   55.34
   3  -1  -4  937.77   55.39
   3  -1  -4  819.20   66.46
  -3   1   4  834.09   68.77
  -3   1   4  851.09   55.48
  -3   1   4  742.54   55.28
   2  -1  -4   64.60   11.96
   2  -1  -4   40.68    2.90
   2  -1  -4   27.85    2.62
  -2   1   4   44.60   11.17
  -2   1   4   30.70    2.78
  -2   1   4   35.67    2.82
  -2   1   4   35.25    2.84
   1  -1  -4  130.80    8.28
   1  -1  -4  100.12    8.09
   1  -1  -4  125.98   13.33
  -1   1   4  118.42    8.21
  -1   1   4  133.06    8.28
  -1   1   4  115.44   13.37
  -1   1   4  123.59    8.16
   0  -1  -4   42.98    3.14
   0  -1  -4   41.29    2.96
   0  -1  -4   48.95    3.34
   0  -1  -4   47.58    8.92
   0   1   4   40.92    3.27
   0   1   4   42.36    3.13
   0   1   4   38.90    8.55
  -1  -1  -4  117.26    8.29
  -1  -1  -4  121.32   17.79
  -1  -1  -4  132.57    8.19
   1   1   4  114.39    7.88
   1   1   4  118.36   17.10
   1   1   4  113.40    8.27
   1   1   4  117.77    8.17
  -2  -1  -4   77.11   17.27
  -2  -1  -4   86.71    6.95
   2   1   4   91.78    6.66
   2   1   4   94.64    6.16
   2   1   4   79.74   16.10
  -3  -1  -4  311.57   22.06
   3   1   4  331.96   21.85
   3   1   4  332.43   22.04
   3   1   4  332.05   38.56
   3   1   4  328.06   37.44
  -4  -1  -4   80.27    6.50
   4   1   4   70.96   23.12
   4   1   4   79.54    6.18
   4   1   4  123.27   29.28
   4   1   4   73.65    6.34
  -5  -1  -4   70.76    6.27
   5   1   4   69.98    6.15
   5   1   4   46.10   27.92
   5   1   4   68.12    5.95
  -6  -1  -4   20.73    3.75
   6   1   4   24.34    3.42
   6   1   4   23.37    3.59
   8  -2  -4    3.44    2.71
   8  -2  -4  -13.27   50.44
  -8   2   4   11.03    3.70
   7  -2  -4  -40.44   36.42
   7  -2  -4   -1.17    2.00
  -7   2   4  -28.45   37.39
  -7   2   4    6.86    2.89
   6  -2  -4   69.52   27.95
   6  -2  -4  103.38    7.21
   6  -2  -4   77.94    7.02
  -6   2   4   80.41    7.43
  -6   2   4   82.00   33.88
   5  -2  -4    7.53    2.08
   5  -2  -4   -3.87   16.23
   5  -2  -4    9.22    1.90
  -5   2   4    1.74    1.90
  -5   2   4   -0.83   17.49
   4  -2  -4   32.21    3.10
   4  -2  -4   32.42   14.36
   4  -2  -4   28.53    3.18
  -4   2   4   28.20    3.24
  -4   2   4   29.66   17.90
  -4   2   4   36.49    3.05
   3  -2  -4  143.71    9.58
   3  -2  -4  126.53   20.44
   3  -2  -4  156.01    9.55
  -3   2   4  128.20    9.61
  -3   2   4  124.40   22.29
  -3   2   4  121.16    9.45
   2  -2  -4 2109.07  135.48
  -2   2   4 1958.55  127.36
  -2   2   4 1797.01  135.73
   1  -2  -4  852.71   58.56
   1  -2  -4  682.38   51.94
   1  -2  -4  820.85   52.10
  -1   2   4  819.64   52.12
  -1   2   4  869.39   59.05
   0  -2  -4    3.69    5.56
   0  -2  -4    5.70    1.19
   0  -2  -4    7.14    1.03
   0  -2  -4    6.94    0.91
   0   2   4    5.50    1.20
   0   2   4   12.40    5.92
   0   2   4    8.19    0.94
  -1  -2  -4   76.53    5.95
  -1  -2  -4  103.24   17.27
  -1  -2  -4   82.42    5.62
   1   2   4   82.08    5.60
   1   2   4   81.65    5.85
   1   2   4  123.41   17.61
   1   2   4   83.13    6.05
  -2  -2  -4  378.97   26.03
   2   2   4  374.65   25.90
   2   2   4  419.22   38.65
   2   2   4  405.37   25.57
  -3  -2  -4    0.36    1.25
   3   2   4    1.31    1.29
   3   2   4   -1.46    1.21
   3   2   4    4.85   16.27
   3   2   4  -41.73   12.78
  -4  -2  -4   73.13    6.33
   4   2   4   78.37    6.20
   4   2   4   99.94   28.72
   4   2   4   72.35    6.31
   4   2   4   82.45   27.24
   5   2   4   -2.24    1.72
   5   2   4    0.41    1.71
  -6  -2  -4   14.75    3.21
   6   2   4    8.50    2.67
   6   2   4    9.85    2.76
   8  -3  -4   -1.25    2.59
  -8   3   4    1.47    2.95
   7  -3  -4  -22.66   33.64
   7  -3  -4    8.02    2.66
  -7   3   4   -2.12   37.21
  -7   3   4    1.44    2.67
   6  -3  -4   73.34    6.39
   6  -3  -4  105.48   31.81
  -6   3   4   82.56   32.38
  -6   3   4   72.43    6.87
   5  -3  -4    0.13    1.51
   5  -3  -4    4.37    1.86
   5  -3  -4    4.87   16.06
  -5   3   4  -12.89   18.27
  -5   3   4   -2.17    1.78
   4  -3  -4  114.90    7.79
   4  -3  -4  123.24   22.93
   4  -3  -4  115.85    8.01
  -4   3   4   95.26    7.77
  -4   3   4  103.26   22.44
  -4   3   4  105.49    8.07
   3  -3  -4   37.53    3.11
   3  -3  -4   29.74   10.63
  -3   3   4   19.09   11.29
  -3   3   4   35.53    3.24
  -3   3   4   35.43    3.18
   2  -3  -4  632.33   49.79
   2  -3  -4  663.05   42.58
  -2   3   4  649.34   51.88
  -2   3   4  657.89   42.68
  -2   3   4  636.30   42.66
   1  -3  -4  586.63   47.47
   1  -3  -4  639.34   40.63
   1  -3  -4  585.06   40.52
  -1   3   4  594.54   40.66
  -1   3   4  699.07   48.75
  -1   3   4  639.22   40.56
   0  -3  -4  339.81   22.68
   0  -3  -4  320.70   31.63
   0  -3  -4  317.38   22.81
   0   3   4  354.06   30.70
   0   3   4  354.10   22.73
   0   3   4  350.14   22.93
   0   3   4  361.15   22.67
  -1  -3  -4   97.73   18.74
  -1  -3  -4   69.48    4.70
  -1  -3  -4   68.20    5.03
   1   3   4   73.54   14.19
   1   3   4   65.27    5.11
   1   3   4   57.22    4.81
  -2  -3  -4  280.35   19.80
   2   3   4  295.15   19.73
   2   3   4  349.39   34.50
   3   3   4   18.63   20.10
   3   3   4   34.02   18.11
   4   3   4   12.64   23.60
   5   3   4    2.71    2.10
   5   3   4    3.57    2.26
   6   3   4   20.00    3.56
   6   3   4   18.19    3.64
   7  -4  -4   13.03    2.94
   7  -4  -4   44.66   31.72
  -7   4   4   12.07    3.35
   6  -4  -4  276.25   44.35
  -6   4   4  151.61   38.08
  -6   4   4  244.45   17.24
   5  -4  -4   41.05   16.74
  -5   4   4   32.99   24.14
  -5   4   4   46.61    4.75
   4  -4  -4   20.97   13.66
   4  -4  -4   23.41    2.39
   4  -4  -4   23.74    2.56
  -4   4   4   18.32    2.79
  -4   4   4   27.04    2.64
  -4   4   4   15.13   14.22
   3  -4  -4   59.82    4.66
   3  -4  -4   68.43    4.84
   3  -4  -4   54.41   12.66
  -3   4   4   59.02   16.35
  -3   4   4   61.36    4.91
  -3   4   4   64.39    5.00
   2  -4  -4  186.11   12.16
   2  -4  -4  186.78   20.21
   2  -4  -4  171.84   12.02
  -2   4   4  186.25   12.18
  -2   4   4  171.97   12.21
  -2   4   4  163.10   22.56
   1  -4  -4   10.81    8.56
   1  -4  -4   11.31    1.34
   1  -4  -4    9.73    1.45
  -1   4   4   13.54    1.83
  -1   4   4   16.08    9.02
  -1   4   4   15.55    1.58
   0  -4  -4  204.95   14.96
   0  -4  -4  180.92   24.48
   0  -4  -4  227.91   14.95
   0   4   4  237.62   14.93
   0   4   4  222.20   15.14
   0   4   4  244.98   24.75
  -1  -4  -4  136.74   24.74
  -1  -4  -4  182.76   12.37
  -1  -4  -4  176.18   12.58
   1   4   4  191.68   26.08
   1   4   4  181.91   12.49
   1   4   4  194.96   12.80
  -2  -4  -4   32.84    3.26
   2   4   4    6.66   16.45
   2   4   4   31.37    3.28
   2   4   4   48.94   17.88
  -3  -4  -4   29.98    3.40
   3   4   4   50.10   22.52
   3   4   4   26.86    3.34
   4   4   4   80.78    7.36
   4   4   4   96.46    7.54
   4   4   4  203.17   41.55
   5   4   4    2.12    2.51
   5   4   4    5.59    2.56
  -7   5   4    6.69    3.09
   6  -5  -4  107.43    8.38
   6  -5  -4  109.95   30.50
  -6   5   4  117.86    9.29
  -6   5   4  101.89   34.44
   5  -5  -4   64.61    5.43
   5  -5  -4   38.77   19.27
  -5   5   4   68.54    6.02
  -5   5   4   71.27   25.48
   4  -5  -4   58.33    4.84
   4  -5  -4   72.45   16.93
  -4   5   4   33.86   18.22
  -4   5   4   59.92    5.18
   3  -5  -4   30.28    2.67
   3  -5  -4   23.15   10.20
   3  -5  -4   19.38    2.04
  -3   5   4   23.16    2.68
  -3   5   4   13.66   12.95
  -3   5   4   25.61    2.67
   2  -5  -4   41.46    3.40
   2  -5  -4   37.00    2.96
   2  -5  -4   49.43   12.58
  -2   5   4   37.09    3.50
  -2   5   4   43.53    3.34
  -2   5   4   28.00   12.43
   1  -5  -4    1.07    1.07
   1  -5  -4    0.97    0.66
   1  -5  -4    8.61    8.75
  -1   5   4    0.72    1.15
  -1   5   4    2.43    0.92
  -1   5   4   -2.09    8.55
   0  -5  -4    1.25    0.86
   0  -5  -4   -0.03    0.88
   0  -5  -4   -0.30   11.14
   0   5   4    0.65    0.88
   0   5   4    0.16    1.16
   0   5   4    6.96    9.84
  -1  -5  -4   49.01   18.24
  -1  -5  -4   48.26    3.96
  -1  -5  -4   51.08    3.92
   1   5   4   42.70    3.94
   1   5   4   45.17   16.04
   2   5   4   -7.65   15.40
   2   5   4    4.22    1.63
   3   5   4  103.35   29.39
   3   5   4  113.32    8.77
   4   5   4   42.42   36.52
   5   5   4    5.73    2.71
   5   5   4    1.57    2.37
   7  -6  -4   22.94    3.55
  -7   6   4   24.48    4.30
   6  -6  -4   43.78    4.59
   6  -6  -4   62.48   26.48
  -6   6   4   48.24    5.33
   5  -6  -4  101.94   24.41
   5  -6  -4   88.45    7.13
  -5   6   4   77.98   26.46
  -5   6   4   94.40    7.52
   4  -6  -4   -2.71   11.51
   4  -6  -4    1.39    1.65
  -4   6   4   -0.29   16.44
  -4   6   4    2.45    1.81
   3  -6  -4   11.99   11.16
   3  -6  -4   20.01    2.74
  -3   6   4   23.45    2.66
  -3   6   4    3.69   14.50
   2  -6  -4    6.97    1.69
   2  -6  -4   -5.21    9.34
  -2   6   4    7.35    1.45
  -2   6   4    2.74   13.08
  -2   6   4    2.79    1.55
   1  -6  -4   38.16   13.52
   1  -6  -4   36.26    3.43
  -1   6   4   42.26    3.26
  -1   6   4   33.95   13.02
  -1   6   4   30.61    3.87
   0  -6  -4  308.10   20.56
   0  -6  -4  295.05   35.85
   0   6   4  295.06   32.78
  -1  -6  -4  154.80   10.67
   1   6   4  178.47   27.58
   1   6   4  146.57   10.70
   2   6   4   36.59    3.94
   2   6   4   18.84   21.66
   3   6   4   -1.34   26.96
   4   6   4    7.90    2.66
   4   6   4    6.79    2.92
   6  -7  -4   16.93    3.04
  -6   7   4   15.30    3.29
   5  -7  -4    3.64    1.98
   5  -7  -4   -1.13   16.60
  -5   7   4    5.82    2.39
   4  -7  -4   55.98    5.29
   4  -7  -4   85.84   17.82
  -4   7   4   64.92    5.33
  -4   7   4   33.53   21.49
   3  -7  -4   39.41    4.04
   3  -7  -4   21.15   14.42
  -3   7   4   46.34    3.92
  -3   7   4    3.87   17.11
   2  -7  -4   -8.58   12.83
   2  -7  -4    2.78    1.68
  -2   7   4    0.74    1.22
  -2   7   4    3.09   14.49
   1  -7  -4    6.31   14.72
  -1   7   4   20.29   14.60
   0  -7  -4   65.70    5.13
   0  -7  -4   17.69   20.37
   0   7   4   56.60    4.83
   0   7   4   47.86   17.90
   1   7   4   30.37   19.01
   2   7   4   20.79    3.20
   3   7   4   -0.72    2.02
   6  -8  -4    2.09    2.39
  -6   8   4    3.87    2.71
   5  -8  -4    5.04    2.34
  -5   8   4    0.31    2.04
   4  -8  -4    6.19   18.58
   4  -8  -4   10.24    2.52
  -4   8   4   11.40    2.33
   3  -8  -4   -7.62   17.33
   3  -8  -4   11.74    2.59
  -3   8   4   12.57    2.13
  -3   8   4   11.73   21.58
   2  -8  -4    9.30   18.11
  -2   8   4   27.69   19.34
   1  -8  -4   16.38   20.39
  -1   8   4   13.77   18.47
   0  -8  -4   61.10    5.35
   0   8   4   65.73    5.32
   1   8   4   14.52    2.63
   2   8   4   15.27    2.99
   4  -9  -4    6.34    2.49
  -4   9   4    5.04    2.05
   3  -9  -4   13.65    2.81
  -3   9   4    9.26    2.06
   2  -9  -4    0.83    1.91
  -2   9   4    0.16    1.53
   1  -9  -4    3.09    2.10
  -1   9   4   -0.06    1.55
   0  -9  -4   23.04    3.30
   0   9   4   25.02    3.23
   1  10  -5   -3.41    2.26
   1  10  -5   -2.86    1.32
   0  10  -5   22.39    3.99
   0  10  -5   25.53    2.74
  -1  10  -5    8.09    1.25
   1 -10   5    7.96    2.35
  -2  10  -5    3.98    0.63
   2 -10   5    2.96    1.97
  -3  10  -5    1.08    0.53
  -3  10  -5    1.95    0.51
   3 -10   5    3.51    2.00
   3   9  -5    3.08    2.20
   3   9  -5   -0.56    2.61
   2   9  -5    1.81    1.79
   2   9  -5   -2.80    2.15
   1   9  -5    8.07   12.26
   1   9  -5   22.11    3.79
   1   9  -5   21.43    2.74
   0   9  -5   17.25    3.22
   0   9  -5   16.24    1.96
  -1   9  -5   57.60    4.15
  -1   9  -5   58.26    4.14
   1  -9   5   59.23    5.12
   2  -9   5   35.46    3.78
  -3   9  -5    5.48    0.81
  -3   9  -5    4.10    0.83
   3  -9   5    6.15    2.01
  -4   9  -5   13.64    1.86
   4  -9   5   17.50    2.75
  -5   9  -5   14.53    2.30
   5  -9   5   17.86    2.97
   4   8  -5    1.80    2.42
   4   8  -5    4.47    3.07
   3   8  -5    2.10    1.90
   3   8  -5    0.80    2.40
   2   8  -5   -3.15   17.32
   2   8  -5    9.52    2.15
   2   8  -5    4.45    2.55
   1   8  -5   10.18    2.65
   1   8  -5    9.60    1.78
   1   8  -5   14.44   11.76
   0   8  -5   41.72    3.40
   0  -8   5   48.00    4.12
  -1   8  -5   51.16    3.64
  -1   8  -5   50.77    3.61
   1  -8   5   61.85    4.68
   2  -8   5    3.61    1.68
  -3   8  -5    9.50    1.23
  -3   8  -5   13.26    1.34
   3  -8   5   15.86    2.50
   4  -8   5    3.27    1.59
  -5   8  -5   11.42    2.11
   5  -8   5   10.29    2.19
   5  -8   5   11.43   11.30
   5   7  -5   16.06    3.46
   5   7  -5   10.27    3.33
   4   7  -5    0.67    2.39
   4   7  -5    1.31    2.08
   3   7  -5   17.54   18.89
   3   7  -5   37.18    4.70
   3   7  -5   39.92    4.23
   2   7  -5   12.61    2.88
   2   7  -5   21.79   15.23
   2   7  -5   13.23    2.26
   1   7  -5   10.69   10.09
   1   7  -5    3.53    1.23
   1   7  -5    8.89    2.35
   1   7  -5    0.26   11.14
   1   7  -5    3.70    1.12
   0   7  -5    2.93    0.83
   0   7  -5    2.54    0.78
   0  -7   5   -0.04    1.23
   1  -7   5  247.08   16.83
   2  -7   5   64.35    5.19
  -3   7  -5   14.68    1.70
  -3   7  -5   21.55    1.77
   3  -7   5   17.26    2.37
  -4   7  -5    1.00    1.06
   4  -7   5    2.14    1.57
   4  -7   5   11.99    9.81
   4  -7   5    2.91    7.61
   5  -7   5    1.27    1.52
   5  -7   5  -20.67   18.36
  -6   7  -5   20.29    3.31
   6  -7   5   23.59    3.04
   5   6  -5    2.97    2.32
   5   6  -5    2.26    2.57
   4   6  -5   22.07    3.78
   4   6  -5   33.68    4.04
   3   6  -5   22.20    3.50
   3   6  -5   22.07    3.17
   2   6  -5   26.88    2.61
   2   6  -5   19.49    2.67
   2   6  -5   26.34    3.48
   2   6  -5   43.03   16.08
  -2  -6   5   18.82   17.66
   1   6  -5   58.67    4.59
   1   6  -5   58.40    4.59
   1   6  -5   67.41   14.49
   1   6  -5   67.01    5.31
  -1  -6   5   69.31   16.09
   0   6  -5  114.56    8.18
   0   6  -5  136.70   11.77
   0   6  -5  134.66   10.88
   0   6  -5  117.26    8.21
   0   6  -5  120.34    8.85
   0  -6   5  130.12    8.64
   1  -6   5    0.42    1.02
  -2   6  -5    3.33    0.56
  -2   6  -5    3.02    0.59
   2  -6   5    4.92    1.38
  -3   6  -5  108.08    7.98
  -3   6  -5  117.05    8.05
   3  -6   5  126.27   15.19
   3  -6   5  117.31   12.24
   3  -6   5  124.72    8.33
  -4   6  -5    1.74    1.16
   4  -6   5   12.32   15.36
   4  -6   5    4.93    1.50
   4  -6   5    4.36   13.62
  -5   6  -5    4.23    1.86
   5  -6   5    7.17    1.76
   5  -6   5   13.60   23.65
   6  -6   5   -3.42    1.30
   6   5  -5   -1.04    2.20
   6   5  -5   -1.06    2.37
   5   5  -5    8.51    2.70
   5   5  -5    8.27    3.04
   4   5  -5   26.68    3.64
   4   5  -5   32.36    4.30
   3   5  -5    6.46    1.88
   3   5  -5    7.83    2.28
   3   5  -5   10.11   15.02
  -3  -5   5   37.95   24.04
   2   5  -5   -0.62    1.28
   2   5  -5   -0.52    1.07
   2   5  -5    0.32    0.89
   2   5  -5    1.96   12.03
  -2  -5   5   -0.55   13.04
  -2  -5   5    0.33    0.49
   1   5  -5   63.09    4.76
   1   5  -5   90.18   14.23
   1   5  -5   66.56    5.27
   1   5  -5   64.27    4.80
  -1  -5   5   96.82   17.59
   0   5  -5  197.53   13.32
   0   5  -5  212.35   15.98
   0   5  -5  185.78   12.85
   0   5  -5  186.31   12.77
   0  -5   5  211.49   18.33
   0  -5   5  197.95   13.15
  -1   5  -5   56.17    3.95
  -1   5  -5   60.56    3.93
   1  -5   5   62.55    4.44
  -2   5  -5  363.43   25.18
  -2   5  -5  394.76   25.21
   2  -5   5  327.22   29.21
   2  -5   5  410.79   25.48
   2  -5   5  408.57   27.97
  -3   5  -5    0.21    0.79
  -3   5  -5   -0.15    0.81
  -3   5  -5    1.36    0.81
   3  -5   5    2.80    1.14
   3  -5   5   -2.45    7.20
   3  -5   5  -10.57    9.70
  -4   5  -5    0.79    1.23
  -4   5  -5    3.31    1.26
   4  -5   5    1.12   13.76
   4  -5   5    3.57   16.14
   4  -5   5    3.14    1.25
  -5   5  -5    0.07    1.55
   5  -5   5   -1.39    1.17
   5  -5   5    2.39   25.16
   6  -5   5    9.08   36.88
  -7   5  -5   19.62    3.77
   7  -5   5   19.39    2.81
   7   4  -5    9.48    3.35
   6   4  -5   -1.22    2.23
   6   4  -5    3.30    2.87
   5   4  -5   20.21    3.49
   4   4  -5  169.05   12.22
   4   4  -5  142.81   34.40
   4   4  -5  153.94   11.94
  -4  -4   5  174.18   11.85
   3   4  -5   34.76   17.96
   3   4  -5   26.90    3.30
   3   4  -5   30.57    2.83
  -3  -4   5    0.62   15.30
  -3  -4   5   25.92    2.65
   2   4  -5   47.25   15.34
   2   4  -5   51.56    4.34
   2   4  -5   60.07    4.77
   2   4  -5   56.59    4.45
  -2  -4   5   62.70   18.22
  -2  -4   5   56.52    4.03
   1   4  -5 1680.00  109.60
   1   4  -5 1732.56  109.87
   1   4  -5 1585.61  116.41
   1   4  -5 1648.34  109.54
  -1  -4   5 1772.18  119.02
   0   4  -5   13.26    1.34
   0   4  -5   14.49    1.16
   0   4  -5   15.40    1.77
   0   4  -5   10.88    4.49
   0  -4   5   11.45    6.08
   0  -4   5   12.49    1.48
  -1   4  -5   95.75    6.49
  -1   4  -5   99.33    6.54
  -1   4  -5   96.47    6.69
  -1   4  -5   97.61    6.70
  -1   4  -5   90.98   10.33
   1  -4   5  102.87   10.35
  -2   4  -5  388.06   25.76
  -2   4  -5  394.60   25.75
   2  -4   5  419.30   30.74
   2  -4   5  357.47   32.77
  -3   4  -5   48.45    3.83
  -3   4  -5   45.07    3.74
  -3   4  -5   45.19    3.31
   3  -4   5   28.40   14.01
   3  -4   5   56.75    3.69
   3  -4   5   55.57   12.23
  -4   4  -5   -1.23    1.05
  -4   4  -5    0.49    1.02
   4  -4   5   -2.23    0.93
   4  -4   5   -2.60   13.35
   4  -4   5    7.06   16.76
  -5   4  -5    7.29    2.10
   5  -4   5  -16.94   23.45
   6  -4   5   14.77   36.37
  -7   4  -5    1.02    2.52
   7  -4   5   -3.58    1.55
   7   3  -5    0.65    2.94
   7   3  -5    2.43    2.73
   6   3  -5    4.05    2.52
   6   3  -5    4.52    2.44
  -6  -3   5    5.00    2.56
   5   3  -5  554.47   37.52
   5   3  -5  557.02   37.47
   4   3  -5   63.13   22.63
   4   3  -5   70.45    6.11
   4   3  -5   79.18    6.37
  -4  -3   5   97.53   26.96
  -4  -3   5   74.78    6.00
   3   3  -5  168.49   11.86
   3   3  -5  100.50   23.36
   3   3  -5  168.87   11.98
   3   3  -5  161.99   11.76
  -3  -3   5  186.35   11.74
  -3  -3   5  128.97   27.26
   2   3  -5 1279.96   82.42
   2   3  -5 1133.78   82.32
   2   3  -5 1316.12   82.57
   2   3  -5 1368.18   94.15
   1   3  -5  549.61   40.01
   1   3  -5  488.39   32.67
   1   3  -5  456.87   32.49
   1   3  -5  499.81   32.62
   1   3  -5  487.40   32.74
  -1  -3   5  506.38   41.07
  -1  -3   5  539.21   32.37
  -1  -3   5  478.97   32.71
   0   3  -5   73.68    4.74
   0   3  -5   71.76    8.66
   0   3  -5   67.99    4.96
   0   3  -5   67.44    4.87
   0   3  -5   69.22    4.87
   0  -3   5   70.61   10.19
  -1   3  -5   55.99    3.76
  -1   3  -5   50.34    3.69
  -1   3  -5   51.58    8.37
  -1   3  -5   52.68    3.75
  -1   3  -5   55.81    3.86
   1  -3   5   52.92    3.79
   1  -3   5   63.18    8.59
  -2   3  -5  476.46   30.18
  -2   3  -5  472.97   30.13
   2  -3   5  463.26   36.68
   2  -3   5  475.16   38.96
   2  -3   5  486.80   29.99
   2  -3   5  391.50   29.87
  -3   3  -5   17.97    2.03
  -3   3  -5   16.39    2.10
   3  -3   5    9.47   12.08
   3  -3   5   19.62    1.81
   3  -3   5   22.16    1.80
   3  -3   5   18.33   10.53
  -4   3  -5    7.78    1.80
  -4   3  -5    8.69    1.71
   4  -3   5    8.05    1.29
   4  -3   5    4.25   17.13
   4  -3   5    7.30    1.37
   4  -3   5   23.01   16.15
  -5   3  -5   73.38    6.26
   5  -3   5   48.18   26.44
   5  -3   5   75.07    5.38
  -6   3  -5   -0.22    1.92
   6  -3   5  -58.55   34.73
   7   2  -5   30.11    4.55
   7   2  -5   29.22    4.67
  -7  -2   5   29.57    4.78
   6   2  -5    1.14    2.20
   6   2  -5   -0.37    1.90
  -6  -2   5   -3.95    1.84
   5   2  -5   45.56    5.01
   5   2  -5   57.71    5.36
   5   2  -5   54.82   26.73
  -5  -2   5   44.30   27.45
  -5  -2   5   57.21    5.37
   4   2  -5    1.43    1.63
   4   2  -5  -23.23   14.46
   4   2  -5    4.98    1.87
  -4  -2   5    7.46    1.86
  -4  -2   5    5.76   17.73
   3   2  -5  344.82   35.48
   3   2  -5  307.18   20.37
   3   2  -5  254.71   20.15
   3   2  -5  311.50   20.33
  -3  -2   5  325.14   20.28
  -3  -2   5  288.43   34.86
   2   2  -5  383.41   24.26
   2   2  -5  367.83   24.16
   2   2  -5  323.48   24.05
   2   2  -5  410.61   35.01
  -2  -2   5  372.27   24.02
  -2  -2   5  347.29   34.59
   1   2  -5   90.15    6.12
   1   2  -5   95.93   13.63
   1   2  -5   85.11    5.93
  -1  -2   5   81.42    5.93
  -1  -2   5   88.34    6.08
   0   2  -5 1293.30   81.86
   0  -2   5 1118.69   76.96
   0  -2   5 1335.48   82.42
   0  -2   5 1067.17   76.92
  -1   2  -5   96.73    6.33
  -1   2  -5  101.80    6.14
  -1   2  -5   97.48   12.27
   1  -2   5   90.96    6.31
   1  -2   5   90.01    6.15
   1  -2   5   96.64   11.77
   1  -2   5   80.91    6.26
  -2   2  -5  352.15   23.50
  -2   2  -5  334.31   31.48
  -2   2  -5  358.32   23.43
   2  -2   5  353.24   34.47
   2  -2   5  356.76   23.12
  -3   2  -5  115.13    7.97
  -3   2  -5  115.89    8.12
   3  -2   5  111.30    7.45
   3  -2   5  105.91    7.88
   3  -2   5  126.07   24.28
  -4   2  -5   18.56    2.12
  -4   2  -5   14.75    2.40
   4  -2   5   15.18    1.69
   4  -2   5    5.65   17.56
   4  -2   5   14.99    2.14
   4  -2   5    8.00   15.43
  -5   2  -5    4.49    1.94
   5  -2   5   -8.31   23.16
  -6   2  -5    5.27    2.28
   6  -2   5    1.37   32.04
  -7   2  -5    3.42    2.78
   7   1  -5   10.14    2.96
   7   1  -5    5.86    2.86
  -7  -1   5    3.22    2.86
   6   1  -5    7.66   29.11
   6   1  -5   25.65    3.79
   6   1  -5   25.05    3.68
  -6  -1   5   23.18    3.77
   5   1  -5   20.14   20.75
   5   1  -5    3.52    1.97
   5   1  -5    4.47    1.94
  -5  -1   5    1.27   21.03
  -5  -1   5    2.02    2.02
   4   1  -5   72.78    5.66
   4   1  -5   63.30   20.61
   4   1  -5   67.46    5.53
  -4  -1   5   64.26    5.58
  -4  -1   5   74.00   22.73
   3   1  -5   15.73    2.16
   3   1  -5   14.21    1.91
   3   1  -5   26.69   13.00
   3   1  -5   12.09    1.91
  -3  -1   5   16.07    2.14
  -3  -1   5   17.24   11.72
   2   1  -5  471.45   34.89
   2   1  -5  612.46   45.51
   2   1  -5  549.94   35.01
   2   1  -5  614.00   35.11
  -2  -1   5  502.40   34.97
  -2  -1   5  495.56   34.91
  -2  -1   5  568.15   46.08
  -2  -1   5  520.26   34.91
   1   1  -5   93.62    6.80
   1   1  -5  111.76    7.00
   1   1  -5  100.68   12.26
   1   1  -5  102.64    6.91
  -1  -1   5   89.52   13.92
  -1  -1   5  109.14    6.82
  -1  -1   5   95.59    6.87
  -1  -1   5   90.28    6.87
   0   1  -5   14.33    1.57
   0   1  -5   19.59    5.52
   0   1  -5   17.81    1.40
   0   1  -5   16.72    1.40
   0  -1   5   14.92    1.38
   0  -1   5   14.35    1.33
   0  -1   5   14.94    1.51
   0  -1   5    1.66    3.41
  -1   1  -5  277.50   17.67
  -1   1  -5  283.76   25.29
   1  -1   5  260.13   17.67
   1  -1   5  234.08   17.66
   1  -1   5  288.62   17.44
  -2   1  -5  235.84   16.15
  -2   1  -5  205.53   25.34
  -2   1  -5  266.28   16.10
   2  -1   5  222.85   16.03
   2  -1   5  255.04   25.27
   2  -1   5  235.59   15.73
  -3   1  -5   30.04    2.90
  -3   1  -5   28.18    2.69
   3  -1   5   28.28   14.11
   3  -1   5   37.29   12.70
   3  -1   5   26.70    2.37
   3  -1   5   30.43    2.97
  -4   1  -5  507.52   35.47
   4  -1   5  551.51   53.88
   4  -1   5  522.41   35.33
   4  -1   5  550.19   34.94
   4  -1   5  547.55   55.74
   5  -1   5  -13.95   24.08
   6  -1   5    2.07    1.59
   6  -1   5   -9.88   40.10
  -7   1  -5    2.43    2.85
   8   0  -5    0.06    2.76
  -8   0   5    4.89    3.26
   7   0  -5    9.40    2.87
   7   0  -5    5.34    2.65
  -7   0   5    3.52    2.75
   6   0  -5  -40.33   24.54
   6   0  -5    9.87    2.45
  -6   0   5   -5.67   29.80
  -6   0   5    6.43    2.67
   5   0  -5   40.91   20.73
   5   0  -5   29.70    3.70
   5   0  -5   28.63    3.41
  -5   0   5   24.70    3.66
  -5   0   5   10.86   25.83
   4   0  -5    3.12    1.48
   4   0  -5   17.09   13.53
   4   0  -5    2.11    1.78
  -4   0   5    6.68   15.80
  -4   0   5    0.91    1.45
   3   0  -5  141.05   22.84
   3   0  -5  135.77    8.67
   3   0  -5  122.02    8.57
  -3   0   5  101.47   22.00
  -3   0   5   98.65    9.17
   2   0  -5   53.50   11.85
   2   0  -5   29.74    2.81
   2   0  -5   40.16    3.12
  -2   0   5   36.20    2.94
  -2   0   5   44.77   12.03
  -2   0   5   35.71    2.94
  -2   0   5   34.88    2.96
   1   0  -5  127.70   14.30
   1   0  -5  139.71    8.81
   1   0  -5  115.18    8.70
   1   0  -5  148.08    8.93
  -1   0   5  126.98    8.73
  -1   0   5  128.23    8.86
  -1   0   5  123.85    8.78
  -1   0   5  115.15   14.49
   0   0  -5   70.33   11.51
   0   0  -5   78.74    5.35
   0   0  -5   78.39    5.16
   0   0   5   65.13    5.11
   0   0   5   73.17    5.28
   0   0   5   75.04   11.71
   0   0   5   75.30    5.12
  -1   0  -5    2.24    0.89
  -1   0  -5    3.40    5.62
  -1   0  -5    1.48    0.99
   1   0   5   -1.55    5.17
   1   0   5    2.14    1.00
   1   0   5    2.48    0.92
  -2   0  -5   57.08    3.98
  -2   0  -5   44.49   13.41
  -2   0  -5   45.95    4.03
   2   0   5   51.41    3.41
   2   0   5   26.91   11.86
   2   0   5   46.35    3.95
  -3   0  -5    4.43    1.51
   3   0   5    3.42    1.14
   3   0   5    0.99    1.35
   3   0   5    0.81   13.06
   3   0   5    2.81   11.67
  -4   0  -5    5.55    1.94
   4   0   5    3.34   18.09
   4   0   5    4.56    1.53
   4   0   5   -3.25   17.47
  -5   0  -5   56.42    5.74
   5   0   5   82.93   33.39
   5   0   5   63.24    5.13
   6   0   5   48.81   39.37
  -7   0  -5    3.69    3.07
   8  -1  -5    0.97    2.71
  -8   1   5    5.17    3.25
   7  -1  -5    6.67    2.63
   7  -1  -5  -27.11   36.05
  -7   1   5    4.16    2.79
  -7   1   5  -58.38   47.09
   6  -1  -5   38.18    4.28
   6  -1  -5   74.95   29.48
   6  -1  -5   41.22    4.71
  -6   1   5   41.58   31.83
  -6   1   5   32.66    4.66
   5  -1  -5  244.44   37.90
   5  -1  -5  213.40   15.00
  -5   1   5  221.18   40.25
  -5   1   5  212.27   15.27
   4  -1  -5    8.55    1.88
   4  -1  -5   14.98   13.11
   4  -1  -5    6.89    1.70
  -4   1   5  -11.92   12.70
  -4   1   5    7.35    1.89
   3  -1  -5   23.66    2.53
   3  -1  -5   23.45    2.64
   3  -1  -5    7.40   10.05
  -3   1   5   33.85   14.10
  -3   1   5   21.38    2.52
  -3   1   5   23.10    2.30
   2  -1  -5   11.55    1.43
   2  -1  -5   16.44    1.90
   2  -1  -5    8.90    7.14
  -2   1   5    6.08    7.71
  -2   1   5   12.53    1.82
  -2   1   5   14.11    1.79
   1  -1  -5  512.99   37.74
   1  -1  -5  610.12   37.94
   1  -1  -5  616.96   44.75
  -1   1   5  586.16   44.97
  -1   1   5  620.48   37.81
  -1   1   5  546.87   37.81
  -1   1   5  573.80   37.89
   0  -1  -5   96.26    6.34
   0  -1  -5   91.09    6.72
   0  -1  -5  103.51    6.58
   0  -1  -5  101.28   14.63
   0   1   5   91.40   14.29
   0   1   5   98.76    6.56
   0   1   5   83.55    6.66
  -1  -1  -5  257.64   26.94
  -1  -1  -5  301.59   17.78
  -1  -1  -5  261.73   17.89
   1   1   5  258.61   17.74
   1   1   5  242.34   17.83
   1   1   5  267.93   17.41
   1   1   5  260.76   26.02
  -2  -1  -5  339.20   22.78
  -2  -1  -5  318.05   34.59
   2   1   5  348.31   34.83
   2   1   5  336.22   22.07
  -3  -1  -5   60.61    5.01
   3   1   5   89.44   23.86
   3   1   5   56.41    4.69
   3   1   5   44.84   17.73
   3   1   5   62.00    4.19
   3   1   5   56.55    4.88
  -4  -1  -5   35.39    4.07
   4   1   5   45.94    4.24
   4   1   5   37.13    3.85
   4   1   5   35.44   23.64
   4   1   5   44.22   23.27
  -5  -1  -5   90.09    7.51
   5   1   5   86.76    7.45
   5   1   5   64.29   35.20
   5   1   5   89.52    7.14
   6   1   5    3.00    1.98
   6   1   5    2.48    2.16
   8  -2  -5   22.10    4.12
  -8   2   5   20.37    4.32
   7  -2  -5   14.81   38.07
   7  -2  -5   42.52    5.06
  -7   2   5   45.19    5.44
  -7   2   5   44.81   38.83
   6  -2  -5  159.17   36.23
   6  -2  -5  136.70   10.68
   6  -2  -5  162.32   10.76
  -6   2   5  110.10   38.38
  -6   2   5  130.99   11.02
   5  -2  -5   28.49   19.97
   5  -2  -5   33.82    3.65
   5  -2  -5   33.26    3.72
  -5   2   5   32.66    3.88
  -5   2   5   -8.21   20.43
   4  -2  -5  155.61   10.19
   4  -2  -5  144.50   25.12
   4  -2  -5  143.74   10.20
  -4   2   5  152.84   10.42
  -4   2   5   94.97   24.05
  -4   2   5  125.94   10.03
   3  -2  -5  316.01   20.37
   3  -2  -5  312.61   20.30
   3  -2  -5  302.69   31.05
  -3   2   5  250.81   30.96
  -3   2   5  270.27   20.24
  -3   2   5  325.01   20.47
   2  -2  -5  360.07   24.03
   2  -2  -5  363.99   31.86
  -2   2   5  374.69   24.04
  -2   2   5  353.67   24.04
  -2   2   5  347.67   33.16
   1  -2  -5   11.92    1.31
   1  -2  -5   10.50    1.57
   1  -2  -5    3.28    5.41
  -1   2   5   11.84    1.42
  -1   2   5   11.50    1.65
  -1   2   5    2.58    5.88
   0  -2  -5  182.43   12.25
   0  -2  -5  169.95   11.89
   0  -2  -5  208.67   21.20
   0   2   5  191.69   12.11
   0   2   5  174.74   12.25
   0   2   5  154.60   18.98
   0   2   5  178.89   11.88
  -1  -2  -5    1.22    0.99
  -1  -2  -5    1.34    0.57
  -1  -2  -5    9.53    8.53
   1   2   5    0.36    0.86
   1   2   5    1.34    7.50
   1   2   5   -0.14    1.04
   1   2   5    1.38    0.56
  -2  -2  -5   36.82   14.71
   2   2   5   24.71   13.29
   2   2   5   32.55    2.41
   2   2   5   29.18    2.97
  -3  -2  -5   13.74    2.38
   3   2   5    6.79    1.88
   3   2   5   -9.82   16.47
   3   2   5   33.02   17.51
  -4  -2  -5   61.67    5.58
   4   2   5   84.36   29.12
   4   2   5   99.55   29.08
   4   2   5   58.13    5.34
   4   2   5   64.95    5.66
   5   2   5    9.46    2.55
   5   2   5    9.49    2.70
   6   2   5   -1.25    2.24
   6   2   5   -1.17    1.92
   8  -3  -5    6.62    3.02
  -8   3   5    4.62    3.32
   7  -3  -5    8.57   33.00
   7  -3  -5    4.79    2.56
  -7   3   5   15.17   37.85
  -7   3   5   -1.17    2.49
   6  -3  -5   10.70    2.62
   6  -3  -5   20.70   22.44
  -6   3   5  -25.47   31.45
  -6   3   5   16.47    3.46
   5  -3  -5  101.43    7.45
   5  -3  -5  104.85   24.91
   5  -3  -5   99.15    7.67
  -5   3   5   86.35   27.10
  -5   3   5   90.71    7.80
   4  -3  -5  156.65   25.36
   4  -3  -5  136.87    9.61
   4  -3  -5  131.41    9.37
  -4   3   5  135.29    9.70
  -4   3   5  136.33   27.79
  -4   3   5  123.24    9.38
   3  -3  -5  136.30   20.06
   3  -3  -5  128.66    9.02
  -3   3   5  120.65    9.03
  -3   3   5   84.34   20.01
  -3   3   5  140.50    9.24
   2  -3  -5   14.88    1.75
   2  -3  -5   16.72    1.93
   2  -3  -5   18.57    8.28
  -2   3   5   16.56    1.96
  -2   3   5   12.59    1.85
  -2   3   5   11.39    9.17
   1  -3  -5  448.53   30.66
   1  -3  -5  477.52   39.25
   1  -3  -5  459.11   30.83
  -1   3   5  450.65   30.89
  -1   3   5  516.93   40.00
  -1   3   5  488.86   30.74
   0  -3  -5   83.59    5.77
   0  -3  -5   84.28    6.03
   0  -3  -5  109.08   18.62
   0   3   5   76.22    5.83
   0   3   5   83.57    6.10
   0   3   5   92.69   16.30
  -1  -3  -5   11.31    1.31
  -1  -3  -5   -2.61    9.96
  -1  -3  -5    9.12    1.63
   1   3   5    5.39    1.31
   1   3   5    8.64    9.82
   1   3   5    5.86    1.69
  -2  -3  -5   58.66   18.09
  -2  -3  -5   63.20    5.25
   2   3   5   57.90   19.56
   2   3   5   66.90    5.21
  -3  -3  -5   10.71    2.36
   3   3   5   10.53   19.48
   3   3   5    9.80    2.21
   3   3   5   35.47   20.28
  -4  -3  -5    7.70    2.33
   4   3   5    1.40    1.79
   4   3   5  -15.54   25.84
   4   3   5   11.19    2.61
   5   3   5   36.68    4.35
   5   3   5   24.49    3.99
   6   3   5    1.51    2.36
   6   3   5    4.91    2.71
   7  -4  -5   36.53   34.49
  -7   4   5   14.68    3.74
   6  -4  -5  -17.59   23.70
  -6   4   5   29.90   33.20
  -6   4   5   42.52    5.12
   5  -4  -5  348.12   41.87
  -5   4   5  210.51   40.88
  -5   4   5  367.91   23.84
   4  -4  -5   14.85   12.87
  -4   4   5   15.99   14.74
   3  -4  -5    0.88    1.09
   3  -4  -5   -1.56    9.73
  -3   4   5    1.35    1.31
  -3   4   5   -1.18    1.14
  -3   4   5    7.51   10.55
   2  -4  -5   21.59    2.21
   2  -4  -5   31.79   10.72
  -2   4   5   24.55    2.37
  -2   4   5   22.44    2.59
  -2   4   5   -2.06    9.95
   1  -4  -5  167.46   20.62
   1  -4  -5  175.41   11.28
   1  -4  -5  150.98   11.26
  -1   4   5  160.40   22.48
  -1   4   5  157.92   11.46
  -1   4   5  177.20   11.28
   0  -4  -5   69.44    5.00
   0  -4  -5   58.12    4.73
   0  -4  -5   64.09   13.93
   0   4   5   57.71   14.13
   0   4   5   66.48    4.84
   0   4   5   65.18    5.12
  -1  -4  -5   74.25    5.90
  -1  -4  -5   88.59   20.70
  -1  -4  -5   79.37    5.59
   1   4   5   81.11    6.14
   1   4   5   71.69   16.44
   1   4   5   73.02    5.78
  -2  -4  -5   47.54    4.20
   2   4   5   61.99   19.80
   2   4   5   44.02    4.16
   3   4   5   83.74    6.82
   3   4   5   90.60   28.66
   4   4   5    2.48    2.11
   4   4   5   38.82   31.90
   4   4   5   10.45    2.57
   5   4   5    7.34    2.62
   5   4   5   10.31    3.14
  -7   5   5   16.74    4.02
   6  -5  -5    8.19    2.31
   6  -5  -5  -20.84   20.75
  -6   5   5    9.61   30.53
  -6   5   5   11.14    3.10
   5  -5  -5   34.77   18.54
   5  -5  -5   15.74    2.57
  -5   5   5   -3.62   24.01
  -5   5   5   18.92    3.11
   4  -5  -5  318.46   21.61
   4  -5  -5  330.09   34.96
  -4   5   5  324.25   21.88
  -4   5   5  289.41   40.95
   3  -5  -5   66.43   16.67
   3  -5  -5  108.64    7.54
  -3   5   5  104.03    7.57
  -3   5   5   64.13   19.79
  -3   5   5  103.14    7.64
   2  -5  -5  115.17    8.26
   2  -5  -5  111.83   18.87
   2  -5  -5  107.82    8.03
  -2   5   5  127.56    8.27
  -2   5   5  101.40   19.91
  -2   5   5  116.55    8.43
   1  -5  -5   99.57    7.29
   1  -5  -5  115.42   20.68
   1  -5  -5   91.07    7.17
  -1   5   5  100.55   19.14
  -1   5   5   99.04    7.50
  -1   5   5  116.96    7.31
   0  -5  -5    6.26    1.45
   0  -5  -5    9.07   12.87
   0   5   5    7.15    1.46
   0   5   5    8.93   11.35
   0   5   5    2.68    1.69
  -1  -5  -5    6.74    1.50
  -1  -5  -5   15.16   14.36
  -1  -5  -5    5.10    1.54
   1   5   5    3.83   12.75
   1   5   5    2.71    1.50
   2   5   5  688.31   57.28
   2   5   5  476.35   33.57
   3   5   5  -25.87   24.57
   4   5   5  -31.93   37.48
   4   5   5    2.33    2.27
   4   5   5   -2.55    1.90
   7  -6  -5   -0.77    2.27
  -7   6   5    3.48    3.14
   6  -6  -5    6.74    2.41
   6  -6  -5    3.39   27.74
  -6   6   5    7.31    2.89
   5  -6  -5    0.88    1.70
   5  -6  -5    1.41   19.35
  -5   6   5   10.87   25.35
  -5   6   5    0.86    1.99
   4  -6  -5    3.76   13.78
   4  -6  -5   -0.78    1.55
  -4   6   5   19.15   19.91
   3  -6  -5    1.02   10.95
   3  -6  -5    4.60    1.71
  -3   6   5    5.62    1.68
  -3   6   5    3.52   15.08
   2  -6  -5    0.81   11.11
   2  -6  -5   -3.20    1.16
  -2   6   5    0.67    1.22
  -2   6   5   13.75   13.69
   1  -6  -5   12.64   15.59
   1  -6  -5   14.48    2.29
  -1   6   5   17.74    2.13
  -1   6   5    8.69   12.91
   0  -6  -5   13.27    2.11
   0  -6  -5    2.96   16.58
   0   6   5   14.49   13.58
   0   6   5   14.28    2.07
  -1  -6  -5  171.75   11.81
   1   6   5  173.17   28.17
   1   6   5  165.43   11.94
   2   6   5  205.61   14.63
   2   6   5  225.06   36.72
   3   6   5   41.53   34.82
   4   6   5   -2.29    2.04
   4   6   5    0.11    2.24
   6  -7  -5   16.88    3.17
  -6   7   5   16.54    3.59
   5  -7  -5    1.84   19.01
   5  -7  -5   15.29    2.85
  -5   7   5   16.87    3.17
   4  -7  -5   27.90    3.65
   4  -7  -5   48.13   17.74
  -4   7   5   18.47   23.67
  -4   7   5   33.14    3.74
   3  -7  -5    6.01   15.58
   3  -7  -5    7.51    2.04
  -3   7   5    5.49    1.80
  -3   7   5   -4.97   17.40
   2  -7  -5   17.59    2.79
   2  -7  -5   17.56   15.62
  -2   7   5   23.69    2.69
  -2   7   5   -7.92   17.31
   1  -7  -5  313.67   21.34
   1  -7  -5  226.51   36.69
  -1   7   5  323.84   21.16
  -1   7   5  341.97   37.57
   0  -7  -5   22.82   20.86
   0  -7  -5   34.69    3.54
   0   7   5   42.86   18.94
   0   7   5   33.58    3.49
  -1  -7  -5    1.94    1.48
   1   7   5    9.22   20.97
   1   7   5    4.17    1.81
   2   7   5   53.09    5.09
   3   7   5   -0.80    2.04
   5  -8  -5   -4.93    1.93
  -5   8   5   -0.12    2.18
   4  -8  -5    5.74    2.18
  -4   8   5    2.66    1.91
   3  -8  -5   52.97   23.66
   3  -8  -5   75.86    6.67
  -3   8   5   86.75    6.47
   2  -8  -5   -8.10   20.28
   2  -8  -5   -3.95    1.36
  -2   8   5   -1.50    1.35
   1  -8  -5   28.32   22.80
   0  -8  -5    7.83    2.09
   0   8   5   12.80    2.28
   1   8   5    2.19    1.90
   2   8   5   10.19    2.79
   4  -9  -5   13.88    3.12
  -4   9   5   18.19    2.91
   3  -9  -5    1.78    2.25
  -3   9   5   -1.02    1.71
   2  -9  -5    2.70    2.08
  -2   9   5    2.98    1.87
   1  -9  -5    5.74    2.26
  -1   9   5    1.73    1.82
   0  -9  -5    0.15    1.71
   0   9   5   -1.31    1.93
   1  10  -6    2.71    2.78
   1  10  -6    1.62    1.55
   0  10  -6    1.17    1.17
   0  10  -6    2.88    2.50
  -1  10  -6    8.63    2.78
  -1  10  -6   10.46    1.32
   1 -10   6    9.17    2.44
   2 -10   6    1.52    1.85
  -3  10  -6   20.11    1.50
  -3  10  -6   16.88    1.45
   3 -10   6   18.02    3.04
   3   9  -6    9.62    2.60
   3   9  -6    2.29    2.79
   2   9  -6   36.86    5.10
   2   9  -6   43.21    4.35
   1   9  -6    8.51   10.94
   1   9  -6    1.29    1.38
   1   9  -6    5.20    2.42
   0   9  -6   15.60    1.92
   0   9  -6   14.63    3.00
  -1   9  -6   56.08    4.05
   1  -9   6   58.94    5.05
   2  -9   6   37.93    3.88
  -3   9  -6   17.20    1.56
   3  -9   6   18.52    2.73
   4  -9   6    3.31    1.78
   4   8  -6   14.50    3.34
   4   8  -6   13.04    3.52
   3   8  -6    6.53    2.93
   3   8  -6    7.71    2.33
   2   8  -6    5.26    2.50
   2   8  -6    9.71    2.11
   2   8  -6    5.61   17.16
   1   8  -6   61.91   14.43
   1   8  -6   59.95    5.74
   1   8  -6   59.33    4.87
   1   8  -6   72.51   19.43
   0   8  -6   17.93    3.01
   0   8  -6   15.87    1.86
   0   8  -6   15.59    1.73
  -1   8  -6   49.73    3.38
  -1   8  -6   45.38    3.32
   1  -8   6   50.73    4.31
   2  -8   6   -0.68    1.48
  -3   8  -6   15.90    1.62
  -3   8  -6   14.17    1.53
   3  -8   6   15.68    2.42
  -4   8  -6    0.68    1.01
   4  -8   6   -1.22    1.31
   5  -8   6   25.87   14.09
   5  -8   6   48.57    4.45
   5   7  -6   -4.92    2.77
   5   7  -6    0.46    2.57
   4   7  -6    0.33    2.01
   4   7  -6   -0.46    2.63
   3   7  -6   42.60    4.91
   3   7  -6   38.43    4.30
   2   7  -6   53.47    5.36
   2   7  -6   54.15    4.75
   1   7  -6   14.57   10.40
   1   7  -6    6.84    9.85
   0   7  -6   68.20    4.85
   0   7  -6   73.98    5.76
   0   7  -6   63.95    4.78
  -1   7  -6  114.61    7.03
  -1   7  -6   96.24    7.07
   1  -7   6  109.66    7.77
  -2   7  -6    7.25    0.89
  -2   7  -6    7.13    0.83
   2  -7   6    6.87    1.61
  -3   7  -6   12.94    1.57
  -3   7  -6   12.29    1.47
   3  -7   6   11.15    1.93
   4  -7   6   15.83   12.10
  -5   7  -6    8.75    2.07
   5  -7   6   -8.29   22.31
   6  -7   6    7.49    2.04
   6   6  -6   28.24    4.88
   5   6  -6   -0.07    2.22
   5   6  -6    6.00    2.95
   4   6  -6   43.27    5.12
   4   6  -6   42.29    4.68
   3   6  -6   37.53    4.36
   3   6  -6   32.42    3.84
   2   6  -6   10.32   14.52
   2   6  -6   -1.95    1.62
   2   6  -6    0.93    1.31
   2   6  -6    2.59    1.09
  -2  -6   6  -15.00   18.11
   1   6  -6    1.36    8.18
   1   6  -6    2.59    0.89
   1   6  -6    3.14    1.57
   1   6  -6    0.57    0.93
  -1  -6   6    4.14   11.89
   0   6  -6  144.00   10.00
   0   6  -6  146.68   13.09
   0   6  -6  141.21   10.08
   0   6  -6  156.74   10.69
   0  -6   6  160.21   10.48
   0  -6   6  174.12   16.24
  -1   6  -6   -0.13    1.09
  -1   6  -6    1.37    0.40
  -1   6  -6    1.47    0.55
   1  -6   6    0.78    1.03
  -2   6  -6    3.33    0.71
  -2   6  -6    3.63    0.80
   2  -6   6    1.07    1.20
  -3   6  -6   10.11    1.36
  -3   6  -6    8.52    1.36
   3  -6   6    4.35    9.93
   3  -6   6    9.23    6.61
   3  -6   6    8.31    1.62
  -4   6  -6   33.62    3.31
   4  -6   6   35.60    3.29
   4  -6   6   51.31   20.51
  -5   6  -6   -2.07    1.41
   5  -6   6   -0.97   25.48
   5  -6   6    0.43    1.46
   6  -6   6    3.24    1.72
   6   5  -6   -4.46    2.35
   6   5  -6   -0.56    2.44
   5   5  -6    2.22    2.28
   5   5  -6    9.16    3.12
   4   5  -6   79.19    6.90
   4   5  -6   73.33    6.53
   3   5  -6  179.52   12.70
   3   5  -6  174.81   12.96
   3   5  -6  204.44   33.46
   2   5  -6   30.63    3.48
   2   5  -6   33.48    2.93
   2   5  -6   37.98   15.20
   2   5  -6   29.31    2.99
  -2  -5   6   38.17   17.72
  -2  -5   6   30.78    2.32
   1   5  -6   11.66    1.43
   1   5  -6   10.35    1.52
   1   5  -6    4.24    7.38
   1   5  -6   15.15    2.16
  -1  -5   6   11.24   11.35
   0   5  -6   11.50    1.72
   0   5  -6    8.44    0.98
   0   5  -6    9.19    1.18
   0   5  -6   14.91    5.24
   0  -5   6    9.69    7.50
  -1   5  -6  216.60   14.95
  -1   5  -6  226.89   14.71
  -1   5  -6  201.19   17.90
  -1   5  -6  231.59   14.64
   1  -5   6  216.53   18.62
   1  -5   6  226.34   14.97
  -2   5  -6  278.14   19.15
  -2   5  -6  296.46   19.22
   2  -5   6  289.72   19.32
   2  -5   6  302.96   23.49
   2  -5   6  295.44   26.65
  -3   5  -6  476.12   32.75
  -3   5  -6  486.19   32.83
   3  -5   6  528.26   32.76
   3  -5   6  488.66   44.27
   3  -5   6  502.83   39.96
  -4   5  -6    0.73    1.30
   4  -5   6   -0.09    1.14
   4  -5   6    2.62   17.56
  -5   5  -6   13.79    2.53
   5  -5   6   15.80    2.10
   5  -5   6    6.94   29.01
  -6   5  -6    0.12    1.90
   6  -5   6    2.92    1.48
   7   4  -6   -1.71    2.62
   7   4  -6    4.24    3.53
   6   4  -6    0.33    2.25
   6   4  -6    1.64    2.54
   5   4  -6    9.58    2.68
   5   4  -6   11.94    3.03
   4   4  -6  182.36   33.92
   4   4  -6  169.68   12.55
   4   4  -6  171.92   12.71
  -4  -4   6  175.80   12.26
   3   4  -6  226.20   17.46
   3   4  -6  259.05   17.62
   3   4  -6  303.48   35.99
   3   4  -6  269.92   17.85
  -3  -4   6  266.11   17.27
   2   4  -6 1001.73   72.14
   2   4  -6  921.74   60.04
   2   4  -6  912.96   59.84
   2   4  -6  818.76   59.73
  -2  -4   6  947.65   59.47
  -2  -4   6  933.81   73.81
   1   4  -6   13.14    1.40
   1   4  -6   20.93    8.00
   1   4  -6   10.13    1.55
   1   4  -6   11.48    1.82
  -1  -4   6   12.55    0.98
  -1  -4   6   22.38   10.20
   0   4  -6   47.47    3.62
   0   4  -6   56.68    8.50
   0   4  -6   46.98    3.79
   0   4  -6   50.98    3.45
   0  -4   6   54.69   10.06
  -1   4  -6  428.07   28.59
  -1   4  -6  456.89   28.59
  -1   4  -6  416.45   33.52
  -1   4  -6  441.39   28.50
  -1   4  -6  418.93   28.56
   1  -4   6  447.53   33.17
  -2   4  -6 1423.33   93.09
  -2   4  -6 1400.26   93.02
   2  -4   6 1385.30  101.61
   2  -4   6 1511.68   99.01
  -3   4  -6   83.23    6.31
  -3   4  -6   86.16    6.22
   3  -4   6   88.63    6.21
   3  -4   6   66.01   17.32
   3  -4   6   91.09   16.69
  -4   4  -6  100.66    7.77
   4  -4   6  107.11    7.26
   4  -4   6   68.47   26.22
  -5   4  -6   23.26    3.31
   5  -4   6   28.78    2.74
   5  -4   6   28.18   28.64
  -6   4  -6    3.99    2.14
   6  -4   6  -41.56   37.48
   6  -4   6    0.03    1.28
   7   3  -6   23.80    4.26
   7   3  -6   23.15    4.81
   6   3  -6    4.17    2.81
   6   3  -6    4.63    2.67
  -6  -3   6    9.91    3.37
   5   3  -6  130.67   10.12
   5   3  -6  133.48   10.35
   4   3  -6    0.16    1.72
   4   3  -6   16.35   17.82
   4   3  -6    4.65    2.08
  -4  -3   6    5.85   21.37
  -4  -3   6    6.01    1.86
   3   3  -6  118.25    8.16
   3   3  -6  112.82    8.23
   3   3  -6   95.80   21.37
   3   3  -6   90.56    7.84
  -3  -3   6  120.57    7.89
  -3  -3   6   88.76   24.04
   2   3  -6  485.64   31.77
   2   3  -6  416.27   31.49
   2   3  -6  501.55   42.86
   2   3  -6  527.51   31.71
   1   3  -6   81.65    6.03
   1   3  -6   80.68    5.93
   1   3  -6   85.29   13.69
   1   3  -6   73.85    5.73
  -1  -3   6   73.82   14.66
  -1  -3   6   92.97    5.64
  -1  -3   6   84.42    6.00
   0   3  -6    6.32    0.81
   0   3  -6    4.91    0.85
   0   3  -6    3.33    4.31
   0   3  -6    5.25    1.03
   0   3  -6    5.06    1.06
   0  -3   6    5.75    0.69
   0  -3   6    5.23    0.65
   0  -3   6    8.80    6.38
  -1   3  -6    0.05    0.77
  -1   3  -6    0.50    0.59
  -1   3  -6   -0.41    0.41
  -1   3  -6    0.51    0.47
  -1   3  -6    2.00    5.38
   1  -3   6    0.37    0.52
   1  -3   6    0.44    0.35
   1  -3   6   -0.31    4.70
  -2   3  -6    0.88    7.59
  -2   3  -6    1.07    0.78
  -2   3  -6    0.36    0.86
   2  -3   6    0.32    0.55
   2  -3   6   -3.81    6.21
   2  -3   6   -0.75    0.54
  -3   3  -6  145.06    9.98
  -3   3  -6  139.77    9.83
   3  -3   6  145.74   25.35
   3  -3   6  129.01    9.61
   3  -3   6  169.07   23.64
   3  -3   6  148.38    9.47
  -4   3  -6  250.33   17.23
   4  -3   6  229.15   38.43
  -5   3  -6   18.33    3.07
   5  -3   6   23.29    2.32
   5  -3   6   16.50   27.73
   6  -3   6   56.02   41.65
   7   2  -6    4.72    3.01
   7   2  -6   12.59    3.28
  -7  -2   6   17.31    3.59
   6   2  -6   25.38    3.99
   6   2  -6   28.96    4.11
  -6  -2   6   28.31    4.14
   5   2  -6  167.57   35.63
   5   2  -6  120.52    9.61
   5   2  -6  120.84    9.64
  -5  -2   6  130.84    9.70
  -5  -2   6  120.54   38.14
   4   2  -6   86.30    6.94
   4   2  -6   87.17    6.84
   4   2  -6   99.12   25.11
  -4  -2   6   32.51   22.75
  -4  -2   6   88.90    6.78
   3   2  -6   49.27    4.11
   3   2  -6   49.81    4.02
   3   2  -6   44.22    3.72
   3   2  -6   86.79   18.66
  -3  -2   6   39.73    3.73
  -3  -2   6   30.61   18.47
   2   2  -6   82.20    6.17
   2   2  -6  103.49   17.46
   2   2  -6   72.06    5.89
   2   2  -6   87.12    6.18
  -2  -2   6   75.93   16.78
  -2  -2   6   90.56    5.93
   1   2  -6   14.27    6.79
   1   2  -6   13.49    1.47
   1   2  -6   14.20    1.68
   1   2  -6   15.56    1.80
  -1  -2   6   12.28    1.28
  -1  -2   6   12.75    1.56
  -1  -2   6   -3.09    5.62
   0   2  -6   14.67    1.26
   0   2  -6   21.06    5.67
   0   2  -6   14.89    1.43
   0   2  -6   16.19    1.46
   0  -2   6    9.27    6.38
   0  -2   6   17.38    1.67
   0  -2   6   13.28    1.43
  -1   2  -6   73.05    5.09
  -1   2  -6   89.84   13.64
  -1   2  -6   79.62    5.36
  -1   2  -6   78.01    5.51
   1  -2   6   70.05   11.80
  -2   2  -6  297.18   19.70
  -2   2  -6  306.56   19.59
  -2   2  -6  232.68   28.16
   2  -2   6  291.46   19.18
  -3   2  -6   20.20    2.56
  -3   2  -6   20.57    2.26
   3  -2   6   22.57    1.72
   3  -2   6    9.93   11.89
   3  -2   6   18.80    2.30
   3  -2   6   -2.99   10.35
  -4   2  -6   80.80    6.20
   4  -2   6   71.14    5.87
   4  -2   6   74.42    5.25
   4  -2   6   97.68   26.10
  -5   2  -6   54.01    5.17
   5  -2   6    8.57   28.49
   5  -2   6   50.17    4.16
  -6   2  -6    1.76    2.17
   6  -2   6    8.33   35.56
   7   1  -6   15.96    3.44
   7   1  -6   13.03    3.40
  -7  -1   6   16.32    3.70
   6   1  -6   36.69   30.36
   6   1  -6   12.13    2.89
   6   1  -6   16.38    3.40
  -6  -1   6   15.00    3.23
   5   1  -6  141.78   10.94
   5   1  -6  159.81   11.06
   5   1  -6  163.60   36.69
  -5  -1   6  104.71   34.20
  -5  -1   6  143.24   11.10
   4   1  -6   64.77    5.12
   4   1  -6   50.51    4.96
   4   1  -6   48.72   20.12
  -4  -1   6   56.75   20.70
  -4  -1   6   63.74    5.13
   3   1  -6  378.90   30.06
   3   1  -6  477.52   30.27
   3   1  -6  567.03   45.54
   3   1  -6  486.40   30.27
  -3  -1   6  454.47   44.39
  -3  -1   6  452.28   30.18
   2   1  -6    2.70    7.81
   2   1  -6    3.32    0.96
   2   1  -6    2.72    1.19
  -2  -1   6    2.74    1.03
  -2  -1   6    0.76    7.71
   1   1  -6   84.54    5.88
   1   1  -6   78.35    5.78
   1   1  -6   87.62   13.63
  -1  -1   6   75.04    5.85
  -1  -1   6   87.68   13.92
  -1  -1   6   96.04    5.83
  -1  -1   6   82.91    5.90
   0   1  -6  334.57   29.31
   0   1  -6  380.81   23.20
   0   1  -6  371.95   23.26
   0  -1   6  365.62   23.26
   0  -1   6  359.62   29.58
   0  -1   6  333.97   23.33
   0  -1   6  318.63   23.17
  -1   1  -6  787.88   52.63
  -1   1  -6  842.38   52.51
  -1   1  -6  761.31   60.81
   1  -1   6  815.55   60.10
   1  -1   6  823.52   52.27
   1  -1   6  769.97   52.50
  -2   1  -6  659.82   41.19
  -2   1  -6  493.21   50.74
  -2   1  -6  669.57   41.37
   2  -1   6  669.94   52.25
   2  -1   6  621.35   40.65
   2  -1   6  589.69   41.17
  -3   1  -6  285.46   19.46
  -3   1  -6  312.74   19.34
   3  -1   6  270.04   19.27
   3  -1   6  276.65   18.85
   3  -1   6  273.76   34.65
   3  -1   6  273.59   32.73
  -4   1  -6    8.28    2.18
   4  -1   6   16.65   21.74
   4  -1   6   13.51    1.72
   4  -1   6   10.60    2.24
   4  -1   6   23.61   22.20
  -5   1  -6   54.48    5.56
   5  -1   6   61.78    4.72
   5  -1   6   45.76   30.11
   6  -1   6   27.17   39.43
   8   0  -6   -0.51    3.10
  -8   0   6    7.13    3.58
   7   0  -6   -1.71    2.12
   7   0  -6    1.50    2.26
  -7   0   6   -0.50    2.39
   6   0  -6   43.54   28.62
   6   0  -6    8.89    2.54
   6   0  -6   10.57    2.87
  -6   0   6   19.32   34.31
  -6   0   6    9.67    2.92
   5   0  -6    0.26   17.47
   5   0  -6    0.70    1.65
   5   0  -6   -1.59    1.65
  -5   0   6   -7.28   23.38
  -5   0   6   -0.33    1.75
   4   0  -6   27.45    3.20
   4   0  -6   22.87   14.80
   4   0  -6   24.44    2.97
  -4   0   6   47.38   19.94
  -4   0   6   22.31    3.02
   3   0  -6    0.23    1.11
   3   0  -6   -0.23    9.64
  -3   0   6   10.84   12.63
   2   0  -6  610.39   38.82
   2   0  -6  661.48   49.06
   2   0  -6  642.29   38.91
  -2   0   6  592.64   38.78
  -2   0   6  522.44   48.32
  -2   0   6  515.10   38.76
   1   0  -6  537.28   33.66
   1   0  -6  442.43   33.57
   1   0  -6  552.67   41.29
   1   0  -6  552.99   33.80
  -1   0   6  511.65   33.73
  -1   0   6  551.32   33.63
  -1   0   6  473.26   33.63
  -1   0   6  489.01   41.41
   0   0  -6   66.11   12.17
   0   0  -6   79.35    5.65
   0   0  -6   81.66    5.40
   0   0   6   65.77    5.49
   0   0   6   76.28    5.36
   0   0   6   81.79   13.17
   0   0   6   79.14    5.41
  -1   0  -6   61.04    4.47
  -1   0  -6   78.60   15.31
   1   0   6   78.37   14.63
   1   0   6   57.71    4.48
  -2   0  -6  214.01   14.23
  -2   0  -6  224.17   14.06
  -2   0  -6  174.81   27.08
   2   0   6  192.06   14.03
   2   0   6  236.51   26.26
   2   0   6  197.37   13.47
  -3   0  -6   62.87    5.04
   3   0   6   37.20   19.72
   3   0   6   52.03    4.77
   3   0   6   58.56    3.98
   3   0   6   65.60   19.60
  -4   0  -6   30.38    3.67
   4   0   6   24.05    2.87
   4   0   6   23.06    4.33
   4   0   6   36.55   29.73
   4   0   6   40.25   23.25
  -5   0  -6    1.17    1.96
   5   0   6   -1.64   30.98
   5   0   6    4.90    2.14
   5   0   6   -1.05    1.36
  -6   0  -6    9.55    2.90
   6   0   6    3.16    2.07
   8  -1  -6    1.29    2.79
  -8   1   6    3.85    3.31
   7  -1  -6  -19.70   39.32
   7  -1  -6    5.89    2.71
  -7   1   6    2.01    2.78
   6  -1  -6  137.69   10.34
   6  -1  -6  136.91   10.22
   6  -1  -6  137.21   35.00
  -6   1   6  130.23   10.58
  -6   1   6  104.64   39.91
   5  -1  -6  158.15   12.37
   5  -1  -6  147.91   10.72
   5  -1  -6  187.35   32.80
  -5   1   6  100.47   30.17
  -5   1   6  136.75   10.92
   4  -1  -6  147.25   10.02
   4  -1  -6  142.00   10.00
   4  -1  -6  152.25   27.12
  -4   1   6  146.20   27.75
  -4   1   6  126.16   10.06
   3  -1  -6    0.04    1.06
   3  -1  -6    2.02    1.28
   3  -1  -6    4.20    8.73
  -3   1   6    4.05    1.10
  -3   1   6   -0.48    1.12
  -3   1   6    5.18   10.42
   2  -1  -6  265.46   17.12
   2  -1  -6  272.90   17.19
   2  -1  -6  248.61   25.47
  -2   1   6  240.46   17.09
  -2   1   6  193.67   25.32
   1  -1  -6  103.93   15.85
   1  -1  -6  123.15    8.26
   1  -1  -6  103.36    7.95
  -1   1   6  116.70    8.22
  -1   1   6  110.91    8.15
  -1   1   6  127.93    8.04
  -1   1   6  137.87   16.24
   0  -1  -6 1279.46   80.23
   0  -1  -6 1283.07   89.33
   0  -1  -6 1271.06   80.02
   0   1   6 1236.63   88.49
   0   1   6 1092.69   80.10
  -1  -1  -6  858.82   70.38
   1   1   6  919.59   69.61
   1   1   6  921.06   58.97
  -2  -1  -6    1.51    1.24
  -2  -1  -6   -5.55   10.51
   2   1   6    9.19   11.24
   2   1   6    3.32    0.58
   2   1   6    1.88    1.20
  -3  -1  -6   26.02    3.39
   3   1   6   48.52   20.09
   3   1   6   28.68    2.21
   3   1   6   26.34    3.07
   3   1   6   36.46   18.70
  -4  -1  -6  208.93   14.94
   4   1   6  150.08   37.11
   4   1   6  226.91   53.77
   4   1   6  199.36   14.73
   4   1   6  215.95   14.46
  -5  -1  -6   26.84    3.85
   5   1   6   24.02    3.25
   5   1   6   20.44    3.54
   5   1   6  -14.77   29.84
   6   1   6    4.44    2.15
   8  -2  -6   40.94    5.47
  -8   2   6   40.17    6.01
   7  -2  -6   -0.72   38.10
  -7   2   6  -53.52   42.78
   6  -2  -6   11.47   22.88
   6  -2  -6    3.91    2.17
  -6   2   6    5.99    2.76
  -6   2   6   26.19   32.82
   5  -2  -6  157.58   10.60
   5  -2  -6  111.61   27.01
   5  -2  -6  140.30   10.59
  -5   2   6  136.62   10.85
  -5   2   6  138.37   33.92
   4  -2  -6   48.62    4.77
   4  -2  -6   58.98   17.51
   4  -2  -6   64.71    4.78
  -4   2   6   67.77   19.35
  -4   2   6   54.51    4.88
   3  -2  -6    5.49   10.66
   3  -2  -6    8.05    1.79
   3  -2  -6    9.12    1.73
  -3   2   6    9.21    1.75
  -3   2   6    8.37   11.58
  -3   2   6    6.75    1.53
   2  -2  -6  342.93   30.70
   2  -2  -6  330.19   21.51
  -2   2   6  297.74   21.45
  -2   2   6  336.92   21.48
  -2   2   6  293.71   32.02
   1  -2  -6  821.12   60.93
   1  -2  -6  824.24   52.11
   1  -2  -6  798.99   51.77
  -1   2   6  815.45   61.21
  -1   2   6  821.95   51.93
  -1   2   6  704.56   52.01
   0  -2  -6    1.32    7.42
   0  -2  -6    3.22    0.71
   0  -2  -6    4.11    1.26
   0   2   6    2.09    1.19
   0   2   6    3.51    1.01
   0   2   6   10.61    7.99
  -1  -2  -6    1.02    1.15
  -1  -2  -6    1.58   10.71
   1   2   6    0.25    0.93
   1   2   6   -3.20    8.34
   1   2   6    0.56    0.53
  -2  -2  -6   82.81    6.83
  -2  -2  -6  150.21   26.07
   2   2   6   81.40    6.68
   2   2   6   90.06   20.62
   2   2   6   99.27    6.19
  -3  -2  -6  209.67   14.95
   3   2   6  329.43   38.32
   3   2   6  205.70   14.79
   3   2   6  196.95   36.80
  -4  -2  -6   17.13    2.95
   4   2   6   11.41    2.46
   4   2   6   14.91    2.87
   4   2   6   53.58   27.42
  -5  -2  -6   13.78    2.94
   5   2   6    9.65    2.88
   5   2   6    8.41    2.41
   6   2   6    1.56    2.20
   6   2   6    6.25    3.86
   8  -3  -6   20.07    3.94
  -8   3   6   28.36    5.04
   7  -3  -6   42.57   32.97
  -7   3   6   41.05   48.42
   6  -3  -6   29.70   26.58
   6  -3  -6   36.51    4.47
  -6   3   6   48.99   32.03
  -6   3   6   29.64    4.58
   5  -3  -6   13.65   18.22
  -5   3   6   18.93   24.65
   4  -3  -6  -10.47   10.77
   4  -3  -6    3.16    1.49
  -4   3   6    1.56    1.63
  -4   3   6   -9.85   15.67
   3  -3  -6  145.91    9.97
   3  -3  -6  123.52   20.62
  -3   3   6  126.41    9.90
  -3   3   6  154.46   10.10
  -3   3   6  143.00   24.13
   2  -3  -6  128.82    8.70
   2  -3  -6  129.18   19.11
   2  -3  -6  131.18    8.93
  -2   3   6  129.10    8.87
  -2   3   6  127.52   21.23
  -2   3   6  115.27    8.90
   1  -3  -6    0.01    0.98
   1  -3  -6   -1.52    7.94
   1  -3  -6    1.63    0.76
  -1   3   6   -1.49    1.10
  -1   3   6    3.00    7.89
  -1   3   6    1.08    0.89
   0  -3  -6   35.92   12.64
   0  -3  -6   56.35    4.32
   0  -3  -6   64.49    4.80
   0   3   6   73.44   15.34
   0   3   6   65.26    4.55
   0   3   6   54.78    4.81
  -1  -3  -6    8.14    1.19
  -1  -3  -6    7.48    1.68
  -1  -3  -6    9.84   13.78
   1   3   6    1.62   12.10
   1   3   6    5.88    1.44
  -2  -3  -6   57.44   20.25
   2   3   6   65.26   20.35
   2   3   6   74.37    5.84
  -3  -3  -6    1.17    1.66
   3   3   6  -13.41   21.25
   3   3   6   17.68   21.03
   3   3   6   -0.40    1.68
  -4  -3  -6    9.07    2.43
   4   3   6    5.02    2.35
   4   3   6    6.01    2.18
   5   3   6   -0.38    2.04
   5   3   6   -0.93    2.30
   7  -4  -6  -36.07   34.53
  -7   4   6   -2.41    2.44
   6  -4  -6   22.98   23.81
  -6   4   6  -22.38   31.31
  -6   4   6    0.54    2.25
   5  -4  -6  118.82   28.25
  -5   4   6  150.21   11.06
  -5   4   6   87.57   31.97
   4  -4  -6   29.36    2.91
   4  -4  -6   25.64    2.94
   4  -4  -6   19.66   14.67
  -4   4   6   26.88    3.37
  -4   4   6   17.51   18.72
   3  -4  -6   85.34    6.10
   3  -4  -6   76.53    6.08
   3  -4  -6   53.70   14.52
  -3   4   6   50.99   18.91
  -3   4   6   97.51    6.41
  -3   4   6   75.69    6.30
   2  -4  -6   26.92    2.23
   2  -4  -6    9.03    9.03
   2  -4  -6   17.54    2.24
  -2   4   6   13.46   11.96
  -2   4   6   22.81    2.38
  -2   4   6   15.67    2.38
   1  -4  -6  -11.66    9.77
   1  -4  -6    0.55    0.85
   1  -4  -6    1.33    1.09
  -1   4   6    8.55   11.39
  -1   4   6    0.38    1.34
  -1   4   6    2.46    1.09
   0  -4  -6  204.48   13.70
   0  -4  -6  196.09   13.94
   0  -4  -6  183.58   28.14
   0   4   6  193.29   14.08
   0   4   6  220.39   25.52
   0   4   6  215.33   13.84
  -1  -4  -6   28.01   16.06
  -1  -4  -6   30.20    3.31
  -1  -4  -6   36.49    2.90
   1   4   6   35.70    3.37
   1   4   6   46.61   15.84
  -2  -4  -6   56.00    5.04
   2   4   6   58.03    5.03
   2   4   6   35.03   18.62
  -3  -4  -6   56.89    5.33
   3   4   6   47.45   27.29
   3   4   6   56.08    5.24
   4   4   6    0.64    1.95
   4   4   6    1.07    2.19
   5   4   6    1.13    2.17
   5   4   6    1.67    2.46
  -7   5   6    7.98    3.19
   6  -5  -6   49.11   25.07
   6  -5  -6   38.34    4.21
  -6   5   6    3.03   35.83
  -6   5   6   45.46    5.32
   5  -5  -6   25.23    3.15
   5  -5  -6   -1.25   18.96
  -5   5   6   26.22   25.24
  -5   5   6   21.61    3.47
   4  -5  -6   28.48    2.97
   4  -5  -6   22.41   14.16
  -4   5   6   19.69    3.07
  -4   5   6   15.55   19.37
   3  -5  -6    1.04    1.32
   3  -5  -6   -5.81   10.39
  -3   5   6   -8.11   13.52
  -3   5   6   -0.64    1.37
   2  -5  -6  310.84   21.97
   2  -5  -6  310.87   32.51
  -2   5   6  356.64   22.06
  -2   5   6  287.89   35.38
   1  -5  -6  133.58   24.58
   1  -5  -6  123.10    8.99
  -1   5   6  129.38    8.97
  -1   5   6  147.68   22.58
   0  -5  -6  108.17    8.62
   0  -5  -6  118.16    8.32
   0  -5  -6  163.36   28.40
   0   5   6  160.35   25.02
   0   5   6  120.69    8.42
  -1  -5  -6   14.86    1.98
  -1  -5  -6   -0.96   15.77
   1   5   6   13.42    2.24
   1   5   6   23.67   17.09
   2   5   6  219.69   34.91
   2   5   6  182.60   13.17
   3   5   6    7.24   25.88
   3   5   6   18.87    3.16
   4   5   6    3.90    2.35
   4   5   6    4.39    2.67
   7  -6  -6   10.82    3.11
  -7   6   6   11.66    3.75
   6  -6  -6    3.49    2.26
  -6   6   6    2.49    2.59
   5  -6  -6   12.31    2.58
   5  -6  -6   14.04   17.36
  -5   6   6   16.49    2.97
  -5   6   6  -17.12   26.31
   4  -6  -6   12.40    2.35
   4  -6  -6   13.78   15.01
  -4   6   6   12.51   20.98
  -4   6   6    8.86    2.45
   3  -6  -6   60.79   18.84
   3  -6  -6   97.22    7.63
  -3   6   6  112.07    7.76
  -3   6   6   74.75   23.73
   2  -6  -6   53.51    4.64
   2  -6  -6   56.70   17.97
  -2   6   6   50.10   19.22
  -2   6   6   56.57    4.59
   1  -6  -6    0.12   15.17
   1  -6  -6   -0.66    1.35
  -1   6   6   -0.76    1.33
  -1   6   6   10.52   15.31
   0  -6  -6   32.22   19.47
   0  -6  -6   50.37    4.32
   0   6   6   53.23    4.48
   0   6   6   69.18   20.78
  -1  -6  -6   32.20   27.51
  -1  -6  -6   65.58    5.17
   1   6   6   83.27   26.15
   1   6   6   64.66    5.51
   2   6   6   43.73    4.60
   2   6   6   46.67   25.49
   3   6   6   -1.43    1.95
   6  -7  -6   19.89    3.40
  -6   7   6   25.21    4.06
   5  -7  -6    2.26    2.04
  -5   7   6    1.92    2.33
   4  -7  -6   -5.17   17.10
   4  -7  -6    2.57    1.97
  -4   7   6    3.60    2.02
   3  -7  -6   50.03   20.62
   3  -7  -6   43.41    4.33
  -3   7   6   47.89    4.40
  -3   7   6   42.80   23.98
   2  -7  -6  129.30    9.84
   2  -7  -6  109.42   26.11
  -2   7   6  122.73   27.05
  -2   7   6  142.70    9.74
   1  -7  -6   58.32    5.07
   1  -7  -6   45.24   21.21
  -1   7   6   69.36   22.92
  -1   7   6   63.65    5.03
   0  -7  -6   12.60    2.11
   0  -7  -6   23.53   25.07
   0   7   6    9.41    2.19
   0   7   6   27.46   20.89
  -1  -7  -6    2.25    1.38
   1   7   6   -0.96    1.58
   2   7   6   11.98    2.77
   5  -8  -6    1.69    2.32
  -5   8   6   -1.28    2.21
   4  -8  -6   35.00    4.31
  -4   8   6   36.50    4.14
   3  -8  -6   18.22    3.11
  -3   8   6   18.76    2.81
   2  -8  -6   12.64    2.62
  -2   8   6   10.33    2.18
   1  -8  -6    1.04    1.73
  -1   8   6    0.34    1.65
   0  -8  -6    0.36    1.54
   0   8   6   -0.30    1.63
   1   8   6   -3.00    1.93
   3  -9  -6    3.74    2.23
  -3   9   6   -2.03    1.91
   2  -9  -6    6.44    2.32
  -2   9   6    2.69    2.06
   1  -9  -6    4.33    2.12
  -1   9   6    4.78    2.19
   1  10  -7   21.02    2.84
   1  10  -7   18.18    3.91
   0  10  -7    1.53    2.33
   0  10  -7    1.79    1.21
  -1  10  -7    0.94    0.82
  -1  10  -7    0.94    2.13
   1 -10   7    1.34    1.85
  -2  10  -7    4.43    2.24
   2 -10   7    4.36    2.02
   3 -10   7   36.69    4.04
   3   9  -7   17.03    3.96
   3   9  -7   14.45    3.10
   2   9  -7   11.07    2.43
   2   9  -7    8.25    3.17
   1   9  -7   -1.21    1.22
   1   9  -7   -5.07    9.70
   1   9  -7   -2.41    1.96
   0   9  -7   15.18    1.91
   0   9  -7   14.13    2.99
  -1   9  -7    0.82    1.78
  -1   9  -7    2.10    0.58
  -1   9  -7    1.59    0.81
   1  -9   7    0.92    1.64
  -2   9  -7   -0.29    0.56
  -2   9  -7    2.00    1.68
   2  -9   7    0.85    1.72
  -3   9  -7   37.94    2.93
  -3   9  -7   35.78    2.93
   3  -9   7   45.90    4.00
  -4   9  -7    1.28    0.97
   4  -9   7   -0.50    1.80
   4   8  -7   -2.71    2.73
   4   8  -7   -3.38    2.23
   3   8  -7   -1.29    1.83
   3   8  -7    0.68    2.37
   2   8  -7   13.82   17.73
   2   8  -7    4.36    1.73
   2   8  -7    0.12    2.16
   1   8  -7   16.64    3.08
   1   8  -7   30.48   11.86
   1   8  -7   16.57    2.27
   0   8  -7   34.51    3.05
   0   8  -7   38.56    4.17
   0   8  -7   37.95    2.96
  -1   8  -7   75.82    5.80
  -1   8  -7  102.43    7.01
  -1   8  -7   87.77    5.93
   1  -8   7   91.39    6.68
  -2   8  -7   18.85    1.60
  -2   8  -7   20.94    1.79
  -2   8  -7   21.99    2.87
   2  -8   7   22.70    2.77
  -3   8  -7   19.02    2.01
  -3   8  -7   20.59    1.92
   3  -8   7   23.15    2.86
  -4   8  -7   24.15    2.60
   4  -8   7   25.71    3.15
  -5   8  -7   19.55    2.84
   5  -8   7   28.26    2.99
   5   7  -7    1.39    3.03
   5   7  -7   -0.33    2.55
   4   7  -7    1.31    2.64
   4   7  -7   -3.21    1.87
   3   7  -7   56.15    5.66
   3   7  -7   50.05    5.01
   2   7  -7  142.63   10.89
   2   7  -7  144.54   10.41
   1   7  -7   11.50    9.21
   1   7  -7    4.59    2.07
   1   7  -7    8.91    1.45
   1   7  -7    8.42    1.61
  -1  -7   7   20.62   16.29
   0   7  -7   26.70    3.18
   0   7  -7   21.16    2.01
   0   7  -7   24.06    2.26
  -1   7  -7   10.97    1.28
  -1   7  -7   10.42    1.09
  -1   7  -7   14.18    2.20
   1  -7   7   10.59    1.96
  -2   7  -7   17.57    2.16
  -2   7  -7   14.24    1.38
  -2   7  -7   14.20    1.58
   2  -7   7   11.36    2.00
  -3   7  -7   44.16    3.70
  -3   7  -7   45.81    3.60
   3  -7   7   52.24    4.05
  -4   7  -7    2.91    1.34
   4  -7   7    3.07   15.25
   4  -7   7    4.96    1.57
  -5   7  -7   -0.03    1.48
   5  -7   7    2.14    1.56
   6  -7   7   -1.48    1.60
   5   6  -7    1.22    2.79
   5   6  -7   -0.15    2.28
   4   6  -7   19.78    3.30
   4   6  -7   23.03    4.15
   3   6  -7  149.14   11.09
   3   6  -7  141.83   10.68
   2   6  -7  111.63   21.09
   2   6  -7   69.56    6.11
   2   6  -7   72.66    6.22
   2   6  -7   69.59    5.70
   1   6  -7   36.14   10.67
   1   6  -7   24.83    2.39
   1   6  -7   25.88    3.22
   1   6  -7   29.58    2.73
  -1  -6   7    7.12   13.35
   0   6  -7    1.34    0.88
   0   6  -7    0.94    0.58
   0   6  -7   -4.96    4.41
   0   6  -7    0.71    1.24
   0  -6   7   14.18    8.46
  -1   6  -7   73.39    5.44
  -1   6  -7   71.78    4.89
  -1   6  -7   73.07    5.06
   1  -6   7   68.30    5.33
  -2   6  -7    0.15    0.82
  -2   6  -7    3.33    1.03
   2  -6   7    0.22    1.03
   2  -6   7    5.44    7.48
   2  -6   7    2.11    5.75
  -3   6  -7  225.36   15.43
  -3   6  -7  235.98   15.55
   3  -6   7  227.36   15.52
   3  -6   7  247.32   22.24
   3  -6   7  198.61   26.38
  -4   6  -7   79.31    6.34
   4  -6   7   73.30   24.10
   4  -6   7   84.30    6.09
  -5   6  -7   -0.51    1.39
   5  -6   7  -34.73   28.73
   5  -6   7    2.80    1.40
  -6   6  -7    1.55    1.99
   6  -6   7    1.89    1.71
   6   5  -7    8.16    3.65
   6   5  -7    5.08    2.87
   5   5  -7    5.41    2.65
   5   5  -7    3.07    2.70
   4   5  -7   24.83    3.72
   4   5  -7   22.65    3.68
   3   5  -7  159.16   29.65
   3   5  -7  162.50   11.37
   3   5  -7  149.72   11.57
   2   5  -7   46.51    3.97
   2   5  -7   47.95    4.53
   2   5  -7   51.31    4.29
   2   5  -7   38.19   14.31
  -2  -5   7   50.07    3.47
  -2  -5   7   42.18   17.32
   1   5  -7  222.73   21.33
   1   5  -7  175.10   12.65
   1   5  -7  191.52   12.83
   1   5  -7  194.20   13.13
  -1  -5   7  184.12   25.49
   0   5  -7    4.56    5.02
   0   5  -7    2.20    0.96
   0   5  -7    2.63    1.15
   0   5  -7    2.31    0.67
   0  -5   7    8.15    8.67
  -1   5  -7  169.63   17.44
  -1   5  -7  184.02   11.63
  -1   5  -7  178.66   11.76
  -1   5  -7  168.25   11.82
   1  -5   7  169.29   11.85
   1  -5   7  173.91   17.87
  -2   5  -7  140.69    9.49
  -2   5  -7  141.16    9.39
  -2   5  -7  132.42    9.19
   2  -5   7  139.60    9.47
   2  -5   7  109.39   18.45
   2  -5   7  157.17   16.19
  -3   5  -7  236.41   17.10
  -3   5  -7  261.39   17.05
   3  -5   7  255.79   16.94
   3  -5   7  256.02   31.24
   3  -5   7  277.25   26.70
  -4   5  -7   -0.27    1.31
   4  -5   7    2.42    1.21
   4  -5   7    8.91   21.44
  -5   5  -7    8.18    2.18
   5  -5   7   10.65    1.73
   5  -5   7   25.31   29.39
  -6   5  -7    5.59    2.31
   7   4  -7   21.07    4.92
   6   4  -7   -0.76    2.33
   6   4  -7   -1.27    2.76
   5   4  -7    3.01    2.19
   5   4  -7    3.67    2.52
   4   4  -7  157.72   11.79
   4   4  -7  154.25   11.91
  -4  -4   7  167.33   11.42
   3   4  -7  726.87   55.33
   3   4  -7  870.47   55.69
   3   4  -7  866.72   55.53
   3   4  -7  868.14   71.93
  -3  -4   7  890.16   55.13
   2   4  -7    3.21    1.01
   2   4  -7    2.27    1.38
   2   4  -7    1.46    9.49
   2   4  -7    2.37    1.27
  -2  -4   7    1.92    0.78
  -2  -4   7  -32.08   12.00
   1   4  -7   -0.12    1.01
   1   4  -7    5.68    6.56
   1   4  -7    1.42    0.67
   1   4  -7    0.30    0.94
  -1  -4   7   -2.63    8.84
  -1  -4   7    2.16    0.54
   0   4  -7  187.75   17.25
   0   4  -7  163.76   11.19
   0   4  -7  176.50   11.40
   0   4  -7  157.83   11.40
   0  -4   7  185.35   19.45
  -1   4  -7  144.44    9.40
  -1   4  -7  134.07    9.53
  -1   4  -7  139.53    9.41
  -1   4  -7  147.22   16.70
  -1   4  -7  136.18    9.35
   1  -4   7  160.74   15.97
  -2   4  -7   36.93    3.17
  -2   4  -7   29.91   10.54
  -2   4  -7   40.01    3.01
   2  -4   7   35.82    2.87
   2  -4   7   34.71   10.14
  -3   4  -7   33.23    2.90
  -3   4  -7   29.61    3.03
   3  -4   7   47.60   13.82
   3  -4   7    4.68   14.76
  -4   4  -7  174.98   12.98
   4  -4   7  135.04   31.09
   4  -4   7  193.24   12.38
  -5   4  -7   80.71    7.01
   5  -4   7   86.07    6.09
   5  -4   7   59.39   33.78
  -6   4  -7    5.22    2.43
   7   3  -7   46.36    6.12
   7   3  -7   31.02    5.01
   6   3  -7    2.20    2.66
   6   3  -7   -1.78    2.07
   5   3  -7    2.56    2.17
   5   3  -7    4.36    2.36
   4   3  -7   42.56    4.47
   4   3  -7   51.11   20.11
   4   3  -7   42.25    4.52
  -4  -3   7   43.36    3.98
  -4  -3   7   62.65   26.94
   3   3  -7  255.37   16.69
   3   3  -7  287.96   32.27
   3   3  -7  248.07   16.58
   3   3  -7  202.55   16.29
  -3  -3   7  250.90   16.27
  -3  -3   7  245.77   34.97
   2   3  -7  315.57   21.31
   2   3  -7  332.62   21.43
   2   3  -7  300.16   30.97
  -2  -3   7  261.72   39.81
  -2  -3   7  314.39   20.98
   1   3  -7    0.84    1.04
   1   3  -7   -1.81    5.70
   1   3  -7    1.48    1.02
   1   3  -7    1.07    0.67
  -1  -3   7    2.40    0.92
  -1  -3   7    5.10    8.63
  -1  -3   7    1.71    0.65
   0   3  -7   11.68    1.32
   0   3  -7    7.06    5.47
   0   3  -7   13.07    1.24
   0   3  -7   14.58    1.68
   0   3  -7   13.83    1.51
   0  -3   7   16.32    7.19
   0  -3   7   12.35    1.23
   0  -3   7   11.20    1.41
  -1   3  -7   33.89    2.78
  -1   3  -7   34.75    2.57
  -1   3  -7   31.74    9.21
  -1   3  -7   34.05    2.28
  -1   3  -7   29.82    2.33
   1  -3   7   38.12    9.01
   1  -3   7   27.60    2.42
  -2   3  -7   30.63   10.36
  -2   3  -7   46.99    3.61
  -2   3  -7   44.06    3.74
   2  -3   7   47.98   12.45
   2  -3   7   49.04    3.27
   2  -3   7   44.15    3.46
  -3   3  -7   15.90    2.25
  -3   3  -7   16.86    2.11
   3  -3   7   -2.13   13.18
   3  -3   7   19.00    1.92
   3  -3   7   14.13    1.50
   3  -3   7   19.68   11.59
  -4   3  -7   -2.20    1.26
   4  -3   7   -7.99   18.13
   4  -3   7   -0.03    1.16
  -5   3  -7    8.74    2.51
   5  -3   7   -5.04   27.09
   6  -3   7   47.69   43.12
   7   2  -7   30.60    4.58
   7   2  -7   24.85    4.42
  -7  -2   7   27.60    4.51
   6   2  -7   -1.19    2.09
   6   2  -7    3.09    2.55
  -6  -2   7    3.18    2.30
   5   2  -7    2.65    2.35
   5   2  -7    9.63   23.30
   5   2  -7   -1.42    1.79
  -5  -2   7   -1.74    1.93
   4   2  -7   12.03    2.48
   4   2  -7   13.96    2.50
   4   2  -7   26.33   18.11
  -4  -2   7   16.97    2.48
  -4  -2   7   42.19   20.18
   3   2  -7  182.24   28.36
   3   2  -7  197.75   13.15
   3   2  -7  190.83   13.08
   3   2  -7  165.45   12.84
  -3  -2   7  172.74   28.09
  -3  -2   7  199.03   12.91
   2   2  -7 1127.10   81.71
   2   2  -7 1034.14   70.30
   2   2  -7 1116.25   70.36
  -2  -2   7 1094.10   70.12
  -2  -2   7  967.05   82.01
   1   2  -7   49.73    3.76
   1   2  -7   47.23   10.84
   1   2  -7   58.19    4.14
   1   2  -7   51.45    3.90
  -1  -2   7   43.69    3.80
  -1  -2   7   52.84    3.69
   0   2  -7   16.36    2.00
   0   2  -7   14.98    1.62
   0   2  -7   21.53    7.21
   0   2  -7   16.68    1.36
   0   2  -7   19.10    1.66
   0  -2   7   16.22    1.59
  -1   2  -7  239.07   14.42
  -1   2  -7  226.59   14.58
  -1   2  -7  219.36   14.04
  -1   2  -7  178.86   22.36
   1  -2   7  186.96   14.09
  -2   2  -7   96.80    6.41
  -2   2  -7   92.62    6.59
  -2   2  -7   79.89   17.24
   2  -2   7   85.17    5.84
   2  -2   7   85.61    6.37
   2  -2   7   68.81   14.59
  -3   2  -7   99.99    7.24
  -3   2  -7   93.90    7.38
   3  -2   7  116.89   23.79
   3  -2   7  101.03    6.57
   3  -2   7   94.91    7.20
  -4   2  -7   28.64    3.51
   4  -2   7   17.13   20.18
   4  -2   7   30.12    2.44
   4  -2   7   33.54    3.33
   4  -2   7   33.18    2.50
  -5   2  -7   51.31    5.14
   5  -2   7   44.40   30.01
  -6   2  -7    5.29    2.69
   6  -2   7  -10.41   38.21
   7   1  -7   24.05    4.00
   7   1  -7   14.36    3.56
  -7  -1   7   22.03    4.05
   6   1  -7   12.75    2.96
   6   1  -7    6.74    2.50
  -6  -1   7   10.92    2.89
   5   1  -7   63.96   21.87
   5   1  -7   34.62    4.13
   5   1  -7   29.93    4.07
  -5  -1   7   33.24    4.25
  -5  -1   7    2.75   22.49
   4   1  -7  209.09   34.35
   4   1  -7  204.16   14.32
   4   1  -7  205.37   14.30
  -4  -1   7  186.02   34.62
  -4  -1   7  202.72   14.27
   3   1  -7   68.60    5.22
   3   1  -7   59.78    5.11
   3   1  -7   93.45   19.45
  -3  -1   7   65.58    5.02
  -3  -1   7   32.33   15.23
   2   1  -7   17.65    2.13
   2   1  -7   20.43    2.34
   2   1  -7   13.36    8.84
   2   1  -7   14.33    1.73
  -2  -1   7   21.00   10.96
  -2  -1   7   19.07    2.03
   1   1  -7   50.53    4.05
   1   1  -7   60.48    4.20
   1   1  -7   63.50   11.86
   1   1  -7   59.82    4.38
  -1  -1   7   44.98    4.06
  -1  -1   7   61.58    4.08
  -1  -1   7   47.51   12.35
   0   1  -7   32.27    2.64
   0   1  -7   37.66    3.05
   0   1  -7   35.52    9.04
   0  -1   7   34.45    9.28
   0  -1   7   29.52    2.54
   0  -1   7   31.91    2.61
  -1   1  -7   58.36    4.44
  -1   1  -7   57.98    4.18
  -1   1  -7   44.85   13.05
   1  -1   7   60.58   13.13
   1  -1   7   51.07    3.88
   1  -1   7   55.03    4.19
  -2   1  -7   64.10   16.34
  -2   1  -7   73.18    5.30
  -2   1  -7   73.67    5.51
   2  -1   7   66.25    5.30
   2  -1   7   50.66   13.92
  -3   1  -7  311.96   20.74
   3  -1   7  355.80   36.44
   3  -1   7  293.04   20.03
   3  -1   7  298.34   20.54
  -4   1  -7   92.04    7.12
   4  -1   7   82.05    6.78
   4  -1   7   85.54    6.17
   4  -1   7   57.16   26.74
  -5   1  -7    3.45    2.04
   5  -1   7  -16.05   27.78
   5  -1   7   -0.11    1.37
   6  -1   7   59.94   42.77
   8   0  -7    1.76    3.56
  -8   0   7    8.31    3.64
   7   0  -7   16.25    3.90
   7   0  -7   21.76    3.74
  -7   0   7   19.57    3.97
   6   0  -7   -1.19    2.17
   6   0  -7    5.48   25.51
   6   0  -7   -1.97    1.94
  -6   0   7    5.13   34.57
  -6   0   7   -0.31    2.14
   5   0  -7   53.03    5.06
   5   0  -7   40.40   23.08
   5   0  -7   54.07    5.13
  -5   0   7   32.87   27.01
  -5   0   7   48.51    5.05
   4   0  -7   13.56    2.47
   4   0  -7   14.56   15.00
   4   0  -7   21.59    2.81
  -4   0   7   -8.98   17.62
  -4   0   7   11.96    2.39
   3   0  -7  388.53   40.55
   3   0  -7  415.43   28.62
   3   0  -7  465.71   28.76
  -3   0   7  426.40   28.95
  -3   0   7  395.68   43.29
   2   0  -7   15.04    8.95
   2   0  -7   33.07    2.88
   2   0  -7   24.84    2.48
  -2   0   7   18.42   10.40
  -2   0   7   34.92    2.77
   1   0  -7  414.67   23.88
   1   0  -7  381.05   32.21
   1   0  -7  309.91   23.73
  -1   0   7  343.01   32.31
  -1   0   7  333.99   23.80
  -1   0   7  380.89   23.79
   0   0  -7  167.89   11.41
   0   0  -7  164.17   19.63
   0   0   7  219.28   21.01
   0   0   7  161.43   11.35
   0   0   7  171.04   11.42
  -1   0  -7  143.85   23.56
  -1   0  -7  159.03   11.26
  -1   0  -7  169.30   11.08
   1   0   7  172.47   20.78
   1   0   7  156.46   11.05
  -2   0  -7   30.15    3.09
  -2   0  -7   38.72   14.33
   2   0   7   31.52    2.98
   2   0   7   -0.38   11.40
  -3   0  -7  150.56   11.60
   3   0   7  168.57   10.66
   3   0   7  153.13   28.06
  -4   0  -7   -1.62    1.72
   4   0   7    1.74   22.42
   4   0   7    1.04    1.79
   4   0   7    1.75    1.41
  -5   0  -7    8.06    2.65
   5   0   7    8.19    2.52
   5   0   7   10.32   32.77
   5   0   7   10.18    2.07
  -6   0  -7    3.35    2.69
   8  -1  -7   -0.52    3.01
  -8   1   7    2.43    3.11
   7  -1  -7   41.02   35.41
   6  -1  -7  102.60    8.05
   6  -1  -7   91.78    7.94
   6  -1  -7   79.87   29.12
  -6   1   7   95.84    8.18
  -6   1   7   59.08   36.03
   5  -1  -7    1.21    1.97
   5  -1  -7    2.89    2.03
   5  -1  -7    2.41   18.61
  -5   1   7    2.02    2.13
  -5   1   7  -20.44   22.40
   4  -1  -7   64.78   18.73
   4  -1  -7   75.79    6.05
  -4   1   7   76.55    6.13
  -4   1   7   51.76   21.45
   3  -1  -7  673.06   45.28
   3  -1  -7  729.20   45.36
   3  -1  -7  643.32   57.18
  -3   1   7  579.65   58.01
  -3   1   7  709.24   45.36
   2  -1  -7  173.55   10.98
   2  -1  -7  158.55   10.99
   2  -1  -7  166.36   20.46
  -2   1   7  163.60   24.26
  -2   1   7  139.10   10.91
  -2   1   7  158.00   10.86
   1  -1  -7   34.95    9.64
   1  -1  -7   31.08    2.96
  -1   1   7   29.07    2.88
  -1   1   7   19.99    9.90
   0  -1  -7  450.09   28.52
   0  -1  -7  399.33   37.91
   0  -1  -7  394.76   27.63
   0   1   7  471.96   38.23
  -1  -1  -7    0.26    9.43
  -1  -1  -7    0.42    1.17
   1   1   7   -9.63    8.57
   1   1   7    1.50    1.21
  -2  -1  -7    3.77    1.51
  -2  -1  -7   -6.67   11.38
   2   1   7  -10.84   11.04
   2   1   7    6.91    1.61
  -3  -1  -7   88.17    6.95
   3   1   7   81.60    6.71
   3   1   7   92.39   23.64
  -4  -1  -7  163.09   11.96
   4   1   7  156.34   11.76
   4   1   7  117.65   35.59
   4   1   7  161.57   11.40
  -5  -1  -7    2.35    2.36
   5   1   7    6.57    2.62
   5   1   7    4.42    1.86
  -6  -1  -7    2.47    2.63
   8  -2  -7   13.33    3.62
  -8   2   7   22.73    4.69
   7  -2  -7    8.52    2.87
   7  -2  -7    2.28   32.07
  -7   2   7  -15.27   44.74
   6  -2  -7  239.21   43.99
  -6   2   7  142.32   45.74
  -6   2   7  255.69   17.86
   5  -2  -7   16.81    2.74
   5  -2  -7   16.16    2.81
   5  -2  -7   12.71   19.24
  -5   2   7   39.13   25.97
  -5   2   7   14.64    3.02
   4  -2  -7   46.00    4.44
   4  -2  -7   40.26   16.67
   4  -2  -7   52.65    4.51
  -4   2   7   58.06   22.46
  -4   2   7   45.31    4.43
   3  -2  -7   94.84    7.15
   3  -2  -7  105.84   20.02
   3  -2  -7   99.47    7.20
  -3   2   7  102.36    7.22
  -3   2   7   85.85    7.02
  -3   2   7   82.11   19.51
   2  -2  -7   12.42    2.10
   2  -2  -7   18.28    9.33
  -2   2   7    4.68    9.09
  -2   2   7   12.60    1.99
  -2   2   7   16.51    1.92
   1  -2  -7    0.11    0.65
   1  -2  -7   -1.48    0.99
   1  -2  -7   -2.14    7.23
  -1   2   7   -1.05    1.11
  -1   2   7   -7.65    7.81
  -1   2   7   -0.07    0.83
   0  -2  -7  510.54   32.90
   0  -2  -7  488.89   44.00
   0  -2  -7  461.41   32.37
   0   2   7  527.99   44.13
   0   2   7  506.49   32.65
  -1  -2  -7   20.47    1.66
  -1  -2  -7   24.94   13.79
   1   2   7   16.86    2.20
   1   2   7   18.83   12.54
   1   2   7   18.99    1.67
  -2  -2  -7   70.40    6.08
  -2  -2  -7   67.35   20.01
   2   2   7   73.85   20.07
   2   2   7   82.91    5.42
   2   2   7   70.65    5.90
  -3  -2  -7   59.69    5.58
   3   2   7   58.82   23.13
   3   2   7   41.38   25.68
   3   2   7   65.77    5.59
  -4  -2  -7   79.32    6.72
   4   2   7   77.57    6.66
   4   2   7   71.39    6.25
  -5  -2  -7   16.61    3.26
   5   2   7    9.10    2.45
   5   2   7   13.01    3.08
   7  -3  -7    1.32   32.89
   7  -3  -7    4.60    2.84
  -7   3   7    1.48    2.77
  -7   3   7  -46.27   42.53
   6  -3  -7   43.98    5.14
   6  -3  -7   61.37   28.42
  -6   3   7   45.47    5.18
  -6   3   7   35.86   34.97
   5  -3  -7   79.74   22.30
   5  -3  -7   66.35    5.99
   5  -3  -7   75.55    6.37
  -5   3   7   72.14    6.55
  -5   3   7   31.92   24.45
   4  -3  -7  405.59   27.31
   4  -3  -7  387.23   40.43
  -4   3   7  328.47   44.31
  -4   3   7  428.05   27.59
   3  -3  -7   -3.16    9.67
   3  -3  -7   -2.03    1.15
  -3   3   7    0.77   12.35
  -3   3   7    3.96    1.43
  -3   3   7    0.11    1.34
   2  -3  -7    2.68    7.62
   2  -3  -7    1.54    1.23
   2  -3  -7    3.05    1.03
  -2   3   7  -10.52    9.85
  -2   3   7    2.39    1.44
  -2   3   7    3.12    1.26
   1  -3  -7  126.33   21.36
   1  -3  -7  165.74   10.74
   1  -3  -7  159.70   11.09
  -1   3   7  137.13   11.06
  -1   3   7  172.01   10.94
  -1   3   7  167.74   24.36
   0  -3  -7  152.19   10.74
   0  -3  -7  139.95   24.76
   0  -3  -7  155.71   11.21
   0   3   7  201.15   23.48
   0   3   7  167.46   11.02
  -1  -3  -7    2.79    0.89
  -1  -3  -7   16.53   14.93
  -1  -3  -7    2.83    1.49
   1   3   7    1.49   12.43
   1   3   7    2.20    1.33
  -2  -3  -7   33.64   19.62
  -2  -3  -7   31.40    3.56
   2   3   7   28.63    3.34
   2   3   7   30.59   17.62
   3   3   7   15.00    2.70
   3   3   7  -17.63   19.94
   4   3   7   18.71    3.34
   4   3   7   16.73    2.96
   5   3   7    1.33    2.38
   5   3   7    2.04    2.23
   7  -4  -7   68.45   39.37
   6  -4  -7  -10.73   23.68
  -6   4   7    1.72    2.57
  -6   4   7    7.53   31.61
   5  -4  -7  278.34   43.01
  -5   4   7  247.75   46.14
  -5   4   7  403.82   25.52
   4  -4  -7    1.57    1.40
   4  -4  -7   -1.99   14.49
  -4   4   7   -2.32    1.72
  -4   4   7  -29.17   16.05
   3  -4  -7  202.23   26.24
   3  -4  -7  203.90   14.97
   3  -4  -7  208.02   14.85
  -3   4   7  248.72   15.22
  -3   4   7  217.27   33.08
   2  -4  -7   18.50    2.45
   2  -4  -7   18.81    2.04
   2  -4  -7   24.01   11.52
  -2   4   7   15.59    2.12
  -2   4   7   22.99   13.25
  -2   4   7   13.90    2.44
   1  -4  -7   27.87    2.53
   1  -4  -7   27.22    2.90
   1  -4  -7   -2.21   10.02
  -1   4   7   31.05    2.76
  -1   4   7   32.34   13.25
  -1   4   7   26.07    3.24
   0  -4  -7    4.73   11.78
   0  -4  -7    0.78    1.30
   0  -4  -7    0.44    0.86
   0   4   7    2.93    1.26
   0   4   7    9.07   12.12
  -1  -4  -7  591.28   40.40
  -1  -4  -7  620.34   39.92
  -1  -4  -7  596.10   57.83
   1   4   7  592.71   40.21
   1   4   7  682.62   57.28
  -2  -4  -7   29.49   22.74
   2   4   7   34.91    3.78
   2   4   7   67.86   21.93
  -3  -4  -7    9.08    2.31
   3   4   7   32.81   28.84
   3   4   7    3.83    2.10
   4   4   7   15.24    3.20
   4   4   7   10.08    2.59
   7  -5  -7   -3.11    2.01
  -7   5   7   -2.36    2.96
   6  -5  -7  -13.13   24.90
   6  -5  -7    4.39    2.09
  -6   5   7    1.25    2.56
   5  -5  -7    3.52    1.94
   5  -5  -7  -24.64   16.73
  -5   5   7  -28.74   27.22
  -5   5   7    4.07    2.32
   4  -5  -7   20.85   15.62
  -4   5   7   24.31   21.90
   3  -5  -7   99.49   20.88
   3  -5  -7  117.82    9.02
  -3   5   7  100.13   25.33
  -3   5   7  137.62    9.29
   2  -5  -7  294.29   33.69
   2  -5  -7  279.85   19.02
  -2   5   7  198.78   33.14
  -2   5   7  293.57   19.08
   1  -5  -7    8.71   14.17
   1  -5  -7    0.69    1.08
  -1   5   7    3.50   13.92
   0  -5  -7   36.71   19.05
   0  -5  -7   45.73    3.90
   0   5   7   59.20   20.37
   0   5   7   50.76    4.27
  -1  -5  -7  144.10   29.74
  -1  -5  -7  125.76    8.88
   1   5   7  126.09    9.32
   1   5   7  111.51   26.84
   2   5   7   38.91    4.29
   2   5   7   55.76   27.14
   3   5   7    0.11    1.98
   3   5   7  -63.31   33.60
   4   5   7    1.70    2.49
   4   5   7   -0.30    1.99
   6  -6  -7   17.05    3.04
  -6   6   7   16.69    3.70
   5  -6  -7    1.86    1.84
   5  -6  -7   -2.59   18.92
  -5   6   7   -1.46    2.18
   4  -6  -7    2.87   16.79
   4  -6  -7    3.17    1.83
  -4   6   7    4.22    2.19
  -4   6   7    7.97   24.51
   3  -6  -7   17.44   16.41
   3  -6  -7   18.29    2.83
  -3   6   7   -4.33   20.04
  -3   6   7   24.61    3.04
   2  -6  -7   60.28   20.59
   2  -6  -7   76.98    6.24
  -2   6   7   85.82    6.38
  -2   6   7   80.00   24.43
   1  -6  -7   19.90   19.54
   1  -6  -7    6.54    1.78
  -1   6   7   12.85   16.26
  -1   6   7    6.37    1.93
   0  -6  -7   12.59   20.47
   0  -6  -7   17.73    2.29
   0   6   7   11.49   19.25
   0   6   7   15.12    2.46
  -1  -6  -7   -1.76   26.49
  -1  -6  -7    4.78    1.42
   1   6   7  -25.52   19.52
   1   6   7    2.57    1.82
   2   6   7   41.95   29.49
   3   6   7    3.90    2.57
   6  -7  -7    4.23    2.54
  -6   7   7    4.70    3.15
   5  -7  -7    0.07    2.02
  -5   7   7    3.43    2.45
   4  -7  -7   10.40   19.92
   3  -7  -7   17.60   20.61
   3  -7  -7   13.30    2.49
  -3   7   7  -23.19   24.84
  -3   7   7   13.69    2.38
   2  -7  -7    5.68    1.77
   2  -7  -7   -6.60   21.53
  -2   7   7    5.32    1.92
  -2   7   7    2.00   21.62
   1  -7  -7   36.35   25.19
   1  -7  -7   21.03    2.86
  -1   7   7   27.00   23.20
  -1   7   7   19.44    2.74
   0  -7  -7    6.10    1.66
   0  -7  -7   26.75   27.26
   0   7   7    3.64    1.85
   1   7   7   40.66    4.32
   2   7   7   12.19    2.94
   5  -8  -7   10.89    3.01
   4  -8  -7    3.10    2.22
  -4   8   7    2.63    2.22
   3  -8  -7   -0.32    1.81
  -3   8   7   -2.71    1.74
   2  -8  -7   11.21    2.45
  -2   8   7   13.22    2.56
   1  -8  -7   22.37    3.10
  -1   8   7   19.40    3.02
   0  -8  -7   20.96    2.91
   0   8   7   22.11    3.24
   1  10  -8   12.11    2.35
   1  10  -8    7.99    3.10
   0  10  -8   -0.01    1.25
   0  10  -8   -0.46    2.07
  -1  10  -8    1.83    2.10
  -1  10  -8    3.51    1.01
  -2  10  -8    3.26    0.77
  -2  10  -8    7.48    2.76
  -2  10  -8    4.17    0.59
   2 -10   8    3.99    1.93
  -3  10  -8    1.00    0.65
   3 -10   8    1.06    1.88
   3   9  -8    0.31    2.85
   3   9  -8    2.81    2.40
   2   9  -8   -0.18    1.78
   2   9  -8   -1.39    2.34
   1   9  -8   37.81   10.92
   1   9  -8   33.81    4.63
   1   9  -8   28.11    3.41
   0   9  -8   10.81    1.70
   0   9  -8    4.92    2.29
  -1   9  -8   28.94    2.52
  -1   9  -8   29.32    3.72
  -1   9  -8   28.90    2.30
  -2   9  -8   17.05    2.63
  -2   9  -8   15.35    1.63
  -2   9  -8   13.51    1.37
   2  -9   8   19.13    2.67
  -3   9  -8   38.89    3.21
   3  -9   8   41.40    3.98
  -4   9  -8    0.94    1.08
   4  -9   8   -1.02    1.59
   4   8  -8    0.61    2.70
   4   8  -8    2.99    2.60
   3   8  -8   -0.61    2.20
   3   8  -8   -1.84    1.89
   2   8  -8   -1.43    1.62
   2   8  -8    3.94    2.45
   1   8  -8   42.31   13.53
   1   8  -8   44.83    4.09
   1   8  -8   44.41    4.83
   0   8  -8   34.34    2.87
   0   8  -8   25.63    2.45
   0   8  -8   33.12    3.79
  -1   8  -8    2.10    0.68
  -1   8  -8    2.69    0.99
  -1   8  -8    4.97    1.84
   1  -8   8    2.01    1.49
  -2   8  -8   51.40    3.99
  -2   8  -8   51.08    4.53
  -2   8  -8   56.38    3.81
   2  -8   8   53.35    4.56
  -3   8  -8   85.46    6.34
   3  -8   8   90.78    6.81
  -4   8  -8   27.12    3.09
   4  -8   8   38.41    3.53
  -5   8  -8    4.29    1.83
   5  -8   8    6.07    1.92
   5   7  -8   19.98    4.17
   5   7  -8    9.50    3.52
   4   7  -8    2.21    2.55
   4   7  -8   -2.82    2.13
   3   7  -8   13.61    2.62
   3   7  -8    8.70    2.64
   2   7  -8   64.81    5.88
   2   7  -8   59.39    5.28
   1   7  -8    5.54    2.12
   1   7  -8    9.70    1.55
   1   7  -8   19.76    9.42
   1   7  -8    7.73    1.77
  -1  -7   8   25.32   16.30
   0   7  -8   42.48    7.86
   0   7  -8   35.22    3.70
   0   7  -8   36.43    3.11
   0   7  -8   35.20    2.82
   0  -7   8   36.37   10.39
  -1   7  -8   28.82    3.14
  -1   7  -8   32.58    2.66
  -1   7  -8   30.18    2.38
   1  -7   8   32.74    3.14
  -2   7  -8   12.65    1.69
  -2   7  -8   17.46    2.03
   2  -7   8   16.05    2.13
  -3   7  -8   -1.23    1.01
   3  -7   8   -0.07    9.78
   3  -7   8    0.89    1.09
   3  -7   8   12.92    6.93
  -4   7  -8    9.51    2.01
   4  -7   8    6.58   18.51
   4  -7   8   13.72    2.05
  -5   7  -8    0.84    1.61
   5  -7   8    3.77    1.55
   5   6  -8   -1.91    2.36
   5   6  -8   -2.30    2.66
   4   6  -8   21.19    3.94
   4   6  -8   24.56    3.62
   3   6  -8   17.10    2.98
   3   6  -8   22.30    3.69
   2   6  -8  177.45   12.35
   2   6  -8  171.36   12.67
   2   6  -8  176.26   25.32
   1   6  -8   16.67    2.64
   1   6  -8   18.18    1.95
   1   6  -8    8.85    8.65
   1   6  -8   19.09    2.29
  -1  -6   8   36.72   14.08
   0   6  -8  101.62   13.23
   0   6  -8  107.28    7.95
   0   6  -8  127.37    8.56
   0   6  -8  122.16    8.21
   0  -6   8  140.02   18.79
  -1   6  -8   -5.05    6.38
  -1   6  -8   -0.85    0.58
  -1   6  -8   -0.60    0.88
  -1   6  -8    0.45    1.03
   1  -6   8    0.51    7.56
   1  -6   8   -2.01    0.97
  -2   6  -8   32.21    2.79
  -2   6  -8   38.16    3.06
  -2   6  -8   33.91    2.77
   2  -6   8   37.21    3.16
   2  -6   8   29.48   11.77
   2  -6   8   33.37    9.99
  -3   6  -8    6.02    1.55
   3  -6   8   10.12   15.37
   3  -6   8    7.61    1.46
   3  -6   8   -1.07   10.22
  -4   6  -8   15.76    2.58
   4  -6   8   21.90    2.36
   4  -6   8   19.52   22.62
  -5   6  -8   -0.54    1.67
   5  -6   8    2.23    1.27
  -6   6  -8   16.36    3.20
   6   5  -8    2.02    2.81
   6   5  -8    2.45    2.63
   5   5  -8   12.78    3.25
   5   5  -8   14.55    3.33
   4   5  -8   60.11    6.18
   4   5  -8   70.53    6.18
   3   5  -8  856.03   56.74
   3   5  -8  853.65   56.52
   2   5  -8  224.38   28.12
   2   5  -8  225.06   16.80
   2   5  -8  278.30   17.11
   2   5  -8  248.07   17.24
  -2  -5   8  270.06   37.57
   1   5  -8  191.46   12.75
   1   5  -8  180.92   12.92
   1   5  -8  185.54   20.81
  -1  -5   8  170.33   26.04
   0   5  -8   12.65    1.76
   0   5  -8   16.16    7.25
   0   5  -8   15.04    1.50
   0   5  -8   16.48    2.01
   0  -5   8   13.57   10.11
  -1   5  -8   38.63   10.64
  -1   5  -8   53.42    4.01
  -1   5  -8   54.27    3.90
  -1   5  -8   55.15    4.16
   1  -5   8   51.46   11.81
  -2   5  -8   50.00    3.64
  -2   5  -8   46.26    3.83
   2  -5   8   43.55    3.58
   2  -5   8   34.92   10.53
  -3   5  -8  285.81   18.82
  -3   5  -8  254.40   18.12
   3  -5   8  262.33   35.88
   3  -5   8  264.45   17.80
  -4   5  -8    1.99    1.51
   4  -5   8    4.08    1.17
   4  -5   8  -22.56   22.84
   5  -5   8    8.07   33.54
  -6   5  -8   36.38    4.80
   6   4  -8    6.13    2.91
   6   4  -8   10.02    3.22
   5   4  -8   84.49    7.48
   5   4  -8   91.10    7.81
   4   4  -8   10.27    2.55
   4   4  -8   10.05    2.65
   3   4  -8  195.11   15.81
   3   4  -8  236.26   16.30
   3   4  -8  252.82   16.21
   3   4  -8  286.73   32.00
  -3  -4   8  240.21   15.64
   2   4  -8   11.55   10.35
   2   4  -8    5.68    1.69
   2   4  -8    6.69    1.75
   2   4  -8    6.65    1.28
  -2  -4   8    6.52    1.07
  -2  -4   8   11.79   14.84
   1   4  -8   24.18    2.51
   1   4  -8   22.12    2.03
   1   4  -8   19.09    8.29
   1   4  -8   23.50    2.58
  -1  -4   8   21.71    1.81
  -1  -4   8   29.40   13.78
   0   4  -8   38.02    2.91
   0   4  -8   39.81    3.27
   0   4  -8   40.62    9.08
   0   4  -8   36.62    3.10
   0  -4   8   26.33   10.46
  -1   4  -8  310.44   20.89
  -1   4  -8  311.62   29.36
  -1   4  -8  317.57   20.95
  -1   4  -8  323.23   21.14
  -1   4  -8  313.81   20.80
   1  -4   8  336.36   28.94
  -2   4  -8   22.91    2.26
  -2   4  -8   26.39   11.27
  -2   4  -8   26.45    2.54
   2  -4   8   10.09    9.58
   2  -4   8   22.02    1.96
  -3   4  -8   31.33    3.40
  -3   4  -8   31.29    3.23
   3  -4   8   41.21   17.22
   3  -4   8   19.64   12.37
   3  -4   8   32.43    2.58
  -4   4  -8   31.22    3.54
   4  -4   8   38.29   26.02
  -5   4  -8   -0.65    1.57
   5  -4   8   -7.34   33.50
  -6   4  -8    0.71    2.08
   7   3  -8   28.45    4.55
   7   3  -8   24.72    4.60
   6   3  -8    9.56    3.29
   6   3  -8    8.40    2.72
   5   3  -8    0.81    2.04
   5   3  -8    0.38    2.11
   4   3  -8   48.72    5.33
   4   3  -8   54.46    5.31
   4   3  -8   62.30   22.89
  -4  -3   8   63.23    4.92
   3   3  -8   14.33   14.21
   3   3  -8    0.92    1.54
   3   3  -8   -2.14    1.42
  -3  -3   8  -27.71   15.03
  -3  -3   8    0.47    1.13
   2   3  -8   23.27    2.42
   2   3  -8   29.97    3.00
   2   3  -8   16.61   10.01
   2   3  -8   27.73    2.85
  -2  -3   8   29.24    2.37
  -2  -3   8    0.52   11.95
   1   3  -8  158.04   10.93
   1   3  -8  142.87   10.74
   1   3  -8  176.68   18.83
   1   3  -8  177.23   11.08
  -1  -3   8  153.17   21.78
   0   3  -8   -0.81    0.97
   0   3  -8   -5.97    5.33
   0   3  -8    0.19    0.70
   0   3  -8   -0.03    0.67
   0   3  -8    0.68    0.48
   0  -3   8    3.82    7.39
   0  -3   8    0.36    0.59
   0  -3   8   -0.71    0.61
  -1   3  -8   10.43    8.20
  -1   3  -8    2.76    1.20
  -1   3  -8    3.00    0.60
  -1   3  -8    2.84    0.91
   1  -3   8    5.02    7.67
   1  -3   8    2.82    0.80
  -2   3  -8   42.50    3.66
  -2   3  -8   37.81   13.68
  -2   3  -8   43.34    3.42
   2  -3   8   41.55   11.72
   2  -3   8   39.87    3.30
  -3   3  -8   -1.55    1.35
  -3   3  -8    1.61    1.42
   3  -3   8    0.01    0.52
   3  -3   8   19.42   16.73
   3  -3   8   -5.27   11.97
   3  -3   8    2.44    1.40
  -4   3  -8   84.91    7.30
   4  -3   8   36.74   25.05
   4  -3   8   96.20    6.28
  -5   3  -8    4.88    2.15
   5  -3   8   -3.37   33.54
  -6   3  -8   -1.09    2.23
   7   2  -8   46.74    5.98
   7   2  -8   23.84    4.40
   6   2  -8    0.74    2.48
   6   2  -8    3.49    2.39
  -6  -2   8    2.98    2.43
   5   2  -8   11.04   24.39
   5   2  -8   11.99    2.90
   5   2  -8   13.15    2.97
  -5  -2   8   12.97    2.95
   4   2  -8   65.30    5.61
   4   2  -8   72.44   23.42
   4   2  -8   66.63    5.66
  -4  -2   8   72.13   25.51
  -4  -2   8   61.18    5.38
   3   2  -8    7.32    2.00
   3   2  -8   14.16    1.58
   3   2  -8    5.57   11.30
   3   2  -8    7.22    1.93
  -3  -2   8   10.35    1.81
  -3  -2   8    3.60   14.80
   2   2  -8   16.75    9.66
   2   2  -8   11.57    1.90
   2   2  -8    8.52    1.66
   2   2  -8   10.05    1.51
  -2  -2   8   18.51   12.02
  -2  -2   8   11.78    1.52
   1   2  -8    7.73    6.68
   1   2  -8    3.80    1.10
   1   2  -8    0.87    1.12
  -1  -2   8    2.74    0.95
  -1  -2   8    2.02    0.80
  -1  -2   8    1.88    7.80
   0   2  -8  141.48   16.95
   0   2  -8  115.97    9.30
   0   2  -8  128.37    8.91
   0   2  -8  152.39    9.20
   0   2  -8  150.90    9.11
   0  -2   8  116.18    9.05
   0  -2   8  140.87    9.14
  -1   2  -8   -0.32    0.83
  -1   2  -8    1.15    1.03
  -1   2  -8   -0.32    7.94
   1  -2   8    0.63    0.54
   1  -2   8   -0.98    0.80
   1  -2   8   -5.73    6.44
  -2   2  -8   17.70    2.37
  -2   2  -8   18.18    2.18
  -2   2  -8   14.59   12.91
   2  -2   8   17.81    2.17
   2  -2   8    3.15    8.97
  -3   2  -8   16.62    2.54
   3  -2   8   15.40    2.22
   3  -2   8   21.33   16.02
   3  -2   8   15.61    1.15
  -4   2  -8   10.32    2.44
   4  -2   8    4.07   23.95
  -5   2  -8   80.76    7.12
   5  -2   8   98.66   37.99
  -6   2  -8    3.06    2.68
   6  -2   8    4.66   42.62
   7   1  -8    8.50    3.41
   7   1  -8   14.12    3.40
  -7  -1   8    4.88    3.01
   6   1  -8    8.34    2.82
   6   1  -8    8.09    3.01
  -6  -1   8   10.83    2.91
   5   1  -8   28.35   22.01
   5   1  -8   16.75    3.07
   5   1  -8   21.51    3.48
  -5  -1   8   27.65    3.75
  -5  -1   8   -6.92   28.27
   4   1  -8   89.14    7.07
   4   1  -8   72.87   20.98
   4   1  -8   84.68    7.01
  -4  -1   8   82.83   25.16
  -4  -1   8   94.77    7.07
   3   1  -8  102.17    7.81
   3   1  -8  106.49   22.42
   3   1  -8  103.25    7.87
  -3  -1   8   98.23   23.07
  -3  -1   8  111.54    7.74
   2   1  -8   19.44    2.33
   2   1  -8   23.07    2.59
   2   1  -8   37.81   11.90
   2   1  -8   17.27    1.92
  -2  -1   8   20.37    2.09
  -2  -1   8   20.18   11.02
   1   1  -8  157.14   11.59
   1   1  -8  175.74   19.85
   1   1  -8  184.55   11.68
   1   1  -8  184.33   11.90
  -1  -1   8  145.91   11.60
  -1  -1   8  186.75   11.60
  -1  -1   8  172.24   21.16
   0   1  -8  149.95   19.27
   0   1  -8  172.07   11.46
   0   1  -8  175.00   11.22
   0  -1   8  174.48   11.21
   0  -1   8  154.24   21.43
   0  -1   8  144.77   11.08
  -1   1  -8  268.12   17.06
  -1   1  -8  252.50   17.26
  -1   1  -8  241.25   27.25
   1  -1   8  257.53   17.08
   1  -1   8  251.15   26.65
   1  -1   8  242.21   16.78
  -2   1  -8   41.99   14.38
  -2   1  -8   39.20    3.55
  -2   1  -8   32.38    3.19
   2  -1   8   35.08    3.26
   2  -1   8   46.65   14.14
  -3   1  -8  158.51   11.39
   3  -1   8  153.63   10.58
   3  -1   8  135.67   27.75
   3  -1   8  159.91   11.23
  -4   1  -8   16.83    3.10
   4  -1   8   19.59    2.25
   4  -1   8   35.15   23.69
   4  -1   8   22.00    3.05
  -5   1  -8   23.44    3.78
   5  -1   8   31.70   32.92
  -6   1  -8   27.35    4.49
   6  -1   8   52.50   46.51
   7   0  -8   81.47    7.27
   7   0  -8   64.50    7.21
  -7   0   8   75.06    7.33
   6   0  -8   27.85   28.41
   6   0  -8   21.94    3.77
   6   0  -8   37.00    4.21
  -6   0   8   30.14    4.30
   5   0  -8  144.03   10.41
   5   0  -8  136.12   30.20
   5   0  -8  135.10   10.37
  -5   0   8   67.08   30.85
  -5   0   8  138.05   10.46
   4   0  -8   19.14   16.14
  -4   0   8    6.26   18.75
   3   0  -8  347.97   37.06
   3   0  -8  358.20   24.60
   3   0  -8  389.62   24.74
  -3   0   8  364.71   24.59
  -3   0   8  327.75   39.00
   2   0  -8    7.21    1.77
   2   0  -8   10.62    1.82
   2   0  -8   22.90    9.83
  -2   0   8   11.15    1.89
  -2   0   8    0.16    9.52
   1   0  -8  482.74   30.94
   1   0  -8  423.45   30.75
   1   0  -8  424.96   39.23
  -1   0   8  454.34   40.69
  -1   0   8  505.82   30.70
   0   0  -8  811.61   51.15
   0   0  -8  795.89   51.53
   0   0  -8  800.91   62.42
   0   0  -8  789.46   51.76
   0   0   8  798.94   51.52
   0   0   8  726.86   51.41
   0   0   8  791.54   61.41
  -1   0  -8   13.47   11.60
  -1   0  -8   27.04    2.72
   1   0   8   20.63    2.41
   1   0   8   13.96   11.01
  -2   0  -8  108.43    7.87
  -2   0  -8   90.67   22.11
   2   0   8  100.39    7.71
   2   0   8   97.86   21.62
  -3   0  -8  119.80    9.20
   3   0   8  142.16   28.00
  -4   0  -8   -2.12    1.81
   4   0   8  -31.96   25.08
   4   0   8    4.41    1.49
   4   0   8   -1.33    1.81
  -5   0  -8   20.09    3.54
   5   0   8    7.06   35.94
  -6   0  -8    1.42    2.51
   7  -1  -8   14.11    3.36
  -7   1   8   26.94    4.57
   6  -1  -8    7.65    2.62
   6  -1  -8    3.76    2.28
   6  -1  -8    2.42   26.41
  -6   1   8    2.43    2.62
  -6   1   8   21.98   31.73
   5  -1  -8  145.17   11.48
   5  -1  -8  136.95   30.25
   5  -1  -8  166.98   11.62
  -5   1   8  159.31   11.81
  -5   1   8  169.47   36.58
   4  -1  -8    3.02    1.91
   4  -1  -8    2.43   14.91
   4  -1  -8    6.39    1.93
  -4   1   8  -14.06   17.91
  -4   1   8    2.90    1.75
   3  -1  -8  103.35   20.05
   3  -1  -8  112.26    8.52
  -3   1   8  104.69   23.41
  -3   1   8  124.35    8.57
   2  -1  -8  253.49   28.61
  -2   1   8  284.05   31.18
  -2   1   8  280.69   18.63
   1  -1  -8    3.31    7.91
  -1   1   8   18.68   10.14
  -1   1   8   10.58    1.59
   0  -1  -8   17.08    2.31
   0  -1  -8   24.32   10.90
   0  -1  -8   14.89    1.32
   0   1   8    7.43    9.44
   0   1   8   16.35    1.88
  -1  -1  -8  134.29   23.93
  -1  -1  -8   97.74    7.51
   1   1   8   97.35    7.24
   1   1   8  133.21   21.07
  -2  -1  -8    0.92    1.47
  -2  -1  -8   -9.74   13.79
   2   1   8    2.51    1.47
   2   1   8   -7.17   12.38
  -3  -1  -8  116.81    9.10
   3   1   8  118.17    8.86
   3   1   8   85.52   26.29
  -4  -1  -8    5.71    2.23
   4   1   8    4.67    1.72
   4   1   8    6.57    2.44
   4   1   8  -14.57   27.78
  -5  -1  -8    5.86    2.59
   5   1   8    7.87    3.06
   5   1   8    3.28    1.91
   7  -2  -8   -8.13   35.44
   6  -2  -8   54.26    5.39
   6  -2  -8   21.39   26.82
   6  -2  -8   38.27    5.04
  -6   2   8   68.14   41.67
  -6   2   8   56.06    5.79
   5  -2  -8   76.71   22.95
   5  -2  -8   80.96    7.03
  -5   2   8   76.14   29.83
  -5   2   8   86.25    7.17
   4  -2  -8    1.35    1.76
   4  -2  -8   -0.55   12.77
   4  -2  -8    5.30    2.04
  -4   2   8   -1.33    1.73
  -4   2   8   10.40   18.40
   3  -2  -8   98.22   20.03
   3  -2  -8  139.64    9.95
  -3   2   8  132.30   25.45
  -3   2   8  140.00    9.90
   2  -2  -8   53.56    4.76
   2  -2  -8   45.76   13.35
  -2   2   8   61.44    4.62
  -2   2   8   41.99   15.46
   1  -2  -8   56.09    4.86
   1  -2  -8   58.12    4.32
   1  -2  -8   57.82   14.62
  -1   2   8   65.42    4.68
  -1   2   8   91.83   18.67
   0  -2  -8  728.35   49.38
   0  -2  -8  678.56   61.53
   0   2   8  872.61   63.78
   0   2   8  776.54   49.72
  -1  -2  -8    0.25   12.40
  -1  -2  -8   10.16    2.04
  -1  -2  -8    7.38    1.01
   1   2   8    0.68   12.04
   1   2   8    8.48    1.70
  -2  -2  -8    5.07    2.01
  -2  -2  -8   -3.09   16.09
   2   2   8    5.69    1.90
   2   2   8  -16.82   15.45
  -3  -2  -8  116.85    9.01
   3   2   8  141.06   32.68
   3   2   8  111.06    8.77
  -4  -2  -8   26.23    3.72
   4   2   8   18.30    2.99
   4   2   8   22.78    3.60
  -5  -2  -8   14.79    3.08
   5   2   8    8.95    2.95
   5   2   8    7.27    2.32
   7  -3  -8   -9.25   34.91
   7  -3  -8   -0.15    2.82
  -7   3   8   77.84   48.14
  -7   3   8   -0.04    2.95
   6  -3  -8   12.75   25.82
   6  -3  -8   12.05    3.17
  -6   3   8   16.71    3.49
  -6   3   8   36.03   34.24
   5  -3  -8   15.22    3.02
   5  -3  -8   14.77   19.15
   5  -3  -8   22.02    3.43
  -5   3   8   15.43    3.29
  -5   3   8    9.24   27.92
   4  -3  -8  100.02   22.44
   4  -3  -8   93.10    7.52
  -4   3   8  102.17    7.70
  -4   3   8   55.01   23.29
   3  -3  -8   60.13   15.82
   3  -3  -8   57.98    5.29
  -3   3   8   57.44   19.61
  -3   3   8   68.72    5.39
   2  -3  -8   75.47    5.52
   2  -3  -8   83.30   18.30
   2  -3  -8   67.76    5.93
  -2   3   8   83.60    5.82
  -2   3   8   55.49   16.89
   1  -3  -8  173.40   12.43
   1  -3  -8  183.46   27.64
   1  -3  -8  183.13   12.91
  -1   3   8  212.08   28.44
  -1   3   8  195.89   12.72
   0  -3  -8    3.74    1.63
   0  -3  -8    2.07    0.86
   0  -3  -8   14.54   11.81
   0   3   8    4.51   11.67
   0   3   8    3.61    1.41
  -1  -3  -8  228.00   36.99
  -1  -3  -8  278.90   18.04
   1   3   8  281.43   33.57
   1   3   8  266.07   18.46
  -2  -3  -8  256.61   40.52
  -2  -3  -8  208.22   14.86
   2   3   8  243.30   36.07
   2   3   8  203.12   14.61
  -3  -3  -8   63.82    6.14
   3   3   8   71.29    6.13
   3   3   8   74.83   31.77
  -4  -3  -8   21.34    3.41
   4   3   8   10.35    2.88
   4   3   8   15.28    2.78
   5   3   8    0.38    2.09
   5   3   8    6.16    2.80
  -7   4   8    1.29    3.05
   6  -4  -8   16.65   23.81
  -6   4   8    6.58    2.93
  -6   4   8  -20.51   35.49
   5  -4  -8   12.86   21.49
  -5   4   8  -17.60   27.03
  -5   4   8    2.05    2.39
   4  -4  -8    8.93    1.94
   4  -4  -8    3.06   13.79
  -4   4   8   30.89   23.77
  -4   4   8    6.15    2.37
   3  -4  -8   54.19    4.62
   3  -4  -8   54.16    4.89
   3  -4  -8   68.41   16.75
  -3   4   8   59.31    4.95
  -3   4   8   84.47   23.25
   2  -4  -8   11.05    1.77
   2  -4  -8   11.42    2.18
   2  -4  -8    3.65   12.01
  -2   4   8    1.81   15.62
  -2   4   8   13.93    2.13
   1  -4  -8    1.16    1.57
   1  -4  -8    3.51    1.16
   1  -4  -8    4.12   13.74
  -1   4   8   10.58   12.88
  -1   4   8    1.23    1.34
   0  -4  -8   39.15   17.53
   0  -4  -8   74.49    5.85
   0  -4  -8   70.95    5.26
   0   4   8   55.04   19.79
   0   4   8   69.62    5.56
  -1  -4  -8    3.99    1.85
  -1  -4  -8    3.08    1.13
  -1  -4  -8  -19.24   19.52
   1   4   8    4.50    1.75
   1   4   8   -5.06   16.10
  -2  -4  -8    8.48   24.12
  -2  -4  -8   38.58    4.19
   2   4   8   38.29    4.12
   2   4   8   88.37   28.43
   3   4   8    0.93    2.06
   4   4   8    2.22    2.55
   4   4   8    2.57    2.04
   7  -5  -8    3.75    2.50
  -7   5   8    4.86    3.44
   6  -5  -8    3.64    2.17
   6  -5  -8   12.54   28.02
  -6   5   8    3.21    3.04
   5  -5  -8   50.17    4.93
   5  -5  -8   67.97   25.31
  -5   5   8   65.58    5.95
  -5   5   8   29.97   33.04
   4  -5  -8   24.20    3.13
   4  -5  -8   22.70   18.83
  -4   5   8   29.21    3.71
  -4   5   8   -3.54   24.10
   3  -5  -8  175.35   28.23
   3  -5  -8  181.38   13.31
  -3   5   8  137.42   30.56
  -3   5   8  211.07   13.66
   2  -5  -8   42.54    3.95
   2  -5  -8   23.53   15.90
  -2   5   8   28.24   19.92
  -2   5   8   52.57    4.34
   1  -5  -8   20.91   17.07
   1  -5  -8   26.66    2.85
  -1   5   8   30.07    3.28
  -1   5   8   32.48   19.37
   0  -5  -8  350.58   23.89
   0  -5  -8  384.76   50.56
   0   5   8  350.36   41.72
   0   5   8  363.57   24.15
  -1  -5  -8   26.15   23.76
  -1  -5  -8    1.35    1.14
   1   5   8   -0.37    1.47
   1   5   8  -10.35   19.16
   2   5   8    0.92    2.00
   2   5   8   -6.42   25.16
   3   5   8   -2.11    1.93
   6  -6  -8   -3.69    1.86
  -6   6   8    4.47    3.00
   5  -6  -8   30.79   23.57
   4  -6  -8   18.13   19.88
   4  -6  -8    3.11    1.79
  -4   6   8    4.78    2.31
  -4   6   8  -10.17   25.06
   3  -6  -8   44.50   20.60
   3  -6  -8   48.32    4.51
  -3   6   8   54.00    4.70
  -3   6   8   11.36   22.05
   2  -6  -8   19.37    2.90
   2  -6  -8   28.77   19.77
  -2   6   8   26.09    3.04
  -2   6   8   28.96   21.24
   1  -6  -8   15.12   20.09
  -1   6   8   24.64   19.78
   0  -6  -8    3.76    1.46
   0  -6  -8    7.94   26.39
   0   6   8   -7.08   20.57
   0   6   8    1.60    1.77
  -1  -6  -8   18.79    2.37
  -1  -6  -8    1.47   31.83
   1   6   8   36.03   28.00
   1   6   8   16.19    2.79
   2   6   8    6.97    2.53
   5  -7  -8    1.32    2.19
  -5   7   8    0.00    2.49
   4  -7  -8    0.93    1.87
  -4   7   8    1.11    2.27
   3  -7  -8   13.10    2.51
   3  -7  -8   34.89   23.19
  -3   7   8   16.24    2.77
   2  -7  -8    5.46   24.09
   2  -7  -8    0.52    1.45
  -2   7   8    0.44    1.77
   1  -7  -8  -38.91   24.22
   1  -7  -8    1.33    1.41
  -1   7   8   -0.04    1.72
   0  -7  -8    2.85    1.65
   0   7   8    2.45    2.03
   1   7   8    2.15    2.16
   4  -8  -8   12.20    2.76
  -4   8   8    7.95    2.65
   3  -8  -8   -1.07    1.99
  -3   8   8   -3.21    1.86
   2  -8  -8   -0.67    1.54
  -2   8   8    1.37    2.12
   1  -8  -8    6.72    2.10
  -1   8   8    3.71    2.20
   1  10  -9    6.15    2.88
   1  10  -9    2.76    1.80
   0  10  -9    6.96    1.69
   0  10  -9    6.78    2.86
  -1  10  -9    5.47    1.24
  -1  10  -9    2.42    2.10
  -2  10  -9    1.17    0.90
   2 -10   9    4.53    2.08
   3   9  -9    7.53    2.78
   3   9  -9    4.95    3.04
   2   9  -9   14.85    2.88
   2   9  -9   12.21    3.28
   1   9  -9   70.37    6.58
   1   9  -9   67.68    5.66
   1   9  -9   39.80   19.07
   0   9  -9    1.40    1.24
   0   9  -9    1.15    2.05
  -1   9  -9   -0.64    0.91
  -1   9  -9    0.36    1.65
  -2   9  -9   -0.78    0.93
   2  -9   9    3.11    1.74
  -3   9  -9   31.37    2.96
   3  -9   9   35.06    3.69
  -4   9  -9    3.62    1.40
   4  -9   9    0.72    1.70
   4   8  -9    1.18    2.86
   4   8  -9   -1.72    2.46
   3   8  -9    0.08    2.21
   3   8  -9    2.13    2.53
   2   8  -9   68.11    6.50
   2   8  -9   70.32    6.03
   1   8  -9    0.61    1.77
   1   8  -9    1.25    1.56
   0   8  -9   -1.40    1.04
   0   8  -9   -1.76    1.59
  -1   8  -9   22.72    2.39
  -1   8  -9   22.35    2.02
  -1   8  -9   25.49    3.11
  -2   8  -9   -1.07    0.99
  -2   8  -9   -1.15    1.14
   2  -8   9    0.29    1.32
  -3   8  -9   26.57    2.79
   3  -8   9   26.05    3.08
  -4   8  -9   38.61    3.88
   4  -8   9   41.01    3.88
   5   7  -9    1.75    2.80
   5   7  -9    1.18    3.31
   4   7  -9    0.50    2.44
   4   7  -9    4.27    2.90
   3   7  -9  145.85   10.58
   3   7  -9  131.50   10.84
   2   7  -9   25.18    3.11
   2   7  -9   16.44    3.24
   1   7  -9    0.84   10.18
   1   7  -9    5.05    1.89
   1   7  -9    6.06    1.69
   0   7  -9   12.49    7.71
   0   7  -9    4.43    0.94
   0   7  -9    4.10    1.40
   0   7  -9    4.72    1.65
   0  -7   9  -16.66   11.59
  -1   7  -9   28.85    2.47
  -1   7  -9   32.35    2.85
  -1   7  -9   31.29    3.03
  -2   7  -9    4.13    1.29
  -2   7  -9    2.35    0.96
  -2   7  -9    3.50    1.43
   2  -7   9    4.23    1.48
  -3   7  -9   79.30    6.13
   3  -7   9   80.18    6.06
   3  -7   9   89.64   18.70
  -4   7  -9   30.83    3.69
   4  -7   9   38.04    3.35
   4  -7   9   21.40   24.51
  -5   7  -9   13.45    2.69
   5   6  -9    2.49    2.66
   5   6  -9    1.26    2.44
   4   6  -9   33.42    4.46
   4   6  -9   32.34    4.71
   3   6  -9   90.42    7.86
   3   6  -9   95.93    7.57
   2   6  -9  287.89   20.54
   2   6  -9  306.57   20.33
   1   6  -9   63.96   13.52
   1   6  -9   77.02    5.87
   1   6  -9   72.02    5.56
   1   6  -9   65.10    5.17
  -1  -6   9   84.24   20.42
   0   6  -9   22.21    2.51
   0   6  -9    3.61    7.65
   0   6  -9   14.93    1.72
   0  -6   9   -9.88   10.87
  -1   6  -9   34.14   10.21
  -1   6  -9   33.86    2.72
  -1   6  -9   30.89    2.94
  -1   6  -9   35.78    3.10
   1  -6   9   44.53   12.71
  -2   6  -9    9.70    1.71
  -2   6  -9   10.42    1.50
   2  -6   9   21.94   14.04
   2  -6   9   13.31    1.77
   2  -6   9   -1.93   10.43
  -3   6  -9   92.05    6.89
   3  -6   9   78.60   23.35
   3  -6   9   89.15    6.54
  -4   6  -9  134.47   10.34
   4  -6   9  130.64   33.42
   4  -6   9  146.22    9.82
  -5   6  -9    2.05    1.92
   6   5  -9   40.45    5.97
   6   5  -9   32.89    4.99
   5   5  -9   38.04    4.88
   5   5  -9   32.96    4.95
   4   5  -9   14.16    3.33
   4   5  -9   28.09    3.80
   3   5  -9  107.88    8.55
   3   5  -9  113.15    8.83
   2   5  -9   22.43    3.09
   2   5  -9   17.12   11.87
   2   5  -9   15.15    2.45
   2   5  -9   16.15    2.01
  -2  -5   9   13.64   18.41
   1   5  -9  118.73    8.42
   1   5  -9  128.86    8.36
   1   5  -9  100.72    7.91
   1   5  -9  122.60   17.81
  -1  -5   9   91.35   21.10
   0   5  -9   18.81    1.87
   0   5  -9   20.31    2.30
   0   5  -9   12.44    8.23
   0   5  -9   21.27    2.44
   0  -5   9    4.97   11.55
  -1   5  -9    0.89    0.85
  -1   5  -9    0.79    1.16
  -1   5  -9    6.16    8.84
  -1   5  -9   -0.61    0.75
   1  -5   9   -5.97    9.41
  -2   5  -9   -1.06    0.94
  -2   5  -9    0.55   10.12
  -2   5  -9    1.24    1.22
   2  -5   9   -4.84    9.73
   2  -5   9   -0.47    0.83
  -3   5  -9   81.00    5.89
   3  -5   9   66.10    5.17
   3  -5   9   67.91   23.24
  -4   5  -9   66.21    5.94
   4  -5   9   55.49   28.32
   4  -5   9   72.13    5.12
  -5   5  -9    2.95    1.93
  -6   5  -9   45.81    5.51
   6   4  -9    3.37    3.11
   6   4  -9    2.50    2.66
   5   4  -9   62.67    6.23
   5   4  -9   69.38    6.68
   4   4  -9   25.79    3.56
   4   4  -9   17.41    3.20
   3   4  -9  102.53    8.39
   3   4  -9  115.03    8.57
   3   4  -9  109.48   22.02
  -3  -4   9  111.50    7.77
   2   4  -9    5.56    1.79
   2   4  -9    6.23    1.23
   2   4  -9    7.56   10.83
   2   4  -9    1.72    1.49
  -2  -4   9    2.45    0.93
  -2  -4   9   -6.59   14.17
   1   4  -9   69.98    5.15
   1   4  -9   75.96    5.27
   1   4  -9   54.98    4.71
   1   4  -9   60.99   12.81
  -1  -4   9   59.37   17.07
  -1  -4   9   65.61    4.58
   0   4  -9    4.29    1.11
   0   4  -9    4.24    1.32
   0   4  -9   14.37    6.78
   0   4  -9    4.78    1.03
   0  -4   9    4.44    0.67
   0  -4   9    5.14    9.79
  -1   4  -9   13.40    1.93
  -1   4  -9   13.31    1.60
  -1   4  -9   12.33    1.30
  -1   4  -9   12.36    1.36
  -1   4  -9    8.10    9.77
   1  -4   9    8.92    8.86
  -2   4  -9   -0.03    0.99
  -2   4  -9  -10.97   10.06
  -2   4  -9    1.42    1.27
   2  -4   9   15.88    9.85
  -3   4  -9   26.74    3.12
   3  -4   9   17.01   19.25
   3  -4   9   20.86    1.91
  -4   4  -9   30.54    3.60
   4  -4   9   51.37   29.05
  -5   4  -9    3.44    2.07
   5  -4   9  -21.45   38.34
  -6   4  -9    1.09    2.32
   7   3  -9    9.14    3.89
   7   3  -9    7.67    3.38
   6   3  -9   19.69    3.84
   6   3  -9   15.33    3.57
   5   3  -9   11.68    2.97
   5   3  -9    8.76    2.85
   4   3  -9   34.96    4.47
   4   3  -9   41.82    4.60
   4   3  -9   25.69   17.91
  -4  -3   9   45.19    4.02
   3   3  -9   38.05    3.82
   3   3  -9   31.44   16.09
   3   3  -9   30.69    2.97
   3   3  -9   34.28    3.69
  -3  -3   9   37.22    3.21
  -3  -3   9    9.03   20.47
   2   3  -9   26.59    2.85
   2   3  -9   19.80    2.21
   2   3  -9    8.27   11.19
   2   3  -9   25.33    2.79
  -2  -3   9   24.47    2.20
  -2  -3   9    3.42   13.76
   1   3  -9  241.01   16.05
   1   3  -9  258.66   25.45
   1   3  -9  208.77   15.88
   1   3  -9  263.86   16.28
   0   3  -9  115.58    7.50
   0   3  -9  107.02    7.34
   0   3  -9  114.41    7.85
   0   3  -9   91.04   16.01
   0   3  -9  108.46    7.52
   0  -3   9  112.19    7.47
   0  -3   9   82.47   17.28
   0  -3   9   97.84    7.46
  -1   3  -9   -0.37    0.88
  -1   3  -9    5.14    9.18
  -1   3  -9    2.63    1.23
   1  -3   9    1.40    0.85
   1  -3   9    3.97    9.00
  -2   3  -9   16.53    2.25
  -2   3  -9   -1.30   12.31
  -2   3  -9   13.29    1.89
   2  -3   9   13.93    1.83
   2  -3   9   13.26   11.02
  -3   3  -9   48.16    4.45
  -4   3  -9   32.98    4.04
   4  -3   9   30.04   28.63
  -5   3  -9    1.44    2.10
   5  -3   9    8.59   32.97
  -6   3  -9    9.81    3.18
   7   2  -9   -3.66    2.76
   7   2  -9    3.93    2.90
   6   2  -9    1.50    2.45
   6   2  -9    2.03    2.56
  -6  -2   9    3.18    2.47
   5   2  -9   -3.56    2.01
   5   2  -9    2.64    2.09
  -5  -2   9   -0.68    1.95
   4   2  -9   87.70   24.16
   4   2  -9   74.93    7.18
   4   2  -9   94.61    7.32
  -4  -2   9  105.41    7.52
  -4  -2   9   25.64   25.16
   3   2  -9   27.93    3.15
   3   2  -9   18.80    2.74
   3   2  -9   11.87   12.53
  -3  -2   9   24.79    2.51
  -3  -2   9    6.37   17.18
   2   2  -9    3.74    0.99
   2   2  -9    1.22    1.52
   2   2  -9    0.28    1.20
   2   2  -9   -8.77    7.98
  -2  -2   9    0.65   11.55
  -2  -2   9    1.43    1.00
   1   2  -9   15.15    8.59
   1   2  -9   13.82    1.75
   1   2  -9   20.69    2.44
   1   2  -9   18.86    2.06
  -1  -2   9   16.99    1.84
  -1  -2   9    5.51    9.82
   0   2  -9  302.11   19.03
   0   2  -9  279.91   28.32
   0   2  -9  328.68   18.93
   0   2  -9  266.53   18.70
   0   2  -9  286.71   19.26
   0  -2   9  289.91   18.98
   0  -2   9  241.42   18.86
  -1   2  -9  152.05   10.24
  -1   2  -9  128.39   22.37
  -1   2  -9  162.99    9.97
   1  -2   9  144.15    9.94
   1  -2   9  123.42    9.56
  -2   2  -9   20.35   12.45
  -2   2  -9   10.84    2.00
  -2   2  -9    6.24    1.61
   2  -2   9    4.25   10.52
   2  -2   9    8.38    1.64
  -3   2  -9    8.47    2.17
   3  -2   9    8.17    1.85
  -4   2  -9    3.20    1.97
   4  -2   9  -10.89   26.13
  -5   2  -9   23.22    3.78
   5  -2   9   55.13   35.25
  -6   2  -9    4.77    2.94
   7   1  -9   10.92    3.71
   7   1  -9   15.34    3.71
  -7  -1   9   11.55    3.21
   6   1  -9   14.80    3.34
   6   1  -9   24.94    3.73
  -6  -1   9   24.50    3.76
   5   1  -9  191.45   13.75
   5   1  -9  165.44   35.92
   5   1  -9  190.34   13.76
  -5  -1   9  185.91   13.67
   4   1  -9  133.84   28.80
   4   1  -9  141.30   10.65
   4   1  -9  155.22   10.77
  -4  -1   9  106.40   31.21
  -4  -1   9  142.87   10.52
   3   1  -9  137.62   10.09
   3   1  -9  140.10   10.22
   3   1  -9  125.92   24.16
  -3  -1   9   91.80   25.24
  -3  -1   9  150.34   10.32
   2   1  -9  -11.50    8.79
   2   1  -9   -0.61    1.20
   2   1  -9   -1.48    1.30
   2   1  -9    2.24    1.30
  -2  -1   9  -15.30   12.02
  -2  -1   9   -0.50    0.92
   1   1  -9    2.82    1.44
   1   1  -9    1.77    0.93
   1   1  -9    3.46    7.57
   1   1  -9    2.61    1.13
  -1  -1   9    2.25    1.02
  -1  -1   9   -8.66    9.37
   0   1  -9    9.90    1.56
   0   1  -9    3.75    8.20
   0   1  -9   12.76    2.05
   0  -1   9    9.05    1.42
   0  -1   9   10.73    1.61
   0  -1   9   20.06   10.35
  -1   1  -9  746.42   46.23
  -1   1  -9  673.39   59.38
  -1   1  -9  694.79   46.46
   1  -1   9  656.98   45.92
   1  -1   9  705.56   46.23
   1  -1   9  758.02   58.73
  -2   1  -9  315.11   39.05
  -2   1  -9  371.50   24.77
   2  -1   9  383.33   39.31
   2  -1   9  376.57   24.03
   2  -1   9  352.36   24.50
  -3   1  -9   16.39   19.49
  -4   1  -9    5.55    2.30
   4  -1   9   -1.66   25.40
   5  -1   9   26.13   41.26
  -6   1  -9    3.09    2.78
   7   0  -9   65.23    6.63
   7   0  -9   54.26    6.58
  -7   0   9   63.98    6.57
   6   0  -9    6.23    2.95
   6   0  -9    2.31    2.35
   6   0  -9   -4.44   28.77
  -6   0   9    0.74    2.54
   5   0  -9   16.37    3.17
   5   0  -9   13.80    2.72
   5   0  -9   27.73   22.19
  -5   0   9   14.51    2.97
  -5   0   9   30.09   30.27
   4   0  -9   88.11    7.04
   4   0  -9   80.64   22.49
   4   0  -9   87.29    7.12
  -4   0   9  108.70   27.76
  -4   0   9   88.75    7.01
   3   0  -9   10.05    2.07
   3   0  -9    5.27    1.87
   3   0  -9   15.14   12.50
  -3   0   9   -3.86   15.09
  -3   0   9    9.98    1.91
   2   0  -9  307.89   21.04
   2   0  -9  311.12   20.86
   2   0  -9  345.26   33.00
  -2   0   9  284.41   33.16
   1   0  -9   13.04    2.18
   1   0  -9   17.87    9.82
  -1   0   9   13.68    1.85
  -1   0   9    3.26    9.87
   0   0  -9   95.73    6.85
   0   0  -9   81.23   17.38
   0   0  -9   88.63    5.98
   0   0   9   86.65    6.45
   0   0   9  100.08   19.22
  -1   0  -9   45.08    3.80
  -1   0  -9   28.81   13.34
   1   0   9   41.45    3.47
   1   0   9   44.48   13.17
   1   0   9   28.96    3.55
  -2   0  -9   32.62    3.74
  -2   0  -9   24.90   15.55
   2   0   9   55.77   18.47
  -3   0  -9  124.15    9.55
  -3   0  -9  130.60   32.21
   3   0   9  121.93    9.27
  -4   0  -9   10.07    2.75
   4   0   9    9.78    2.61
   4   0   9    6.18   28.36
   4   0   9   15.77    2.19
  -5   0  -9    9.57    2.86
   5   0   9   10.91   42.30
   7  -1  -9   22.71    3.97
  -7   1   9   21.22    4.13
   6  -1  -9   53.94    5.86
   6  -1  -9   60.75    5.90
   6  -1  -9   62.18   34.15
  -6   1   9   57.43    5.96
  -6   1   9    5.66   36.94
   5  -1  -9    0.86    2.24
   5  -1  -9    1.27   21.48
   5  -1  -9    3.09    2.22
  -5   1   9   21.60   28.12
  -5   1   9    2.10    2.36
   4  -1  -9   18.57   17.12
   4  -1  -9   20.56    2.92
   4  -1  -9   10.63    2.27
  -4   1   9   13.47    2.63
  -4   1   9    7.50   22.58
   3  -1  -9  188.49   13.33
   3  -1  -9  167.25   27.90
  -3   1   9  195.07   13.25
  -3   1   9  160.16   29.97
   2  -1  -9   -0.68    8.92
   2  -1  -9    1.31    1.54
  -2   1   9    3.67    1.34
  -2   1   9   11.44   13.55
   1  -1  -9   91.66    7.04
   1  -1  -9   93.02    6.30
   1  -1  -9   73.17   16.46
  -1   1   9   79.31   18.32
  -1   1   9   92.70    6.66
   0  -1  -9   15.11   11.59
   0  -1  -9    1.67    0.59
   0  -1  -9    4.03    1.55
   0   1   9    4.20    1.29
   0   1   9    6.48   10.67
  -1  -1  -9   24.20   14.61
  -1  -1  -9   16.18    2.61
   1   1   9   18.05    2.32
   1   1   9   13.95   12.81
  -2  -1  -9   44.00    4.33
  -2  -1  -9   41.00   18.49
   2   1   9   52.79   19.72
   2   1   9   42.21    4.10
  -3  -1  -9   32.11   25.39
  -4  -1  -9   76.99    6.79
   4   1   9   58.80    6.16
   4   1   9   74.45    5.81
   4   1   9    4.06   32.97
  -5  -1  -9   12.72    3.25
   7  -2  -9    0.14    2.74
   7  -2  -9  -11.65   36.15
  -7   2   9    3.01    3.25
   6  -2  -9    5.40    2.68
   6  -2  -9   10.61   26.76
  -6   2   9  -15.30   39.00
  -6   2   9    4.59    2.94
   5  -2  -9   31.05   22.43
   5  -2  -9   48.37    4.97
   5  -2  -9   51.97    5.27
  -5   2   9   46.52    5.28
  -5   2   9   70.48   28.91
   4  -2  -9   32.15    3.93
   4  -2  -9   28.53   16.25
  -4   2   9   28.12   22.73
  -4   2   9   29.63    3.74
   3  -2  -9    9.84   13.41
  -3   2   9   39.05    3.91
  -3   2   9   33.62   17.90
   2  -2  -9    8.94   10.40
  -2   2   9    5.66   12.86
   1  -2  -9   39.73    3.15
   1  -2  -9   39.86   13.65
  -1   2   9   48.42   14.26
  -1   2   9   43.59    3.70
   0  -2  -9    8.55    2.08
   0  -2  -9   10.09    1.19
   0  -2  -9   -2.42   12.43
   0   2   9    9.78   11.56
   0   2   9    7.97    1.67
  -1  -2  -9  208.58   14.38
  -1  -2  -9  204.47   32.49
   1   2   9  222.38   32.44
   1   2   9  195.78   14.05
  -2  -2  -9   10.23   21.05
  -2  -2  -9   22.05    3.27
   2   2   9   40.15   21.67
   2   2   9   20.55    2.98
  -3  -2  -9    3.91    2.14
   3   2   9    1.59    2.02
  -4  -2  -9   13.23    3.14
   4   2   9   11.00    2.92
   4   2   9    6.57    2.12
  -5  -2  -9    2.06    2.55
   5   2   9   -1.03    2.03
   7  -3  -9   18.41    4.22
   7  -3  -9  -14.41   38.67
  -7   3   9   17.62    4.16
   6  -3  -9  -40.35   23.95
   6  -3  -9    3.74    2.75
  -6   3   9    2.07    2.58
  -6   3   9  -26.34   40.74
   5  -3  -9   59.54   22.55
  -5   3   9   22.42   28.29
   4  -3  -9  216.27   34.02
   4  -3  -9  247.10   17.81
  -4   3   9  161.96   36.35
  -4   3   9  286.67   18.12
   3  -3  -9   -4.64   11.92
   3  -3  -9    8.65    2.25
  -3   3   9   -9.61   15.23
   2  -3  -9    2.46    1.15
   2  -3  -9    2.01    1.75
   2  -3  -9    6.87   12.01
  -2   3   9    5.72   14.23
  -2   3   9    5.77    1.73
   1  -3  -9  256.86   17.51
   1  -3  -9  220.27   32.80
   1  -3  -9  253.25   18.07
  -1   3   9  286.53   32.61
  -1   3   9  279.66   17.87
   0  -3  -9  398.70   26.43
   0  -3  -9  414.45   43.86
   0   3   9  405.51   26.80
   0   3   9  374.31   40.69
  -1  -3  -9    3.92   15.93
  -1  -3  -9    1.15    0.80
  -1  -3  -9    1.74    1.78
   1   3   9    2.82   18.17
   1   3   9    1.69    1.59
  -2  -3  -9    2.83    1.95
  -2  -3  -9  -32.28   20.23
   2   3   9    4.08    2.01
   2   3   9  -19.94   20.79
  -3  -3  -9    7.11    2.32
   3   3   9    1.38    2.25
  -4  -3  -9    2.56    2.21
   4   3   9   -3.97    2.26
   4   3   9    0.94    1.86
  -7   4   9    2.98    3.07
   6  -4  -9   16.69   29.64
  -6   4   9   -0.05   40.40
  -6   4   9    3.34    2.68
   5  -4  -9  -10.11   18.58
  -5   4   9   15.39   29.85
  -5   4   9    2.35    2.31
   4  -4  -9  -12.66   16.19
   4  -4  -9    7.89    1.95
  -4   4   9    3.19    2.37
  -4   4   9   31.73   24.72
   3  -4  -9   -1.35    1.78
   3  -4  -9   -1.12    1.21
   3  -4  -9   -6.60   13.20
  -3   4   9    2.69    1.80
  -3   4   9    4.45   18.93
   2  -4  -9   -1.17    1.17
   2  -4  -9   -3.67    1.39
   2  -4  -9   15.05   13.97
  -2   4   9    1.83    1.57
  -2   4   9  -20.63   15.62
   1  -4  -9   26.41   15.25
   1  -4  -9   14.72    2.00
   1  -4  -9   16.54    2.66
  -1   4   9    6.94   15.42
  -1   4   9   15.06    2.34
   0  -4  -9    1.04    1.03
   0  -4  -9   13.22   17.91
   0  -4  -9   -0.76    1.46
   0   4   9  -21.12   14.54
   0   4   9    2.01    1.59
  -1  -4  -9   82.87   28.65
  -1  -4  -9   95.89    6.87
   1   4   9   77.98   25.05
   1   4   9   99.34    7.51
  -2  -4  -9   -1.09   27.68
   2   4   9   32.75   28.13
   2   4   9   20.42    3.08
   3   4   9    0.01    2.21
   4   4   9    1.51    2.02
   4   4   9   -0.68    2.27
   6  -5  -9   -2.70    1.86
  -6   5   9    2.15    2.84
   5  -5  -9  -29.09   21.58
   5  -5  -9    1.16    1.87
  -5   5   9    5.31   31.94
  -5   5   9    7.03    2.64
   4  -5  -9   15.66   19.38
   4  -5  -9   45.48    4.42
  -4   5   9   57.36    5.29
  -4   5   9   75.66   30.94
   3  -5  -9    2.49    1.66
   3  -5  -9   -3.33   18.54
  -3   5   9    9.51   23.94
  -3   5   9    3.20    2.07
   2  -5  -9  268.73   42.45
   2  -5  -9  327.76   23.55
  -2   5   9  322.01   44.75
  -2   5   9  391.61   23.88
   1  -5  -9   53.53   22.93
   1  -5  -9   57.44    4.54
  -1   5   9   56.76    4.95
  -1   5   9   46.69   21.85
   0  -5  -9   13.19   24.52
   0  -5  -9   32.43    3.03
   0   5   9   32.07    3.55
   0   5   9   23.33   20.92
  -1  -5  -9    8.86   26.55
  -1  -5  -9   10.84    1.70
   1   5   9   30.91   27.08
   1   5   9    9.19    2.23
  -2  -5  -9   -8.12   32.95
   2   5   9    2.39   30.92
   3   5   9    1.16    2.37
   6  -6  -9    3.47    2.46
  -6   6   9    2.96    3.24
   5  -6  -9   12.67    2.85
  -5   6   9   21.37    3.66
   4  -6  -9    1.72   21.70
   4  -6  -9    2.24    1.84
  -4   6   9    4.41    2.40
   3  -6  -9  -11.23   20.81
  -3   6   9  -33.01   23.64
  -3   6   9   10.42    2.38
   2  -6  -9   11.93    2.18
   2  -6  -9    8.92   22.47
  -2   6   9   18.28    2.72
  -2   6   9    2.16   23.62
   1  -6  -9   -0.09   21.89
   1  -6  -9   15.79    2.31
  -1   6   9   16.75    2.71
  -1   6   9   23.98   25.15
   0  -6  -9    1.73    1.26
   0  -6  -9  -11.18   28.81
   0   6   9  -42.21   23.50
   0   6   9    0.53    1.81
  -1  -6  -9   28.96   34.33
   1   6   9   12.73    2.75
   2   6   9   24.35    3.81
   5  -7  -9   14.82    3.15
  -5   7   9   15.47    3.60
   4  -7  -9    4.98    2.09
  -4   7   9    3.18    2.57
   3  -7  -9    0.31    1.69
  -3   7   9    1.08    2.06
   2  -7  -9    6.98    1.93
  -2   7   9    6.22    2.21
   1  -7  -9   17.84    2.60
  -1   7   9   14.48    2.86
   0  -7  -9    4.58    1.62
   0   7   9    3.35    2.13
   1   7   9   18.90    3.43
   2  -8  -9    0.64    1.74
  -2   8   9    2.58    2.31
   0  10 -10    8.54    1.82
   0  10 -10    4.22    2.42
  -1  10 -10   20.58    2.40
   2   9 -10   66.00    7.08
   2   9 -10   82.05    6.65
   1   9 -10   24.79    4.03
   1   9 -10   32.69    3.62
   0   9 -10    6.68    1.68
   0   9 -10    9.44    2.31
  -1   9 -10    4.27    1.73
  -1   9 -10    1.12    1.14
  -2   9 -10    4.72    1.36
  -3   9 -10    0.53    1.27
   3  -9  10    5.79    1.90
   4   8 -10    2.37    3.32
   4   8 -10    2.35    2.71
   3   8 -10    9.22    3.07
   3   8 -10   15.00    3.15
   2   8 -10   35.63    4.13
   2   8 -10   34.84    4.63
   1   8 -10  106.44    8.67
   1   8 -10  108.77    8.09
   0   8 -10    8.61    2.09
   0   8 -10    3.15    7.12
   0   8 -10    3.71    1.61
  -1   8 -10   12.75    1.86
  -1   8 -10   10.51    2.01
  -2   8 -10   -2.26    1.06
  -3   8 -10    7.65    1.79
   3  -8  10    7.32    1.76
  -4   8 -10   44.62    4.44
   4  -8  10   48.61    4.26
   5   7 -10   13.92    3.92
   4   7 -10    7.76    2.80
   4   7 -10    3.44    2.90
   3   7 -10   71.15    6.37
   3   7 -10   68.20    6.67
   2   7 -10   -0.22    1.72
   2   7 -10   -1.16    1.81
   1   7 -10    1.43    1.64
   1   7 -10   -1.48    1.42
   0   7 -10  166.71   10.84
   0   7 -10  131.99   17.92
   0   7 -10  145.32   11.01
  -1   7 -10   -0.32    1.13
  -1   7 -10    0.12    1.12
  -1   7 -10   -4.18    8.53
   1  -7  10    3.93   11.63
  -2   7 -10    0.04    1.18
   2  -7  10    1.00   14.20
  -3   7 -10    5.35    1.73
   3  -7  10    4.11    1.44
   3  -7  10   -4.97   19.57
  -4   7 -10   17.04    2.75
  -5   7 -10    1.78    1.97
   5   6 -10   21.11    4.35
   5   6 -10   21.45    4.10
   4   6 -10    3.77    2.58
   4   6 -10    1.63    2.39
   3   6 -10   22.07    3.65
   3   6 -10   27.48    3.64
   2   6 -10   21.88    3.12
   2   6 -10   23.87    3.46
   1   6 -10   94.88    6.88
   1   6 -10   82.03    6.97
   1   6 -10  102.36   16.71
   0   6 -10    0.78    1.28
   0   6 -10  -10.74    8.65
   0   6 -10   -0.57    1.27
   0   6 -10   -0.03    0.81
   0  -6  10   25.51   15.50
  -1   6 -10   59.75   15.73
  -1   6 -10   85.93    6.38
  -1   6 -10   85.16    6.04
  -1   6 -10   85.09    6.09
   1  -6  10   91.64   17.66
  -2   6 -10   48.55    4.23
  -3   6 -10  113.09    8.40
   3  -6  10  114.04    7.92
   3  -6  10   64.61   26.17
  -4   6 -10   -0.21    1.59
   4  -6  10   -0.94   28.93
  -5   6 -10   12.65    2.83
   6   5 -10    1.91    3.06
   6   5 -10    4.68    3.15
   5   5 -10   55.50    5.74
   5   5 -10   48.45    6.06
   4   5 -10   -0.79    2.21
   4   5 -10   -0.45    2.12
   3   5 -10  187.48   13.38
   3   5 -10  185.02   13.57
   2   5 -10    8.33    2.19
   2   5 -10    5.80    1.99
   2   5 -10   16.75   13.76
   1   5 -10    6.57    1.74
   1   5 -10    7.63    1.25
   1   5 -10   23.03    9.71
   1   5 -10    5.07    1.74
  -1  -5  10   19.23   16.51
   0   5 -10   24.00   10.64
   0   5 -10   13.24    1.64
   0   5 -10   14.12    1.95
   0   5 -10    9.87    1.92
   0  -5  10   13.02   13.41
  -1   5 -10   18.48    2.36
  -1   5 -10   15.50   10.83
  -1   5 -10   16.56    1.96
  -1   5 -10   17.89    1.83
   1  -5  10   21.20   13.90
  -2   5 -10  133.56   24.78
  -2   5 -10  138.04    9.88
  -3   5 -10  129.33    9.52
   3  -5  10  106.07   30.30
   4  -5  10   23.90   29.88
  -5   5 -10    2.17    1.98
   6   4 -10    0.16    2.45
   6   4 -10    4.90    3.20
   5   4 -10   39.45    4.91
   5   4 -10   42.93    5.29
   4   4 -10   -2.29    1.90
   4   4 -10   -0.59    2.04
   3   4 -10    6.81    2.24
   3   4 -10    6.47    2.22
   2   4 -10   26.17    3.15
   2   4 -10    6.68   11.37
   2   4 -10   22.48    2.35
   2   4 -10   25.76    3.09
  -2  -4  10   21.23    2.20
  -2  -4  10   27.15   20.35
   1   4 -10  315.33   29.44
   1   4 -10  239.63   18.99
   1   4 -10  293.94   19.27
   1   4 -10  314.35   19.46
  -1  -4  10  291.60   18.88
  -1  -4  10  289.95   33.56
   0   4 -10  162.55   11.50
   0   4 -10  174.56   11.87
   0   4 -10  148.19   21.61
   0   4 -10  181.26   11.56
   0  -4  10  157.29   22.99
   0  -4  10  165.30   11.33
  -1   4 -10    5.19    1.51
  -1   4 -10    4.51    0.91
  -1   4 -10   -8.21    9.99
  -1   4 -10    2.79    1.09
   1  -4  10   -0.31   10.83
  -2   4 -10   66.67    5.48
  -2   4 -10   79.17   20.55
  -3   4 -10    0.88    1.54
  -4   4 -10    3.08    1.99
   4  -4  10    3.18   27.95
  -5   4 -10    3.38    2.30
   7   3 -10    6.90    3.29
   7   3 -10   -0.22    3.46
   6   3 -10   72.74    7.34
   6   3 -10   71.77    7.04
   5   3 -10   30.67    4.45
   5   3 -10   18.56    3.53
   4   3 -10   21.59    3.40
   4   3 -10   20.52    3.64
  -4  -3  10   20.15    2.70
   3   3 -10   10.09    2.38
   3   3 -10    9.11    2.22
   3   3 -10   13.74   15.32
  -3  -3  10   12.97    1.93
  -3  -3  10   -8.80   17.74
   2   3 -10   10.51    2.09
   2   3 -10    4.05   10.57
   2   3 -10    7.70    1.37
   2   3 -10    8.63    2.09
  -2  -3  10   10.10    1.48
  -2  -3  10    8.23   13.57
   1   3 -10    0.39    0.80
   1   3 -10    0.75    1.40
   1   3 -10   -3.05    7.85
   1   3 -10    0.75    1.10
  -1  -3  10   -0.90    0.58
   0   3 -10   -0.56    0.91
   0   3 -10    8.50    9.82
   0   3 -10    0.07    1.23
   0   3 -10   -1.10    0.84
   0  -3  10   -5.17    9.22
   0  -3  10    0.25    0.54
   0  -3  10    0.75    0.81
  -1   3 -10   19.16    1.42
  -1   3 -10   19.36    2.20
  -1   3 -10   17.42    2.45
  -1   3 -10   18.40   12.41
   1  -3  10   23.08   12.73
   1  -3  10   17.55    1.65
   1  -3  10   15.99    2.03
  -2   3 -10  104.81    7.91
  -2   3 -10  109.91   23.03
  -3   3 -10   53.40    5.04
  -4   3 -10    5.39    2.22
   4  -3  10    2.68   30.49
  -5   3 -10   27.37    4.30
   5  -3  10   46.54   41.29
   7   2 -10   -3.06    2.80
   7   2 -10   -1.54    2.58
   6   2 -10   20.91    3.95
   6   2 -10   23.20    4.11
  -6  -2  10   25.32    3.85
   5   2 -10   -0.88    2.22
   5   2 -10   -1.22    1.90
  -5  -2  10    1.47    1.97
   4   2 -10    5.33    2.24
   4   2 -10    1.24    2.10
   4   2 -10   -8.23   16.51
   3   2 -10    6.02   14.60
   3   2 -10    6.79    2.10
   3   2 -10    5.84    2.06
  -3  -2  10    0.66   16.24
  -3  -2  10    6.25    1.55
   2   2 -10    5.05    9.62
   2   2 -10    1.62    0.88
   2   2 -10   -1.02    1.49
   2   2 -10    1.27    1.33
  -2  -2  10   -5.72   14.41
  -2  -2  10   -0.83    0.92
   1   2 -10   30.18   10.65
   1   2 -10   19.27    2.09
   1   2 -10   21.28    2.39
   1   2 -10   22.57    2.72
  -1  -2  10    5.47   12.14
  -1  -2  10   20.00    2.13
   0   2 -10  177.41   12.01
   0   2 -10  194.85   12.77
   0   2 -10  183.69   22.83
   0   2 -10  188.75   12.42
   0  -2  10  160.00   12.24
   0  -2  10  174.76   25.47
   0  -2  10  194.12   12.41
  -1   2 -10   17.36   12.22
  -1   2 -10   20.58    2.70
  -1   2 -10   18.18    2.15
   1  -2  10   19.28    2.20
   1  -2  10   15.09    1.68
   1  -2  10    8.50   12.62
  -2   2 -10   16.12   15.54
  -3   2 -10   80.21    6.68
  -4   2 -10   -1.52    1.84
   4  -2  10  -15.35   27.36
  -5   2 -10    1.77    2.33
   5  -2  10    1.88   37.90
   7   1 -10   10.09    3.47
   7   1 -10    6.83    3.34
  -7  -1  10    4.85    3.20
   6   1 -10   11.49    3.05
   6   1 -10   16.78    3.72
  -6  -1  10    8.72    2.93
   5   1 -10   87.94    7.52
   5   1 -10   39.06   25.95
   5   1 -10   94.98    7.57
  -5  -1  10   82.45    7.24
   4   1 -10   12.39    2.72
   4   1 -10    7.45    2.51
   4   1 -10    8.95   17.79
  -4  -1  10    6.19    2.14
  -4  -1  10   11.84   23.22
   3   1 -10   28.54    3.44
   3   1 -10   31.92   14.82
   3   1 -10   33.61    3.73
  -3  -1  10   28.76   17.99
   2   1 -10   52.88   15.64
   2   1 -10   34.51    3.75
   2   1 -10   37.14    3.63
  -2  -1  10   38.40   16.67
  -2  -1  10   40.19    3.38
   1   1 -10   52.81    4.74
   1   1 -10   59.04    4.35
   1   1 -10   42.84   12.13
  -1  -1  10   54.14    4.25
  -1  -1  10    6.26   12.65
   0   1 -10    7.19    1.81
   0   1 -10    6.55    1.67
   0   1 -10   15.38   10.64
   0  -1  10   15.68   12.63
   0  -1  10    8.46    1.56
  -1   1 -10   27.80   14.14
  -1   1 -10   10.88    2.12
   1  -1  10    8.72    1.50
   1  -1  10   12.39    2.04
   1  -1  10   24.08   12.91
  -2   1 -10  202.71   33.66
  -2   1 -10  210.82   14.29
   2  -1  10  169.81   32.32
   2  -1  10  193.90   13.96
  -3   1 -10   89.61    7.42
   3  -1  10   91.47    6.41
   3  -1  10   88.64    7.09
  -4   1 -10   12.73    3.07
   4  -1  10   10.42   31.59
   5  -1  10    7.72   42.65
   7   0 -10    0.41    2.60
   7   0 -10    2.81    2.85
  -7   0  10    4.77    3.23
   6   0 -10   50.33    5.52
   6   0 -10   47.20    5.73
  -6   0  10   54.62    5.57
   5   0 -10   42.11   23.30
   5   0 -10   42.90    4.90
   5   0 -10   47.34    5.06
  -5   0  10   54.31   32.08
  -5   0  10   42.30    4.95
   4   0 -10   -0.82    1.75
   4   0 -10    0.78    2.07
   4   0 -10    2.05   18.08
  -4   0  10   -5.63   20.96
  -4   0  10    0.05    1.77
   3   0 -10   71.68    5.89
   3   0 -10   52.91   18.27
   3   0 -10   61.41    5.58
  -3   0  10   62.55   21.29
  -3   0  10   70.67    5.49
   2   0 -10  247.68   16.87
   2   0 -10  231.11   16.61
   2   0 -10  250.44   29.04
  -2   0  10  257.80   16.57
  -2   0  10  198.78   32.53
   1   0 -10   30.90   13.28
   1   0 -10   56.01    4.75
  -1   0  10   49.17   16.03
   0   0 -10   16.57    1.27
   0   0 -10   14.32   11.50
   0   0 -10   12.31    2.31
   0   0  10    4.84   12.35
  -1   0 -10   35.28    3.72
  -1   0 -10   38.28   17.22
   1   0  10   33.76   15.13
  -2   0 -10  170.22   12.12
  -2   0 -10  155.94   31.94
   2   0  10  158.75   11.75
   2   0  10  200.76   36.79
  -3   0 -10   17.07    3.12
   3   0  10   16.96    2.89
   4   0  10  -44.62   32.63
  -5   0 -10   14.49    3.51
   7  -1 -10   32.16    5.05
  -7   1  10   37.98    5.32
   6  -1 -10   15.64   30.28
   6  -1 -10    0.83    2.25
   6  -1 -10    1.77    2.71
  -6   1  10    0.90    2.55
   5  -1 -10    8.26    2.64
   5  -1 -10   10.94    2.86
   5  -1 -10    5.18   20.94
  -5   1  10   11.71    2.91
  -5   1  10    6.26   27.92
   4  -1 -10  154.16   11.43
   4  -1 -10  163.42   11.51
   4  -1 -10   93.94   24.30
  -4   1  10  106.55   31.48
  -4   1  10  160.79   11.43
   3  -1 -10   42.69   15.96
   3  -1 -10   45.04    4.36
   3  -1 -10   44.00    4.25
  -3   1  10   38.08   20.20
  -3   1  10   37.51    3.96
   2  -1 -10  288.56   20.35
   2  -1 -10  231.78   34.32
  -2   1  10  272.26   34.79
  -2   1  10  320.25   20.13
   1  -1 -10   36.12    3.83
   1  -1 -10   47.16   16.20
   1  -1 -10   34.03    2.70
  -1   1  10   34.76    3.36
  -1   1  10   33.98   13.84
   0  -1 -10  139.88   26.19
   0  -1 -10  170.66   11.78
   0  -1 -10  157.87   10.81
   0   1  10  156.96   26.39
   0   1  10  165.61   11.37
  -1  -1 -10   55.17    4.87
  -1  -1 -10   49.92   19.43
   1   1  10   61.10   19.27
   1   1  10   48.25    4.40
  -2  -1 -10  236.48   37.74
  -2  -1 -10  181.05   13.51
   2   1  10  183.18   38.43
   2   1  10  188.66   13.28
  -3  -1 -10    7.80    2.41
   3   1  10    6.16    2.35
  -4  -1 -10   14.72    3.20
   4   1  10   10.16    2.96
   4   1  10   15.70    2.53
  -5  -1 -10   11.84    3.37
   7  -2 -10   19.51    4.11
  -7   2  10   24.25    4.57
   6  -2 -10   26.10    4.33
   6  -2 -10   31.09   27.74
  -6   2  10   22.93   42.23
  -6   2  10   36.26    4.85
   5  -2 -10    0.96    2.16
   5  -2 -10    2.22   19.99
   5  -2 -10    4.95    2.51
  -5   2  10    8.87    2.70
  -5   2  10  -34.81   30.68
   4  -2 -10   13.94    2.89
   4  -2 -10   14.95   17.03
  -4   2  10   -9.95   21.03
  -4   2  10   11.58    2.83
   3  -2 -10  493.81   35.14
   3  -2 -10  497.59   49.39
  -3   2  10  576.17   35.14
  -3   2  10  461.80   54.23
   2  -2 -10   18.68    1.96
   2  -2 -10   18.82    2.92
   2  -2 -10   15.37   13.50
  -2   2  10   10.70   17.01
  -2   2  10   19.45    2.54
   1  -2 -10   16.90    2.78
   1  -2 -10   16.94    1.76
   1  -2 -10   41.33   15.68
  -1   2  10   12.55   13.94
  -1   2  10   20.48    2.48
   0  -2 -10   23.91   16.56
   0  -2 -10   18.99    1.74
   0  -2 -10   17.87    2.88
   0   2  10   10.02   14.13
   0   2  10   19.71    2.55
  -1  -2 -10  441.49   30.78
  -1  -2 -10  413.11   51.70
   1   2  10  458.58   30.48
   1   2  10  556.61   51.29
  -2  -2 -10    6.27    2.32
  -2  -2 -10    9.91   21.56
   2   2  10    5.00    2.01
  -3  -2 -10   20.46    3.48
   3   2  10   11.09    2.78
  -4  -2 -10    5.19    2.52
   4   2  10    2.39    2.28
   4   2  10    6.25    2.02
   7  -3 -10   28.81    4.86
   7  -3 -10   36.60   38.69
  -7   3  10   29.90    4.81
   6  -3 -10  -22.91   25.93
  -6   3  10   28.04   42.71
   5  -3 -10  -26.75   19.76
  -5   3  10   16.13   31.80
  -5   3  10    5.11    2.56
   4  -3 -10   27.27   19.09
   4  -3 -10   71.03    6.58
  -4   3  10   47.41   26.57
  -4   3  10   85.05    6.80
   3  -3 -10  102.79    7.65
   3  -3 -10   69.33   22.00
   3  -3 -10  101.28    8.24
  -3   3  10   85.78   28.49
  -3   3  10  121.76    8.36
   2  -3 -10   60.20    4.67
   2  -3 -10   88.79   21.48
   2  -3 -10   53.98    5.30
  -2   3  10   42.80   19.66
  -2   3  10   67.75    5.29
   1  -3 -10  422.70   49.02
   1  -3 -10  472.71   32.79
  -1   3  10  533.12   33.22
  -1   3  10  541.07   50.43
   0  -3 -10   26.79    3.57
   0  -3 -10   39.04   17.61
   0  -3 -10   27.10    2.47
   0   3  10   45.39   19.28
   0   3  10   30.33    3.27
  -1  -3 -10   40.02    4.48
  -1  -3 -10   67.95   26.28
   1   3  10   69.58   21.31
   1   3  10   45.14    4.24
  -2  -3 -10   10.14    2.66
  -2  -3 -10   23.09   27.40
   2   3  10    7.84    2.32
  -3  -3 -10    8.45    2.55
   3   3  10    4.31    2.42
   4   3  10    3.49    1.93
   4   3  10    1.42    2.45
  -7   4  10   15.52    4.35
   6  -4 -10  -12.18   27.80
  -6   4  10   -1.71    2.68
  -6   4  10    6.18   53.41
   5  -4 -10   10.83    2.26
   5  -4 -10   23.89   24.36
  -5   4  10   -6.04   31.17
  -5   4  10   13.11    3.24
   4  -4 -10   47.11    4.40
   4  -4 -10   36.36   20.69
  -4   4  10   20.64   30.47
  -4   4  10   56.87    5.43
   3  -4 -10   89.40    7.20
   3  -4 -10   78.05   23.90
  -3   4  10  110.08    7.91
  -3   4  10  117.50   31.05
   2  -4 -10    0.55    1.24
   2  -4 -10    0.87    1.88
   2  -4 -10   -7.46   15.54
  -2   4  10    0.58    1.67
  -2   4  10   -4.61   17.39
   1  -4 -10   14.65    2.05
   1  -4 -10   26.15   19.71
   1  -4 -10   18.04    2.84
  -1   4  10   16.87    2.64
  -1   4  10   39.89   19.95
   0  -4 -10   95.98    6.93
   0  -4 -10   63.54   25.84
   0   4  10   74.31   26.05
   0   4  10  100.84    7.58
  -1  -4 -10   29.03   28.08
   1   4  10   30.56   22.54
   1   4  10   16.79    2.80
  -2  -4 -10   27.83   32.18
   2   4  10   24.32    3.50
   3   4  10   -2.49    2.16
   6  -5 -10    2.67    2.19
  -6   5  10    3.53    3.29
   5  -5 -10   21.29    3.15
   5  -5 -10   41.04   26.24
  -5   5  10   23.46    4.10
   4  -5 -10    3.34   19.44
  -4   5  10  -26.56   30.46
  -4   5  10   15.03    3.20
   3  -5 -10    4.42    1.66
   3  -5 -10   -1.17   20.29
  -3   5  10   10.62   23.69
  -3   5  10    8.66    2.47
   2  -5 -10   16.21   20.18
   2  -5 -10   20.95    2.74
  -2   5  10   28.25    3.36
  -2   5  10   18.54   21.58
   1  -5 -10   21.85   24.12
  -1   5  10  -24.74   23.76
   0  -5 -10   -7.30   24.24
   0   5  10    6.91   24.33
  -1  -5 -10   17.40   33.77
   1   5  10    8.18    2.51
   1   5  10  -12.43   25.92
  -2  -5 -10  -10.40   38.94
   2   5  10   -0.62    2.13
   5  -6 -10    9.66    2.64
  -5   6  10    8.44    3.09
   4  -6 -10  -20.51   28.00
   4  -6 -10    4.14    1.85
  -4   6  10    4.68    2.49
   3  -6 -10   21.32    2.95
   3  -6 -10   -1.54   21.80
  -3   6  10   27.83    3.61
   2  -6 -10    3.63    1.55
   2  -6 -10    7.33   23.90
  -2   6  10  -45.43   25.42
  -2   6  10    2.40    1.95
   1  -6 -10   -0.79    1.24
   1  -6 -10   -1.74   29.76
  -1   6  10   -0.19    1.92
  -1   6  10   10.57   28.93
   0  -6 -10    0.38    1.18
   0  -6 -10  -10.17   33.93
   0   6  10   -3.40    1.71
   1   6  10   -3.65    1.91
   4  -7 -10   13.33    2.79
  -4   7  10    8.39    3.10
   3  -7 -10   -0.88    1.88
  -3   7  10   -3.14    2.12
   2  -7 -10   -0.13    1.45
  -2   7  10    0.07    2.22
   1  -7 -10    0.56    1.47
  -1   7  10    2.46    2.31
   0  -7 -10   38.02    3.79
   0   7  10   43.02    4.72
   2   9 -11    1.16    2.54
   2   9 -11    1.86    2.18
   1   9 -11    6.43    2.55
   1   9 -11    4.79    1.96
   0   9 -11   34.25    4.26
   0   9 -11   42.71    3.88
  -1   9 -11    2.16    1.43
  -2   9 -11   16.99    2.24
  -3   9 -11   14.67    2.29
   3   8 -11    4.66    2.86
   3   8 -11    3.34    2.49
   2   8 -11   68.80    6.17
   2   8 -11   69.41    6.59
   1   8 -11    8.76    2.42
   1   8 -11    9.39    2.19
   0   8 -11    5.92    2.03
   0   8 -11   12.17    2.02
  -1   8 -11    1.40    1.42
  -2   8 -11    1.26    1.44
  -3   8 -11    8.16    2.04
   3  -8  11   10.45    1.97
  -4   8 -11    7.20    2.25
   4   7 -11   70.31    6.66
   4   7 -11   69.24    7.07
   3   7 -11   46.42    5.04
   3   7 -11   45.69    5.30
   2   7 -11   26.95    3.79
   2   7 -11   29.76    3.64
   1   7 -11   -4.07    1.40
   1   7 -11    2.76    1.78
   0   7 -11  145.45   10.01
   0   7 -11  133.06   10.01
  -1   7 -11   -0.45    1.30
  -1   7 -11    0.70    1.42
  -2   7 -11   -1.13    1.33
   2  -7  11  -12.65   17.63
   3  -7  11  -21.32   24.62
  -4   7 -11   13.63    2.72
   5   6 -11   69.70    7.43
   5   6 -11   71.43    7.00
   4   6 -11  108.57    9.74
   4   6 -11  131.29    9.85
   3   6 -11   13.08    2.88
   3   6 -11   19.72    3.54
   2   6 -11   -0.29    1.77
   2   6 -11   -2.15    1.59
   1   6 -11   60.96    5.41
   1   6 -11   66.16    5.43
   0   6 -11    2.71    1.49
   0   6 -11    4.26    1.71
  -1   6 -11   24.67    2.97
  -1   6 -11   22.90    2.32
  -2   6 -11   19.77    2.65
  -3   6 -11   52.14    4.87
   3  -6  11   50.82   27.29
  -4   6 -11   11.88    2.63
  -5   6 -11    0.73    2.19
   6   5 -11   32.66    5.66
   6   5 -11   25.01    4.77
   5   5 -11   14.35    3.76
   5   5 -11    9.91    3.26
   4   5 -11    1.23    2.65
   4   5 -11   -0.96    2.20
   3   5 -11   12.95    2.78
   3   5 -11   13.63    3.07
   2   5 -11  117.46    9.03
   2   5 -11  121.48    9.04
   1   5 -11   26.44    3.21
   1   5 -11   17.28   12.74
   1   5 -11   32.30    3.53
   0   5 -11   42.86    4.14
   0   5 -11   45.00    3.76
   0   5 -11   32.41   12.98
  -1   5 -11    3.17    1.67
  -2   5 -11    5.61    1.89
   3  -5  11   35.36   26.37
   4  -5  11   10.09   37.24
  -5   5 -11    0.86    2.25
   6   4 -11   11.80    3.55
   6   4 -11   16.25    4.32
   5   4 -11   25.08    4.35
   5   4 -11   27.76    4.29
   4   4 -11   10.00    2.92
   4   4 -11    8.88    2.91
   3   4 -11  163.10   11.85
   3   4 -11  159.61   11.86
   2   4 -11   18.89    2.84
   2   4 -11   16.41    2.57
   2   4 -11   32.24   14.99
   1   4 -11  107.26    7.59
   1   4 -11   78.75   16.11
   1   4 -11   94.34    7.27
  -1  -4  11   98.80   23.68
   0   4 -11   73.29    5.74
   0   4 -11   61.85   15.28
   0   4 -11   70.74    5.22
   0   4 -11   67.99    5.30
   0  -4  11   63.30   17.81
  -1   4 -11   30.70    3.43
  -1   4 -11   33.07   15.50
  -2   4 -11    0.46    1.53
  -3   4 -11   83.37    6.83
  -4   4 -11    0.01    1.96
   4  -4  11  -17.44   33.52
  -5   4 -11    1.22    2.37
   6   3 -11   14.03    3.69
   6   3 -11   14.29    3.55
   5   3 -11   18.02    3.52
   5   3 -11   15.88    3.60
   4   3 -11   11.42    3.04
   4   3 -11   19.76    3.35
  -4  -3  11   18.23    2.77
   3   3 -11   75.57    6.48
   3   3 -11   81.35   21.68
   3   3 -11   78.32    6.59
  -3  -3  11   79.10    5.94
   2   3 -11    2.21    1.87
   2   3 -11    7.26   11.38
   2   3 -11   -0.77    1.37
  -2  -3  11    0.09    1.07
  -2  -3  11    8.34   16.48
   1   3 -11    1.27    0.89
   1   3 -11   -2.41    1.16
   1   3 -11    3.52    8.39
   1   3 -11   -2.09    1.42
  -1  -3  11    7.76   15.47
  -1  -3  11   -0.07    0.90
   0   3 -11   11.10    1.02
   0   3 -11    7.38    1.93
   0   3 -11    7.76    9.98
   0   3 -11    9.11    1.52
   0   3 -11    6.10    1.52
  -1   3 -11   27.09    3.31
  -1   3 -11   36.22   12.97
  -2   3 -11    3.21    1.80
  -3   3 -11  114.12    8.97
  -4   3 -11   12.22    3.09
   4  -3  11   16.07   33.90
  -5   3 -11    1.98    2.25
   7   2 -11   -0.84    2.90
   7   2 -11    1.41    3.56
   6   2 -11   39.82    5.12
   6   2 -11   34.01    4.94
   5   2 -11   85.87    7.48
   5   2 -11   85.43    7.50
  -5  -2  11   77.36    6.82
   4   2 -11   42.13    4.89
   4   2 -11   37.57    4.70
   3   2 -11    4.58    2.13
   3   2 -11   -4.10   14.31
   3   2 -11    4.79    1.87
  -3  -2  11  -17.47   18.36
  -3  -2  11    4.89    1.66
   2   2 -11   39.82   14.42
   2   2 -11   50.59    4.46
   2   2 -11   49.71    4.80
  -2  -2  11   63.79   21.60
  -2  -2  11   49.46    4.08
   1   2 -11  162.98   24.55
   1   2 -11  197.55   12.92
   1   2 -11  201.38   13.37
   1   2 -11  159.58   12.81
  -1  -2  11  200.05   12.86
  -1  -2  11  196.40   28.80
   0   2 -11  101.94    7.18
   0   2 -11  136.96   23.01
   0   2 -11   89.71    6.15
   0   2 -11   89.23    6.68
   0  -2  11  102.43   20.59
   0  -2  11  101.21    6.69
   0  -2  11   77.99    6.64
  -1   2 -11   81.54    6.23
  -1   2 -11   65.99   17.54
   1  -2  11   96.11   21.37
   1  -2  11   69.93    5.71
  -2   2 -11   79.29    6.66
   2  -2  11   80.18    7.03
  -3   2 -11   29.66    3.96
   4  -2  11   12.19   36.09
  -5   2 -11   -1.41    2.16
   7   1 -11   20.91    4.28
   7   1 -11   20.06    4.35
  -7  -1  11   16.57    4.31
   6   1 -11    3.76    2.71
   6   1 -11    0.13    2.42
  -6  -1  11    6.17    2.64
   5   1 -11    7.48    2.82
   5   1 -11    7.74    2.75
  -5  -1  11    5.77    2.32
   4   1 -11  231.34   17.18
   4   1 -11  195.71   35.87
   4   1 -11  234.46   17.30
  -4  -1  11  275.75   17.23
   3   1 -11   49.33    4.91
   3   1 -11   22.94   16.06
   3   1 -11   46.12    4.48
  -3  -1  11   21.03   21.62
  -3  -1  11   46.04    4.60
   2   1 -11   70.86    5.94
   2   1 -11   72.28   17.43
   2   1 -11   67.63    5.48
  -2  -1  11   44.96   20.54
  -2  -1  11   69.13    5.29
   1   1 -11   -3.95   10.34
   1   1 -11    0.77    1.67
  -1  -1  11   -0.99    1.16
  -1  -1  11    1.96   12.15
   0   1 -11    8.87    2.16
   0   1 -11    5.24   12.72
   0  -1  11    9.29   12.97
   0  -1  11    8.93    1.69
  -1   1 -11    0.34    1.59
  -1   1 -11  -11.38   12.78
   1  -1  11   -2.70    1.28
   1  -1  11    3.31   13.02
  -2   1 -11    1.16    1.87
   2  -1  11   -0.07    1.63
  -3   1 -11   80.84    6.98
   4  -1  11    9.97   33.05
  -5   1 -11    6.11    3.07
   5  -1  11   14.42   48.27
   7   0 -11    1.74    3.13
   7   0 -11    8.14    3.44
  -7   0  11   10.79    3.52
   6   0 -11    5.79    2.85
   6   0 -11    5.22    2.94
  -6   0  11    7.15    3.04
   5   0 -11   52.90    5.55
   5   0 -11   50.82    5.48
   5   0 -11   25.70   24.14
  -5   0  11   58.31    5.45
   4   0 -11   10.74    2.80
   4   0 -11   -3.88   17.15
   4   0 -11    3.55    2.46
  -4   0  11  -36.74   24.65
  -4   0  11   11.05    2.58
   3   0 -11   46.82   18.03
   3   0 -11   44.49    4.69
   3   0 -11   41.83    4.44
  -3   0  11   50.56    4.31
  -3   0  11   52.57   23.64
   2   0 -11   24.34    3.19
   2   0 -11    7.94   12.10
  -2   0  11   20.53    2.57
  -2   0  11   25.97   18.22
   1   0 -11  139.14   10.33
   1   0 -11  141.13   24.11
  -1   0  11  119.24   23.69
  -1   0  11  142.11    9.87
   0   0 -11    8.03    2.19
   0   0 -11    9.00    0.86
   0   0 -11  -10.88   12.46
   0   0  11    5.74    1.64
   0   0  11   15.73   14.61
  -1   0 -11   74.27   20.89
  -1   0 -11   50.82    5.07
   1   0  11   48.10   21.04
   1   0  11   54.28    4.65
  -2   0 -11   32.35    3.93
   2   0  11   23.12    3.23
  -3   0 -11   29.96    3.93
   3   0  11   21.18    3.36
   4   0  11   31.74   38.03
  -5   0 -11   84.46    8.08
   7  -1 -11    9.73    3.86
  -7   1  11   12.58    3.82
   6  -1 -11    4.63    2.81
   6  -1 -11   14.23    3.32
  -6   1  11   10.04    3.24
   5  -1 -11    0.94    2.34
   5  -1 -11   -5.26   21.53
   5  -1 -11    1.95    2.20
  -5   1  11    6.28   33.21
  -5   1  11    3.23    2.36
   4  -1 -11   13.00   17.40
   4  -1 -11    3.03    2.14
   4  -1 -11    0.86    2.22
  -4   1  11   -8.03   24.82
  -4   1  11    0.94    2.25
   3  -1 -11   18.21    3.22
   3  -1 -11   18.83   16.45
  -3   1  11   25.88    3.17
  -3   1  11   27.26   22.28
   2  -1 -11  289.37   35.52
   2  -1 -11  284.29   21.39
  -2   1  11  351.69   21.26
  -2   1  11  253.90   40.32
   1  -1 -11  165.40   12.27
   1  -1 -11  145.82   26.18
   1  -1 -11  169.48   11.39
  -1   1  11  165.75   28.55
  -1   1  11  177.50   11.93
   0  -1 -11   51.11   18.50
   0  -1 -11   50.12    4.79
   0  -1 -11   48.58    3.50
   0   1  11   28.07   16.04
   0   1  11   51.95    4.37
  -1  -1 -11   14.62   18.65
  -1  -1 -11   28.21    3.80
   1   1  11   24.23    3.17
   1   1  11    8.63   18.49
  -2  -1 -11    0.34    1.95
   2   1  11    0.25    1.77
  -3  -1 -11   14.97    3.24
   3   1  11   15.04    2.93
  -4  -1 -11   23.32    4.24
   7  -2 -11   12.67    3.83
  -7   2  11   14.19    3.97
   6  -2 -11    1.98    3.03
   6  -2 -11    5.46   29.43
  -6   2  11    2.37    2.80
   5  -2 -11   -0.78    2.18
   5  -2 -11   -0.07    2.08
   5  -2 -11   -9.81   23.62
  -5   2  11    0.31    2.28
  -5   2  11   40.40   33.56
   4  -2 -11   79.04   23.55
   4  -2 -11   87.71    7.96
  -4   2  11   69.98   29.26
  -4   2  11  112.46    8.19
   3  -2 -11   79.42    7.26
   3  -2 -11   83.10   22.28
  -3   2  11   63.77   27.34
  -3   2  11   96.11    7.17
   2  -2 -11    4.96   15.61
   2  -2 -11    0.24    2.00
   2  -2 -11   -0.46    1.06
  -2   2  11    7.37   16.71
  -2   2  11    1.44    1.71
   1  -2 -11   -1.22   14.08
   1  -2 -11    0.46    1.92
   1  -2 -11    1.35    0.91
  -1   2  11    0.88    1.63
  -1   2  11  -23.37   15.26
   0  -2 -11  139.23   32.90
   0  -2 -11  132.23    9.32
   0  -2 -11  148.60   10.53
   0   2  11  144.58   27.92
   0   2  11  137.05    9.98
  -1  -2 -11  -15.22   19.59
  -1  -2 -11    4.93    2.25
   1   2  11    2.53    1.74
   1   2  11    1.61   20.04
  -2  -2 -11   52.99    5.43
   2   2  11   50.81    4.96
  -3  -2 -11   -1.90    2.03
   3   2  11   -0.12    2.04
  -4  -2 -11    1.74    2.61
   4   2  11    4.61    2.24
   4   2  11   -1.43    2.64
  -7   3  11    8.46    3.67
   6  -3 -11   39.60   30.55
  -6   3  11    7.86    3.09
  -6   3  11  -73.16   43.58
   5  -3 -11   -5.06   25.16
  -5   3  11   10.18   37.65
  -5   3  11    1.58    2.47
   4  -3 -11  -14.72   17.18
  -4   3  11    2.60    2.27
  -4   3  11   -4.45   26.31
   3  -3 -11  384.50   26.60
   3  -3 -11  340.24   47.17
  -3   3  11  445.36   27.16
  -3   3  11  269.10   47.24
   2  -3 -11   40.47    3.48
   2  -3 -11   58.37   21.21
   2  -3 -11   31.17    4.72
  -2   3  11   50.38    4.46
  -2   3  11   73.58   24.28
   1  -3 -11   46.16    3.80
   1  -3 -11   28.10   18.89
   1  -3 -11   43.23    4.73
  -1   3  11   29.52   21.74
  -1   3  11   59.11    4.76
   0  -3 -11   39.47   22.30
   0  -3 -11   40.00    4.44
   0  -3 -11   39.20    3.22
   0   3  11   43.38    4.21
   0   3  11   40.58   22.32
  -1  -3 -11   50.22    5.14
  -1  -3 -11   80.74   30.98
   1   3  11   52.51    4.96
   1   3  11   64.05   28.86
  -2  -3 -11   -2.32    2.16
   2   3  11   -1.19    1.80
  -3  -3 -11   -0.14    2.36
   3   3  11   -0.59    2.39
   6  -4 -11  -18.87   34.12
  -6   4  11    6.32    3.26
   5  -4 -11    3.09   23.94
   5  -4 -11   -1.49    1.74
  -5   4  11    3.85   39.47
  -5   4  11    1.74    2.66
   4  -4 -11   19.16   22.07
  -4   4  11   10.98   31.65
   3  -4 -11   60.70   22.44
   3  -4 -11   53.52    4.72
  -3   4  11   47.86   26.10
  -3   4  11   66.98    5.67
   2  -4 -11  -36.12   17.34
   2  -4 -11    3.46    1.35
  -2   4  11  -19.43   24.62
  -2   4  11    2.09    1.90
   1  -4 -11   40.77    3.58
   1  -4 -11   35.07   23.50
  -1   4  11   50.45   23.51
  -1   4  11   47.18    4.44
   0  -4 -11    3.64    1.14
   0  -4 -11  -14.18   23.42
   0   4  11    1.30    1.95
   0   4  11  -32.91   23.39
  -1  -4 -11   -9.45   29.34
   1   4  11    2.08    1.93
   1   4  11   19.06   35.48
   2   4  11   12.35    2.95
   3   4  11   20.03    3.73
   6  -5 -11    3.00    2.50
  -6   5  11    1.87    3.20
   5  -5 -11  -10.97   27.71
   5  -5 -11    2.84    2.06
  -5   5  11    1.80    2.73
   4  -5 -11   30.72   24.57
   4  -5 -11    2.28    1.67
  -4   5  11    5.80    2.75
  -4   5  11  -19.22   36.72
   3  -5 -11  -10.80   21.07
   3  -5 -11    0.00    1.39
  -3   5  11    0.38    2.07
  -3   5  11   18.40   32.90
   2  -5 -11  -21.62   24.29
   2  -5 -11    1.45    1.39
  -2   5  11    6.30    2.35
  -2   5  11   -5.30   28.41
   1  -5 -11   24.85   28.27
   1  -5 -11    3.13    1.27
  -1   5  11    0.06    1.92
  -1   5  11   -4.33   28.08
   0  -5 -11  -17.72   29.24
   0   5  11  -30.56   28.60
   0   5  11    5.76    2.34
  -1  -5 -11   60.26   42.47
   2   5  11    5.38    2.50
   5  -6 -11    2.31    2.11
  -5   6  11    6.88    3.19
   4  -6 -11   24.73    3.56
  -4   6  11   45.52    4.80
   3  -6 -11   12.38    2.43
  -3   6  11   14.05    3.17
   2  -6 -11  -11.91   29.59
   2  -6 -11    9.09    2.03
  -2   6  11   10.10    2.75
   1  -6 -11   30.54   40.69
   1  -6 -11   20.48    2.64
  -1   6  11   14.97    3.08
   0  -6 -11    1.58    1.28
   0   6  11    0.44    2.09
   2  -7 -11    3.75    1.77
  -2   7  11    2.81    2.53
   2   9 -12   24.11    4.19
   1   9 -12   24.13    3.88
   1   9 -12   29.87    3.56
   0   9 -12    4.45    1.84
   0   9 -12    6.10    2.33
  -1   9 -12    4.37    1.79
  -2   9 -12   -1.50    1.35
   3   8 -12    1.84    2.35
   3   8 -12    4.68    2.77
   2   8 -12   32.91    4.37
   2   8 -12   28.38    3.89
   1   8 -12   23.14    3.62
   1   8 -12   34.22    3.83
   0   8 -12   14.85    2.47
   0   8 -12   10.13    2.20
  -1   8 -12    8.90    2.01
   2  -8  12    7.26   15.38
  -3   8 -12    3.87    1.98
   4   7 -12   58.41    6.27
   4   7 -12   60.93    6.64
   3   7 -12    2.28    2.34
   3   7 -12    5.93    2.64
   2   7 -12   54.22    5.08
   2   7 -12   45.63    5.07
   1   7 -12    3.73    2.05
   1   7 -12    8.57    2.14
   0   7 -12   15.91    2.61
   0   7 -12   20.04    2.69
  -1   7 -12    1.24    1.67
  -2   7 -12   57.80    5.12
  -3   7 -12    3.02    1.91
  -4   7 -12   10.16    2.72
   5   6 -12    0.83    2.95
   5   6 -12    4.15    3.06
   4   6 -12    7.54    3.01
   4   6 -12   10.56    3.39
   3   6 -12   50.19    5.53
   3   6 -12   54.40    5.44
   2   6 -12   21.63    3.35
   2   6 -12   22.54    3.37
   1   6 -12    7.87    2.04
   1   6 -12    5.13    2.06
   0   6 -12   30.88    3.50
   0   6 -12   25.87    3.01
  -1   6 -12    1.47    1.66
  -2   6 -12   59.27    5.27
   3  -6  12    6.35   32.10
  -4   6 -12    0.03    2.00
   5   5 -12    3.83    2.81
   5   5 -12    3.08    3.01
   4   5 -12   -0.39    2.35
   4   5 -12   -0.66    2.28
   3   5 -12   -0.18    2.15
   3   5 -12    1.53    2.23
   2   5 -12   12.35    2.65
   2   5 -12   13.55    2.54
   1   5 -12   24.10    3.39
   1   5 -12   35.80    3.46
   0   5 -12    6.85    1.96
   0   5 -12    5.68    1.57
  -1   5 -12    0.90    1.68
  -2   5 -12   17.12    2.71
  -3   5 -12   -0.95    1.67
  -4   5 -12    7.76    2.55
   6   4 -12    1.75    3.08
   6   4 -12   -0.60    3.07
   5   4 -12    4.32    3.14
   5   4 -12    3.78    2.78
   4   4 -12    0.62    2.46
   4   4 -12    4.13    2.60
   3   4 -12  173.77   13.05
   3   4 -12  184.04   13.08
   2   4 -12    0.77    1.88
   2   4 -12   -0.79    1.60
   1   4 -12    7.43    2.14
   1   4 -12    7.46    1.83
   0   4 -12   46.90    3.75
   0   4 -12   41.80    4.25
  -1   4 -12   11.12    2.24
  -2   4 -12   40.59    4.24
  -3   4 -12   12.92    2.70
  -4   4 -12    1.45    2.29
  -5   4 -12   15.33    3.58
   6   3 -12    6.96    3.22
   6   3 -12    2.30    3.31
   5   3 -12    4.68    2.83
   5   3 -12    2.33    2.62
   4   3 -12  242.43   17.09
   4   3 -12  237.37   17.14
   3   3 -12   15.58    2.94
   3   3 -12    9.40    2.59
   2   3 -12   48.21    4.25
   2   3 -12   41.94    4.60
  -2  -3  12   40.53    3.64
   1   3 -12   41.05    4.06
   1   3 -12   21.28   13.73
   1   3 -12   42.78    3.72
  -1  -3  12   33.73    3.27
   0   3 -12   14.67   11.78
  -1   3 -12   23.41    3.19
  -2   3 -12  150.36   11.16
  -3   3 -12  100.15    8.25
  -4   3 -12    5.75    2.72
   4  -3  12    9.02   34.59
  -5   3 -12    4.69    3.03
   6   2 -12   -0.23    2.70
   6   2 -12    5.76    3.41
   5   2 -12    5.68    2.94
   5   2 -12    3.45    2.60
  -5  -2  12    3.34    2.27
   4   2 -12    1.79    2.45
   4   2 -12    5.53    2.59
   3   2 -12    5.41    2.18
   3   2 -12   11.25   21.33
   3   2 -12    5.71    2.47
  -3  -2  12    3.72    1.67
   2   2 -12   20.44   13.15
   2   2 -12   22.16    2.93
   2   2 -12   18.56    3.10
  -2  -2  12   24.54    2.71
   1   2 -12  199.91   30.30
   1   2 -12  215.09   14.09
   1   2 -12  205.60   14.56
  -1  -2  12  199.60   13.97
  -1  -2  12  165.82   29.81
   0   2 -12   25.01   14.28
   0   2 -12   28.97    3.45
   0  -2  12   23.93    2.79
  -1   2 -12    8.37    2.23
   1  -2  12    5.88    1.75
  -2   2 -12    1.21    1.90
  -3   2 -12    8.18    2.58
  -4   2 -12   29.84    4.58
   4  -2  12   37.03   39.74
   7   1 -12   10.06    4.19
   7   1 -12    8.38    3.70
   6   1 -12    6.62    3.43
   6   1 -12    2.92    2.82
  -6  -1  12    5.22    2.87
   5   1 -12   -1.23    2.18
   5   1 -12   -0.15    2.37
  -5  -1  12    3.48    2.07
   4   1 -12   11.71    3.09
   4   1 -12   16.19    3.17
  -4  -1  12   15.27    2.83
   3   1 -12   13.43   16.00
   2   1 -12   39.37    4.35
   2   1 -12   41.95   16.19
   2   1 -12   36.93    3.84
  -2  -1  12    3.63   18.00
   1   1 -12   -9.19   11.99
   1   1 -12    0.36    1.79
  -1  -1  12   -0.70   15.06
  -1  -1  12   -0.55    1.23
   0   1 -12   79.48   19.87
   0   1 -12   76.32    6.08
   0   1 -12   65.54    4.54
   0  -1  12   66.38   30.34
   0  -1  12   67.57    5.36
  -1   1 -12    2.40    1.95
   1  -1  12    0.66    1.49
  -2   1 -12   49.03    5.02
   2  -1  12   47.02    4.69
  -3   1 -12    5.94    2.51
  -4   1 -12    4.69    2.70
   4  -1  12  -14.12   40.30
   7   0 -12   13.09    4.29
   7   0 -12   13.45    4.50
  -7   0  12   19.37    4.18
   6   0 -12    5.47    2.83
   6   0 -12    0.81    2.83
  -6   0  12    7.35    3.01
   5   0 -12    2.92    2.65
   5   0 -12    8.59    2.90
  -5   0  12   10.27    2.77
   4   0 -12   11.72    3.00
   4   0 -12   14.10   20.10
   4   0 -12   11.89    2.99
  -4   0  12    6.80    2.44
   3   0 -12  165.10   12.31
   3   0 -12  139.98   28.11
   3   0 -12  162.60   12.52
  -3   0  12  190.51   12.28
  -3   0  12  138.31   33.15
   2   0 -12   22.43    3.54
   2   0 -12   28.45   16.78
  -2   0  12    5.42   19.79
  -2   0  12   20.43    2.75
   1   0 -12    8.76    2.55
   1   0 -12   22.36   15.21
  -1   0  12   19.02   17.34
  -1   0  12   12.70    2.21
   0   0 -12   22.28    3.14
   0   0 -12    2.48   16.25
   0   0 -12   19.53    1.48
   0   0  12   16.89    2.45
   0   0  12   -3.66   14.72
  -1   0 -12   48.66    4.86
   1   0  12   44.01    4.25
  -2   0 -12   28.64    4.08
   2   0  12   28.66    3.55
  -3   0 -12   44.31    5.07
  -4   0 -12    2.25    2.69
   7  -1 -12   30.07    5.24
  -7   1  12   28.66    5.07
   6  -1 -12   -0.39    2.69
   6  -1 -12    1.26    2.71
  -6   1  12   -1.96    2.66
   5  -1 -12    6.47    2.75
   5  -1 -12   14.41    3.36
   5  -1 -12   -9.91   25.11
  -5   1  12   11.47    3.01
   4  -1 -12   77.02    7.07
   4  -1 -12   37.56   24.38
   4  -1 -12   77.06    7.07
  -4   1  12   92.20   33.79
  -4   1  12   96.12    7.13
   3  -1 -12  157.85   29.94
   3  -1 -12  204.73   14.51
  -3   1  12  134.33   33.78
  -3   1  12  208.49   14.23
   2  -1 -12  147.70   11.79
   2  -1 -12  168.23   30.12
  -2   1  12  168.04   11.41
  -2   1  12  167.10   31.70
   1  -1 -12   59.41   19.55
   1  -1 -12   57.90    5.64
   1  -1 -12   58.46    4.39
  -1   1  12   36.95   20.12
  -1   1  12   69.04    5.34
   0  -1 -12  209.50   14.80
   0  -1 -12  230.81   37.16
   0  -1 -12  242.68   16.08
   0   1  12  228.87   15.56
   0   1  12  221.78   34.79
  -1  -1 -12    0.47    2.03
   1   1  12   -0.43    1.58
  -2  -1 -12   16.60    3.12
   2   1  12   12.89    2.69
  -3  -1 -12    5.43    2.70
   3   1  12    6.84    2.60
  -4  -1 -12    4.32    2.78
   7  -2 -12    6.99    3.67
  -7   2  12   11.90    4.03
   6  -2 -12    9.88    3.55
  -6   2  12   18.40    3.98
   5  -2 -12   14.05    3.21
   5  -2 -12  -20.61   23.49
  -5   2  12   14.44    3.38
   4  -2 -12  -19.35   18.70
  -4   2  12   -4.13   30.01
   3  -2 -12    2.17    2.21
   3  -2 -12   14.51   18.90
  -3   2  12    1.99    1.96
  -3   2  12  -12.85   23.58
   2  -2 -12    5.61   16.41
   2  -2 -12   -0.29    2.10
   2  -2 -12    0.19    1.06
  -2   2  12    0.22    1.74
  -2   2  12   -2.30   22.42
   1  -2 -12  163.24   11.69
   1  -2 -12  157.55   31.52
   1  -2 -12  143.56   10.54
  -1   2  12  165.87   11.24
  -1   2  12  154.71   32.52
   0  -2 -12   80.32    6.40
   0  -2 -12   64.97    4.91
   0  -2 -12   76.91   24.93
   0   2  12   67.38   26.16
   0   2  12   71.09    5.85
  -1  -2 -12    1.73    2.17
   1   2  12    1.32    1.83
  -2  -2 -12   32.87    4.42
   2   2  12   29.48    3.91
  -3  -2 -12    3.82    2.64
   3   2  12    1.62    2.37
   6  -3 -12   -6.83   30.19
  -6   3  12    4.55    3.26
   5  -3 -12    7.16   25.19
  -5   3  12   16.28    3.74
  -5   3  12    5.85   40.30
   4  -3 -12   26.54   25.69
   4  -3 -12   24.22    2.89
  -4   3  12   31.36    3.99
  -4   3  12   50.07   32.94
   3  -3 -12   44.67    3.95
   3  -3 -12   46.34   21.33
   3  -3 -12   39.30    4.89
  -3   3  12   50.53    4.75
  -3   3  12   30.25   27.97
   2  -3 -12   -0.55    1.04
   2  -3 -12   -2.00    1.88
   2  -3 -12   -7.91   18.19
  -2   3  12   -1.52   23.04
  -2   3  12    0.99    1.92
   1  -3 -12  262.85   41.31
   1  -3 -12  224.48   16.00
   1  -3 -12  207.32   15.00
  -1   3  12  193.43   37.09
  -1   3  12  240.80   15.66
   0  -3 -12    4.35    2.39
   0  -3 -12    7.80    1.20
   0  -3 -12  -16.97   22.99
   0   3  12   29.00   24.03
   0   3  12    5.20    2.15
  -1  -3 -12   92.73    7.95
   1   3  12   95.22    7.61
  -2  -3 -12    3.37    2.42
   2   3  12   -0.68    2.13
   3   3  12    5.78    2.74
  -6   4  12   17.48    4.16
   5  -4 -12   19.68   29.34
  -5   4  12   13.75   46.15
   4  -4 -12  -10.65   22.67
   4  -4 -12    2.82    1.58
  -4   4  12   15.04   37.14
  -4   4  12    9.65    2.86
   3  -4 -12    2.86   24.33
  -3   4  12   15.85   28.54
  -3   4  12    0.71    2.09
   2  -4 -12   29.43   25.31
   2  -4 -12    8.58    1.76
  -2   4  12    0.00   26.51
  -2   4  12    8.97    2.60
   1  -4 -12   33.16   26.31
   1  -4 -12   21.52    2.33
  -1   4  12   23.22    3.28
  -1   4  12   57.61   27.28
   0  -4 -12   15.28   29.51
   0   4  12   33.21   31.06
   1   4  12    1.56    2.08
   2   4  12    3.98    2.48
   5  -5 -12   -4.39    1.61
  -5   5  12   -2.52    2.70
   4  -5 -12    2.09    1.70
   4  -5 -12   -8.23   29.19
  -4   5  12    4.17    2.76
   3  -5 -12    9.73   26.71
   3  -5 -12    4.72    1.73
  -3   5  12   65.51   34.83
  -3   5  12    4.95    2.53
   2  -5 -12  -15.96   26.06
   2  -5 -12   -1.37    1.25
  -2   5  12  -13.21   31.39
  -2   5  12   -0.34    2.03
   1  -5 -12   56.79   35.65
   1  -5 -12    0.67    1.11
  -1   5  12    1.01    1.96
  -1   5  12    4.45   30.18
   0  -5 -12   12.40   36.23
   1   5  12    2.22    2.51
   4  -6 -12   -0.06    1.69
  -4   6  12    1.73    2.76
   3  -6 -12    1.88    1.78
  -3   6  12    1.11    2.47
   2  -6 -12    3.25    1.59
  -2   6  12    2.51    2.45
  -1   6  12    5.83    2.59
   1   9 -13    3.67    2.40
   0   9 -13   12.81    2.60
  -1   9 -13    5.76    2.02
   3   8 -13    5.15    2.80
   3   8 -13    2.50    2.79
   2   8 -13   -0.54    2.11
   2   8 -13   -2.21    2.17
   1   8 -13    6.93    2.38
   1   8 -13    1.88    2.11
   0   8 -13    1.42    1.85
  -1   8 -13   15.42    2.65
  -2   8 -13    0.90    1.78
   4   7 -13    3.36    3.10
   4   7 -13   -0.04    2.89
   3   7 -13   -0.06    2.44
   3   7 -13    5.29    2.71
   2   7 -13   25.86    3.84
   2   7 -13   37.95    4.54
   1   7 -13    8.26    2.41
   1   7 -13   12.12    2.59
   0   7 -13   53.93    4.65
   0   7 -13   48.78    4.96
  -1   7 -13    2.09    1.89
  -2   7 -13    3.34    1.94
  -3   7 -13   -0.26    1.90
   5   6 -13   38.93    5.67
   4   6 -13   -0.17    2.64
   4   6 -13   -2.58    2.37
   3   6 -13    3.56    2.73
   3   6 -13    7.96    2.75
   2   6 -13   11.44    2.70
   2   6 -13   14.10    2.86
   1   6 -13   82.01    6.66
   1   6 -13   74.22    6.28
   0   6 -13    9.11    1.92
   0   6 -13   11.78    2.45
  -1   6 -13   84.05    6.85
  -2   6 -13    8.44    2.33
  -3   6 -13    3.86    2.23
  -4   6 -13    1.97    2.42
   5   5 -13    6.91    3.12
   5   5 -13    5.22    3.15
   4   5 -13    6.17    2.87
   4   5 -13   14.71    3.33
   3   5 -13    6.16    2.51
   3   5 -13    0.80    2.49
   2   5 -13    5.08    2.42
   2   5 -13    3.91    2.00
   1   5 -13   63.93    5.40
   1   5 -13   64.98    5.84
   0   5 -13   21.53    3.15
   0   5 -13   17.79    2.30
  -1   5 -13    6.86    2.19
  -2   5 -13   15.06    2.73
  -3   5 -13    5.91    2.34
  -4   5 -13    2.08    2.50
   6   4 -13   10.58    3.70
   6   4 -13    8.98    3.94
   5   4 -13   -0.29    2.91
   5   4 -13   -2.07    2.40
   4   4 -13    7.26    2.80
   4   4 -13    2.28    2.60
   3   4 -13   57.97    5.61
   3   4 -13   50.61    5.31
   2   4 -13   22.94    3.07
   2   4 -13   19.67    3.25
   1   4 -13    4.09    1.79
   1   4 -13    3.48    2.19
   0   4 -13   -0.99    1.15
   0   4 -13    1.51    1.79
  -1   4 -13   53.49    5.17
  -2   4 -13   21.38    3.39
  -3   4 -13   19.15    3.43
  -4   4 -13    0.74    2.29
   6   3 -13    4.04    3.43
   6   3 -13   -0.24    2.91
   5   3 -13    3.12    2.99
   5   3 -13    6.89    3.09
   4   3 -13    1.79    2.70
   4   3 -13    2.52    2.28
   3   3 -13   12.14    2.84
   3   3 -13   13.25    3.12
   2   3 -13   44.61    4.66
   2   3 -13   39.19    4.34
   1   3 -13   22.11    2.72
   1   3 -13   21.76    3.40
   0   3 -13    2.62    1.92
  -1   3 -13    7.64    2.42
  -2   3 -13   55.37    5.47
  -3   3 -13   -1.97    2.00
  -4   3 -13   -2.96    1.97
   6   2 -13   -3.69    2.54
   6   2 -13   -2.67    2.84
   5   2 -13   13.71    3.46
   5   2 -13   13.65    3.65
   4   2 -13    1.77    2.46
   4   2 -13    3.81    2.74
  -4  -2  13    0.63    1.96
   3   2 -13   11.22    2.69
   3   2 -13    5.99    2.58
  -3  -2  13    5.98    2.00
   2   2 -13    7.42    2.47
   2   2 -13    6.79    2.11
  -2  -2  13    7.66    1.90
   1   2 -13   12.91    2.71
  -1  -2  13    9.47    1.88
   0   2 -13   13.30    2.71
   0  -2  13   11.94    2.11
  -1   2 -13   37.35    4.26
  -2   2 -13   45.65    5.03
  -3   2 -13    0.65    2.22
  -4   2 -13   28.89    4.69
   6   1 -13    5.28    3.02
   6   1 -13    9.04    3.38
  -6  -1  13    5.44    2.83
   5   1 -13    2.41    2.76
   5   1 -13    0.51    2.44
  -5  -1  13    0.48    2.22
   4   1 -13    7.98    2.99
   4   1 -13   13.72    3.03
  -4  -1  13   13.96    2.79
   3   1 -13   44.25    5.48
   3   1 -13   56.26    5.37
  -3  -1  13   65.18    5.03
   2   1 -13  380.81   46.95
   2   1 -13  392.83   26.91
  -2  -1  13  395.76   26.69
   1   1 -13   85.34   24.40
   1   1 -13   57.44    5.56
   0   1 -13   45.54    4.62
   0  -1  13   40.73    3.99
  -1   1 -13   52.10    5.06
   1  -1  13   45.44    4.54
  -2   1 -13    0.40    2.26
  -3   1 -13   22.74    3.86
  -4   1 -13   39.22    5.38
   4  -1  13   61.48   50.30
   6   0 -13   15.92    3.72
   6   0 -13   18.92    4.03
  -6   0  13   18.10    3.77
   5   0 -13   -0.12    2.42
   5   0 -13   -0.55    2.43
  -5   0  13    1.99    2.48
   4   0 -13    0.10    2.15
   4   0 -13    0.74    2.33
  -4   0  13    1.51    2.16
   3   0 -13  122.96   10.61
   3   0 -13  117.16   29.57
   3   0 -13  146.35   10.55
  -3   0  13  151.17   10.40
   2   0 -13   -1.12   17.63
   2   0 -13   -1.92    2.11
  -2   0  13    0.87    1.85
   1   0 -13  543.27   35.77
   1   0 -13  508.53   34.68
   1   0 -13  503.94   51.33
  -1   0  13  547.23   35.28
   0   0 -13  203.14   14.47
   0   0  13  196.26   13.94
  -1   0 -13   23.95    3.79
   1   0  13   18.55    2.90
  -2   0 -13   41.35    4.74
   2   0  13   32.11    4.04
  -3   0 -13    3.30    2.59
  -4   0 -13   -2.52    2.39
   6  -1 -13   -4.68    2.82
   6  -1 -13    1.64    4.58
  -6   1  13    1.99    2.98
   5  -1 -13   50.57    6.10
   5  -1 -13   51.49    6.10
  -5   1  13   72.15    6.42
   4  -1 -13   23.80    3.90
   4  -1 -13  -21.63   24.72
   3  -1 -13   25.11    4.02
   3  -1 -13   21.69   20.00
  -3   1  13   33.97    3.80
   2  -1 -13   -0.24    2.17
   2  -1 -13  -16.06   16.43
  -2   1  13   -0.96    1.79
   1  -1 -13  376.93   26.87
   1  -1 -13  385.77   46.31
   1  -1 -13  418.66   27.98
  -1   1  13  440.81   27.58
   0  -1 -13    4.64    2.44
   0   1  13    4.82    1.99
  -1  -1 -13   -1.12    2.00
   1   1  13   -1.14    1.66
  -2  -1 -13    6.07    2.82
   2   1  13    3.03    2.18
  -3  -1 -13   23.04    4.29
  -6   2  13   10.36    3.73
  -5   2  13   29.26    4.51
   4  -2 -13   14.14   23.69
   4  -2 -13   24.46    4.24
  -4   2  13   41.42    4.50
   3  -2 -13   18.01   21.63
   3  -2 -13   12.44    1.94
   3  -2 -13   14.63    3.28
  -3   2  13   29.12   29.37
  -3   2  13   19.86    3.07
   2  -2 -13   31.92   21.27
   2  -2 -13   16.90    2.13
   2  -2 -13   22.13    3.48
  -2   2  13  -19.89   23.92
  -2   2  13   22.57    3.22
   1  -2 -13    5.80   21.68
   1  -2 -13    2.28    0.96
   1  -2 -13    4.23    2.48
  -1   2  13    2.24    1.83
   0  -2 -13    1.15    2.14
   0   2  13   -0.33    1.86
  -1  -2 -13   26.14    3.98
   1   2  13   26.40    3.55
  -2  -2 -13    8.98    2.93
   2   2  13    8.08    2.60
  -3  -2 -13   12.91    3.69
  -6   3  13    2.11    3.16
   5  -3 -13   29.77   28.41
   4  -3 -13   23.42    2.97
   4  -3 -13    5.48   27.41
  -4   3  13   30.66    4.21
  -4   3  13   19.99   41.44
   3  -3 -13   18.06   22.98
   3  -3 -13    1.88    1.39
  -3   3  13    6.49    2.41
  -3   3  13  -21.84   30.56
   2  -3 -13    1.90    1.14
   2  -3 -13  -22.35   21.24
   2  -3 -13   -3.90    2.08
  -2   3  13    0.63   28.24
  -2   3  13   -3.49    1.80
   1  -3 -13   14.25    3.09
   1  -3 -13   20.60    2.05
   1  -3 -13   -6.47   23.57
  -1   3  13   14.44    2.79
   0  -3 -13   13.65    3.28
   0   3  13   15.40    3.00
  -1  -3 -13    8.51    2.75
   1   3  13   11.45    2.72
   2   3  13    1.45    2.32
   5  -4 -13   49.85   33.51
   4  -4 -13   50.21   32.37
  -4   4  13   31.48   47.14
   3  -4 -13  -29.60   25.81
   3  -4 -13   17.09    2.39
  -3   4  13   21.99   35.57
  -3   4  13   21.82    3.50
   2  -4 -13   36.39   28.15
   2  -4 -13    2.11    1.25
  -2   4  13   -4.20   34.92
  -2   4  13    0.85    2.23
   1  -4 -13   47.72   30.17
   0   4  13    0.21    2.05
   1   4  13   12.79    3.11
   4  -5 -13   -0.09    1.61
  -4   5  13    2.77    2.95
   3  -5 -13  -12.21   31.32
   3  -5 -13    4.77    1.61
  -3   5  13    3.00    2.67
   2  -5 -13   -3.09   34.35
   1  -5 -13   -0.17   39.91
   1  -5 -13   10.09    1.80
  -1   5  13   15.70    3.16
   0   5  13    1.72    2.36
   2   8 -14    2.05    2.49
   2   8 -14    7.78    2.83
   1   8 -14    3.66    2.25
   1   8 -14    3.45    2.37
   0   8 -14    0.02    2.02
  -1   8 -14   98.86    7.95
  -2   8 -14    1.47    2.13
   3   7 -14    2.96    2.59
   3   7 -14   -1.61    2.61
   2   7 -14    2.51    2.41
   2   7 -14   -1.53    2.00
   1   7 -14   -1.06    1.67
   1   7 -14    0.19    2.10
   0   7 -14    4.77    2.30
  -1   7 -14    0.86    1.95
  -2   7 -14   21.11    3.31
   4   6 -14    4.80    3.15
   4   6 -14    5.72    3.13
   3   6 -14   10.14    3.12
   3   6 -14    4.42    2.70
   2   6 -14   11.32    2.81
   2   6 -14   11.45    2.84
   1   6 -14   48.18    5.11
   1   6 -14   48.54    4.72
   0   6 -14    2.12    2.26
  -1   6 -14   15.11    2.79
  -2   6 -14    1.63    1.97
  -3   6 -14   -1.74    1.94
   5   5 -14   15.74    3.96
   5   5 -14   11.11    3.82
   4   5 -14    1.54    2.81
   4   5 -14   -0.53    2.45
   3   5 -14    3.71    2.80
   3   5 -14    9.87    2.83
   2   5 -14   25.73    3.44
   2   5 -14   23.16    3.63
   1   5 -14   -0.33    2.15
   1   5 -14    3.63    1.87
   0   5 -14   29.44    3.81
   0   5 -14   29.09    2.95
  -1   5 -14    1.55    2.04
  -2   5 -14   22.24    3.39
  -3   5 -14    2.58    2.32
   5   4 -14   -1.26    2.84
   5   4 -14    3.23    2.99
   4   4 -14    7.92    3.22
   4   4 -14    4.45    2.68
   3   4 -14  113.92    9.57
   3   4 -14  119.00    9.24
   2   4 -14   11.59    2.56
   2   4 -14   18.09    3.41
   1   4 -14   -0.82    1.61
   1   4 -14    0.88    2.13
   0   4 -14   11.13    2.65
  -1   4 -14   93.71    7.79
  -2   4 -14   21.37    3.53
  -3   4 -14   -2.50    2.25
  -4   4 -14   -2.08    2.56
   6   3 -14    8.73    3.68
   6   3 -14   18.94    4.39
   5   3 -14    0.37    2.77
   5   3 -14    4.37    3.12
   4   3 -14   14.15    3.22
   4   3 -14   13.79    3.43
   3   3 -14    2.98    2.51
   3   3 -14    3.33    2.27
   2   3 -14   42.73    5.11
   2   3 -14   43.43    4.44
   1   3 -14   15.93    2.47
   1   3 -14   27.15    3.72
   0   3 -14   59.66    5.81
  -1   3 -14   88.59    7.51
  -2   3 -14   -0.63    2.12
  -3   3 -14    7.02    2.84
  -4   3 -14    3.61    2.83
   6   2 -14    6.53    3.50
   6   2 -14    2.46    3.55
   5   2 -14    3.21    2.85
   5   2 -14    1.19    2.85
   4   2 -14    1.57    2.43
   4   2 -14    1.68    2.66
   3   2 -14   14.04    2.72
   3   2 -14   11.92    3.14
   2   2 -14    0.05    1.65
   2   2 -14    0.74    2.44
   1   2 -14  159.09   11.98
   0   2 -14    2.03    2.19
  -1   2 -14   13.82    2.93
  -2   2 -14    5.73    2.56
  -3   2 -14    1.93    2.54
   6   1 -14    3.18    3.07
   6   1 -14   10.99    4.08
   5   1 -14    2.13    2.92
   5   1 -14    5.25    3.16
  -5  -1  14    1.30    2.48
   4   1 -14   17.99    3.62
   4   1 -14   15.72    3.17
  -4  -1  14   15.69    2.89
   3   1 -14    2.63    2.65
   3   1 -14    0.81    1.99
  -3  -1  14    4.01    2.01
   2   1 -14    1.90    2.41
  -2  -1  14    1.63    1.67
   1   1 -14    2.67    2.50
   0   1 -14   25.60    3.81
  -1   1 -14    4.38    2.57
  -2   1 -14   -5.86    1.87
  -3   1 -14    2.09    2.66
   6   0 -14    3.99    3.41
   6   0 -14    7.08    3.39
  -6   0  14    9.97    3.70
   5   0 -14    4.02    2.78
   5   0 -14    7.96    3.13
  -5   0  14    4.50    2.69
   4   0 -14    0.36    2.15
   4   0 -14   -1.75    2.35
  -4   0  14    4.71    2.44
   3   0 -14    8.23    3.07
  -3   0  14   10.11    2.46
   2   0 -14   17.30    3.34
  -2   0  14   14.78    2.75
   1   0 -14   -0.75    2.09
   1   0 -14   -0.66    0.68
  -1   0  14    0.35    1.80
   0   0 -14  130.00    9.76
   0   0  14  116.18    9.05
  -1   0 -14   12.20    3.04
   1   0  14    9.95    2.46
  -2   0 -14   -0.46    2.43
  -3   0 -14    0.80    2.65
   6  -1 -14    2.62    3.23
  -6   1  14    9.55    3.56
   5  -1 -14   78.11    7.02
   5  -1 -14   52.40    6.77
  -5   1  14   73.03    6.73
   4  -1 -14    3.76    2.97
  -4   1  14    1.31    2.45
   3  -1 -14   95.13    8.64
  -3   1  14  113.79    8.34
   2  -1 -14   69.22    6.39
   2  -1 -14   62.27    4.99
  -2   1  14   76.10    5.99
   1  -1 -14    0.45    0.76
   1  -1 -14    3.87    2.43
  -1   1  14    2.00    1.87
   0  -1 -14    2.06    2.38
   0   1  14    0.06    1.80
  -1  -1 -14   34.58    4.55
   1   1  14   24.99    3.68
  -2  -1 -14    1.29    2.60
  -3  -1 -14    9.92    3.49
  -6   2  14   -1.92    3.04
  -5   2  14   34.91    5.00
   4  -2 -14    2.98    2.73
  -4   2  14    9.42    2.91
   3  -2 -14   59.65    6.23
   3  -2 -14   58.43    5.05
  -3   2  14   83.94    6.43
   2  -2 -14    2.11    2.40
   2  -2 -14   -0.36    0.95
  -2   2  14    0.49    2.18
   1  -2 -14   19.70    1.97
   1  -2 -14   16.69    3.49
  -1   2  14   20.23    3.05
   0  -2 -14   36.90    4.89
   0   2  14   36.72    4.23
  -1  -2 -14   -0.92    2.39
   1   2  14    0.80    2.19
  -2  -2 -14    0.07    2.54
   2   2  14    1.39    2.59
  -5   3  14    5.24    3.33
   4  -3 -14    9.70    2.03
  -4   3  14   12.39    3.34
   3  -3 -14    8.70    1.82
  -3   3  14   20.01    3.34
   2  -3 -14    7.50    1.49
  -2   3  14   10.31    2.74
   1  -3 -14   20.64    2.11
  -1   3  14   21.42    3.46
   0   3  14    0.48    2.31
   1   3  14    3.07    2.48
   4  -4 -14    6.17    1.94
   4  -4 -14   63.17   40.70
  -4   4  14   15.33    3.57
   3  -4 -14   34.79   32.25
   2  -4 -14    0.14    1.15
  -2   4  14    1.67    2.45
  -1   4  14    4.31    2.41
   0   4  14    1.21    2.31
   3  -5 -14   -0.45    1.47
  -3   5  14    5.14    3.16
   2  -5 -14    7.04    1.74
  -2   5  14    6.24    2.87
   1   8 -15   13.80    3.25
   0   8 -15    3.31    2.40
   3   7 -15   -1.09    2.87
   3   7 -15   -2.57    2.45
   2   7 -15   -0.17    2.24
   2   7 -15    1.55    2.51
   1   7 -15    6.76    2.68
   1   7 -15    2.98    2.05
   0   7 -15   -0.67    2.20
  -1   7 -15   -1.22    2.08
  -2   7 -15    9.35    2.76
   4   6 -15    2.45    3.13
   4   6 -15    1.29    2.81
   3   6 -15   18.73    3.72
   3   6 -15   13.07    3.17
   2   6 -15   71.19    6.67
   2   6 -15   63.12    6.17
   1   6 -15    2.90    1.92
   1   6 -15    2.94    2.44
   0   6 -15    5.92    2.55
  -1   6 -15    7.66    2.60
  -2   6 -15    0.41    2.16
   4   5 -15   -0.02    2.62
   4   5 -15    2.08    3.04
   3   5 -15    5.51    3.01
   3   5 -15    7.14    2.82
   2   5 -15  115.57    9.18
   2   5 -15  104.27    8.50
   1   5 -15   -2.48    1.57
   1   5 -15   -4.86    2.14
   0   5 -15   18.53    3.43
  -1   5 -15    4.55    2.28
  -2   5 -15   13.99    3.13
  -3   5 -15   23.13    4.00
   5   4 -15   20.42    4.49
   5   4 -15   16.02    4.26
   4   4 -15    0.45    2.59
   4   4 -15    3.12    2.85
   3   4 -15   71.26    6.60
   3   4 -15   72.41    6.95
   2   4 -15    4.82    2.81
   2   4 -15    6.30    2.21
   1   4 -15   -1.00    2.27
   1   4 -15   -0.17    1.53
   0   4 -15  187.83   13.85
  -1   4 -15   25.92    3.93
  -2   4 -15    2.40    2.24
  -3   4 -15    1.41    2.52
   5   3 -15    4.82    3.37
   5   3 -15    9.12    3.38
   4   3 -15    0.54    2.50
   4   3 -15   -1.85    2.43
   3   3 -15   11.98    2.96
   3   3 -15   10.04    3.38
   2   3 -15   -0.70    1.75
   2   3 -15    1.00    2.57
   1   3 -15    2.69    2.54
   0   3 -15    7.28    2.62
  -1   3 -15    9.99    2.87
  -2   3 -15   -0.15    2.26
  -3   3 -15    2.20    2.73
   5   2 -15    0.35    2.73
   5   2 -15    4.48    3.27
   4   2 -15    1.01    2.53
   4   2 -15   -0.53    2.74
   3   2 -15   73.38    6.79
   3   2 -15   65.24    6.20
   2   2 -15   26.20    4.26
   2   2 -15   36.34    4.07
   1   2 -15   42.73    5.07
   0   2 -15    4.41    2.65
  -1   2 -15    4.63    2.57
  -2   2 -15   34.54    4.88
  -3   2 -15    7.49    3.19
   6   1 -15    6.65    3.57
   6   1 -15   -0.41    3.15
   5   1 -15    2.22    2.90
   5   1 -15    2.78    3.20
   4   1 -15   20.08    3.76
   4   1 -15    8.88    2.84
  -4  -1  15   23.05    4.92
   3   1 -15   -0.73    2.58
   3   1 -15    2.31    2.17
  -3  -1  15   -3.14    1.99
   2   1 -15  286.69   20.88
  -2  -1  15  304.93   20.34
   1   1 -15    5.12    2.84
   0   1 -15    0.15    2.33
  -1   1 -15   41.07    5.00
  -2   1 -15   -3.24    2.33
  -3   1 -15   10.05    3.46
   6   0 -15   67.76    7.48
   6   0 -15   61.58    7.42
   5   0 -15    7.03    3.39
   5   0 -15    4.02    3.13
  -5   0  15    3.37    3.02
   4   0 -15   20.06    3.83
   4   0 -15   18.76    3.99
  -4   0  15   21.43    3.47
   3   0 -15   54.57    6.25
  -3   0  15   66.84    5.87
   2   0 -15    4.03    2.71
  -2   0  15   -0.49    1.89
   1   0 -15   91.15    8.04
  -1   0  15   93.48    7.41
   0   0 -15    8.11    2.77
   0   0  15    3.95    1.99
  -1   0 -15   26.31    4.16
  -2   0 -15   -2.77    2.65
   5  -1 -15    2.23    3.20
  -5   1  15    6.73    3.09
   4  -1 -15    6.55    3.18
  -4   1  15    9.26    3.03
   3  -1 -15   50.82    6.23
  -3   1  15   60.13    5.57
   2  -1 -15   -2.36    2.33
   2  -1 -15   -1.03    0.88
  -2   1  15    0.32    2.21
   1  -1 -15    4.01    2.69
  -1   1  15    7.00    2.34
   0  -1 -15   50.47    5.95
   0   1  15   53.44    5.10
  -1  -1 -15    2.52    2.66
   1   1  15    0.98    2.27
  -2  -1 -15   37.42    5.42
  -5   2  15   -0.93    2.84
  -4   2  15    5.37    2.79
   3  -2 -15    1.80    2.63
   3  -2 -15    3.62    1.42
  -3   2  15   11.40    3.07
   2  -2 -15    6.63    1.37
   2  -2 -15    5.58    2.90
  -2   2  15    4.57    2.50
   1  -2 -15    4.58    2.62
  -1   2  15    6.12    2.51
   0  -2 -15    2.07    2.83
   0   2  15    0.09    2.22
  -1  -2 -15   -2.72    2.31
   1   2  15   -0.98    2.17
   4  -3 -15   18.14    2.75
  -4   3  15   24.86    4.14
   3  -3 -15   44.22    4.12
  -3   3  15   60.61    5.98
   2  -3 -15    0.48    1.07
  -2   3  15    0.57    2.42
  -1   3  15   -1.54    2.37
   0   3  15    3.99    2.58
   3  -4 -15    5.70    1.75
  -3   4  15    7.27    3.21
   2  -4 -15   10.99    1.87
  -2   4  15    6.10    3.00
   2   7 -16   23.51    4.00
   1   7 -16    6.57    2.84
   0   7 -16    5.00    2.71
   3   6 -16   15.40    3.59
   3   6 -16   15.39    3.99
   2   6 -16    4.50    2.89
   2   6 -16    0.41    2.15
   1   6 -16    3.70    2.65
   0   6 -16    1.09    2.45
  -1   6 -16   -4.61    1.96
   4   5 -16    5.40    3.42
   4   5 -16    2.41    2.98
   3   5 -16   -1.08    2.43
   3   5 -16    7.94    3.16
   2   5 -16    3.05    2.30
   2   5 -16    8.36    3.00
   1   5 -16   -1.56    2.43
   1   5 -16   -2.43    1.53
   0   5 -16   12.44    3.20
  -1   5 -16    7.73    2.88
  -2   5 -16    3.87    2.76
   4   4 -16    4.38    3.09
   4   4 -16    4.92    3.15
   3   4 -16    4.89    2.60
   3   4 -16    0.05    2.81
   2   4 -16    8.69    3.13
   2   4 -16   10.19    2.65
   1   4 -16   22.58    3.96
   0   4 -16   33.58    4.62
  -1   4 -16   29.85    4.28
  -2   4 -16   -0.33    2.50
   5   3 -16    6.14    3.59
   5   3 -16    1.78    3.14
   4   3 -16   -1.53    3.07
   4   3 -16   -0.54    2.54
   3   3 -16    4.62    3.09
   3   3 -16    6.80    2.64
   2   3 -16   75.94    7.64
   2   3 -16   81.80    6.76
   1   3 -16   60.42    6.26
   0   3 -16  163.58   12.62
  -1   3 -16   -0.40    2.31
  -2   3 -16    0.28    2.47
   5   2 -16   -0.13    2.98
   5   2 -16    5.13    3.68
   4   2 -16   13.51    3.80
   4   2 -16   10.91    3.26
   3   2 -16    6.06    3.10
   3   2 -16    5.71    2.52
   2   2 -16   16.92    3.79
   1   2 -16   99.40    8.69
   0   2 -16    8.81    2.97
  -1   2 -16   19.73    3.83
  -2   2 -16   22.20    4.14
   5   1 -16   14.91    4.16
   5   1 -16   14.76    3.64
   4   1 -16   28.15    4.60
   4   1 -16   17.26    3.51
   3   1 -16   28.58    4.59
   2   1 -16   62.17    6.51
   1   1 -16   19.75    3.91
   0   1 -16    2.68    2.68
  -1   1 -16   25.87    4.29
  -2   1 -16   -1.45    2.67
   5   0 -16   46.56    6.27
   4   0 -16   -3.25    3.06
  -4   0  16   -1.40    2.31
   3   0 -16    2.29    2.97
  -3   0  16    1.83    2.24
   2   0 -16   14.25    3.65
  -2   0  16   14.70    2.88
   1   0 -16   16.36    3.65
   0   0 -16    6.83    2.95
  -1   0 -16   -0.21    2.68
  -5   1  16   12.98    3.80
   4  -1 -16   -3.66    2.93
  -4   1  16    0.12    2.74
   3  -1 -16   27.04    4.67
  -3   1  16   33.89    4.34
   2  -1 -16   32.64    4.69
  -2   1  16   25.49    3.68
   1  -1 -16    7.64    3.14
  -1   1  16    5.82    2.45
   0  -1 -16   -2.40    2.58
  -1  -1 -16    8.04    3.46
   4  -2 -16   -1.04    1.45
  -4   2  16   -1.72    2.70
   3  -2 -16    6.12    1.59
  -3   2  16   13.80    3.24
   2  -2 -16    2.45    2.91
  -2   2  16    3.04    2.56
   1  -2 -16    2.75    3.05
  -1   2  16   -0.32    2.28
   0  -2 -16   -1.25    2.67
   0   2  16   -0.63    2.26
   3  -3 -16    0.69    1.32
  -3   3  16   -1.19    2.64
  -2   3  16   19.75    3.63
   2   6 -17   45.25    5.16
   2   6 -17   35.95    5.27
   1   6 -17   16.24    3.80
   0   6 -17   15.08    3.71
   3   5 -17    0.10    3.14
   3   5 -17   -3.41    2.33
   2   5 -17    0.24    3.00
   2   5 -17    0.77    2.22
   1   5 -17   69.75    7.15
   0   5 -17    9.37    3.13
  -1   5 -17    2.00    2.73
   4   4 -17    6.07    3.84
   4   4 -17    4.83    3.24
   3   4 -17    4.54    2.58
   3   4 -17   -0.12    3.11
   2   4 -17    2.04    3.08
   2   4 -17    4.27    2.26
   1   4 -17    8.08    3.31
   0   4 -17   24.32    4.08
  -1   4 -17   18.15    3.85
   4   3 -17   -2.52    3.18
   4   3 -17    5.10    3.10
   3   3 -17   10.61    2.83
   3   3 -17   18.91    4.20
   2   3 -17   27.09    4.81
   1   3 -17    0.68    2.85
   0   3 -17    6.91    3.00
  -1   3 -17    2.76    2.82
   4   2 -17   -0.67    3.24
   4   2 -17    1.49    2.73
   3   2 -17    0.54    3.20
   3   2 -17    4.02    2.76
   2   2 -17   62.19    6.74
   1   2 -17   11.68    3.41
   0   2 -17    6.05    3.11
  -1   2 -17    5.80    3.15
   4   1 -17    7.26    3.86
   3   1 -17   -1.19    2.99
   2   1 -17   16.62    4.09
   1   1 -17    3.78    2.89
   0   1 -17    1.62    2.75
  -1   1 -17   -1.32    2.76
   4   0 -17    2.00    3.30
   3   0 -17   11.26    3.91
   2   0 -17   -0.91    2.78
   1   0 -17   20.51    4.29
   0   0 -17   14.30    3.88
   4  -1 -17   -0.36    3.42
  -4   1  17   -1.13    3.29
   3  -1 -17   -1.05    1.25
   3  -1 -17   -6.19    2.92
  -3   1  17   -4.05    2.56
   2  -1 -17    1.43    3.01
  -2   1  17   -2.52    2.66
   1  -1 -17   54.91    6.49
   0  -1 -17   -0.09    2.94
   2   4 -18   -4.20    2.90
   1   4 -18   85.16    8.47
   0   4 -18    0.75    3.01
   3   3 -18    8.97    2.86
   3   3 -18   11.85    4.08
   2   3 -18   12.73    3.92
   1   3 -18    5.94    3.36
   0   3 -18   -0.21    2.86
   3   2 -18   27.42    5.02
   2   2 -18   -0.48    3.40
   1   2 -18   -4.39    2.82
   0   2 -18   17.13    4.06
   3   1 -18   15.97    4.38
   2   1 -18   -0.47    3.24
   1   1 -18    4.85    3.39
   2   0 -18   -4.50    3.15
   0   0   0    0.00    0.00


 _exptl_absorpt_process_details
)
 SADABS 2016/2: Krause, L., Herbst-Irmer, R., Sheldrick G.M. & Stalke D.,
 J. Appl. Cryst. 48 (2015) 3-10
)
 _exptl_absorpt_correction_type   multi-scan
 _exptl_absorpt_correction_T_max  0.7454
 _exptl_absorpt_correction_T_min  0.5215
 _exptl_special_details
)
 The following wavelength and cell were deduced by SADABS from the
 direction cosines etc. They are given here for emergency use only:
 CELL 0.71090    6.574    8.604   14.836  102.774  101.523   99.229
)

_computing_structure_solution     'SHELXT 2018/2 (Sheldrick, 2018)'
;
_shelx_hkl_checksum              49003
loop_
_space_group_symop_operation_xyz
'x, y, z'
'-x, -y, -z'
loop_
_atom_site_label
_atom_site_type_symbol
_atom_site_fract_x
_atom_site_fract_y
_atom_site_fract_z
_atom_site_U_iso_or_equiv
_atom_site_adp_type
_atom_site_occupancy
_atom_site_site_symmetry_order
_atom_site_calc_flag
_atom_site_refinement_flags_posn
_atom_site_refinement_flags_adp
_atom_site_refinement_flags_occupancy
_atom_site_disorder_assembly
_atom_site_disorder_group
C1 C 0.5694(3) 0.1579(2) 0.75140(13) 0.0385(4) Uani 1 1 d . . . . .
C2 C 0.3969(3) 0.0215(2) 0.71892(14) 0.0418(5) Uani 1 1 d . . . . .
C3 C 0.2422(4) -0.0043(2) 0.76841(16) 0.0530(6) Uani 1 1 d . . . . .
H3 H 0.131059 -0.095566 0.746123 0.064 Uiso 1 1 calc R U . . .
C4 C 0.2604(4) 0.1107(3) 0.85160(17) 0.0634(7) Uani 1 1 d . . . . .
H4 H 0.158817 0.096938 0.886261 0.076 Uiso 1 1 calc R U . . .
C5 C 0.4266(4) 0.2476(3) 0.88571(16) 0.0638(7) Uani 1 1 d . . . . .
H5 H 0.433125 0.323530 0.942182 0.077 Uiso 1 1 calc R U . . .
C6 C 0.5820(4) 0.2724(2) 0.83696(14) 0.0524(6) Uani 1 1 d . . . . .
H6 H 0.693256 0.363610 0.860512 0.063 Uiso 1 1 calc R U . . .
C7 C 0.6966(3) 0.14149(19) 0.68270(13) 0.0371(4) Uani 1 1 d . . . . .
C8 C 0.5995(3) 0.0008(2) 0.61474(14) 0.0436(5) Uani 1 1 d . . . . .
H8 H 0.648610 -0.040681 0.561751 0.052 Uiso 1 1 calc R U . . .
C9 C 0.9007(3) 0.2520(2) 0.68713(13) 0.0380(4) Uani 1 1 d . . . . .
H9 H 0.994364 0.265945 0.749975 0.046 Uiso 1 1 calc R U . . .
C10 C 0.8901(3) 0.42696(18) 0.67556(12) 0.0305(4) Uani 1 1 d . . . . .
C11 C 1.0648(3) 0.4623(2) 0.62280(14) 0.0402(4) Uani 1 1 d . . . . .
C12 C 1.1123(3) 0.3060(2) 0.58117(17) 0.0530(5) Uani 1 1 d . . . . .
H12 H 1.195580 0.289399 0.537571 0.064 Uiso 1 1 calc R U . . .
C13 C 1.0190(3) 0.1917(2) 0.61494(15) 0.0481(5) Uani 1 1 d . . . . .
H13 H 1.026155 0.082691 0.595452 0.058 Uiso 1 1 calc R U . . .
C14 C 0.9020(3) 0.55925(19) 0.76240(12) 0.0332(4) Uani 1 1 d . . . . .
C15 C 0.7300(3) 0.63198(19) 0.74468(12) 0.0352(4) Uani 1 1 d . . . . .
C16 C 0.6823(3) 0.43128(18) 0.60730(12) 0.0294(4) Uani 1 1 d . . . . .
C17 C 1.0452(4) 0.6115(2) 0.85002(14) 0.0504(5) Uani 1 1 d . . . . .
H17 H 1.162473 0.564808 0.862795 0.061 Uiso 1 1 calc R U . . .
C18 C 1.0099(4) 0.7361(3) 0.91914(15) 0.0645(7) Uani 1 1 d . . . . .
H18 H 1.104539 0.772862 0.978883 0.077 Uiso 1 1 calc R U . . .
C19 C 0.8383(5) 0.8050(3) 0.90035(15) 0.0636(7) Uani 1 1 d . . . . .
H19 H 0.817895 0.887641 0.947790 0.076 Uiso 1 1 calc R U . . .
C20 C 0.6939(4) 0.7549(2) 0.81242(15) 0.0541(6) Uani 1 1 d . . . . .
H20 H 0.577448 0.802356 0.799660 0.065 Uiso 1 1 calc R U . . .
O1 O 1.1447(2) 0.59678(16) 0.61941(11) 0.0548(4) Uani 1 1 d . . . . .
O2 O 0.6029(2) 0.34207(14) 0.52805(9) 0.0393(3) Uani 1 1 d . . . . .
N1 N 0.4194(3) -0.07146(19) 0.63495(13) 0.0471(4) Uani 1 1 d . . . . .
H1N H 0.340(4) -0.167(3) 0.5993(15) 0.061(7) Uiso 1 1 d . . . . .
N2 N 0.6065(3) 0.55655(17) 0.65166(11) 0.0387(4) Uani 1 1 d . . . . .
H2N H 0.492(3) 0.587(2) 0.6222(15) 0.058 Uiso 1 1 d . U . . .
loop_
_atom_site_aniso_label
_atom_site_aniso_U_11
_atom_site_aniso_U_22
_atom_site_aniso_U_33
_atom_site_aniso_U_23
_atom_site_aniso_U_13
_atom_site_aniso_U_12
C1 0.0486(12) 0.0337(8) 0.0361(10) 0.0143(8) 0.0109(9) 0.0095(8)
C2 0.0512(12) 0.0344(9) 0.0414(11) 0.0157(8) 0.0092(9) 0.0087(8)
C3 0.0595(14) 0.0468(11) 0.0573(14) 0.0237(10) 0.0188(11) 0.0045(10)
C4 0.0777(18) 0.0662(14) 0.0593(15) 0.0275(12) 0.0348(13) 0.0143(13)
C5 0.0877(19) 0.0594(13) 0.0458(13) 0.0088(11) 0.0294(13) 0.0105(13)
C6 0.0670(15) 0.0458(11) 0.0421(11) 0.0103(9) 0.0161(11) 0.0039(10)
C7 0.0444(11) 0.0289(8) 0.0387(10) 0.0104(7) 0.0089(9) 0.0097(8)
C8 0.0556(13) 0.0353(9) 0.0421(11) 0.0104(8) 0.0157(10) 0.0109(9)
C9 0.0395(11) 0.0345(9) 0.0402(10) 0.0097(8) 0.0069(9) 0.0122(8)
C10 0.0247(9) 0.0312(8) 0.0349(9) 0.0064(7) 0.0085(7) 0.0057(7)
C11 0.0290(10) 0.0465(10) 0.0445(11) 0.0094(9) 0.0119(8) 0.0060(8)
C12 0.0357(11) 0.0566(12) 0.0670(14) 0.0029(11) 0.0256(11) 0.0128(9)
C13 0.0391(12) 0.0435(10) 0.0613(13) 0.0054(9) 0.0129(10) 0.0187(9)
C14 0.0334(10) 0.0316(8) 0.0330(9) 0.0082(7) 0.0084(8) 0.0025(7)
C15 0.0396(10) 0.0325(8) 0.0341(10) 0.0067(7) 0.0123(8) 0.0079(8)
C16 0.0288(9) 0.0292(8) 0.0317(9) 0.0087(7) 0.0116(7) 0.0037(7)
C17 0.0534(13) 0.0467(11) 0.0424(12) 0.0082(9) -0.0015(10) 0.0074(10)
C18 0.094(2) 0.0511(12) 0.0326(11) 0.0010(10) 0.0003(12) 0.0039(13)
C19 0.099(2) 0.0481(12) 0.0390(12) -0.0010(10) 0.0209(13) 0.0163(13)
C20 0.0704(16) 0.0481(11) 0.0486(13) 0.0063(9) 0.0220(12) 0.0257(11)
O1 0.0458(9) 0.0494(8) 0.0715(10) 0.0155(7) 0.0297(8) -0.0017(7)
O2 0.0385(7) 0.0406(7) 0.0337(7) 0.0040(6) 0.0059(6) 0.0057(6)
N1 0.0551(11) 0.0325(8) 0.0479(10) 0.0066(8) 0.0107(9) 0.0011(8)
N2 0.0350(9) 0.0415(8) 0.0389(9) 0.0063(7) 0.0056(7) 0.0164(7)
loop_
_atom_type_symbol
_atom_type_description
_atom_type_scat_dispersion_real
_atom_type_scat_dispersion_imag
_atom_type_scat_source
C C 0.0033 0.0016 'International Tables Vol C Tables 4.2.6.8 and 6.1.1.4'
H H 0.0000 0.0000 'International Tables Vol C Tables 4.2.6.8 and 6.1.1.4'
N N 0.0061 0.0033 'International Tables Vol C Tables 4.2.6.8 and 6.1.1.4'
O O 0.0106 0.0060 'International Tables Vol C Tables 4.2.6.8 and 6.1.1.4'
loop_
_geom_angle_atom_site_label_1
_geom_angle_atom_site_label_2
_geom_angle_atom_site_label_3
_geom_angle
_geom_angle_site_symmetry_1
_geom_angle_site_symmetry_3
_geom_angle_publ_flag
C6 C1 C2 118.13(18) . . ?
C6 C1 C7 134.96(18) . . ?
C2 C1 C7 106.90(16) . . ?
N1 C2 C3 129.88(19) . . ?
N1 C2 C1 107.22(17) . . ?
C3 C2 C1 122.89(19) . . ?
C4 C3 C2 117.1(2) . . ?
C4 C3 H3 121.5 . . ?
C2 C3 H3 121.5 . . ?
C3 C4 C5 121.9(2) . . ?
C3 C4 H4 119.1 . . ?
C5 C4 H4 119.1 . . ?
C6 C5 C4 121.0(2) . . ?
C6 C5 H5 119.5 . . ?
C4 C5 H5 119.5 . . ?
C5 C6 C1 119.0(2) . . ?
C5 C6 H6 120.5 . . ?
C1 C6 H6 120.5 . . ?
C8 C7 C1 106.19(17) . . ?
C8 C7 C9 126.48(18) . . ?
C1 C7 C9 127.27(17) . . ?
C7 C8 N1 110.64(18) . . ?
C7 C8 H8 124.7 . . ?
N1 C8 H8 124.7 . . ?
C7 C9 C13 116.09(16) . . ?
C7 C9 C10 117.42(14) . . ?
C13 C9 C10 102.18(14) . . ?
C7 C9 H9 106.8 . . ?
C13 C9 H9 106.8 . . ?
C10 C9 H9 106.8 . . ?
C14 C10 C16 102.75(13) . . ?
C14 C10 C11 114.54(14) . . ?
C16 C10 C11 104.87(13) . . ?
C14 C10 C9 118.40(13) . . ?
C16 C10 C9 112.80(13) . . ?
C11 C10 C9 102.99(13) . . ?
O1 C11 C12 128.33(18) . . ?
O1 C11 C10 124.52(17) . . ?
C12 C11 C10 107.15(15) . . ?
C13 C12 C11 109.55(18) . . ?
C13 C12 H12 125.2 . . ?
C11 C12 H12 125.2 . . ?
C12 C13 C9 114.50(17) . . ?
C12 C13 H13 122.7 . . ?
C9 C13 H13 122.7 . . ?
C17 C14 C15 119.83(17) . . ?
C17 C14 C10 131.44(16) . . ?
C15 C14 C10 108.73(15) . . ?
C20 C15 C14 122.30(18) . . ?
C20 C15 N2 128.58(18) . . ?
C14 C15 N2 109.10(15) . . ?
O2 C16 N2 126.14(16) . . ?
O2 C16 C10 126.90(15) . . ?
N2 C16 C10 106.95(14) . . ?
C14 C17 C18 118.2(2) . . ?
C14 C17 H17 120.9 . . ?
C18 C17 H17 120.9 . . ?
C19 C18 C17 120.9(2) . . ?
C19 C18 H18 119.5 . . ?
C17 C18 H18 119.5 . . ?
C18 C19 C20 121.5(2) . . ?
C18 C19 H19 119.2 . . ?
C20 C19 H19 119.2 . . ?
C15 C20 C19 117.2(2) . . ?
C15 C20 H20 121.4 . . ?
C19 C20 H20 121.4 . . ?
C8 N1 C2 109.04(17) . . ?
C8 N1 H1N 122.4(15) . . ?
C2 N1 H1N 128.5(15) . . ?
C16 N2 C15 112.34(15) . . ?
C16 N2 H2N 121.9(13) . . ?
C15 N2 H2N 125.8(13) . . ?
loop_
_geom_bond_atom_site_label_1
_geom_bond_atom_site_label_2
_geom_bond_distance
_geom_bond_site_symmetry_2
_geom_bond_publ_flag
C1 C6 1.403(3) . ?
C1 C2 1.414(3) . ?
C1 C7 1.441(3) . ?
C2 N1 1.373(2) . ?
C2 C3 1.387(3) . ?
C3 C4 1.371(3) . ?
C3 H3 0.9300 . ?
C4 C5 1.393(3) . ?
C4 H4 0.9300 . ?
C5 C6 1.382(3) . ?
C5 H5 0.9300 . ?
C6 H6 0.9300 . ?
C7 C8 1.358(3) . ?
C7 C9 1.496(2) . ?
C8 N1 1.367(3) . ?
C8 H8 0.9300 . ?
C9 C13 1.496(3) . ?
C9 C10 1.563(2) . ?
C9 H9 0.9800 . ?
C10 C14 1.498(2) . ?
C10 C16 1.540(2) . ?
C10 C11 1.543(2) . ?
C11 O1 1.208(2) . ?
C11 C12 1.460(3) . ?
C12 C13 1.321(3) . ?
C12 H12 0.9300 . ?
C13 H13 0.9300 . ?
C14 C17 1.376(2) . ?
C14 C15 1.385(2) . ?
C15 C20 1.375(2) . ?
C15 N2 1.404(2) . ?
C16 O2 1.213(2) . ?
C16 N2 1.353(2) . ?
C17 C18 1.394(3) . ?
C17 H17 0.9300 . ?
C18 C19 1.365(3) . ?
C18 H18 0.9300 . ?
C19 C20 1.383(3) . ?
C19 H19 0.9300 . ?
C20 H20 0.9300 . ?
N1 H1N 0.89(2) . ?
N2 H2N 0.90(2) . ?
loop_
_geom_hbond_atom_site_label_D
_geom_hbond_atom_site_label_H
_geom_hbond_atom_site_label_A
_geom_hbond_distance_DH
_geom_hbond_distance_HA
_geom_hbond_distance_DA
_geom_hbond_angle_DHA
_geom_hbond_site_symmetry_A
_geom_hbond_publ_flag
N1 H1N O1 0.89(2) 2.34(2) 3.059(2) 138.6(19) 1_445 yes
N1 H1N O2 0.89(2) 2.28(2) 2.923(2) 129.6(19) 2_656 yes
N2 H2N O1 0.90(2) 2.29(2) 3.065(2) 144.1(18) 1_455 yes
N2 H2N O2 0.90(2) 2.43(2) 3.1173(19) 133.5(18) 2_666 yes
loop_
_geom_torsion_atom_site_label_1
_geom_torsion_atom_site_label_2
_geom_torsion_atom_site_label_3
_geom_torsion_atom_site_label_4
_geom_torsion
_geom_torsion_site_symmetry_1
_geom_torsion_site_symmetry_2
_geom_torsion_site_symmetry_3
_geom_torsion_site_symmetry_4
_geom_torsion_publ_flag
C6 C1 C2 N1 179.95(16) . . . . ?
C7 C1 C2 N1 -0.19(19) . . . . ?
C6 C1 C2 C3 -0.7(3) . . . . ?
C7 C1 C2 C3 179.15(16) . . . . ?
N1 C2 C3 C4 179.98(19) . . . . ?
C1 C2 C3 C4 0.8(3) . . . . ?
C2 C3 C4 C5 -0.2(3) . . . . ?
C3 C4 C5 C6 -0.5(4) . . . . ?
C4 C5 C6 C1 0.6(3) . . . . ?
C2 C1 C6 C5 0.0(3) . . . . ?
C7 C1 C6 C5 -179.82(19) . . . . ?
C6 C1 C7 C8 179.5(2) . . . . ?
C2 C1 C7 C8 -0.32(19) . . . . ?
C6 C1 C7 C9 2.3(3) . . . . ?
C2 C1 C7 C9 -177.57(15) . . . . ?
C1 C7 C8 N1 0.7(2) . . . . ?
C9 C7 C8 N1 178.00(15) . . . . ?
C8 C7 C9 C13 -6.8(3) . . . . ?
C1 C7 C9 C13 169.96(16) . . . . ?
C8 C7 C9 C10 114.5(2) . . . . ?
C1 C7 C9 C10 -68.8(2) . . . . ?
C7 C9 C10 C14 86.4(2) . . . . ?
C13 C9 C10 C14 -145.40(16) . . . . ?
C7 C9 C10 C16 -33.6(2) . . . . ?
C13 C9 C10 C16 94.65(17) . . . . ?
C7 C9 C10 C11 -146.09(16) . . . . ?
C13 C9 C10 C11 -17.86(17) . . . . ?
C14 C10 C11 O1 -31.6(2) . . . . ?
C16 C10 C11 O1 80.3(2) . . . . ?
C9 C10 C11 O1 -161.51(19) . . . . ?
C14 C10 C11 C12 147.63(16) . . . . ?
C16 C10 C11 C12 -100.52(16) . . . . ?
C9 C10 C11 C12 17.70(19) . . . . ?
O1 C11 C12 C13 168.8(2) . . . . ?
C10 C11 C12 C13 -10.4(2) . . . . ?
C11 C12 C13 C9 -2.2(3) . . . . ?
C7 C9 C13 C12 142.44(18) . . . . ?
C10 C9 C13 C12 13.4(2) . . . . ?
C16 C10 C14 C17 176.77(18) . . . . ?
C11 C10 C14 C17 -70.1(2) . . . . ?
C9 C10 C14 C17 51.7(3) . . . . ?
C16 C10 C14 C15 -1.85(16) . . . . ?
C11 C10 C14 C15 111.26(16) . . . . ?
C9 C10 C14 C15 -126.88(16) . . . . ?
C17 C14 C15 C20 -0.8(3) . . . . ?
C10 C14 C15 C20 177.99(16) . . . . ?
C17 C14 C15 N2 -179.13(16) . . . . ?
C10 C14 C15 N2 -0.32(19) . . . . ?
C14 C10 C16 O2 -177.91(15) . . . . ?
C11 C10 C16 O2 62.0(2) . . . . ?
C9 C10 C16 O2 -49.3(2) . . . . ?
C14 C10 C16 N2 3.44(16) . . . . ?
C11 C10 C16 N2 -116.60(15) . . . . ?
C9 C10 C16 N2 132.06(15) . . . . ?
C15 C14 C17 C18 0.8(3) . . . . ?
C10 C14 C17 C18 -177.72(18) . . . . ?
C14 C17 C18 C19 -0.2(3) . . . . ?
C17 C18 C19 C20 -0.3(4) . . . . ?
C14 C15 C20 C19 0.3(3) . . . . ?
N2 C15 C20 C19 178.23(18) . . . . ?
C18 C19 C20 C15 0.3(3) . . . . ?
C7 C8 N1 C2 -0.9(2) . . . . ?
C3 C2 N1 C8 -178.64(19) . . . . ?
C1 C2 N1 C8 0.6(2) . . . . ?
O2 C16 N2 C15 177.42(15) . . . . ?
C10 C16 N2 C15 -3.92(19) . . . . ?
C20 C15 N2 C16 -175.38(18) . . . . ?
C14 C15 N2 C16 2.8(2) . . . . ?
