#------------------------------------------------------------------------------
#$Date: 2021-11-09 00:55:12 +0200 (Tue, 09 Nov 2021) $
#$Revision: 270527 $
#$URL: file:///home/coder/svn-repositories/cod/cif/7/12/92/7129209.cif $
#------------------------------------------------------------------------------
#
# This file is available in the Crystallography Open Database (COD),
# http://www.crystallography.net/
#
# All data on this site have been placed in the public domain by the
# contributors.
#
data_7129209
loop_
_publ_author_name
'Song, Xianheng'
'Meng, Shanshui'
'Zhang, Hong'
'Jiang, Yi'
'Chan, Albert S. C.'
'Zou, Yong'
_publ_section_title
;
 Dibrominated Addition and Substitution of Alkenes Catalyzed by Mn2(CO)10
;
_journal_name_full               'Chemical Communications'
_journal_paper_doi               10.1039/D1CC04534B
_journal_year                    2021
_chemical_formula_moiety         'C16 H13 Br3 O2'
_chemical_formula_sum            'C16 H13 Br3 O2'
_chemical_formula_weight         476.99
_space_group_crystal_system      monoclinic
_space_group_IT_number           4
_space_group_name_Hall           'P 2yb'
_space_group_name_H-M_alt        'P 1 21 1'
_atom_sites_solution_hydrogens   geom
_atom_sites_solution_primary     dual
_audit_creation_date             2021-02-09
_audit_creation_method
;
Olex2 1.3
(compiled 2020.11.12 svn.r5f609507 for OlexSys, GUI svn.r6226)
;
_audit_update_record
;
2021-05-10 deposited with the CCDC.	2021-11-08 downloaded from the CCDC.
;
_cell_angle_alpha                90
_cell_angle_beta                 94.308(4)
_cell_angle_gamma                90
_cell_formula_units_Z            2
_cell_length_a                   5.5472(2)
_cell_length_b                   7.8195(4)
_cell_length_c                   18.3327(7)
_cell_measurement_reflns_used    2544
_cell_measurement_temperature    100.00(10)
_cell_measurement_theta_max      71.5100
_cell_measurement_theta_min      2.4020
_cell_volume                     792.96(6)
_computing_cell_refinement       'CrysAlisPro 1.171.40.84a (Rigaku OD, 2020)'
_computing_data_collection       'CrysAlisPro 1.171.40.84a (Rigaku OD, 2020)'
_computing_data_reduction        'CrysAlisPro 1.171.40.84a (Rigaku OD, 2020)'
_computing_molecular_graphics    'Olex2 1.3 (Dolomanov et al., 2009)'
_computing_publication_material  'Olex2 1.3 (Dolomanov et al., 2009)'
_computing_structure_refinement  'SHELXL 2018/3 (Sheldrick, 2015)'
_computing_structure_solution    'SHELXT  (Sheldrick, 2015)'
_diffrn_ambient_environment      N~2~
_diffrn_ambient_temperature      100.00(10)
_diffrn_detector                 'Hybrid Pixel Array Detector'
_diffrn_detector_area_resol_mean 10.0000
_diffrn_detector_type            HyPix
_diffrn_measured_fraction_theta_full 1.000
_diffrn_measured_fraction_theta_max 0.985
_diffrn_measurement_details
;
List of Runs (angles in degrees, time in seconds):

  # Type    Start    End  Width  t~exp~   \w     \q     \k     \f   Frames
#--------------------------------------------------------------------------
  1  \w    127.00 157.00   0.50    0.05    --  105.44  62.00 132.00   60
  2  \w    147.00 176.00   0.50    0.05    --  105.44  45.00  60.00   58
  3  \w     98.00 143.00   0.50    0.05    --  105.44  45.00  60.00   90
  4  \w     88.00 142.00   0.50    0.05    --  105.44  15.00-120.00  108
  5  \w     44.00 106.00   0.50    0.05    --  105.44 -77.00  60.00  124
  6  \w    -10.00  28.00   0.50    0.05    --   46.62 -62.00  -5.00   76
  7  \w     33.00  73.00   0.50    0.05    --  105.44 -61.00 150.00   80
  8  \w     33.00  74.00   0.50    0.05    --  105.44 -62.00  -5.00   82
  9  \w     55.00  90.00   0.50    0.05    --  105.44 -77.00-120.00   70
 10  \w     40.00  70.00   0.50    0.05    --  105.44 -61.00 -90.00   60
 11  \w     43.00  69.00   0.50    0.05    --  105.44-125.00-150.00   52
 12  \w    -63.00 -34.00   0.50    0.05    -- -100.00  62.00 132.00   58
 13  \w    -64.00  23.00   0.50    0.05    --  -46.62  62.00 132.00  174
 14  \w    -58.00 -33.00   0.50    0.05    -- -100.00  61.00  90.00   50
 15  \w    -66.00 -30.00   0.50    0.05    -- -100.00  61.00 -90.00   72
 16  \w     75.00 101.00   0.50    0.05    --  105.44-125.00-150.00   52
 17  \w    -94.00 -34.00   0.50    0.05    --  -46.62 -62.00  -5.00  120
 18  \w   -106.00 -76.00   0.50    0.05    --  -46.62-125.00  60.00   60
 19  \w   -118.00 -77.00   0.50    0.05    --  -46.62-125.00 150.00   82
 20  \w   -170.00-107.00   0.50    0.05    -- -100.00 -94.00  90.00  126
 21  \w   -172.00 -82.00   0.50    0.05    -- -100.00 -62.00  -5.00  180
 22  \w   -118.00 -91.00   0.50    0.05    --  -46.37 -62.00  -5.00   54
 23  \w     33.00 114.00   0.50    0.05    --   46.37  57.00-120.00  162
 24  \w   -170.00-145.00   0.50    0.05    -- -100.00 -61.00-120.00   50
 25  \w   -163.00 -85.00   0.50    0.05    -- -100.00 -15.00 -90.00  156
 26  \w   -101.00 -76.00   0.50    0.05    -- -100.00 -77.00 -30.00   50
 27  \w   -112.00 -86.00   0.50    0.05    -- -100.00 -61.00-120.00   52
 28  \w    140.00 166.00   0.50    0.05    --  107.00  77.00-120.00   52
 29  \w    100.00 136.00   0.50    0.05    --  107.00  45.00  30.00   72
 30  \w    106.00 134.00   0.50    0.05    --  107.00  77.00-120.00   56
 31  \w    126.00 153.00   0.50    0.05    --  107.00  77.00-180.00   54
 32  \w     83.00 109.00   0.50    0.05    --  107.00  77.00-180.00   52
 33  \w     94.00 166.00   0.50    0.05    --  107.00  30.00 -90.00  144
 34  \w    149.00 177.00   0.50    0.05    --  107.00  45.00  30.00   56
 35  \w     38.00  64.00   0.50    0.05    --  107.00 -61.00 120.00   52
 36  \w     42.00  68.00   0.50    0.05    --  107.00 -94.00 -60.00   52
 37  \w     81.00 106.00   0.50    0.05    --  107.00 -94.00  60.00   50
 38  \w    122.00 150.00   0.50    0.05    --  107.00  45.00  90.00   56
 39  \w     69.00  94.00   0.50    0.05    --  107.00 -94.00 -60.00   50
 40  \w     35.00  62.00   0.50    0.05    --  107.00 -94.00  60.00   54
 41  \w     35.00  61.00   0.50    0.05    --  107.00 -61.00-150.00   52
 42  \w     94.00 160.00   0.50    0.05    --  107.00  77.00 120.00  132
 43  \w     77.00 104.00   0.50    0.05    --  107.00 -94.00  30.00   54
 44  \w     96.00 125.00   0.50    0.05    --  107.00  45.00 -90.00   58
 45  \w     38.00  83.00   0.50    0.05    --  107.00 -94.00 -30.00   90
 46  \w     83.00 174.00   0.50    0.05    --  107.00  77.00-150.00  182
 47  \w     29.00 118.00   0.50    0.05    --   46.37  62.00 132.00  178
 48  \w     23.00 118.00   0.50    0.05    --   46.37  77.00  30.00  190
 49  \w     30.00 118.00   0.50    0.05    --   46.37  57.00-150.00  176
 50  \w     23.00 118.00   0.50    0.05    --   46.37  77.00 -30.00  190
 51  \w     18.00  95.00   0.50    0.05    --   46.37-125.00   0.00  154
 52  \w     23.00 118.00   0.50    0.05    --   46.37  77.00-150.00  190
 53  \w     30.00 118.00   0.50    0.05    --   46.37  57.00 -60.00  176
 54  \w   -173.00 -80.00   0.50    0.05    -- -100.00 -77.00 150.00  186
 55  \w   -172.00 -85.00   0.50    0.05    -- -100.00 -45.00 -90.00  174
 56  \w   -173.00 -82.00   0.50    0.05    -- -100.00 -61.00-180.00  182
 57  \w   -173.00 -76.00   0.50    0.05    -- -100.00 -77.00  60.00  194
 58  \w     34.00 112.00   0.50    0.05    --  107.00-125.00  30.00  156
 59  \w     92.00 178.00   0.50    0.05    --  107.00  30.00 120.00  172
;
_diffrn_measurement_device       'four-circle diffractometer'
_diffrn_measurement_device_type  'XtaLAB Synergy R, DW system, HyPix'
_diffrn_measurement_method       '\w scans'
_diffrn_orient_matrix_type
'CrysAlisPro convention (1999,Acta A55,543-557)'
_diffrn_orient_matrix_UB_11      -0.2172560000
_diffrn_orient_matrix_UB_12      -0.0633704000
_diffrn_orient_matrix_UB_13      -0.0500641000
_diffrn_orient_matrix_UB_21      -0.0640660000
_diffrn_orient_matrix_UB_22      -0.1280248000
_diffrn_orient_matrix_UB_23      0.0593796000
_diffrn_orient_matrix_UB_31      -0.1620416000
_diffrn_orient_matrix_UB_32      0.1356504000
_diffrn_orient_matrix_UB_33      0.0327307000
_diffrn_radiation_monochromator  mirror
_diffrn_radiation_probe          x-ray
_diffrn_radiation_type           'Cu K\a'
_diffrn_radiation_wavelength     1.54184
_diffrn_reflns_av_R_equivalents  0.1869
_diffrn_reflns_av_unetI/netI     0.1175
_diffrn_reflns_Laue_measured_fraction_full 1.000
_diffrn_reflns_Laue_measured_fraction_max 0.985
_diffrn_reflns_limit_h_max       6
_diffrn_reflns_limit_h_min       -6
_diffrn_reflns_limit_k_max       9
_diffrn_reflns_limit_k_min       -9
_diffrn_reflns_limit_l_max       23
_diffrn_reflns_limit_l_min       -23
_diffrn_reflns_number            16382
_diffrn_reflns_point_group_measured_fraction_full 1.000
_diffrn_reflns_point_group_measured_fraction_max 0.975
_diffrn_reflns_theta_full        67.684
_diffrn_reflns_theta_max         76.846
_diffrn_reflns_theta_min         2.417
_diffrn_source                   'Rotating-anode X-ray tube'
_diffrn_source_type              'Rigaku (Cu) X-ray Source'
_exptl_absorpt_coefficient_mu    9.447
_exptl_absorpt_correction_T_max  1.00000
_exptl_absorpt_correction_T_min  0.43575
_exptl_absorpt_correction_type   multi-scan
_exptl_absorpt_process_details
;
CrysAlisPro 1.171.40.84a (Rigaku Oxford Diffraction, 2020)
Empirical absorption correction using spherical harmonics,
implemented in SCALE3 ABSPACK scaling algorithm.
;
_exptl_crystal_colour            colourless
_exptl_crystal_colour_primary    colourless
_exptl_crystal_density_diffrn    1.998
_exptl_crystal_description       block
_exptl_crystal_F_000             460
_exptl_crystal_size_max          0.25
_exptl_crystal_size_mid          0.2
_exptl_crystal_size_min          0.1
_refine_diff_density_max         1.009
_refine_diff_density_min         -1.626
_refine_diff_density_rms         0.190
_refine_ls_abs_structure_details
;
 Flack x determined using 726 quotients [(I+)-(I-)]/[(I+)+(I-)]
 (Parsons, Flack and Wagner, Acta Cryst. B69 (2013) 249-259).
;
_refine_ls_abs_structure_Flack   -0.08(6)
_refine_ls_extinction_method     none
_refine_ls_goodness_of_fit_ref   1.109
_refine_ls_hydrogen_treatment    constr
_refine_ls_matrix_type           full
_refine_ls_number_parameters     181
_refine_ls_number_reflns         3232
_refine_ls_number_restraints     1
_refine_ls_restrained_S_all      1.109
_refine_ls_R_factor_all          0.0934
_refine_ls_R_factor_gt           0.0697
_refine_ls_shift/su_max          0.001
_refine_ls_shift/su_mean         0.000
_refine_ls_structure_factor_coef Fsqd
_refine_ls_weighting_details
'w=1/[\s^2^(Fo^2^)+(0.0675P)^2^] where P=(Fo^2^+2Fc^2^)/3'
_refine_ls_weighting_scheme      calc
_refine_ls_wR_factor_gt          0.1568
_refine_ls_wR_factor_ref         0.1783
_reflns_Friedel_coverage         0.839
_reflns_Friedel_fraction_full    1.000
_reflns_Friedel_fraction_max     0.962
_reflns_number_gt                2401
_reflns_number_total             3232
_reflns_threshold_expression     'I > 2\s(I)'
_cod_data_source_file            d1cc04534b2.cif
_cod_data_source_block           songxh_cl_210208_2
_cod_database_code               7129209
_shelx_shelxl_version_number     2018/3
_chemical_oxdiff_formula         CHONClBr
_shelx_space_group_comment
;
The symmetry employed for this shelxl refinement is uniquely defined
by the following loop, which should always be used as a source of
symmetry information in preference to the above space-group names.
They are only intended as comments.
;
_shelx_estimated_absorpt_t_max   0.452
_shelx_estimated_absorpt_t_min   0.201
_reflns_odcompleteness_completeness 100.00
_reflns_odcompleteness_iscentric 1
_reflns_odcompleteness_theta     66.97
_olex2_refinement_description
;
1. Fixed Uiso
 At 1.2 times of:
  All C(H) groups
 At 1.5 times of:
  All C(H,H,H) groups
2.a Ternary CH refined with riding coordinates:
 C7(H7), C8(H8)
2.b Aromatic/amide H refined with riding coordinates:
 C2(H2), C6(H6), C18(H18), C16(H16), C5(H5), C19(H19), C15(H15), C3(H3)
2.c Idealised Me refined as rotating group:
 C21(H21A,H21B,H21C)
;
_shelx_res_file
;
TITL songxh_cl_210208_2_a.res in P2(1)
    songxh_cl_210208_2.res
    created by SHELXL-2018/3 at 14:52:02 on 08-Feb-2021
REM Old TITL songxh_Cl_210208_2 in P2(1)
REM SHELXT solution in P2(1): R1 0.175, Rweak 0.031, Alpha 0.005
REM <I/s> 0.304 for 5 systematic absences, Orientation as input
REM Flack x = 0.027 ( 0.131 ) from 403 Parsons' quotients
REM Formula found by SHELXT: C21 O10 Br11
CELL 1.54184 5.5472 7.819535 18.332703 90 94.3077 90
ZERR 2 0.00024 0.000356 0.000704 0 0.0037 0
LATT -1
SYMM -X,0.5+Y,-Z
SFAC C H Br O
UNIT 32 26 6 4

L.S. 4
PLAN  2
SIZE 0.1 0.2 0.25
CONF
MORE -1
BOND $H
fmap 2
acta
htab
REM <olex2.extras>
REM <HklSrc "%.\\songxh_Cl_210208_2.hkl">
REM </olex2.extras>

WGHT    0.067500
FVAR       1.92572
BR13  3    1.054955    0.406665    1.092152    11.00000    0.03008    0.04600 =
         0.02609    0.00217   -0.00485    0.00011
BR12  3    0.458562    0.789802    0.778039    11.00000    0.03847    0.03494 =
         0.03674    0.00421   -0.00430   -0.00081
BR11  3    0.318104    0.208384    0.779437    11.00000    0.04861    0.03479 =
         0.03651    0.00248   -0.01306   -0.00362
O20   4    0.293329    0.440793    0.392976    11.00000    0.03935    0.06683 =
         0.02117   -0.00228   -0.00484    0.01122
O10   4   -0.024863    0.529733    0.714568    11.00000    0.03916    0.05377 =
         0.02293    0.00013   -0.00165    0.00360
C4    1    0.843276    0.455149    1.006763    11.00000    0.02315    0.03825 =
         0.02321    0.00326   -0.00063   -0.00386
C2    1    0.481259    0.569530    0.950242    11.00000    0.02200    0.05465 =
         0.02716    0.00260   -0.00289   -0.01195
AFIX  43
H2    2    0.337432    0.629027    0.953763    11.00000   -1.20000
AFIX   0
C6    1    0.758505    0.427694    0.878476    11.00000    0.03026    0.05409 =
         0.02598   -0.00426    0.00005   -0.00024
AFIX  43
H6    2    0.802460    0.391044    0.833073    11.00000   -1.20000
AFIX   0
C18   1    0.433536    0.386843    0.513404    11.00000    0.02914    0.05053 =
         0.02223   -0.00471   -0.00420    0.00292
AFIX  43
H18   2    0.567185    0.333329    0.495796    11.00000   -1.20000
AFIX   0
C16   1    0.051639    0.541224    0.490520    11.00000    0.03036    0.03281 =
         0.02853    0.00165   -0.00155    0.00376
AFIX  43
H16   2   -0.067435    0.589745    0.458586    11.00000   -1.20000
AFIX   0
C9    1    0.167698    0.487904    0.693868    11.00000    0.02159    0.04167 =
         0.03628   -0.00269   -0.00007   -0.00497
C5    1    0.909114    0.395384    0.940313    11.00000    0.02818    0.03031 =
         0.02784   -0.00359    0.00562    0.00745
AFIX  43
H5    2    1.052067    0.334562    0.937243    11.00000   -1.20000
AFIX   0
C1    1    0.539497    0.515408    0.883501    11.00000    0.01889    0.04296 =
         0.02755    0.00201   -0.00380    0.00085
C17   1    0.254731    0.457780    0.464720    11.00000    0.02796    0.04389 =
         0.02786    0.00036   -0.00200   -0.00394
C19   1    0.410413    0.396757    0.588379    11.00000    0.03297    0.04088 =
         0.02614    0.00260   -0.00698   -0.00272
AFIX  43
H19   2    0.528701    0.349678    0.621007    11.00000   -1.20000
AFIX   0
C7    1    0.374500    0.555426    0.818044    11.00000    0.03936    0.03252 =
         0.02659   -0.00001   -0.00589    0.01046
AFIX  13
H7    2    0.207775    0.557780    0.832308    11.00000   -1.20000
AFIX   0
C15   1    0.038416    0.547289    0.565884    11.00000    0.02555    0.04360 =
         0.02764   -0.00756   -0.00417   -0.00382
AFIX  43
H15   2   -0.093505    0.601618    0.584147    11.00000   -1.20000
AFIX   0
C3    1    0.630533    0.538878    1.014229    11.00000    0.02807
AFIX  43
H3    2    0.586288    0.574156    1.059793    11.00000   -1.20000
AFIX   0
C8    1    0.383828    0.450635    0.750506    11.00000    0.03532
AFIX  13
H8    2    0.539489    0.461749    0.728960    11.00000   -1.20000
AFIX   0
C14   1    0.209866    0.477289    0.614548    11.00000    0.02572    0.05054 =
         0.01903   -0.00195    0.00162   -0.00706
C21   1    0.107887    0.508689    0.341559    11.00000    0.05572    0.06144 =
         0.02410    0.00666    0.00719    0.02977
AFIX 137
H21A  2   -0.045060    0.458590    0.350565    11.00000   -1.50000
H21B  2    0.146281    0.482126    0.292637    11.00000   -1.50000
H21C  2    0.099090    0.630514    0.347275    11.00000   -1.50000
AFIX   0
HKLF 4




REM  songxh_cl_210208_2_a.res in P2(1)
REM wR2 = 0.1783, GooF = S = 1.109, Restrained GooF = 1.109 for all data
REM R1 = 0.0697 for 2401 Fo > 4sig(Fo) and 0.0934 for all 3232 data
REM 181 parameters refined using 1 restraints

END

WGHT      0.0672      0.0000

REM Instructions for potential hydrogen bonds
EQIV $1 -x+1, y+1/2, -z+2
HTAB C3 Br11_$1
EQIV $2 x+1, y, z
HTAB C8 O10_$2
EQIV $3 -x+1, y-1/2, -z+1
HTAB C21 Br12_$3

REM Highest difference peak  1.009,  deepest hole -1.626,  1-sigma level  0.190
Q1    1   0.6747  0.7913  0.7689  11.00000  0.05    0.85
Q2    1   1.0897  0.2390  1.1303  11.00000  0.05    0.70
;
_shelx_res_checksum              52359
_shelx_hkl_file
;
   0  -9   0-260.099 286.597  27
   0  -9   1 4008.59 970.454  27
   0  -9  -1 2187.79 734.663  27
   0  -9   2 934.078 514.055  27
   0  -9   3 1172.01 542.278  27
   0  -9  -3 899.692 476.283  46
   0  -9   4 229.886 310.017  44
   0  -9  -4 269.055 362.612  46
   0  -9  -5 815.060 472.846  46
   0  -9   5 208.655 257.997  44
   0  -9   6 1058.56 452.497  27
   0  -9  -6 399.071 360.610  46
   0  -9   6 366.228 287.821  44
   0  -9   7 153.071 206.314  44
   0  -9  -7 126.087 277.298  46
   0  -9   8 468.366 220.953  30
   0  -9   8 1242.31 478.122  27
   0  -9  -8 912.991 455.406  46
   0  -8   0 3363.29 1172.71  46
   0  -8   1 176.030 387.049  33
   0  -8   2 178.520 438.787  33
   0  -8   3 178.916 393.734  33
   0  -8  -3 335.505 369.251  27
   0  -8   4 708.000 647.734  33
   0  -8   5 1553.35 721.775  33
   0  -8   6 331.130 410.566  33
   0  -8   6 1425.91 629.091  55
   0  -8   7 1677.97 636.653  55
   0  -8   7 467.485 596.526  33
   0  -8   7 397.931 493.014  44
   0  -8   8 133.936 329.047  55
   0  -8   8-143.334 352.128  33
   0  -8   8 180.144 342.808  44
   0  -8   9 1252.08 534.010  55
   0  -8   9 128.029 316.684  33
   0  -8   9 478.929 431.185  44
   0  -8  10 455.294 375.221  55
   0  -8  10 548.811 417.787  33
   0  -8  10 104.719 257.380  30
   0  -8  10-137.767 302.810  44
   0  -8  11 399.517 347.840  55
   0  -8  11 263.938 290.988  33
   0  -8  11 162.019 219.367  30
   0  -8  11 572.762 378.322  44
   0  -8  12 583.113 317.245  55
   0  -8  12 54.0889 146.072  30
   0  -7   0-467.668 890.718  23
   0  -7   0-740.933 1151.77  53
   0  -7   0-336.951 524.954  52
   0  -7   1 12848.4 3084.90  23
   0  -7  -1 10011.5 2787.33  23
   0  -7   1 13176.2 3999.52  53
   0  -7  -1 8058.50 2140.39  52
   0  -7  -1 11976.4 3653.71  53
   0  -7   2 3646.63 1320.54  46
   0  -7   2 3362.98 1690.43  23
   0  -7  -2 3950.80 1691.98  23
   0  -7  -2 2329.48 1129.15  52
   0  -7   3 6169.46 2119.64  23
   0  -7  -3 2967.71 1590.65  23
   0  -7  -3 4938.33 1580.69  52
   0  -7   4 1844.43 1257.00  23
   0  -7  -4 2459.46 1289.46  23
   0  -7   4 4119.29 2402.97  53
   0  -7  -4 3911.90 1401.51  52
   0  -7   4 2412.57 864.343  55
   0  -7   4 1530.00 950.638  33
   0  -7  -5 1589.89 1256.48  23
   0  -7  -5 2251.87 1085.13  52
   0  -7   5 4048.83 2364.90  53
   0  -7   5 3656.15 1102.42  55
   0  -7   5 2819.09 1149.65  33
   0  -7   6 7089.73 1449.09  55
   0  -7   6 2038.76 933.278  33
   0  -7   7 4289.60 1128.33  25
   0  -7   7 4576.84 1230.39  55
   0  -7   7 1752.94 994.174  33
   0  -7   8 12392.4 1936.02  25
   0  -7   8 11698.8 1919.55  55
   0  -7   8 5100.08 1539.87  44
   0  -7   8 5583.61 1609.95  33
   0  -7   9 732.508 603.530  25
   0  -7   9 583.227 523.141  55
   0  -7   9-249.931 388.302  44
   0  -7   9-231.689 623.457  33
   0  -7  10 2762.74 897.026  25
   0  -7  10 2521.02 967.716  44
   0  -7  10 1302.48 785.965  33
   0  -7  11 2391.56 768.972  25
   0  -7  11 3339.60 969.816  55
   0  -7  11 1032.58 607.234  44
   0  -7  11 453.905 417.383  30
   0  -7  11 795.770 585.484  33
   0  -7  12 1579.20 636.234  25
   0  -7  12 1639.89 698.302  44
   0  -7  12 532.196 484.455  33
   0  -7  12 386.361 383.327  30
   0  -7 -13 1174.01 668.992  56
   0  -7  13 851.766 523.244  55
   0  -7  13 782.267 521.646  44
   0  -7  13 1052.28 439.699  30
   0  -7  13 1068.07 632.137  33
   0  -7  13 751.232 462.988  25
   0  -7  14 3133.84 737.487  25
   0  -7  14 950.650 371.905  30
   0  -7  14 1120.76 579.030  33
   0  -7  14 4317.60 959.053  55
   0  -7  15 1107.53 470.859  33
   0  -7  15 1943.19 518.915  25
   0  -6   0 5656.18 1663.36  52
   0  -6   0 6358.60 2063.93  23
   0  -6   1 2579.00 1109.91  52
   0  -6  -1 2231.60 1037.16  52
   0  -6  -1 1907.63 1274.26  23
   0  -6   1 3313.76 1589.81  23
   0  -6   2 1979.48 732.705  55
   0  -6  -2 2473.26 1048.27  52
   0  -6   2 1442.12 899.093  52
   0  -6  -2 1469.13 990.953  23
   0  -6   2-427.068 815.809  23
   0  -6  -2 1173.61 686.039  49
   0  -6   3 493.329 511.007  55
   0  -6   3-285.386 543.067  52
   0  -6  -3-274.008 521.420  52
   0  -6   3 434.937 827.606  23
   0  -6  -3-355.151 675.801  23
   0  -6  -3 235.428 448.022  49
   0  -6   4 1055.00 582.031  55
   0  -6  -4 275.340 431.206  52
   0  -6  -4 694.679 663.130  23
   0  -6   4 439.129 966.338  23
   0  -6  -4 952.843 643.299  49
   0  -6   5 1119.81 626.482  55
   0  -6   5 2242.41 2014.86  53
   0  -6  -5 1393.79 874.275  52
   0  -6   5 1304.08 1175.74  23
   0  -6  -5 1372.54 930.965  23
   0  -6   5 1228.66 685.273  25
   0  -6  -5 2184.71 931.391  49
   0  -6  -6 3464.29 1142.00  49
   0  -6   6 3426.45 1575.81  23
   0  -6  -6 3080.56 1373.32  23
   0  -6   6 4250.38 1210.41  25
   0  -6   6 4131.85 1164.51  55
   0  -6  -6 2262.97 1053.65  52
   0  -6   6 3711.55 2168.60  53
   0  -6   6 545.847 766.367  33
   0  -6   7 2223.98 1295.02  50
   0  -6  -7 1531.00 804.757  49
   0  -6   7 1963.83 875.215  25
   0  -6  -7 685.876 765.993  23
   0  -6   7 3325.42 1652.21  23
   0  -6  -7 1157.85 852.555  52
   0  -6   7 726.662 1389.51  53
   0  -6   7 2264.34 914.998  55
   0  -6   7 2213.91 1017.68  33
   0  -6  -8 263.860 503.175  49
   0  -6   8 401.554 882.888  23
   0  -6  -8 346.996 763.119  23
   0  -6   8 444.203 546.604  25
   0  -6   8 1396.60 1715.66  53
   0  -6  -8 296.727 462.207  52
   0  -6   8 639.987 525.098  55
   0  -6   8 278.191 612.130  33
   0  -6   9 655.150 634.804  55
   0  -6  -9 303.726 577.994  52
   0  -6   9 1985.23 1453.95  53
   0  -6   9 223.850 426.042  25
   0  -6  -9-352.134 670.091  23
   0  -6  -9-272.727 519.021  49
   0  -6   9-280.622 534.041  44
   0  -6   9-276.798 430.140  33
   0  -6  10 1100.21 729.054  55
   0  -6 -10 927.829 763.413  52
   0  -6  10 620.374 1525.75  53
   0  -6 -10 357.128 559.880  23
   0  -6  10 2006.09 815.584  25
   0  -6 -10 1403.78 875.578  49
   0  -6  10 808.351 666.126  44
   0  -6  10 543.935 602.233  33
   0  -6  11 437.114 537.908  25
   0  -6  11 217.264 414.744  55
   0  -6  11 1533.15 842.780  44
   0  -6  11 263.078 578.972  33
   0  -6  12 630.515 613.369  25
   0  -6  12 627.933 652.720  55
   0  -6  12 477.266 588.798  44
   0  -6  12 998.490 911.179  33
   0  -6  12 681.326 461.680  30
   0  -6  13 437.341 480.489  44
   0  -6  13-152.655 335.467  30
   0  -6  13-462.717 508.362  33
   0  -6  13 394.625 484.732  25
   0  -6 -14 183.086 402.803  56
   0  -6  14 195.731 373.017  44
   0  -6  14 359.980 396.012  25
   0  -6  14 265.909 327.267  30
   0  -6  14 208.357 458.261  33
   0  -6  15 633.449 492.066  25
   0  -6  15 456.461 472.775  55
   0  -6  15-221.334 297.807  30
   0  -6  15 362.265 526.467  33
   0  -6  16 798.387 487.745  25
   0  -6  16 617.874 410.741  55
   0  -6  16 450.288 497.534  33
   0  -6  17 104.484 281.191  25
   0  -6  17 345.797 358.179  33
   0  -6  17-91.1500 223.951  55
   0  -6  18 74.0948 182.119  33
   0  -5   0 180.237 485.000  49
   0  -5   0 285.022 766.963  23
   0  -5   0-200.413 440.329  52
   0  -5  -1 7320.27 1503.41  49
   0  -5   1 6910.71 1486.53  49
   0  -5  -1 10616.6 2189.92  23
   0  -5   1 7498.44 1971.76  23
   0  -5  -1 7537.33 1582.01  52
   0  -5   1 6993.49 1550.79  52
   0  -5   2-182.312 400.676  49
   0  -5  -2-179.360 394.191  49
   0  -5   2-316.726 602.726  23
   0  -5  -2-263.785 579.643  23
   0  -5  -2-198.782 308.978  52
   0  -5   2-211.032 401.657  52
   0  -5   2 242.020 297.412  55
   0  -5   3 21749.3 3018.80  49
   0  -5  -3 24688.4 3120.14  49
   0  -5  -3 25945.6 3587.05  23
   0  -5   3 20537.5 3694.37  23
   0  -5   3 23265.0 2847.64  55
   0  -5  -3 23510.1 3183.59  52
   0  -5   3 20932.1 3131.52  52
   0  -5   4 17368.7 2733.56  52
   0  -5  -4 16094.6 2582.41  52
   0  -5  -4 16785.4 2840.19  23
   0  -5   4 15842.2 3152.63  23
   0  -5  -4 16127.6 2535.17  49
   0  -5   4 20830.2 2517.46  55
   0  -5   4 20954.1 2617.94  25
   0  -5  -5 4904.96 1257.31  49
   0  -5   5 6306.94 1310.97  25
   0  -5  -5 6287.57 1645.73  23
   0  -5   5 3162.96 1441.67  23
   0  -5   5 2678.69 812.582   4
   0  -5  -5 8777.00 1671.93  52
   0  -5   5 5261.48 2345.75  53
   0  -5   5 4274.81 1209.93  52
   0  -5  -6 15405.9 2475.92  49
   0  -5  -6 19941.5 3035.53  23
   0  -5   6 17035.3 3335.43  23
   0  -5   6 15515.2 4004.28  53
   0  -5   6 18079.1 2616.22  52
   0  -5  -6 16798.7 2611.03  52
   0  -5   6 21649.9 2721.25  25
   0  -5   6 9022.05 2247.26  33
   0  -5  -7-218.819 340.098  49
   0  -5   7 773.471 562.107  25
   0  -5  -7 280.461 533.737  23
   0  -5   7 1075.79 1042.31  23
   0  -5  -7 707.472 634.651  52
   0  -5   7-600.445 1319.27  53
   0  -5   7 540.200 484.640  55
   0  -5   7 246.852 469.800  33
   0  -5  -8 3513.05 1120.28  49
   0  -5   8 2559.76 1154.39  50
   0  -5   8 3589.95 1444.09  23
   0  -5   8 4503.30 1236.90  25
   0  -5  -8 2725.79 1013.34  52
   0  -5   8 3458.17 1043.08  55
   0  -5   8 1197.23 1630.40  53
   0  -5   8 2043.94 922.650  33
   0  -5  -9 2007.92 927.171  49
   0  -5   9 1724.06 799.945  25
   0  -5   9 2158.00 1319.33  23
   0  -5   9 2235.16 877.949  55
   0  -5  -9 2357.01 966.363  52
   0  -5   9 2946.16 1719.41  53
   0  -5   9 788.990 724.022  33
   0  -5  10 17409.9 2431.06  55
   0  -5  10 8069.13 2801.68  53
   0  -5 -10 15717.0 2532.54  52
   0  -5 -10 17705.1 2689.51  49
   0  -5  10 3608.10 1440.84  44
   0  -5  10 13504.0 2230.14  25
   0  -5  10 6987.00 1896.40  33
   0  -5  11 557.651 1061.45  53
   0  -5  11 929.142 675.746  25
   0  -5 -11 284.653 443.166  49
   0  -5  11 255.921 398.633  44
   0  -5  11 271.762 517.891  33
   0  -5 -12 8594.82 1903.32  52
   0  -5  12 5346.02 2064.80  53
   0  -5  12 9196.29 1754.15  25
   0  -5 -12 9547.98 1971.02  49
   0  -5  12 4022.12 1284.44  44
   0  -5  12 3793.04 1470.37  33
   0  -5  12 1803.37 796.720  30
   0  -5  13 7494.68 1649.06  25
   0  -5  13 8379.42 1663.30  55
   0  -5  13 5350.21 1410.03  44
   0  -5  13 5565.86 1578.85  33
   0  -5  13 3439.65 1012.35  30
   0  -5 -14 209.331 514.826  56
   0  -5  14 406.480 447.252  55
   0  -5  14 691.703 566.936  44
   0  -5  14 759.403 681.623  33
   0  -5  14 160.737 250.994  30
   0  -5  14 226.307 497.861  25
   0  -5  15 1057.45 698.509  25
   0  -5  15 1643.20 856.513  33
   0  -5  15 145.981 281.547  30
   0  -5  15 2214.16 812.092  55
   0  -5  16 759.801 553.701  25
   0  -5  16 210.236 567.293  33
   0  -5  16 508.800 397.481  30
   0  -5  16 477.543 430.414  55
   0  -5  17 2602.08 857.486  25
   0  -5  17 3077.75 817.412  55
   0  -5  17 1262.63 652.470  33
   0  -5  18 1169.61 556.386  33
   0  -5  18-92.4573 227.160  28
   0  -5  19 2263.38 697.227  33
   0  -4   0 9302.92 1470.93  52
   0  -4   0 8821.79 1691.35  23
   0  -4   0 6887.90 1290.92  49
   0  -4  -1 2654.52 778.079  52
   0  -4   1 2442.49 779.863  52
   0  -4   1 3595.28 1142.13  23
   0  -4  -1 2168.13 872.801  23
   0  -4   1 3540.43 864.446  49
   0  -4  -1 2321.01 721.729  49
   0  -4   2 12086.2 2017.57  52
   0  -4  -2 16175.3 2134.92  52
   0  -4   2 15473.0 2515.92  23
   0  -4  -2 15984.9 2355.60  23
   0  -4  -2 15676.9 2070.12  49
   0  -4   2 17022.6 2144.94  49
   0  -4  -3-141.598 311.125  52
   0  -4   3 149.770 284.996  52
   0  -4  -3 179.492 394.376  23
   0  -4   3 232.147 570.264  23
   0  -4  -3-130.503 320.591  49
   0  -4   3-134.896 363.007  49
   0  -4  -4 12783.2 1889.72  52
   0  -4   4 11563.3 1858.58  52
   0  -4   4 14358.2 2492.99  23
   0  -4  -4 14230.4 1896.92  49
   0  -4   4 9041.94 1694.89  49
   0  -4  -5 11095.6 1820.30  52
   0  -4   5 12359.6 2978.29  53
   0  -4   5 11804.4 1861.77  52
   0  -4   5 10207.2 2242.63  23
   0  -4  -5 12384.0 1859.05  49
   0  -4   6 4607.24 1105.61  52
   0  -4  -6 6643.77 1316.15  52
   0  -4   6 4019.02 1812.40  53
   0  -4   6 4077.86 1455.50  23
   0  -4   6 5316.25 1107.97  25
   0  -4  -6 3279.55 1031.92  49
   0  -4  -7 1441.43 719.779  49
   0  -4   7 565.356 766.393  23
   0  -4   7 1256.75 579.970  25
   0  -4  -7 1656.96 706.842  52
   0  -4   7 461.590 883.260  53
   0  -4   7 935.285 549.550  52
   0  -4   7 1087.02 401.086  26
   0  -4  -8 1191.97 663.295  49
   0  -4   8 1536.09 806.570  50
   0  -4   8 2399.78 805.957  25
   0  -4   8 291.917 565.529  23
   0  -4  -8 2195.65 827.314  52
   0  -4   8 1225.55 616.027  52
   0  -4   8 2368.11 1475.46  53
   0  -4   8 1056.17 704.226  33
   0  -4   8 1150.13 417.375  26
   0  -4   9 4813.59 1999.36  53
   0  -4   9 5219.66 1228.24  25
   0  -4   9 4844.14 1551.03  23
   0  -4   9 4245.54 1147.08  50
   0  -4  -9 6575.16 1453.15  49
   0  -4   9 1505.67 800.638  44
   0  -4   9 2234.74 993.331  33
   0  -4  10 1952.92 1317.42  53
   0  -4  10 1007.93 671.545  25
   0  -4 -10 2411.44 960.155  49
   0  -4  10 667.907 555.603  44
   0  -4  10 1178.12 691.815  33
   0  -4  11 3937.22 1748.69  53
   0  -4 -11 8535.64 1739.29  52
   0  -4  11 7128.59 1545.13  25
   0  -4 -11 8960.07 1822.00  49
   0  -4  11 2297.39 981.278  44
   0  -4  11 2716.70 1044.89  33
   0  -4 -12 5849.67 1508.50  52
   0  -4  12 5432.51 2114.80  53
   0  -4  12 4799.48 1226.82  55
   0  -4  12 6165.94 1439.18  25
   0  -4 -12 4270.13 1348.20  49
   0  -4  12 2355.61 927.798  44
   0  -4  12 1193.56 610.745  30
   0  -4  12 2563.85 1080.66  33
   0  -4 -13 2210.78 1014.39  52
   0  -4  13 980.512 1210.57  53
   0  -4  13 4258.75 1185.29  55
   0  -4  13 2131.83 1079.95  25
   0  -4 -13 1209.06 887.140  49
   0  -4  13 1194.24 705.072  44
   0  -4  13 1573.93 1005.85  33
   0  -4  13 855.407 512.304  30
   0  -4 -14 883.414 612.305  56
   0  -4  14 479.561 759.484  53
   0  -4 -14 4479.74 1383.40  52
   0  -4  14 2992.46 966.595  55
   0  -4  14 2634.86 995.549  25
   0  -4  14 1666.69 798.418  44
   0  -4 -14 2194.74 1043.76  49
   0  -4  14 1315.07 879.248  33
   0  -4  14 2365.76 779.465  30
   0  -4  15-188.795 415.501  55
   0  -4  15-256.771 631.199  33
   0  -4  15-325.907 358.835  30
   0  -4  16 850.442 621.355  55
   0  -4  16 970.665 755.354  33
   0  -4  16 303.855 375.921  30
   0  -4  17 992.749 691.326  25
   0  -4  17 575.055 420.453  55
   0  -4  17 220.568 543.820  33
   0  -4  18 1689.07 702.773  25
   0  -4  18 853.135 594.524  28
   0  -4  18 1532.44 822.254  33
   0  -4  19 267.618 328.746  25
   0  -4  19 103.943 228.450  28
   0  -4  19-157.120 299.017  33
   0  -4  20 661.654 364.891  25
   0  -4  20 1065.18 507.274  33
   0  -4 -20 498.256 486.604  54
   0  -3   0 234.347 285.470  49
   0  -3   0 470.402 448.072  23
   0  -3   0 167.954 345.886  52
   0  -3  -1 31712.4 3319.33  49
   0  -3   1 29835.9 3299.22  49
   0  -3  -1 38703.4 3672.43  23
   0  -3   1 32121.4 3618.61  23
   0  -3   1 31895.6 3355.30  52
   0  -3  -1 34419.4 3407.90  52
   0  -3  -2 11083.4 1425.03  49
   0  -3   2 8261.35 1315.24  49
   0  -3   2 10036.6 1668.01  23
   0  -3   2 9066.68 1367.00  52
   0  -3  -2 12570.6 1488.11  52
   0  -3  -3 23792.9 2626.15  49
   0  -3  -3 21456.8 2107.22  47
   0  -3   3 22699.8 2598.03  49
   0  -3   3 26969.3 3089.87  23
   0  -3   3 24281.4 2106.02  13
   0  -3  -3 29302.4 2761.56  52
   0  -3   3 22804.9 2645.58  52
   0  -3   4 5440.40 1031.17  49
   0  -3  -4 5533.92 677.547  47
   0  -3  -4 8393.20 1199.22  49
   0  -3   4 5834.37 1309.11  23
   0  -3   4 5957.63 663.761  13
   0  -3   4 4435.53 977.184  52
   0  -3  -5 5357.55 661.871  47
   0  -3  -5 4963.73 1003.10  49
   0  -3   5 3078.91 1151.22  23
   0  -3   5 4803.61 627.359  13
   0  -3   5 4313.60 1529.77  53
   0  -3   5 3841.61 895.121  52
   0  -3  -6 3988.83 627.023  47
   0  -3   6 4744.62 1287.91  23
   0  -3   6 3693.50 595.523  13
   0  -3   6 4986.05 984.103  52
   0  -3   6 3642.67 1622.51  53
   0  -3  -7 6113.22 885.721  47
   0  -3   7 5615.93 1321.34  50
   0  -3   7 6338.33 1548.33  23
   0  -3   7 6907.15 886.871  13
   0  -3   7 2458.89 1432.21  53
   0  -3   7 6148.63 1147.51  52
   0  -3   8 11043.4 2710.17  53
   0  -3   8 10464.7 2172.61  23
   0  -3   8 11090.1 1912.07  50
   0  -3  -8 11661.6 1499.15  47
   0  -3   8 14517.4 1958.33  25
   0  -3   8 13820.8 1518.85  13
   0  -3   9 8340.01 1565.71  50
   0  -3  -9 10357.1 1314.28  47
   0  -3   9 6936.11 2171.12  53
   0  -3   9 8767.27 1258.50  26
   0  -3   9 8072.84 1547.77  25
   0  -3   9 9375.81 1253.18  13
   0  -3  10 3584.69 1157.86  33
   0  -3  10 5668.21 1326.54  25
   0  -3  10 7243.83 2197.91  53
   0  -3  10 7262.63 1330.98  50
   0  -3 -10 8467.19 1185.73  47
   0  -3  10 5422.99 1314.59  44
   0  -3  10 10366.3 1251.83  13
   0  -3  11 588.850 440.642  30
   0  -3  11 1503.07 789.400  33
   0  -3  11 3367.52 1466.09  53
   0  -3  11 1887.89 585.641  21
   0  -3 -11 3016.19 698.007  47
   0  -3  11 199.143 393.282  44
   0  -3  11 2622.67 635.636  13
   0  -3  12 1856.60 720.783  30
   0  -3  12 2530.35 1007.57  33
   0  -3  12 2194.64 1384.68  53
   0  -3  12 6518.84 1073.77  21
   0  -3 -12 4805.19 917.077  47
   0  -3  12 634.241 617.222  44
   0  -3  12 5863.35 996.633  13
   0  -3  13 4070.25 882.401  13
   0  -3 -13 5010.58 1245.69  56
   0  -3  13 5589.26 1224.12  55
   0  -3  13 2729.42 1519.94  53
   0  -3  13 6331.39 1097.41  21
   0  -3 -13 5221.14 996.333  47
   0  -3  13 2003.97 883.522  44
   0  -3  13 2924.72 1099.83  33
   0  -3  13 646.915 561.382  30
   0  -3  14 6963.83 1183.45  13
   0  -3 -14 5891.32 1417.50  56
   0  -3  14 4665.59 1888.26  53
   0  -3  14 5654.11 1287.45  55
   0  -3  14 6381.96 1510.67  25
   0  -3  14 6298.08 1167.91  21
   0  -3 -14 6307.18 1189.60  47
   0  -3  14 3006.03 1087.62  44
   0  -3  14 2169.90 809.216  30
   0  -3  14 3046.48 1213.58  33
   0  -3  15 1405.86 1160.24  53
   0  -3  15 3448.76 939.296  55
   0  -3  15 2606.28 737.110  21
   0  -3  15 3231.49 1085.54  25
   0  -3 -15 3283.33 848.482  47
   0  -3  15 2841.58 1071.68  33
   0  -3  15 505.816 438.848  30
   0  -3  15 1340.83 550.549  13
   0  -3  16 900.418 743.127  25
   0  -3  16 1078.33 514.771  21
   0  -3  16 962.039 530.195  55
   0  -3  16 165.055 260.059  30
   0  -3  16 764.611 627.567  33
   0  -3  17 3354.95 1105.42  25
   0  -3  17 4668.59 968.731  21
   0  -3  17 968.186 831.231  33
   0  -3  18 1664.08 762.438  25
   0  -3  18 1000.59 444.552  21
   0  -3  18 659.594 543.507  33
   0  -3  18 173.815 431.287  28
   0  -3  19 3359.34 692.477  21
   0  -3  19 1676.72 685.964  25
   0  -3  19 947.910 706.418  33
   0  -3  19 1138.51 582.795  28
   0  -3  20 153.281 446.615  33
   0  -3  20 100.787 249.563  28
   0  -3 -20 425.887 524.023  54
   0  -3  20 1018.14 374.148  12
   0  -3 -20 409.159 299.803  42
   0  -3 -21 943.495 304.382  42
   0  -3 -21 891.420 522.233  54
   0  -2   0 27679.0 2682.50  49
   0  -2   0 25267.9 2780.29  23
   0  -2   0 29275.1 2715.54  52
   0  -2  -1 4155.69 615.562  49
   0  -2   1 3218.78 569.931  49
   0  -2   1 3335.19 730.218  23
   0  -2   1 3262.85 578.027  52
   0  -2  -1 3550.39 603.277  52
   0  -2  -2 58991.9 4801.74  49
   0  -2  -2 54186.1 4442.62  47
   0  -2   2 48062.2 4715.84  49
   0  -2   2 51724.2 4987.74  23
   0  -2   2 47947.7 4414.44  13
   0  -2   2 46485.1 4719.83  52
   0  -2  -3 16757.4 1511.54  47
   0  -2   3 14752.6 1756.00  49
   0  -2   3 14410.5 2008.77  23
   0  -2   3 15478.6 1477.87  13
   0  -2   3 15294.5 1791.67  52
   0  -2  -4 29869.6 2645.21  47
   0  -2   4 26269.1 3184.81  23
   0  -2   4 27766.7 2603.84  13
   0  -2   4 27015.4 2921.84  52
   0  -2  -5 37586.2 3435.33  47
   0  -2   5 37302.2 4117.61  23
   0  -2   5 35566.5 3401.81  13
   0  -2   5 40911.3 4677.40  53
   0  -2   5 37248.6 3726.18  52
   0  -2  -6 15209.4 1453.44  47
   0  -2   6 11921.0 1754.62  50
   0  -2   6 9807.10 1856.95  23
   0  -2   6 12951.5 1390.76  13
   0  -2   6 11306.1 1585.19  52
   0  -2   6 12862.1 2463.63  53
   0  -2  -7 28712.1 2808.55  47
   0  -2   7 31076.1 3225.03  50
   0  -2   7 25707.7 3382.93  23
   0  -2   7 27309.3 2765.87  13
   0  -2   7 28220.7 3998.96  53
   0  -2   8 1281.28 403.174  13
   0  -2   8 1145.93 1048.09  53
   0  -2   8 1246.77 522.076  50
   0  -2  -8 935.934 333.891  47
   0  -2   9 18049.8 1880.93  13
   0  -2   9 12029.2 2746.62  53
   0  -2   9 12471.7 1936.16  50
   0  -2  -9 17383.0 1883.50  47
   0  -2  10 3338.23 1426.89  53
   0  -2 -10 4990.55 870.081  47
   0  -2  10 3035.49 797.162  50
   0  -2  10 4871.10 827.174  26
   0  -2  10 5201.61 1134.46  25
   0  -2  10 6152.31 948.161  13
   0  -2  11 22029.5 2552.61  25
   0  -2  11 11062.2 2227.88  33
   0  -2  11 17725.6 3296.68  53
   0  -2  11 23319.4 2246.03  21
   0  -2 -11 19632.5 2120.14  47
   0  -2  11 7300.50 1901.75  44
   0  -2  11 19592.6 2106.90  13
   0  -2  12 7552.28 1215.21  13
   0  -2 -12 7167.03 1495.62  56
   0  -2  12 7834.54 2172.61  53
   0  -2  12 8909.09 1310.94  21
   0  -2 -12 9403.41 1325.09  47
   0  -2  12 3231.11 1091.47  44
   0  -2  12 3657.58 1008.04  30
   0  -2  12 4941.41 1326.42  33
   0  -2  12 8674.93 1547.25  25
   0  -2  13 6547.31 1098.85  13
   0  -2 -13 3925.19 1174.51  56
   0  -2  13 2112.76 1252.16  53
   0  -2  13 6622.70 1122.60  21
   0  -2 -13 5658.23 1037.96  47
   0  -2  13 1031.94 686.156  44
   0  -2  13 1064.66 582.010  30
   0  -2  13 2463.40 1043.29  33
   0  -2  13 5952.63 1323.05  25
   0  -2  14 8545.56 2510.57  53
   0  -2  14 8686.36 1516.97  55
   0  -2  14 7957.61 1659.86  25
   0  -2  14 10845.0 1589.56  21
   0  -2 -14 7412.64 1372.57  47
   0  -2  14 6481.13 1675.77  33
   0  -2  14 4870.98 1235.17  30
   0  -2  14 10434.8 1549.33  13
   0  -2  15 730.758 459.310  55
   0  -2  15-470.095 520.995  53
   0  -2  15 2229.76 715.132  21
   0  -2  15 421.872 522.707  25
   0  -2 -15 1964.85 646.736  47
   0  -2  15 509.066 422.480  30
   0  -2  15 2039.98 682.615  13
   0  -2 -16 7474.68 1381.08  47
   0  -2  16 7325.54 1355.57  13
   0  -2  16 4771.47 1974.56  53
   0  -2  16 6885.16 1329.95  55
   0  -2  16 5262.66 1370.38  25
   0  -2  16 7282.36 1392.20  21
   0  -2  17 634.243 662.124  28
   0  -2  17 741.352 521.727  21
   0  -2  17 2408.65 939.184  25
   0  -2  18 1362.61 737.817  28
   0  -2  18 2534.75 954.816  25
   0  -2  18 3859.05 918.524  21
   0  -2 -19 311.716 594.214  54
   0  -2  19 334.391 369.119  28
   0  -2  19 1330.89 532.882  21
   0  -2  19 152.333 411.500  25
   0  -2 -20 4488.51 1390.84  54
   0  -2  20 1559.90 636.465  28
   0  -2  20 4850.99 883.128  21
   0  -2  21 2575.67 593.634  21
   0  -2 -21 3543.35 693.488  42
   0  -2 -21 2171.51 899.528  54
   0  -2 -22 769.761 273.781  42
   0  -2 -22 1011.76 467.502  54
   0  -1   0 41.8375 114.901  49
   0  -1   0-30.8348 162.452  23
   0  -1   0-22.7423 114.489  52
   0  -1   1 942.224 246.850  49
   0  -1  -1 1350.71 150.417  47
   0  -1   1 1364.33 338.940  23
   0  -1   1 1013.04 135.823  13
   0  -1   1 1269.15 258.943  52
   0  -1   2 5704.48 743.514  49
   0  -1  -2 6910.28 630.991  47
   0  -1   2 5305.69 594.452  22
   0  -1   2 6726.47 922.179  23
   0  -1   2 7556.07 808.452  52
   0  -1  -3 4070.01 482.834  47
   0  -1   3 3463.38 447.349  22
   0  -1   3 5225.95 852.142  23
   0  -1   3 5320.62 685.467  52
   0  -1   4 1309.09 442.543  50
   0  -1  -4 1660.33 315.787  47
   0  -1   4 1452.29 278.565  22
   0  -1   4 2295.25 620.023  23
   0  -1   4 1430.83 395.347  52
   0  -1   4 1931.52 826.923  53
   0  -1   5 878.794 396.889  50
   0  -1  -5 1015.05 267.030  47
   0  -1   5 101.893 407.417  23
   0  -1   5 623.448 665.478  53
   0  -1   5 503.974 216.107  13
   0  -1  -6 3235.15 530.721  47
   0  -1   6 3907.68 721.249  50
   0  -1   6 3158.44 1039.74  53
   0  -1   6 3014.24 521.937  13
   0  -1  -7 4363.47 642.240  47
   0  -1   7 3781.28 744.002  50
   0  -1   7 2171.70 997.251  53
   0  -1   7 3564.95 608.248  13
   0  -1  -8 29458.7 2743.16  47
   0  -1   8 22729.8 2755.71  50
   0  -1   8 26538.7 3577.76  53
   0  -1   8 26980.2 2688.96  13
   0  -1   9 2068.08 583.833  50
   0  -1  -9 2135.22 529.581  47
   0  -1   9 3025.06 1158.51  53
   0  -1   9 2515.72 559.220  13
   0  -1 -10 169.487 229.227  47
   0  -1  10 191.616 279.442  50
   0  -1  10 501.728 305.566  13
   0  -1  10 571.078 701.794  53
   0  -1 -11 386.582 285.960  47
   0  -1  11 901.266 400.244  50
   0  -1  11 896.883 427.362  21
   0  -1  11 579.132 355.730  13
   0  -1  11 644.717 793.659  53
   0  -1  12 1355.81 514.015  21
   0  -1 -12 1335.85 535.230  47
   0  -1  12 1321.03 500.950  13
   0  -1  12 263.140 326.764  30
   0  -1 -13 4346.38 1105.98  59
   0  -1  13 3634.51 1639.33  53
   0  -1  13 4546.57 958.173  21
   0  -1 -13 6207.11 1081.86  47
   0  -1  13 3588.77 870.209  13
   0  -1  13 5618.38 1189.15  25
   0  -1  13 2773.55 848.744  30
   0  -1 -14 10601.8 1841.91  59
   0  -1  14 8420.81 2482.54  53
   0  -1  14 11509.9 1700.70  21
   0  -1 -14 9534.92 1588.89  47
   0  -1  14 10116.3 1584.71  13
   0  -1  14 8322.27 1659.56  25
   0  -1 -15 7038.08 1545.57  59
   0  -1  15 11420.8 2883.25  53
   0  -1 -15 6435.82 1315.53  47
   0  -1  15 9810.96 1536.68  21
   0  -1  15 7410.44 1347.17  13
   0  -1  15 5544.47 1383.19  25
   0  -1 -16 1650.10 719.650  59
   0  -1 -16 1864.79 686.121  47
   0  -1  16 1699.02 660.551  21
   0  -1  16 2049.05 821.266  25
   0  -1  16 1214.23 581.447  13
   0  -1  16 762.740 628.108  33
   0  -1  16 222.816 429.202  28
   0  -1 -17 2826.73 930.332  59
   0  -1  17 3090.10 865.658  21
   0  -1  17 2692.36 919.575  25
   0  -1 -17 2819.68 806.866  47
   0  -1  17 2594.78 787.123  13
   0  -1  17 1528.33 984.256  33
   0  -1  17 441.572 568.579  28
   0  -1  18 884.057 514.114  21
   0  -1  18 815.081 539.395  25
   0  -1 -18-385.518 426.236  54
   0  -1 -18 2040.85 764.125  59
   0  -1  18 487.459 600.635  33
   0  -1  18 829.328 604.526  28
   0  -1 -19-334.607 735.935  54
   0  -1  19 441.884 486.600  33
   0  -1  19 364.264 491.255  28
   0  -1  19 665.739 463.771  21
   0  -1 -20-268.877 592.614  54
   0  -1  20 733.315 428.855  28
   0  -1  20 792.952 433.633  21
   0  -1  21 983.905 395.566  21
   0  -1 -21 279.616 310.394  42
   0  -1 -21 395.379 533.827  54
   0  -1 -22 133.401 193.891  42
   0  -1 -22-128.236 315.020  54
   0   0  -1 11843.5 889.724  47
   0   0   1 9567.76 870.713  22
   0   0   1 9038.50 852.042  18
   0   0  -2 8796.49 736.103  47
   0   0   2 8020.75 766.083  50
   0   0  -2 6502.63 663.372  48
   0   0   2 7361.83 705.643  22
   0   0   2 7471.55 673.129  18
   0   0   3 10353.2 1037.74  50
   0   0  -3 8523.39 888.599  48
   0   0  -3 11870.4 1001.73  47
   0   0   3 10251.8 907.184  18
   0   0   3 9748.54 954.540  22
   0   0  -4 14252.7 1265.00  47
   0   0   4 11541.1 1292.15  50
   0   0   4 12907.1 1220.17  22
   0   0   4 11415.1 1138.50  18
   0   0   4 11395.5 1582.20  53
   0   0  -5 3295.10 472.573  47
   0   0   5 2583.45 524.965  50
   0   0   5 2584.25 417.075  22
   0   0   5 2721.21 347.999  18
   0   0   5 2372.04 710.000  53
   0   0   6 30848.3 3179.88  50
   0   0  -6 36084.4 3119.01  47
   0   0   6 33300.4 3058.79  22
   0   0   6 32612.1 3646.37  53
   0   0   6 30073.7 3058.71  13
   0   0   7 43562.1 4270.18  50
   0   0  -7 46131.4 4153.75  47
   0   0   7 45569.8 4867.36  53
   0   0   7 42227.6 4114.38  13
   0   0  -8 1989.53 462.717  47
   0   0   8 1513.54 503.216  50
   0   0   8 1729.43 831.425  53
   0   0   8 1767.36 431.502  13
   0   0  -9 29308.2 2849.15  47
   0   0   9 23797.8 2887.13  50
   0   0   9 30198.5 3760.45  53
   0   0   9 26982.5 2775.43  13
   0   0 -10 22357.7 2346.82  47
   0   0  10 16713.9 2352.18  50
   0   0  10 22507.7 2329.01  13
   0   0  10 21845.0 3303.97  53
   0   0 -11 5337.41 858.042  47
   0   0  11 5499.41 899.401  21
   0   0  11 4023.80 798.843  13
   0   0  11 4025.34 1385.21  53
   0   0  12 1069.16 1036.16  53
   0   0  12 548.121 362.219  21
   0   0 -12 215.663 291.328  47
   0   0  12 320.835 333.313  13
   0   0  12 177.666 391.216  33
   0   0 -13 9226.57 1723.35  59
   0   0  13 10931.6 2612.05  53
   0   0 -13 9223.29 1478.81  47
   0   0  13 10447.1 1556.34  21
   0   0  13 11574.4 1591.31  13
   0   0  13 8792.77 1754.86  28
   0   0  13 7980.39 1785.55  33
   0   0 -14 3867.31 1122.96  59
   0   0  14 3929.41 953.116  21
   0   0 -14 4601.09 986.296  47
   0   0  14 5075.24 1059.81  13
   0   0  14 4827.21 1071.94  25
   0   0  14 3232.01 1102.86  28
   0   0  14 4191.22 1241.90  33
   0   0 -15 5151.21 1317.66  59
   0   0 -15 5652.61 1868.79  54
   0   0  15 7007.54 1260.27  21
   0   0 -15 6124.25 1163.57  47
   0   0  15 5569.72 1142.25  13
   0   0  15 3146.50 945.859  25
   0   0  15 3041.85 1083.23  28
   0   0  15 2624.86 1176.78  33
   0   0 -16 14908.3 2414.19  59
   0   0 -16 17123.4 3429.82  54
   0   0  16 21675.6 2409.90  21
   0   0 -16 13449.7 2052.27  47
   0   0  16 13806.7 2054.63  13
   0   0  16 10621.9 2268.80  28
   0   0  16 9271.42 2238.44  33
   0   0  16 15333.4 2203.81  25
   0   0 -17 423.151 519.740  59
   0   0 -17-410.595 781.269  54
   0   0  17 307.640 413.937  21
   0   0  17-151.044 287.435  25
   0   0 -17 314.883 345.945  47
   0   0  17 151.962 289.181  13
   0   0  17 225.088 494.561  28
   0   0  17 253.190 621.959  33
   0   0 -18 4943.37 1790.71  54
   0   0 -18 6191.04 1421.64  59
   0   0  18 4035.36 1307.64  28
   0   0  18 7691.60 1389.23  21
   0   0 -19-329.258 511.698  54
   0   0 -19 353.562 434.449  59
   0   0  19 375.275 461.105  28
   0   0  19 134.914 392.345  21
   0   0 -20 1147.79 551.833  59
   0   0 -20 264.729 510.040  54
   0   0  20 1624.44 603.210  21
   0   0 -21-100.102 220.046  59
   0   0  21 185.939 288.957  21
   0   0 -21-195.437 371.933  54
   0   0  22 2163.88 496.328  21
   0   0 -22 769.246 461.453  54
   0   0  23 3594.98 657.910  35
   0   1   0 18.0927 54.4813  18
   0   1   0-18.6669 98.3728  19
   0   1   0 65.6480 59.8418  51
   0   1   1 646.290 95.6949  13
   0   1  -1 380.341 172.967  48
   0   1   1 455.717 122.963  51
   0   1  -1 757.466 105.078  47
   0   1   1 585.188 166.802  48
   0   1  -2 5304.41 570.911  47
   0   1  -2 5204.06 650.368  48
   0   1   2 5653.08 557.494  22
   0   1   2 5417.15 581.865  18
   0   1   2 6299.81 605.367  51
   0   1   3 4410.21 688.025  50
   0   1  -3 4215.36 463.528  47
   0   1  -3 2792.27 492.465  48
   0   1   3 3763.00 431.383  22
   0   1   3 3548.29 441.608  18
   0   1   4 1759.36 483.464  50
   0   1  -4 2137.15 378.253  48
   0   1  -4 2122.80 335.551  47
   0   1   4 1754.26 291.509  22
   0   1   4 1480.26 282.158  18
   0   1   5 674.678 389.278  50
   0   1  -5 467.780 221.843  47
   0   1   5 711.872 217.772  22
   0   1   5 528.864 192.180  18
   0   1   5 525.919 216.031  13
   0   1   6 3391.08 521.868  13
   0   1  -6 3133.98 521.959  47
   0   1   6 2922.99 709.266  50
   0   1   7 4315.81 651.522  13
   0   1   7 3530.78 825.840  50
   0   1  -7 4843.98 707.096  47
   0   1   8 30093.4 2953.40  13
   0   1   8 28650.7 3239.79  50
   0   1  -8 30022.1 2978.26  47
   0   1   9 2025.47 517.967  13
   0   1   9 2737.26 765.744  50
   0   1  -9 2883.99 573.020  47
   0   1  10 1055.70 380.564  13
   0   1 -10 426.448 283.875  47
   0   1  10 137.434 371.943  50
   0   1 -11 512.074 629.774  54
   0   1  11 867.077 382.977  21
   0   1 -11 97.4323 216.518  47
   0   1  11 843.452 386.579  13
   0   1  11 340.823 231.567  57
   0   1  12 713.983 374.771   5
   0   1 -12 1330.69 609.123  59
   0   1 -12 290.283 555.711  54
   0   1  12 1311.19 468.895  21
   0   1 -12 449.459 354.455  47
   0   1  12 534.521 337.756  13
   0   1  12 523.055 473.132  33
   0   1  12 1342.49 641.524  28
   0   1  13 3357.87 904.580   5
   0   1 -13 5673.31 1292.15  59
   0   1 -13 5835.05 1758.11  54
   0   1  13 4888.50 1001.64  21
   0   1 -13 5266.51 1041.61  47
   0   1  13 5290.24 1022.94  13
   0   1  13 6180.44 1381.91  28
   0   1  13 4699.82 1250.00  33
   0   1  14 7152.82 1423.57   5
   0   1 -14 10108.2 1820.18  59
   0   1 -14 8857.19 2236.90  54
   0   1  14 11416.4 1636.76  21
   0   1 -14 8806.28 1517.12  47
   0   1  14 8440.10 1791.86  33
   0   1  14 8210.27 1746.80  28
   0   1  14 10754.3 1574.49  13
   0   1  15 10323.8 1567.74  13
   0   1  15 7416.16 1431.64   5
   0   1 -15 7762.20 1677.98  59
   0   1 -15 9023.69 2329.39  54
   0   1  15 10521.5 1591.96  21
   0   1 -15 7974.00 1443.55  47
   0   1 -15 8705.41 1677.08  38
   0   1  15 5482.27 1584.23  28
   0   1  15 6077.05 1688.81  33
   0   1  16 2218.38 706.677  13
   0   1  16 2428.15 768.464   5
   0   1 -16 1939.49 800.473  59
   0   1 -16 1152.02 1045.00  54
   0   1  16 2848.91 821.860  21
   0   1 -16 1096.64 539.302  47
   0   1 -16 1534.10 715.841  38
   0   1  16 2037.62 910.184  28
   0   1  17 4615.96 1031.93  13
   0   1  17 1909.46 672.463   5
   0   1 -17 1704.05 839.749  59
   0   1 -17 2617.50 1251.71  54
   0   1  17 2553.07 804.319  21
   0   1 -17 2520.81 804.506  47
   0   1 -17 2789.34 939.540  38
   0   1  17 3355.38 1120.64  28
   0   1 -18 803.405 543.623  59
   0   1 -18 344.112 657.363  54
   0   1  18 1220.07 504.894   5
   0   1  18 1577.28 612.870  21
   0   1 -18 510.234 531.687  38
   0   1  18 300.302 335.041  11
   0   1  19 1167.29 591.738  21
   0   1 -19 296.909 466.703  54
   0   1 -19 859.502 549.740  38
   0   1 -19 1430.83 655.503  59
   0   1  20 1655.99 593.315  21
   0   1 -20 1668.21 876.164  54
   0   1 -20 1039.43 528.981  59
   0   1  21 348.557 304.105  21
   0   1 -21 837.580 369.759  42
   0   1 -21 111.635 246.987  59
   0   1 -21 351.079 432.177  54
   0   1 -22-135.384 196.877  59
   0   1 -22 113.820 216.689  54
   0   1 -22 193.845 200.898  42
   0   1  22-107.952 313.843  35
   0   2   0 34025.4 3107.31  19
   0   2   0 32662.4 2954.15  51
   0   2   1 3364.89 562.454  48
   0   2  -1 3766.78 435.183  51
   0   2  -1 3499.48 554.506  19
   0   2   1 3575.66 531.074  19
   0   2   1 3547.92 438.822  51
   0   2  -2 51553.8 4428.34  47
   0   2  -2 38814.1 4631.84  48
   0   2  -2 47445.5 4663.73  19
   0   2   2 55174.9 4425.52  13
   0   2   2 48531.0 4505.91  51
   0   2   3 16311.5 1486.55  13
   0   2   3 15797.2 1565.07  51
   0   2  -3 16536.4 1501.66  47
   0   2  -3 12550.8 1657.48  48
   0   2   4 27582.4 2544.44  13
   0   2  -4 24390.0 2728.03  48
   0   2  -4 29200.6 2574.17  47
   0   2   5 39021.2 3595.50  13
   0   2  -5 39372.4 3622.41  47
   0   2   6 14349.5 1520.61  13
   0   2  -6 14452.2 1546.28  47
   0   2   7 30552.2 2886.77  13
   0   2  -7 28325.6 2892.40  47
   0   2   8 857.048 330.757  13
   0   2  -8 857.028 324.088  47
   0   2   9 15480.3 1814.80  13
   0   2  -9 16454.3 1861.74  47
   0   2 -10 7912.68 1688.77  54
   0   2 -10 6692.11 1069.78  47
   0   2  10 6963.03 1086.00  57
   0   2  10 6611.49 1043.46  13
   0   2 -11 22211.2 2774.07  59
   0   2  11 22947.9 2432.79  57
   0   2 -11 13084.6 2377.97  56
   0   2 -11 17427.8 2945.46  54
   0   2  11 23538.6 2446.78  21
   0   2 -11 20514.7 2387.83  47
   0   2  11 22304.1 2379.97  13
   0   2  11 18363.4 2440.50   5
   0   2  12 8283.11 1284.16  13
   0   2  12 8063.51 1385.50   5
   0   2 -12 7021.92 1441.67  56
   0   2 -12 9351.49 1673.63  59
   0   2  12 7272.54 1232.22  57
   0   2 -12 7069.77 1770.90  54
   0   2  12 8102.23 1295.49  21
   0   2 -12 9400.11 1380.50  47
   0   2  12 7467.82 1340.64  37
   0   2  12 7291.76 1526.32  28
   0   2  13 5883.82 1084.09  13
   0   2  13 5489.44 1165.88   5
   0   2 -13 3258.20 997.448   2
   0   2  13 5663.23 1070.15  57
   0   2 -13 3909.12 1143.37  59
   0   2 -13 6837.53 1755.13  54
   0   2  13 6156.67 1107.01  21
   0   2 -13 5403.57 1086.10  47
   0   2  13 6017.32 1104.52  37
   0   2  13 5260.76 1308.70  28
   0   2  14 8538.43 1536.24   5
   0   2 -14 5662.74 1334.32   2
   0   2 -14 9180.01 1828.95  59
   0   2 -14 9561.28 2245.86  54
   0   2  14 12446.0 1660.18  21
   0   2 -14 8391.34 1453.78  47
   0   2  14 6815.77 1336.29  37
   0   2  14 9707.99 1487.11  13
   0   2  15 470.304 428.459   5
   0   2 -15 869.862 636.493  59
   0   2 -15 997.106 819.876  54
   0   2  15 849.575 446.307  21
   0   2 -15 904.967 474.609  47
   0   2 -15 2078.47 857.617  38
   0   2  15 976.895 466.002  13
   0   2  16 7160.90 1393.61   5
   0   2 -16 6365.83 1539.13  59
   0   2 -16 5681.72 1889.16  54
   0   2  16 6665.83 1314.32  21
   0   2 -16 5572.93 1255.87  47
   0   2 -16 7457.60 1632.21  38
   0   2  16 8326.55 1405.42  13
   0   2 -17 1065.18 619.239  59
   0   2 -17 1926.71 997.800  54
   0   2  17 1329.42 585.133   5
   0   2  17 1420.07 604.249  21
   0   2 -17 197.838 720.865  38
   0   2  17-358.298 393.695  11
   0   2 -18 4144.20 1100.63  59
   0   2 -18 1461.27 927.925  54
   0   2  18 3575.76 905.312   5
   0   2  18 6087.10 1075.38  21
   0   2 -18 2149.66 856.459  38
   0   2  18 802.857 534.188  11
   0   2 -19 346.117 465.929  59
   0   2 -19 499.806 672.632  54
   0   2  19 989.549 468.047   5
   0   2  19 814.636 404.569  21
   0   2 -19 454.766 372.678  38
   0   2 -19 888.691 462.810  42
   0   2  19-134.011 255.442  11
   0   2 -20 3412.94 935.679  59
   0   2  20 4763.59 867.051  21
   0   2 -20 3252.95 825.184  38
   0   2 -20 4016.36 857.026  42
   0   2 -20 2384.48 925.715  54
   0   2  20 3543.64 1039.03  35
   0   2 -21 2013.46 728.824  54
   0   2  21 1761.89 673.150  35
   0   2 -21 2458.60 657.162  59
   0   2 -22 263.790 240.487  54
   0   2 -22 671.766 298.304  59
   0   2  22 904.054 411.737  35
   0   3   0 189.152 229.763  19
   0   3   0 27.7023 101.021  51
   0   3  -1 32497.5 3281.68  19
   0   3   1 33350.6 3054.28  51
   0   3  -1 33256.1 3037.93  51
   0   3  -2 10070.3 1324.15  19
   0   3   2 10116.2 1105.98  51
   0   3  -2 10379.1 1084.49  51
   0   3  -3 22236.5 2130.86  47
   0   3  -3 22923.2 2536.80  19
   0   3   3 24746.6 2128.50  13
   0   3   3 24498.6 2308.64  51
   0   3  -4 5581.45 667.624  47
   0   3  -4 5583.69 950.670  19
   0   3   4 4746.49 733.881  51
   0   3   4 6645.36 679.980  13
   0   3  -5 5299.56 690.223  47
   0   3   5 5573.57 683.274  13
   0   3  -5 5598.50 981.617  19
   0   3  -6 4367.98 669.208  47
   0   3  -6 4114.55 932.005  19
   0   3   6 5269.99 679.343  13
   0   3  -7 5620.27 844.940  47
   0   3   7 6948.20 871.996  13
   0   3  -8 11632.3 1445.28  47
   0   3   8 14299.3 1483.26  13
   0   3  -9 6883.90 1564.88  54
   0   3   9 7692.79 1160.54  20
   0   3  -9 9332.91 1209.12  47
   0   3  -9 4898.55 1220.70  56
   0   3   9 10236.6 1319.93  57
   0   3   9 9778.63 1193.82  13
   0   3 -10 10568.7 1716.20   3
   0   3  10 6555.89 1252.51   5
   0   3 -10 3567.60 1102.76  56
   0   3  10 7608.55 1214.65  57
   0   3 -10 5184.79 1437.16  54
   0   3  10 8643.14 1206.35  20
   0   3  10 11187.3 1326.49  21
   0   3 -10 8287.33 1201.25  47
   0   3  10 8614.47 1343.82  37
   0   3  10 9635.69 1221.13  13
   0   3  11 3150.46 685.878  13
   0   3  11 2093.88 673.607   5
   0   3 -11 1250.89 644.856   3
   0   3 -11 1325.22 654.103  56
   0   3 -11 2019.74 774.641  59
   0   3  11 1426.09 512.667  57
   0   3 -11 2596.16 1019.22  54
   0   3  11 3360.29 724.949  21
   0   3 -11 2995.22 674.753  47
   0   3  11 1886.03 595.654  37
   0   3 -11 1571.67 670.286  34
   0   3  12 5099.52 1114.87   5
   0   3 -12 2267.31 899.005  56
   0   3  12 5867.92 1063.75  57
   0   3 -12 5972.96 1363.26  59
   0   3 -12 3833.61 1266.11  54
   0   3  12 6378.80 1078.03  21
   0   3 -12 6105.43 1054.99  47
   0   3  12 5104.99 1099.01  37
   0   3  12 5988.99 1039.88  13
   0   3  13 3967.59 1036.62   5
   0   3 -13 2513.88 970.012  56
   0   3  13 5812.97 1068.22  57
   0   3 -13 4248.66 1212.34  59
   0   3 -13 3275.37 1229.36  54
   0   3  13 6483.57 1114.15  21
   0   3 -13 5126.59 1036.62  47
   0   3  13 5933.57 1158.85  37
   0   3 -13 4775.13 1224.89  19
   0   3  13 5399.09 1013.51  13
   0   3 -14 7426.63 1844.21  54
   0   3  14 9188.19 1393.07  21
   0   3 -14 6698.58 1260.62  47
   0   3 -14 6009.08 1452.74  19
   0   3  14 7659.27 1289.01  13
   0   3 -14 4537.74 1219.95   2
   0   3  14 7890.81 1463.72   5
   0   3  15 2060.05 649.389  13
   0   3  15 808.749 563.555  11
   0   3 -15 840.702 628.295  19
   0   3 -15 1162.81 915.132  54
   0   3  15 2887.94 777.087  21
   0   3 -15 3111.17 805.662  47
   0   3 -15 3391.82 1064.09  38
   0   3  15 2648.36 826.355   5
   0   3 -15 1020.83 609.039   2
   0   3 -16 285.309 701.415  54
   0   3  16 803.148 467.730   5
   0   3 -16 950.173 522.677   2
   0   3  16 518.559 377.865  21
   0   3 -16-219.242 341.792  38
   0   3  16 196.349 374.679  11
   0   3  17 1998.43 778.643  11
   0   3 -17 3539.60 1113.31  59
   0   3 -17 2142.47 1061.66  54
   0   3  17 3877.25 986.965   5
   0   3 -17 2763.13 815.068   2
   0   3  17 6578.38 1094.93  21
   0   3 -17 4468.35 992.346  42
   0   3 -17 5289.79 1317.93  38
   0   3  17 3285.36 1103.75  35
   0   3  18 317.447 398.266  11
   0   3 -18 1669.15 911.046  54
   0   3 -18 934.924 621.567  59
   0   3  18 1572.18 616.009   5
   0   3 -18 1254.31 686.716  38
   0   3  18 1497.86 747.772  35
   0   3  19 646.757 417.397  11
   0   3 -19 2702.19 862.824  59
   0   3 -19 1924.43 717.741  38
   0   3  19 1657.59 738.142  35
   0   3 -19 1595.75 827.595  54
   0   3  20 95.7916 212.928  11
   0   3 -20 1010.91 481.960  59
   0   3 -20 670.069 460.175  38
   0   3  20 1033.77 585.838  35
   0   3 -20 462.752 480.369  54
   0   3 -21 817.280 381.665  59
   0   3  21 1281.04 517.353  35
   0   3 -21 841.249 424.058  54
   0   3  22 302.378 200.979  35
   0   4   0 9309.08 1062.31  51
   0   4   0 9339.73 1336.11  19
   0   4  -1 2246.92 598.460  19
   0   4  -1 2105.01 408.679  51
   0   4   1 2302.38 427.377  51
   0   4  -2 17096.5 2042.91  19
   0   4  -2 16541.8 1660.77  51
   0   4   2 15207.0 1675.06  51
   0   4  -3 109.614 241.018  19
   0   4   3 152.232 157.954  51
   0   4  -3 87.6690 118.333  51
   0   4  -4 14550.6 1912.50  19
   0   4   4 12883.0 1537.87  51
   0   4  -4 14829.2 1534.33  51
   0   4  -5 11185.2 1236.93  51
   0   4  -5 7333.29 1528.46  54
   0   4   5 10506.7 1365.07  20
   0   4  -5 9926.54 1548.87  19
   0   4  -6 3402.51 949.692  54
   0   4  -6 3914.95 955.156  19
   0   4   6 4660.77 804.339  57
   0   4  -6 2386.48 797.199  56
   0   4   6 3975.41 765.038  20
   0   4  -7 728.572 495.983  54
   0   4   7 909.172 394.217  20
   0   4  -7 870.536 484.165  19
   0   4   7 1314.54 455.994  57
   0   4  -7 624.102 426.669  56
   0   4   8 1220.24 459.189  57
   0   4  -8 491.586 416.192  56
   0   4  -8 976.067 615.721  54
   0   4   8 1503.09 577.128   5
   0   4  -8 1472.39 678.874   3
   0   4   8 1813.66 503.105  20
   0   4   8 1902.73 718.829  35
   0   4  -8 1580.86 658.356  34
   0   4   8 1019.70 516.994  11
   0   4  -8 1403.09 649.481  19
   0   4   9 1743.54 686.118  11
   0   4   9 4708.99 894.571  57
   0   4  -9 1549.88 711.391  56
   0   4  -9 5182.67 1187.11  59
   0   4  -9 2089.43 872.653  54
   0   4   9 4062.18 910.445   5
   0   4  -9 4511.39 1153.36   3
   0   4   9 4398.79 846.088  20
   0   4   9 4472.12 940.438  37
   0   4  -9 3608.80 976.409  34
   0   4  10 686.507 477.276  11
   0   4 -10 901.723 537.829  56
   0   4 -10 1886.73 784.819  59
   0   4 -10 2007.26 891.562  54
   0   4 -10 1658.09 764.696   3
   0   4  10 2603.32 648.213  20
   0   4  10 2732.93 760.167  37
   0   4 -10 844.537 538.467  34
   0   4  11 1842.42 792.307  11
   0   4 -11 2620.47 947.215  56
   0   4 -11 5290.49 1336.07  59
   0   4 -11 5441.09 1423.82  54
   0   4 -11 5191.97 1352.96   3
   0   4  11 6459.44 1062.66  20
   0   4  11 6657.48 1225.23  37
   0   4 -11 7390.91 1410.72  34
   0   4  12 5551.79 1054.13  57
   0   4 -12 7124.77 1516.32  59
   0   4 -12 3249.67 1015.57  56
   0   4  12 5525.40 1161.18   5
   0   4 -12 2596.36 935.691  19
   0   4  12 2536.48 891.326  11
   0   4 -12 2979.64 1138.33  54
   0   4 -13 190.282 423.578  56
   0   4  13 2114.74 652.901  57
   0   4 -13 2243.28 956.866  59
   0   4 -13 825.748 511.650  19
   0   4  13 202.604 322.046  11
   0   4 -13 2383.34 902.170   2
   0   4  13 1842.90 716.056   5
   0   4 -13 1282.52 848.085  54
   0   4 -14 1548.98 764.023   2
   0   4  14 3538.99 982.953   5
   0   4 -14 2271.19 987.204  59
   0   4 -14 3369.21 1108.61  38
   0   4 -14 3128.27 1018.87  19
   0   4 -14 1295.68 922.607  54
   0   4 -15-222.538 423.649  59
   0   4 -15-233.866 445.193  38
   0   4  15 164.318 312.949   5
   0   4 -15-181.864 346.306   2
   0   4 -15-254.234 483.932  54
   0   4 -16 839.630 659.550  59
   0   4 -16 1748.34 765.505  38
   0   4 -16 977.247 627.528   2
   0   4  16 1388.17 618.754   5
   0   4 -16 962.275 599.024  54
   0   4  17 1196.89 660.019   7
   0   4 -17 685.107 429.748   2
   0   4 -17 947.906 661.181  59
   0   4 -17 1756.29 713.402  38
   0   4  17 335.121 372.765  11
   0   4 -17 217.689 588.690  54
   0   4 -18 1673.93 521.346   2
   0   4  18 1515.64 753.945   7
   0   4 -18 4558.23 1052.73  59
   0   4 -18 3468.96 936.494  38
   0   4  18 705.528 434.774  11
   0   4 -18 2987.26 950.915  54
   0   4  19-129.885 285.371   7
   0   4 -19 131.512 288.947  59
   0   4 -19 149.320 284.118  54
   0   4  19 110.311 242.366  11
   0   4 -19-130.686 321.022  38
   0   4 -20 640.255 374.725  54
   0   5   0-54.2211 238.324  51
   0   5   0-89.4028 240.638  20
   0   5   0-163.446 359.151   7
   0   5   0 195.640 303.995  54
   0   5   1 9345.52 1276.72  20
   0   5  -1 8739.08 1222.71  20
   0   5   1 7560.96 1026.55  51
   0   5   1 7591.92 1628.11  54
   0   5  -1 8700.83 1668.54  54
   0   5  -1 8005.66 1027.80  51
   0   5  -1 7267.20 1477.39   7
   0   5   2 115.977 156.040  51
   0   5  -2 52.9960 116.437  51
   0   5  -2 142.315 312.680  19
   0   5  -2 193.033 299.893  54
   0   5   2-205.494 391.002  54
   0   5   2 95.7956 278.428  20
   0   5  -2-83.9159 159.670  20
   0   5   3 24311.8 2396.51  51
   0   5  -3 23943.6 3186.59  54
   0   5  -3 21897.5 2322.85  51
   0   5  -3 23672.7 2886.96  19
   0   5  -3 19085.4 2425.42  20
   0   5   3 24423.7 2635.97  20
   0   5   3 25646.6 2564.89  57
   0   5  -3 22824.4 3005.90  34
   0   5   4 18190.8 2013.32  57
   0   5  -4 17232.0 2551.94  54
   0   5  -4 17643.3 1798.35  51
   0   5  -4 12523.8 2200.22   3
   0   5   4 13330.8 2275.91   7
   0   5   4 19336.8 2118.05  20
   0   5  -4 18520.1 2378.40  19
   0   5  -4 13669.0 1831.08  20
   0   5  -4 19352.9 2849.58  41
   0   5  -4 13919.6 2313.93  34
   0   5   5 6033.18 968.429  57
   0   5  -5 3451.04 1127.10  54
   0   5  -5 5724.86 778.117  51
   0   5  -5 4858.68 1161.32   3
   0   5   5 3401.68 1077.46   7
   0   5   5 5923.41 1042.59   5
   0   5  -5 4179.69 758.135  20
   0   5  -5 6884.46 1561.70  41
   0   5   5 1582.92 664.449  11
   0   5  -5 4521.93 1079.44  19
   0   5   6 17122.8 2352.02  15
   0   5   6 16253.4 2437.62   7
   0   5   6 22583.4 2338.67   5
   0   5  -6 12999.6 2333.98   3
   0   5   6 18430.3 2066.78  57
   0   5  -6 13804.2 2351.98  54
   0   5  -6 16917.7 1779.69  51
   0   5   6 18458.0 2082.87  20
   0   5  -6 17735.3 2370.94  19
   0   5  -6 15320.0 2586.82  41
   0   5   6 17607.7 2469.79  35
   0   5  -6 17882.3 2485.52  34
   0   5   7 827.287 546.263  15
   0   5  -7 1589.76 644.407  19
   0   5   7-152.556 292.101  11
   0   5   7 811.338 546.777   7
   0   5  -7 638.719 468.911   3
   0   5   7 933.856 487.161   5
   0   5   7 448.213 303.281  57
   0   5  -7 216.179 412.623  54
   0   5   7 904.980 413.447  20
   0   5  -7 765.724 307.620  51
   0   5  -7 700.727 726.490  41
   0   5   7 588.079 528.491  35
   0   5  -7 777.746 524.221  34
   0   5   8 2396.15 870.795  15
   0   5   8 3097.26 890.012  11
   0   5  -8 4796.72 1166.16  19
   0   5  -8 2926.69 1032.11   3
   0   5   8 2940.24 968.640   7
   0   5   8 4540.72 1016.99   5
   0   5  -8 4197.46 1084.08  59
   0   5   8 5240.46 970.844  57
   0   5  -8 1788.64 900.286  54
   0   5   8 3711.09 857.808  20
   0   5  -8 3125.38 653.771  51
   0   5  -8 2766.80 1024.17  41
   0   5  -8 3787.58 1112.46  34
   0   5   8 5480.24 1295.21  35
   0   5   9 2998.19 822.061   5
   0   5   9 1736.47 770.376   7
   0   5  -9 3289.59 996.119  59
   0   5   9 4266.94 875.310  57
   0   5  -9 461.852 531.335  54
   0   5   9 2128.32 629.350  20
   0   5  -9 2133.44 508.404  51
   0   5   9 692.787 492.037  11
   0   5  -9 2689.39 884.291  19
   0   5   9 1888.80 814.079  35
   0   5  -9 2833.88 982.038  34
   0   5  10 16946.0 2154.47   5
   0   5  10 13848.6 2339.16   7
   0   5 -10 12917.4 2318.96   3
   0   5  10 16863.9 1985.72  57
   0   5 -10 19584.5 2520.55  59
   0   5 -10 11300.1 1533.33  51
   0   5 -10 9257.65 2066.97  54
   0   5  10 13616.8 1820.62  20
   0   5 -10 14717.9 2244.69  19
   0   5  10 5474.12 1549.95  11
   0   5  10 14698.7 2351.79  35
   0   5 -10 10952.4 2121.74  34
   0   5  11 228.001 354.773   7
   0   5  11-162.143 252.682   5
   0   5 -11 618.346 453.290  59
   0   5  11 134.219 330.296  57
   0   5 -11 241.906 531.860  54
   0   5  11 834.623 454.168  20
   0   5 -11 431.113 268.642  51
   0   5 -11 199.658 439.116  34
   0   5  11 189.875 295.653  11
   0   5 -12 10812.3 1939.13  59
   0   5  12 8499.81 1806.42   7
   0   5 -12 8994.18 1784.61   2
   0   5 -12 7054.91 1680.93  54
   0   5 -12 12043.9 2144.41  38
   0   5  12 4077.70 1220.35  11
   0   5  13 6359.15 1510.75   7
   0   5 -13 6363.85 1495.82   2
   0   5 -13 4802.99 1402.92  54
   0   5 -13 6239.96 1631.29  38
   0   5  13 3492.63 1087.37  11
   0   5 -14 411.631 391.616  59
   0   5  14-218.815 480.759   7
   0   5 -14 198.317 377.348   2
   0   5 -14 462.740 508.344  54
   0   5 -14 231.814 509.319  38
   0   5  14-188.292 358.273  11
   0   5 -15 2115.10 821.528  59
   0   5  15 1223.20 712.180   7
   0   5 -15 1423.86 652.803   2
   0   5 -15 1081.08 716.512  54
   0   5 -15 1079.68 715.595  38
   0   5  15 176.304 394.560  11
   0   5  16 545.797 529.892   7
   0   5 -16 607.338 442.633   2
   0   5 -16 583.983 524.929  54
   0   5 -16 516.355 535.896  59
   0   5  16 158.196 302.951  11
   0   5 -17 1837.59 737.912  54
   0   5 -17 2487.60 791.100  59
   0   5 -17 121.031 359.735   2
   0   5  17 1684.92 677.274   7
   0   5 -18-134.021 255.412  54
   0   5 -18 131.189 250.033  38
   0   5  18 118.201 260.097   7
   0   5 -18 343.332 283.240   2
   0   5 -19 1993.15 622.136  54
   0   5 -19 4282.11 826.884  38
   0   5 -19 4046.75 762.964  59
   0   6   0 5038.45 999.630  20
   0   6   0 3793.08 1106.16  34
   0   6   0 5685.84 1580.57  54
   0   6  -1 3212.22 757.472  20
   0   6   1 3780.45 832.791  20
   0   6  -1 2813.39 1084.22  54
   0   6  -1 1895.97 849.152  34
   0   6   1 3934.23 1062.85  34
   0   6  -2 1522.06 843.443  54
   0   6  -2 1233.45 591.339   3
   0   6   2 972.735 475.980  20
   0   6  -2 1498.08 511.058  20
   0   6  -2 1551.68 908.861  41
   0   6   2 1764.46 645.068  34
   0   6  -2 990.963 625.844  34
   0   6   3 567.517 332.916  57
   0   6  -3 1009.03 680.902  54
   0   6  -3 571.997 422.317   3
   0   6  -3 1133.34 426.868  20
   0   6   3 1372.55 533.578  20
   0   6  -3 307.769 481.131  41
   0   6  -3 206.416 456.663  34
   0   6   4 135.193 299.609  16
   0   6  -4 1354.61 706.158  19
   0   6   4 1126.07 584.464  15
   0   6   4 613.662 357.459  57
   0   6  -4 1005.70 677.691  54
   0   6  -4 1226.43 674.788   3
   0   6   4 637.646 372.730  20
   0   6  -4 197.617 220.605  20
   0   6  -4 303.799 579.379  41
   0   6  -4 642.277 527.362  34
   0   6   5 1698.80 721.237  15
   0   6  -5 592.104 438.475  19
   0   6   5 1753.69 555.586  57
   0   6  -5 753.144 620.093  54
   0   6   5 907.698 614.072   7
   0   6  -5 217.485 418.885   3
   0   6   5 1168.24 498.220  20
   0   6  -5 1129.31 405.639  20
   0   6  -5 894.516 735.313  41
   0   6  -5 1104.42 730.848  34
   0   6   6 4307.22 894.480  57
   0   6  -6 3512.17 1209.95  54
   0   6  -6 3215.11 1085.75   3
   0   6   6 3430.23 1110.34   7
   0   6  -6 2034.16 1056.39  41
   0   6  -6 4724.23 1109.31  38
   0   6   6 3601.15 1066.45  15
   0   6  -6 4017.29 1146.35  19
   0   6   7 1520.03 696.271  15
   0   6   7 476.149 396.932  11
   0   6  -7 1222.76 675.750  19
   0   6   7 489.716 363.556  57
   0   6  -7 1252.56 781.937  54
   0   6   7 459.729 569.541   7
   0   6   7 1188.53 508.041  20
   0   6  -7 1122.74 819.204  41
   0   6  -7 1832.31 756.828  38
   0   6  -7 1377.90 801.253  34
   0   6   8 329.603 314.015  11
   0   6   8 569.496 511.086  15
   0   6  -8 411.684 452.560  19
   0   6   8 381.813 313.074  57
   0   6  -8-249.483 387.949  54
   0   6   8-230.144 438.220   7
   0   6   8 395.015 354.702  20
   0   6  -8 195.725 430.347  38
   0   6  -8 267.941 510.093  41
   0   6  -8 690.944 619.972  34
   0   6   9 169.402 263.206  11
   0   6  -9 619.728 507.452  19
   0   6   9-130.533 320.665  57
   0   6  -9-247.153 543.031  54
   0   6   9-229.032 435.803   7
   0   6   9 519.127 377.227  20
   0   6  -9-205.552 391.130  38
   0   6  -9 227.457 353.391  34
   0   6 -10 1849.03 782.826  19
   0   6  10 171.903 329.462  11
   0   6  10 1316.97 580.047  57
   0   6 -10 1456.74 755.421  54
   0   6  10-225.878 431.599   7
   0   6 -10 907.082 660.287   2
   0   6  10 1261.85 520.172  20
   0   6 -10 1270.83 699.151  38
   0   6 -10 1101.71 641.637  34
   0   6  11 1302.91 554.490  57
   0   6  11 659.791 591.945   7
   0   6 -11 1885.03 858.604  54
   0   6 -11 640.422 574.576  38
   0   6  11-171.576 326.717  11
   0   6  12 1385.53 520.377  57
   0   6 -12 1349.86 743.293  54
   0   6 -12 1048.28 653.540  38
   0   6  12 335.414 372.176  11
   0   6 -12 849.992 662.342   2
   0   6  12 210.433 331.098   7
   0   6 -13 210.332 462.185  54
   0   6 -13 599.378 490.838  38
   0   6  13 319.492 351.064  11
   0   6  13 393.524 432.376   7
   0   6 -13-196.674 374.300   2
   0   6 -14 367.661 403.919  38
   0   6 -14-191.463 364.332  54
   0   6  14 535.588 518.912   7
   0   6 -14 525.994 509.618   2
   0   6 -15 162.329 357.299  38
   0   6 -15 336.738 370.545  54
   0   6  15 466.715 513.158   7
   0   6 -15 149.283 367.331   2
   0   6 -16 136.163 366.718  38
   0   6 -16 564.113 410.182  54
   0   6 -16 119.619 294.235   2
   0   6  16 127.732 199.031   7
   0   6 -17-108.666 238.798  54
   0   6 -17 173.287 212.887   2
   0   6 -17 318.341 329.747  38
   0   6  17 87.0884 191.401  16
   0   7   0-193.121 424.489  34
   0   7   0-125.748 276.563  20
   0   7   1 10648.7 1613.06  20
   0   7  -1 10271.9 1539.03  20
   0   7   1 10772.5 2532.40  41
   0   7  -1 12256.0 2635.28  41
   0   7   1 7934.23 1699.37  34
   0   7  -1 9787.46 1907.82  34
   0   7  -2 2983.01 1042.18  34
   0   7   2 2305.56 816.697  34
   0   7  -2 3206.77 1216.97  54
   0   7   2 2930.80 775.880  20
   0   7  -2 3571.48 798.630  20
   0   7   2 343.291 686.881  41
   0   7  -2 2785.03 1227.89  41
   0   7   2 4456.35 1184.81  15
   0   7  -3 1103.49 869.517  34
   0   7  -3 4012.22 1354.55  54
   0   7  -3 2004.00 810.254   2
   0   7   3 2848.56 778.343  20
   0   7  -3 3479.70 760.711  20
   0   7  -3 2059.97 1213.76  41
   0   7   3 3571.03 1081.18  15
   0   7  -4 1586.22 886.644  34
   0   7  -4 3648.02 1211.61  54
   0   7  -4 2505.17 836.318   2
   0   7   4 2739.84 750.614  20
   0   7  -4 3339.96 715.739  20
   0   7  -4 2012.11 1124.27  41
   0   7   4 1241.39 747.741  15
   0   7   5 3242.46 1056.40  15
   0   7   5 3408.16 748.478  57
   0   7  -5 1915.16 989.203  54
   0   7  -5 2450.92 965.964   2
   0   7   5 5483.41 1068.21  20
   0   7  -5 2914.34 1404.74  41
   0   7  -5 2995.30 1269.95  34
   0   7   6 4344.26 1151.87  15
   0   7   6 1214.85 565.800  16
   0   7   6 4007.91 812.639  57
   0   7  -6 3450.65 1259.66  54
   0   7  -6 4893.21 1201.35   2
   0   7   6 1640.42 886.171   7
   0   7   6 3395.91 864.036  20
   0   7  -6 3700.88 1456.84  41
   0   7  -6 4400.15 1343.06  34
   0   7   7 3380.22 730.611  57
   0   7  -7 2047.39 1029.15  54
   0   7   7 4095.32 1211.77   7
   0   7  -7 3003.02 1023.40   2
   0   7  -7 2600.00 1200.67  41
   0   7   7 2552.55 1137.35  41
   0   7   7 823.621 462.080  16
   0   7   7 3441.20 1022.78  15
   0   7   8 3166.00 996.864  16
   0   7   8 13946.2 1554.54  57
   0   7  -8 5876.08 1618.31  54
   0   7  -8 8259.61 1709.71   2
   0   7   8 6790.23 1587.03   7
   0   7   8 11416.1 1530.39  20
   0   7   8 8744.91 1992.21  41
   0   7  -8 10513.3 1984.68  34
   0   7   9 991.273 420.116  57
   0   7  -9 231.906 361.419  54
   0   7  -9-198.938 310.387   2
   0   7   9 834.605 562.184   7
   0   7   9 487.335 379.636  20
   0   7  -9-213.604 470.180  34
   0   7   9 815.523 448.858  16
   0   7 -10 1537.45 715.785   2
   0   7  10 2352.91 847.354   7
   0   7  10 1318.41 542.916  16
   0   7 -10 2819.44 1021.68  54
   0   7  11 1267.39 635.426   7
   0   7 -11 542.771 495.152   2
   0   7  11 1126.85 484.954  16
   0   7 -11 1995.63 853.863  54
   0   7  12 816.842 601.874   7
   0   7 -12 990.948 580.636   2
   0   7  12 926.980 449.882  16
   0   7 -12 1798.11 744.457  54
   0   7  13 713.838 444.898   7
   0   7  13 207.551 257.165  16
   0   7 -13 629.847 425.067  54
   0   7  14 1900.72 607.998   7
   0   7 -14 3412.35 810.170   2
   0   7  14 1688.17 498.169  16
   0   7 -14 1717.31 701.682  54
   0   7 -15 1236.91 462.111   2
   0   7 -15 1740.42 567.615  54
   0   7  15 566.349 290.850  16
   0   8   0 3715.41 1160.36  15
   0   8   0 4928.54 936.198  20
   0   8  -1 833.701 616.276  34
   0   8  -1 1249.60 1034.76  41
   0   8   1 1230.80 1019.35  41
   0   8  -1 778.041 574.748  15
   0   8   1 1167.57 747.733  15
   0   8  -1 1285.65 484.752  20
   0   8   1 1859.90 573.163  20
   0   8  -2 1230.63 702.008  34
   0   8   2 901.176 743.245  41
   0   8  -2 309.355 685.490  41
   0   8   2 1533.58 704.099  15
   0   8   2 1125.16 454.472  20
   0   8  -3 1091.27 694.755  34
   0   8   3 869.421 844.475  41
   0   8  -3 302.286 578.324  41
   0   8   3 1121.36 583.829  15
   0   8   3 570.997 359.924  20
   0   8  -4 1110.39 717.039  34
   0   8  -4 581.779 856.137  41
   0   8   4 1102.79 867.172  41
   0   8   4 2346.24 851.898  15
   0   8   4 2284.54 629.340  20
   0   8  -5 1852.75 837.526  34
   0   8  -5 2749.57 1224.10  41
   0   8   5 1030.20 824.039  41
   0   8   5 2415.68 827.880  15
   0   8   5 3490.27 767.701  20
   0   8   6 1310.86 512.545  20
   0   8  -6 661.170 595.976  54
   0   8   6 234.523 450.126  41
   0   8  -7 1231.35 722.735  54
   0   8   7 1458.43 499.812  20
   0   8  -8 204.613 251.331   9
   0   8  -8-188.417 413.984  54
   0   8  -9 395.683 248.558   9
   0   8  -9 625.083 456.940   2
   0   8  -9 339.998 419.166  54
   0   8 -10 230.974 311.854   2
   0   8 -10 449.625 436.389  54
   0   8 -11 512.977 339.910   2
   0   8 -11 383.063 372.756  54
   0   8  11 377.121 207.961  16
   0   8 -12 258.880 233.430   2
   0   8 -12 307.221 276.599  54
   0   9   0 125.488 390.058  15
   0   9   1 1367.26 856.790  41
   0   9   1 3111.64 824.085  15
   0   9  -1 2742.04 825.154  15
   0   9   2 187.167 508.393  41
   0   9  -2 1772.35 812.413  41
   0   9  -2 487.354 407.476  15
   0   9   2 1823.49 586.228  15
   0   9   3 1050.28 671.871  41
   0   9  -3 586.124 435.991  15
   0   9   3 1870.23 608.624  15
   0   9   4 1267.91 628.370  41
   0   9  -4 110.928 299.788  15
   0   9  -5 103.101 358.879  15
   0   9  -5 343.401 250.549   9
   0   9  -6 1126.47 474.126  15
   0   9  -6 292.574 230.489   9
   0   9  -7 83.2985 224.318  15
   0   9  -7 112.652 163.946   9
   0   9  -8 1639.06 483.922  15
  -1  -9   8 136.241 167.809  30
  -1  -9   8 163.749 201.514  44
  -1  -9   7 177.405 238.689  27
  -1  -9   7-69.7503 202.730  33
  -1  -9   7 99.6738 218.995  44
  -1  -9   6 418.891 308.866  33
  -1  -9   6 808.691 423.555  44
  -1  -9   5-94.7245 275.325  33
  -1  -9   5 112.331 246.814  27
  -1  -9   5 129.437 317.962  44
  -1  -9   4 308.949 343.227  33
  -1  -9   4 1441.60 577.521  27
  -1  -9   3 869.623 470.968  33
  -1  -9   3 1253.46 522.842  27
  -1  -9   2 1406.56 569.934  27
  -1  -9   2 895.721 501.172  33
  -1  -9   1-112.841 328.038  33
  -1  -9   1 382.413 396.129  27
  -1  -9   1-129.707 285.057  46
  -1  -9   0 247.561 334.329  27
  -1  -9   0 556.962 442.155  33
  -1  -9   0 294.976 363.443  46
  -1  -9  -1 430.551 393.677  33
  -1  -9  -1 347.706 313.765  27
  -1  -9  -1 480.815 467.092  46
  -1  -9  -2 102.230 251.304  27
  -1  -9  -2 101.477 249.455  33
  -1  -9  -2 168.374 413.710  46
  -1  -9  -3 2409.63 870.366  46
  -1  -9  -4 171.817 327.254  46
  -1  -9  -5 838.540 557.345  46
  -1  -9  -6 479.398 394.674  46
  -1  -9  -7 147.637 362.878  46
  -1  -9  -8 129.727 247.086  46
  -1  -8  13 208.110 162.636  30
  -1  -8  12 96.4715 280.815  33
  -1  -8  12 153.187 206.678  30
  -1  -8  12 331.036 301.923  55
  -1  -8  12 306.899 297.730  44
  -1  -8  11 366.853 388.175  33
  -1  -8  11 883.772 396.977  30
  -1  -8  11 1021.83 492.520  44
  -1  -8  10 267.741 260.413  25
  -1  -8  10 456.751 410.333  44
  -1  -8  10 914.201 453.213  55
  -1  -8  10 222.364 346.226  27
  -1  -8  10 118.919 227.439  30
  -1  -8  10 145.491 358.128  33
  -1  -8   9 352.024 434.822  44
  -1  -8   9 1006.66 500.542  55
  -1  -8   9 1069.36 531.460  27
  -1  -8   9 166.409 368.524  33
  -1  -8   8 397.446 499.041  44
  -1  -8   8 2421.08 731.262  55
  -1  -8   8 1523.07 697.614  27
  -1  -8   8 1479.13 819.036  33
  -1  -8   7 420.414 407.322  55
  -1  -8   7-167.451 318.633  27
  -1  -8   7 200.645 492.880  33
  -1  -8   6 285.038 414.775  55
  -1  -8   6 213.375 524.572  33
  -1  -8   5 790.153 585.155  46
  -1  -8   5 891.464 701.639  33
  -1  -8   4-230.856 358.677  46
  -1  -8   4 687.101 711.656  33
  -1  -8   3 259.868 638.735  46
  -1  -8   2 1986.98 959.017  46
  -1  -8   2 2966.81 970.349  27
  -1  -8   1 2115.71 1113.00  46
  -1  -8   1 1763.65 821.504  27
  -1  -8   0 1574.45 915.806  46
  -1  -8   0 191.645 366.111  27
  -1  -8  -1 322.099 500.433  46
  -1  -8  -1-184.708 287.004  27
  -1  -8  -2 1224.07 645.677  27
  -1  -8  -3-161.614 307.820  27
   1  -8   4 1073.21 541.060  44
  -1  -8  -4 1152.33 533.390  27
   1  -8   5 1879.37 674.269  44
   1  -8   6 535.079 391.487  44
   1  -8   7 362.943 327.893  44
   1  -8   7 595.890 394.717  55
   1  -8   8 106.139 260.726  44
  -1  -8  -8-99.7780 268.494  32
   1  -8   8 113.098 304.336  55
  -1  -8  -9 384.420 258.881  32
   1  -8   9-104.444 256.834  55
  -1  -8 -10 178.075 294.134  32
   1  -8  10 280.006 251.969  55
  -1  -8 -11 1057.02 615.767  56
   1  -8  11 638.475 311.235  55
  -1  -8 -11 931.061 377.703  32
  -1  -7  16 74.3341 200.125  33
  -1  -7  15 224.618 220.068  30
  -1  -7  15 220.923 365.513  33
  -1  -7  14 113.986 308.162  25
  -1  -7  14 596.540 415.533  55
  -1  -7  14 133.000 328.057  44
  -1  -7  14 426.686 442.928  33
  -1  -7  14 693.344 362.108  30
  -1  -7  13 4088.64 937.788  25
  -1  -7  13 3564.79 953.346  55
  -1  -7  13 1445.31 674.282  44
  -1  -7  13 2545.05 702.278  30
  -1  -7  13 2748.12 1005.64  33
  -1  -7  12 156.122 298.292  25
  -1  -7  12 974.364 535.877  55
  -1  -7  12 187.465 461.290  44
  -1  -7  12 427.423 384.337  30
  -1  -7  12 199.217 438.536  33
  -1  -7  11 1213.08 665.878  25
  -1  -7  11 2854.41 923.838  55
  -1  -7  11 640.586 581.916  44
  -1  -7  11 672.937 610.584  33
  -1  -7  10 3376.96 1106.22  25
  -1  -7  10 4187.45 1082.19  55
  -1  -7  10 2145.88 888.286  44
  -1  -7  10 739.669 740.213  33
  -1  -7   9 1591.53 766.634  25
  -1  -7   9 2378.10 851.770  55
  -1  -7   9 1831.78 870.824  44
  -1  -7   9 265.471 724.484  33
  -1  -7   8 3523.52 1044.39  25
  -1  -7   8 3840.27 1089.87  55
  -1  -7   8 842.003 1048.62  33
  -1  -7   7 2126.06 878.158  25
  -1  -7   7 1012.76 635.272  55
  -1  -7   7 731.988 605.562  46
  -1  -7   7 583.790 790.198  33
  -1  -7   6 4514.05 1272.55  25
  -1  -7   6 4398.26 1186.86  55
  -1  -7   6 1654.72 890.155  46
  -1  -7   6 2093.32 1066.44  33
  -1  -7   5 428.444 470.749  25
  -1  -7   5 389.277 427.731  55
  -1  -7   5-304.684 669.479  46
  -1  -7   5 164.761 313.623   4
  -1  -7   4 11558.9 3120.96  23
  -1  -7   4 12616.7 2036.61  25
  -1  -7   4 10845.5 1811.61  55
  -1  -7   4 9174.24 3315.57  53
  -1  -7   4 11310.6 2447.63  52
   1  -7  -4 8938.24 2850.55  53
  -1  -7   4 6924.38 1921.64  46
  -1  -7   4 4019.99 1147.79   4
  -1  -7   3 4287.28 1876.97  23
  -1  -7   3 4112.34 1608.44  52
  -1  -7   3 3718.36 1038.57  55
  -1  -7   3 3067.92 1899.11  53
   1  -7  -3 3774.70 1969.31  53
  -1  -7   3 2099.66 1113.26  46
  -1  -7   3 2025.60 725.161   4
  -1  -7   2 2681.87 1668.63  23
   1  -7  -2 2657.53 1789.66  53
  -1  -7   2 2270.03 1860.54  53
  -1  -7   2 2332.62 1283.88  52
  -1  -7   2 1823.54 1063.20  46
  -1  -7   2 450.553 412.414   4
  -1  -7   1 2133.81 1551.20  23
  -1  -7   1 795.226 977.868  52
   1  -7  -1 700.251 1333.25  53
  -1  -7   1-735.684 1143.94  53
  -1  -7   0 2100.80 1549.11  23
  -1  -7   0 3217.31 1421.76  52
   1  -7   0 5140.97 2434.73  53
  -1  -7  -1 6671.53 2369.13  23
  -1  -7  -1 4431.59 1718.07  52
   1  -7   1 6124.76 2949.20  53
  -1  -7  -2 7463.95 2349.86  23
  -1  -7  -2 4404.93 1688.97  52
   1  -7   2 2361.04 1969.96  53
  -1  -7  -2 4415.08 1178.33  27
  -1  -7  -3 7801.10 2013.45  49
  -1  -7  -3 8208.01 2502.85  23
   1  -7   3 9567.87 3554.08  53
  -1  -7  -3 7537.93 2129.60  52
  -1  -7  -3 5804.51 1351.12  27
  -1  -7  -4-324.256 617.005  49
  -1  -7  -4 1873.10 1260.09  23
   1  -7   4 176.524 387.888  55
  -1  -7  -4 391.909 745.726  52
   1  -7   4-794.523 1511.78  53
  -1  -7  -4 168.646 320.945  27
  -1  -7  -4 161.405 307.170  32
   1  -7   5 5604.67 1253.61  55
  -1  -7  -5 3825.27 999.531  27
  -1  -7  -5 4682.08 1139.62  32
   1  -7   6 1828.35 728.058  55
   1  -7   6 444.985 494.554  44
   1  -7   7 2922.57 917.211  55
   1  -7   7 1697.19 795.890  44
   1  -7   8 3061.06 933.057  55
   1  -7   8 2197.36 850.355  44
   1  -7   9 4543.25 1142.14  55
   1  -7   9 1853.06 768.336  44
   1  -7  10 5989.50 1208.05  55
   1  -7  10 1687.10 732.977  44
   1  -7  11 1333.14 536.441  25
   1  -7  11 299.710 373.710  44
   1  -7  11 1238.90 616.768  55
   1  -7  12 5325.09 1145.05  55
  -1  -7 -12 5126.98 1380.05  56
   1  -7  12 5124.12 1004.34  25
   1  -7  13 122.272 269.152  55
  -1  -7 -13 189.330 416.304  56
   1  -7  13 269.132 279.236  25
  -1  -7 -14 2622.49 825.655  56
   1  -7  14 1621.00 541.928  55
  -1  -7 -14 1309.75 602.789  32
   1  -7  15 383.609 267.202  55
  -1  -7 -15 95.6639 235.759  32
  -1  -6  18 82.4901 202.754  33
  -1  -6  17 850.543 408.050  25
  -1  -6  17 699.226 336.811  55
  -1  -6  17 241.255 422.390  33
  -1  -6  16 685.637 427.694  25
  -1  -6  16 969.526 516.962  55
  -1  -6  16 208.514 282.992  30
  -1  -6  16 309.406 482.122  33
  -1  -6  15 1811.57 727.771  25
  -1  -6  15 1965.06 708.720  55
  -1  -6  15 758.887 446.103  30
  -1  -6  15 372.564 416.485  33
  -1  -6  14 293.465 360.771  30
  -1  -6  14-215.283 529.054  33
  -1  -6  14 565.555 507.517  25
  -1  -6  13 1247.31 685.776  25
  -1  -6  13 217.167 414.312  44
  -1  -6  13 482.000 649.204  33
  -1  -6  13 165.257 364.338  30
  -1  -6  12 444.653 546.402  25
  -1  -6  12 1066.06 619.937  55
  -1  -6  12 717.055 587.385  44
  -1  -6  12-262.836 707.470  33
  -1  -6  12 364.188 400.451  30
  -1  -6  11 2781.69 1075.32  25
  -1  -6  11 3562.13 1195.70  55
  -1  -6  11 2840.72 1086.60  44
  -1  -6  11 1962.64 1001.30  33
  -1  -6  10 473.407 581.802  25
  -1  -6  10 1358.36 746.389  55
  -1  -6  10-274.705 427.262  44
  -1  -6  10 293.502 721.255  33
  -1  -6   9 950.708 783.642  25
  -1  -6   9-442.344 687.609  23
   1  -6  -9 1202.40 809.212  23
  -1  -6   9 577.265 897.128  53
  -1  -6   9 901.418 606.846  55
   1  -6  -9-267.820 416.728  52
  -1  -6   9 302.331 664.655  33
   1  -6  -8 890.893 800.121  23
  -1  -6   8 2751.40 1593.53  23
  -1  -6   8 471.006 635.003  25
   1  -6  -8 1291.82 752.020  52
  -1  -6   8 661.519 594.737  55
  -1  -6   8-619.071 1178.63  53
  -1  -6   8 257.606 567.433  46
  -1  -6   8 307.129 585.788  33
  -1  -6   7 308.218 839.233  33
  -1  -6   7 651.064 1245.42  53
  -1  -6   7 2648.08 1079.67  52
   1  -6  -7 1993.23 916.797  52
  -1  -6   7 2341.48 914.688  55
  -1  -6   7 832.554 693.660  46
  -1  -6   7 994.478 631.166   4
  -1  -6   7 3232.75 1113.12  25
   1  -6  -7 4435.47 1421.73  23
  -1  -6   7 945.136 1046.17  23
  -1  -6   6 8945.78 1705.32  55
  -1  -6   6 8423.03 1976.14  52
   1  -6  -6 7228.94 1648.26  52
  -1  -6   6 8762.75 3006.21  53
  -1  -6   6 2954.62 1278.20  46
  -1  -6   6 3648.83 1094.94   4
  -1  -6   6 11673.1 1978.14  25
   1  -6  -6 6793.42 1821.38  23
  -1  -6   6 8160.15 2470.52  23
   1  -6  -5 1640.44 793.003  52
  -1  -6   5 2939.80 1203.64  52
  -1  -6   5 2052.29 1849.59  53
  -1  -6   5 2888.37 962.963  55
  -1  -6   5 3406.42 1782.13  23
   1  -6  -5 2084.43 1099.75  23
  -1  -6   5 3683.02 1079.46  25
  -1  -6   5 1864.34 982.084  46
  -1  -6   5 1289.48 633.189   4
  -1  -6   4 4526.76 1128.16  55
  -1  -6   4 5433.65 2369.27  53
  -1  -6   4 2706.69 1194.83  52
   1  -6  -4 3215.27 1062.20  52
   1  -6  -4 1516.50 1075.33  23
  -1  -6   4 2931.05 1624.23  23
  -1  -6   4 5396.17 1267.15  25
  -1  -6   4 4944.61 1445.02  49
  -1  -6   4 2902.52 1388.86  46
  -1  -6   4 879.582 587.325   4
  -1  -6   3 1328.46 1459.38  53
  -1  -6   3 338.061 371.378  55
  -1  -6   3 345.571 657.533  52
   1  -6  -3 227.995 433.817  52
   1  -6  -3-312.613 594.823  23
  -1  -6   3 482.522 749.637  23
  -1  -6   3 789.258 573.493  25
  -1  -6   3-297.723 462.539  49
  -1  -6   3-330.324 362.878  46
  -1  -6   3-167.572 368.173   4
  -1  -6   2 3322.79 1254.00  49
   1  -6  -2 2265.83 1138.11  23
  -1  -6   2 3348.56 995.714  25
  -1  -6   2 1276.02 607.111   4
   1  -6  -2 2047.17 847.168  52
  -1  -6   2 1048.37 876.203  52
  -1  -6   2 641.079 1232.39  53
  -1  -6   2 2976.20 878.144  55
  -1  -6   1 3348.60 1236.38  49
   1  -6  -1 3020.73 1357.25  23
  -1  -6   1 2780.77 1633.08  23
  -1  -6   1 2735.30 812.409   4
  -1  -6   1 3502.21 1413.88  52
   1  -6  -1 4113.45 1208.85  52
   1  -6  -1 3695.39 2048.12  53
  -1  -6   0 3351.43 1262.17  49
  -1  -6   0 2244.89 1403.89  23
   1  -6   0 1734.67 1089.39  23
  -1  -6   0 1161.15 551.723   4
   1  -6   0 5885.38 2493.49  53
  -1  -6   0 3137.12 1335.76  52
  -1  -6  -1 3349.58 1255.09  49
  -1  -6  -1 2178.45 1356.94  23
  -1  -6  -1 556.761 415.088   4
   1  -6   1 1381.84 1699.73  53
  -1  -6  -1 3117.44 1321.42  52
  -1  -6  -2 1521.97 885.321  49
  -1  -6  -2 423.597 1041.05  23
  -1  -6  -2 268.373 331.247   4
   1  -6   2-723.336 1376.71  53
  -1  -6  -2 1721.20 1001.06  52
  -1  -6  -3 2432.12 1125.48  49
  -1  -6  -3 3301.77 1516.91  23
  -1  -6  -3 1692.08 622.374   4
   1  -6   3 6744.85 2858.90  53
  -1  -6  -3 4113.46 1472.02  52
  -1  -6  -4 5810.19 1627.92  49
  -1  -6  -4 3243.20 1495.41  23
   1  -6   4 2289.89 1889.46  53
  -1  -6  -4 7150.52 1847.32  52
  -1  -6  -4 1692.53 674.185  27
  -1  -6  -5 1853.05 1030.45  49
  -1  -6  -5 1202.26 1175.82  23
  -1  -6  -5 3069.30 1252.90  52
   1  -6   5 2296.42 1689.48  53
  -1  -6  -5 1731.81 634.716  27
   1  -6   6 3210.93 1512.33  50
  -1  -6  -6 312.963 488.082  49
  -1  -6  -6-398.485 759.414  23
   1  -6   6 758.522 1443.90  53
  -1  -6  -6 1369.09 922.003  52
  -1  -6  -7 1718.29 1000.90  52
   1  -6   7 739.333 1817.25  53
  -1  -6  -7 2387.97 1238.30  23
   1  -6   7 786.372 575.000  25
  -1  -6  -7 2541.69 1210.75  49
   1  -6   7 1725.32 1162.44  50
   1  -6   7 245.197 470.956  44
   1  -6   7 206.773 560.103  33
   1  -6   8 2135.26 1748.38  53
   1  -6   8 1388.67 689.171  25
  -1  -6  -8 398.389 875.306  23
  -1  -6  -8 1611.74 936.908  49
   1  -6   8 393.552 748.836  50
   1  -6   8-240.226 457.103  44
   1  -6   8-210.200 461.843  33
  -1  -6  -9 1030.03 999.170  52
  -1  -6  -9 2391.15 1314.34  23
   1  -6   9 198.018 577.699  25
  -1  -6  -9 647.735 797.122  49
   1  -6   9 700.482 630.286  44
   1  -6   9 422.420 466.727  33
   1  -6  10 2341.82 894.652  25
   1  -6  10 2667.09 912.036  55
   1  -6  10 673.666 619.837  44
   1  -6  10 1880.82 870.024  33
   1  -6  11 757.109 626.382  25
   1  -6  11 2207.38 855.681  55
   1  -6  11 638.701 526.062  44
   1  -6  11 424.277 352.033  30
   1  -6  11 608.003 548.317  33
   1  -6  12 719.728 560.701  25
   1  -6  12 574.425 558.149  55
   1  -6  12 198.080 379.299  44
   1  -6  12 958.522 633.226  33
   1  -6  13 177.281 389.524  55
  -1  -6 -13-231.480 440.464  56
   1  -6  13 351.308 510.551  33
   1  -6  13 500.553 448.993  25
  -1  -6 -14 209.862 400.929  56
   1  -6  14 308.700 380.851  33
   1  -6  14 1050.27 547.845  25
   1  -6  15 538.888 419.311  55
  -1  -6 -15 357.012 439.163  56
   1  -6  15 127.754 314.763  33
   1  -6  15 259.433 349.902  25
  -1  -6 -16 659.132 412.072  56
   1  -6  16 189.892 259.422  33
   1  -6  16 530.557 352.590  25
   1  -6  17 235.803 248.051  25
   1  -6  17 1127.30 371.757  55
  -1  -5  19 268.659 278.306  25
  -1  -5  19-85.3184 248.034  28
   1  -5 -19-144.644 224.779  54
  -1  -5  18 1404.77 556.488  25
  -1  -5  17 968.045 448.818  30
  -1  -5  17 997.909 482.071  55
  -1  -5  16 1134.66 525.252  30
  -1  -5  16 412.141 514.859  33
  -1  -5  15 3507.67 951.569  30
  -1  -5  15 3713.61 1252.51  33
  -1  -5  14 1169.81 727.731  25
  -1  -5  14 1264.63 834.225  33
  -1  -5  14 173.755 332.303  30
  -1  -5  14 205.174 505.106  55
  -1  -5  13 731.815 709.160  25
  -1  -5  13 218.667 720.804  55
  -1  -5  13 184.858 352.053  30
  -1  -5  13-268.106 589.243  33
   1  -5 -12 2146.89 1026.16  49
  -1  -5  12 247.153 615.352  25
   1  -5 -12 1757.74 970.682  52
  -1  -5  12 894.563 987.831  53
  -1  -5  12 3055.15 1262.00  33
   1  -5 -11 3278.40 1184.60  49
  -1  -5  11 4892.55 1379.85  25
  -1  -5  11 2850.81 1509.33  53
   1  -5 -11 6425.10 1595.97  52
  -1  -5  11 2259.31 1161.81  33
  -1  -5  10 220.020 592.390  55
  -1  -5  10 499.578 776.395  53
   1  -5 -10-262.878 577.917  52
  -1  -5  10 237.800 584.483  25
  -1  -5  10-406.036 772.842  23
   1  -5 -10-467.930 514.437  49
  -1  -5  10-226.686 498.455  46
  -1  -5  10 282.959 822.661  33
  -1  -5   9 13950.0 2143.31  55
   1  -5  -9 11289.1 2058.75  52
  -1  -5   9 11411.3 3061.16  53
  -1  -5   9 9909.53 2021.22  52
  -1  -5   9 11405.1 2060.60  25
  -1  -5   9 9360.09 2529.89  23
   1  -5  -9 12920.6 2113.20  49
  -1  -5   9 5179.90 1530.89  46
  -1  -5   9 5324.36 1668.50  33
  -1  -5   8 14956.0 2265.66  25
  -1  -5   8 6048.66 1841.41  33
  -1  -5   8 9417.40 1984.35  52
  -1  -5   8 13826.6 2117.15  55
   1  -5  -8 15300.6 2331.80  52
  -1  -5   8 7472.71 2680.81  53
  -1  -5   8 14237.9 2905.63  23
   1  -5  -8 15404.8 2168.47  49
  -1  -5   8 4867.71 1585.16  46
  -1  -5   8 6650.90 1552.05   4
  -1  -5   7 376.324 462.249  55
   1  -5  -7 212.657 404.680  52
  -1  -5   7 1080.81 1187.34  53
  -1  -5   7-261.073 496.794  52
  -1  -5   7-204.663 449.709  25
  -1  -5   7-405.104 770.833  23
   1  -5  -7-181.177 281.545  49
  -1  -5   7 250.588 389.361  46
  -1  -5   7-185.435 352.891   4
   1  -5  -6 9941.19 1778.63  52
  -1  -5   6 8516.88 1921.66  52
  -1  -5   6 9181.40 2735.79  53
  -1  -5   6 10353.6 1745.20  55
  -1  -5   6 8663.35 1691.04  25
  -1  -5   6 11165.5 2603.27  23
   1  -5  -6 11838.8 2057.45  23
   1  -5  -6 9173.39 1578.66  49
  -1  -5   6 5645.00 1609.21  46
  -1  -5   6 4024.25 1200.75   4
   1  -5  -5 187.137 358.937  52
  -1  -5   5 977.323 538.721  55
  -1  -5   5 269.760 515.273  52
  -1  -5   5 529.459 1164.15  53
  -1  -5   5 1624.53 716.382  25
  -1  -5   5 392.644 748.469  23
   1  -5  -5 923.047 672.229  23
  -1  -5   5 249.256 549.506  49
   1  -5  -5 927.048 538.651  49
  -1  -5   5 521.319 641.887  46
  -1  -5   5 493.969 406.989   4
  -1  -5   4 4821.94 1082.10  55
   1  -5  -4 4824.73 1167.39  52
  -1  -5   4 5121.71 2279.20  53
  -1  -5   4 5681.31 1557.62  52
  -1  -5   4 4576.41 1813.57  23
  -1  -5   4 5572.68 1255.02  25
   1  -5  -4 3656.01 1231.22  23
   1  -5  -4 4372.54 1000.66  49
  -1  -5   4 4471.94 1329.81  49
  -1  -5   4 3408.93 1172.35  46
  -1  -5   4 2786.78 875.249   4
  -1  -5   3 739.749 717.984  49
  -1  -5   3 739.278 1075.21  23
   1  -5  -3 231.127 441.880  23
  -1  -5   3 315.343 389.697  25
  -1  -5   3 437.099 394.421   4
  -1  -5   3 1077.01 837.717  52
   1  -5  -3 686.078 500.377  52
  -1  -5   3 695.112 460.190  55
  -1  -5   2 14964.3 1888.19  55
  -1  -5   2 15170.0 2527.95  52
   1  -5  -2 12835.4 1950.32  52
   1  -5  -2 9951.44 2171.15  23
  -1  -5   2 16382.1 3055.84  23
  -1  -5   2 14153.9 2379.74  49
  -1  -5   2 16166.2 2031.25  25
  -1  -5   2 5774.12 1411.35   4
  -1  -5   1 7945.77 1784.41  49
  -1  -5   1 5801.83 1920.53  23
   1  -5  -1 8397.74 1844.00  23
  -1  -5   1 7029.22 1251.10  55
   1  -5  -1 8081.35 1546.68  52
  -1  -5   1 8644.57 1941.13  52
  -1  -5   1 9437.09 1488.72  25
  -1  -5   0 8526.04 1942.70  52
   1  -5   0 10877.7 1799.95  52
   1  -5   0 8542.91 1966.65  23
  -1  -5   0 9203.75 2203.34  23
  -1  -5   0 6672.38 1697.59  49
  -1  -5  -1 22010.1 3479.28  52
   1  -5   1 26591.0 3212.85  52
   1  -5   1 32366.5 5351.60  53
  -1  -5  -1 22248.4 3793.63  23
   1  -5   1 23332.3 3708.79  23
  -1  -5  -1 26231.0 3531.20  49
  -1  -5  -2 253.833 484.971  52
   1  -5   2 1690.46 1751.39  53
   1  -5   2 838.096 753.021  23
  -1  -5  -2 310.870 764.892  23
  -1  -5  -2 711.076 639.318  49
   1  -5   3 5340.20 2201.93  53
  -1  -5  -3 5865.73 1540.31  52
   1  -5   3 5664.69 1610.93  23
  -1  -5  -3 3381.76 1414.13  23
  -1  -5  -3 4799.39 1382.81  49
  -1  -5  -4 1549.19 855.708  52
   1  -5   4 2461.11 1658.10  53
   1  -5   4 1400.46 819.073  23
  -1  -5  -4 1230.35 832.591  23
  -1  -5  -4 487.379 542.968  49
  -1  -5  -5 12811.5 2359.96  49
  -1  -5  -5 13020.0 2636.51  23
   1  -5   5 10212.3 2378.51  23
  -1  -5  -5 15266.5 2582.78  52
   1  -5   5 7554.34 3046.80  53
  -1  -5  -5 11084.1 1713.27  27
   1  -5   5 17817.0 2278.67  25
   1  -5   6 4467.99 2114.74  53
  -1  -5  -6 1583.96 879.671  23
   1  -5   6 2618.89 863.771  25
  -1  -5  -6 3650.98 1234.69  49
  -1  -5  -7 19315.5 2947.62  49
   1  -5   7 20626.7 3547.50  50
  -1  -5  -7 14359.0 2876.87  23
   1  -5   7 15335.9 4062.58  53
   1  -5   7 19870.4 2605.24  25
   1  -5   7 9170.74 2116.22  33
   1  -5   7 16235.0 1906.90  26
  -1  -5  -8 8254.90 1907.25  52
   1  -5   8 5712.41 2575.50  53
   1  -5   8 9271.98 1683.64  25
   1  -5   8 9585.30 2275.98  50
  -1  -5  -8 12229.9 2279.05  49
   1  -5   8 2502.91 1089.81  44
   1  -5   8 4916.76 1460.44  33
   1  -5   8 9360.49 1247.83  26
  -1  -5  -9 877.152 849.977  52
   1  -5   9 403.487 495.856  25
   1  -5   9-328.549 625.372  50
  -1  -5  -9 297.013 652.784  49
   1  -5   9 229.917 437.798  44
   1  -5   9 308.961 320.442  26
   1  -5   9 445.843 547.850  33
  -1  -5 -10 5371.11 1528.95  52
   1  -5  10 5642.15 1309.51  25
   1  -5  10 4132.05 1404.79  50
  -1  -5 -10 3086.18 1255.15  49
   1  -5  10 1387.12 772.766  44
   1  -5  10 4605.96 906.288  26
   1  -5  10 2763.68 1051.34  33
  -1  -5 -11 602.303 661.814  52
   1  -5  11-213.798 332.461  25
  -1  -5 -11 317.667 604.608  49
   1  -5  11 230.452 358.313  44
   1  -5  11 305.791 375.849  30
   1  -5  11 234.747 364.979  33
  -1  -5 -12 1934.22 1068.23  49
  -1  -5 -12 1899.15 1109.57  23
   1  -5  12 1505.10 755.189  25
   1  -5  12 573.714 1097.29  53
  -1  -5 -12 897.021 812.258  52
   1  -5  12 1174.39 862.982  33
  -1  -5 -13 3561.73 1163.97  56
   1  -5  13 2325.78 971.651  25
   1  -5  13 2030.23 820.738  55
   1  -5  13 1093.74 656.648  44
   1  -5  13 2065.95 888.845  33
   1  -5  14 9907.21 1910.86  25
  -1  -5 -14 11195.1 2128.16  56
   1  -5  14 12912.9 2065.33  55
   1  -5  14 7405.78 1805.53  33
   1  -5  15 2056.55 878.676  25
   1  -5  15 3065.67 923.546  55
  -1  -5 -15 1998.33 886.701  56
   1  -5  15 199.312 548.118  33
   1  -5  16 3487.50 992.271  25
   1  -5  16 3766.65 955.940  55
  -1  -5 -16 2266.43 861.072  56
   1  -5  16 1743.86 822.532  33
   1  -5  17 2666.18 809.153  25
   1  -5  17 2631.91 725.778  55
   1  -5  17 2440.14 841.548  33
  -1  -5 -17 1548.24 665.810  56
   1  -5  18 213.277 310.504  33
   1  -5  18 220.891 243.375  25
  -1  -5 -19-60.2591 162.232  32
   1  -4 -20 142.722 350.622  54
  -1  -4  20-94.6198 180.110  28
  -1  -4  20-109.969 295.958  33
  -1  -4  19-132.543 291.259  28
  -1  -4  19 147.632 362.686  33
  -1  -4  19 124.997 274.682  25
  -1  -4  18-162.659 357.648  25
  -1  -4  17 901.953 503.710  30
  -1  -4  17 1365.60 683.793  25
  -1  -4  16 2534.45 799.417  55
  -1  -4  16 831.052 534.445  30
  -1  -4  16 3083.53 1035.71  25
  -1  -4  15 1708.23 764.732  55
  -1  -4  15 3079.01 1112.74  25
  -1  -4  15 1121.32 666.707  44
  -1  -4  15 1594.37 688.555  30
  -1  -4  14 3240.09 1022.49  55
  -1  -4  14 1955.49 933.533  25
  -1  -4  14 465.508 517.425  44
  -1  -4  14 366.842 457.406  30
   1  -4 -14 1900.10 987.140  49
  -1  -4  13 4565.78 1218.48  55
  -1  -4  13 1628.18 1108.60  53
  -1  -4  13 944.588 658.086  44
  -1  -4  13 1857.88 727.432  30
   1  -4 -13 5114.89 1488.03  49
  -1  -4  12 833.270 916.901  53
  -1  -4  12 824.221 601.208  55
   1  -4 -12 1115.50 752.266  49
  -1  -4  12 1649.21 778.245  44
  -1  -4  12 185.320 356.529  30
   1  -4 -11 1522.35 883.099  49
  -1  -4  11 1352.63 785.045  25
  -1  -4  11 211.421 405.953  46
  -1  -4  11 697.056 573.350  44
  -1  -4  11 421.726 804.283  53
  -1  -4  11 798.523 539.938  55
  -1  -4  10 3227.62 966.244  55
  -1  -4  10 849.562 943.988  53
  -1  -4  10 1902.52 939.648  25
  -1  -4  10 1781.09 1045.00  23
   1  -4 -10 3645.84 1128.41  49
  -1  -4  10 1261.98 668.725  46
  -1  -4  10 735.990 727.001  33
  -1  -4   9 3764.71 1203.46  33
  -1  -4   9 2604.47 947.613  52
  -1  -4   9 1274.03 1252.51  53
  -1  -4   9 5298.06 1274.81  25
  -1  -4   9 2072.91 1218.89  23
   1  -4  -9 6089.05 1336.15  49
  -1  -4   9 1045.97 683.923  46
  -1  -4   9 2308.40 808.753   4
  -1  -4   8 1489.93 633.259  55
  -1  -4   8 645.055 671.183  52
  -1  -4   8 422.474 659.489  53
  -1  -4   8 334.410 823.966  23
  -1  -4   8 1809.84 719.729  25
   1  -4  -8 1800.11 742.702  49
  -1  -4   8 224.359 431.710  33
  -1  -4   8 496.184 449.677   4
  -1  -4   7 14974.9 2008.45  55
  -1  -4   7 9529.80 2578.91  53
  -1  -4   7 9402.61 1898.74  52
  -1  -4   7 13596.5 2701.82  23
   1  -4  -7 16900.9 2092.34  49
  -1  -4   7 12807.8 1937.68  25
  -1  -4   7 6292.53 1468.79   4
  -1  -4   6 6741.26 1298.33  55
  -1  -4   6 5928.73 1454.08  52
  -1  -4   6 6418.85 2004.79  53
  -1  -4   6 3411.99 1438.92  23
  -1  -4   6 8090.65 1439.60  25
   1  -4  -6 9471.54 1462.07  49
  -1  -4   5 1802.68 644.609  55
  -1  -4   5 1253.08 699.342  52
  -1  -4   5 1142.76 1114.04  53
  -1  -4   5 2101.61 699.387  25
  -1  -4   5 2378.46 1138.16  23
  -1  -4   5 594.249 588.903  49
   1  -4  -5 1508.20 598.733  49
  -1  -4   4 815.302 592.666  52
  -1  -4   4 357.577 680.593  53
   1  -4  -4 405.222 363.876  52
  -1  -4   4-280.954 816.770  23
  -1  -4   4-191.851 421.866  49
   1  -4  -4 225.773 304.252  49
   1  -4  -3 9864.60 1464.12  52
  -1  -4   3 8689.25 1682.73  52
  -1  -4   3 8480.95 1935.60  23
   1  -4  -3 7925.70 1531.27  23
   1  -4  -3 8929.05 1343.56  49
  -1  -4   3 6680.67 1506.96  49
   1  -4  -2 466.243 384.150  52
  -1  -4   2 190.295 418.103  52
   1  -4  -2 157.318 386.446  23
  -1  -4   2-248.479 610.374  23
   1  -4  -2-93.1150 228.743  49
  -1  -4   2-179.155 340.893  49
   1  -4  -1 28388.5 3149.16  52
  -1  -4   1 31460.1 3635.71  52
  -1  -4   1 26976.3 3790.22  23
   1  -4  -1 28544.8 3453.03  23
   1  -4  -1 26968.9 2983.80  49
  -1  -4   1 29044.2 3516.14  49
   1  -4   0 14022.7 1774.06  52
  -1  -4   0 17129.9 2295.76  52
  -1  -4   0 11842.3 2300.99  23
   1  -4   0 13374.5 2076.19  23
  -1  -4   0 11050.6 2005.71  49
   1  -4   0 11546.6 1555.12  49
   1  -4   1 20595.7 3515.27  53
  -1  -4  -1 15858.2 2345.10  52
   1  -4   1 15780.9 2015.05  52
  -1  -4  -1 16047.3 2586.31  23
   1  -4   1 14853.1 2405.22  23
  -1  -4  -1 15740.2 2291.93  49
  -1  -4  -2 5823.90 1263.62  52
   1  -4   2 3708.69 865.032  52
   1  -4   2 4252.74 1180.47  23
  -1  -4  -2 3418.35 1227.99  23
  -1  -4  -2 3745.65 1053.73  49
   1  -4   3 6945.92 1210.10  52
  -1  -4  -3 6782.30 1438.86  52
   1  -4   3 11217.6 2909.63  53
   1  -4   3 6685.32 1568.12  23
  -1  -4  -3 7751.06 1668.65  23
  -1  -4  -3 7181.41 1442.89  49
   1  -4   4 1824.97 1333.00  53
   1  -4   4 1651.12 797.078  23
  -1  -4  -4 1461.71 736.349  49
   1  -4   5 950.860 1168.52  53
   1  -4   5 1467.03 798.502  23
  -1  -4  -5 192.721 368.795  49
  -1  -4  -6 13804.4 2366.65  49
   1  -4   6 18771.9 3089.23  50
   1  -4   6 10397.6 2244.20  23
  -1  -4  -6 18715.8 2560.02  52
   1  -4   6 20660.2 3967.18  53
   1  -4   6 14626.7 1767.81  26
   1  -4   6 18535.6 2313.60  25
  -1  -4  -7 8250.77 1659.45  49
   1  -4   7 6802.95 1777.08  50
   1  -4   7 4788.13 1422.08  23
   1  -4   7 3024.63 1751.42  53
  -1  -4  -7 7325.37 1573.15  52
   1  -4   7 7131.33 1358.16  25
   1  -4   7 6909.68 1030.05  26
  -1  -4  -8 2646.45 981.440  52
   1  -4   8 514.635 991.447  53
   1  -4   8 574.134 495.077  44
   1  -4   8 3197.73 918.968  25
   1  -4   8 3058.83 641.277  26
   1  -4   8 1513.37 792.912  33
   1  -4   8 3172.27 1195.51  50
  -1  -4  -8 2561.79 969.776  49
   1  -4   9 12083.6 3137.09  53
  -1  -4  -9 12306.9 2102.08  52
   1  -4   9 4598.09 1365.65  44
   1  -4   9 10059.7 1370.03  26
   1  -4   9 13294.6 1968.93  25
   1  -4   9 4468.29 1399.35  33
   1  -4   9 11917.1 2289.49  50
  -1  -4  -9 11488.6 2122.29  49
  -1  -4 -10 6084.61 1460.67  52
   1  -4  10 3548.22 1087.84  44
   1  -4  10 5737.66 992.786  26
   1  -4  10 6659.97 1441.09  25
   1  -4  10 2169.33 962.825  33
  -1  -4 -10 6137.16 1565.86  49
   1  -4  10 2631.93 1141.18  50
  -1  -4 -11 758.376 555.464  52
   1  -4  11-242.979 462.393  50
   1  -4  11 216.961 412.896  44
   1  -4  11-229.633 504.587  33
   1  -4  11 208.620 397.028  25
   1  -4  11 899.459 462.208  26
   1  -4  12 1313.73 721.953  25
   1  -4  12 358.214 322.099  26
   1  -4  12 239.740 527.218  33
   1  -4  12 223.451 347.885  44
  -1  -4 -12-258.791 402.689  52
   1  -4  13 4315.54 1883.76  53
  -1  -4 -13 2595.38 1006.11  52
  -1  -4 -13 1858.08 941.838  56
   1  -4  13 2251.87 912.314  25
   1  -4  13 2040.21 883.718  44
   1  -4  13 1964.90 1027.61  33
   1  -4  14 676.622 614.043  25
  -1  -4 -14 1592.24 879.546  56
   1  -4  14 1581.92 1421.99  53
   1  -4  14 1226.94 814.080  33
   1  -4  15 2843.05 1067.41  25
  -1  -4 -15 3042.83 1098.46  56
   1  -4  15 2704.76 887.822  55
   1  -4  15 1425.21 889.774  33
   1  -4  16 4075.97 1159.78  25
  -1  -4 -16 2736.36 1046.91  56
   1  -4  16 4639.12 1083.00  55
   1  -4  16 2878.75 1075.73  33
   1  -4  17 1451.04 690.820  25
  -1  -4 -17 187.551 292.750  56
   1  -4  17 265.576 293.121  55
   1  -4  17 394.716 613.878  33
   1  -4  18 166.371 365.811  33
  -1  -4 -19 751.509 623.401  54
   1  -4  19 907.107 498.434  33
   1  -4  20 243.834 237.177  25
  -1  -4 -20 253.994 342.387  54
   1  -3 -21 1099.22 336.883  42
   1  -3 -21 847.998 465.787  54
  -1  -3  21 451.109 320.414  28
  -1  -3  20 921.479 517.948  28
  -1  -3  20 842.454 528.230  33
  -1  -3  20 2237.39 507.650  12
  -1  -3  19 176.302 388.566  33
  -1  -3  19 499.920 607.922  28
  -1  -3  19 642.478 378.508  12
  -1  -3  18 206.721 455.264  33
  -1  -3  18 340.314 331.190  12
  -1  -3  18 700.240 577.785  25
  -1  -3  17 1004.64 521.012  21
  -1  -3  17 1013.06 633.515  25
  -1  -3  17 459.901 569.273  33
  -1  -3  16 540.216 392.626  21
  -1  -3  16-220.897 542.685  25
  -1  -3  16 180.955 281.259  30
  -1  -3  16 489.340 658.433  33
  -1  -3  16 159.985 304.531  55
  -1  -3  15 5058.01 1209.92  55
  -1  -3  15 4840.18 1047.85  21
  -1  -3  15 6880.71 1586.81  25
   1  -3 -15 4937.79 1064.10  47
  -1  -3  15 4013.69 1303.98  33
  -1  -3  15 1293.40 690.209  30
  -1  -3  15 6168.48 1120.59  13
  -1  -3  14 5243.01 1545.55  33
  -1  -3  14 4219.14 1220.14  30
  -1  -3  14 13181.0 1933.35  55
  -1  -3  14 7667.87 2165.70  53
  -1  -3  14 9840.83 1878.84  25
  -1  -3  14 11012.3 1638.84  21
   1  -3 -14 11783.6 1673.43  47
  -1  -3  14 4772.12 1410.98  44
  -1  -3  14 6193.98 1536.15  46
  -1  -3  14 10641.6 1546.24  13
  -1  -3  13 3156.73 1269.69  33
  -1  -3  13 2856.06 998.233  30
  -1  -3  13 2274.83 1386.97  53
  -1  -3  13 7737.65 1490.28  55
  -1  -3  13 6195.96 1462.54  25
  -1  -3  13 6206.38 1157.14  21
   1  -3 -13 9217.08 1357.16  47
  -1  -3  13 4223.71 1194.52  46
  -1  -3  13 4206.82 1220.86  44
  -1  -3  13 7076.63 1174.49  13
  -1  -3  12 343.032 376.848  30
  -1  -3  12 232.336 442.084  33
  -1  -3  12 174.325 331.708  55
  -1  -3  12-369.479 703.028  53
  -1  -3  12-417.741 562.052  25
  -1  -3  12 119.767 294.213  21
   1  -3 -12 240.964 264.725  47
  -1  -3  12-204.646 389.398  46
  -1  -3  12 638.414 522.747  44
  -1  -3  12 228.528 280.696  13
  -1  -3  11 879.458 752.438  33
  -1  -3  11 5459.49 1195.16  55
  -1  -3  11 1434.20 1061.67  53
  -1  -3  11 3874.04 1103.81  25
  -1  -3  11 4781.15 892.382  21
   1  -3 -11 4445.34 858.063  47
  -1  -3  11 1623.30 766.616  44
  -1  -3  11 589.413 523.493  46
  -1  -3  11 4529.74 847.943  13
  -1  -3  10 2065.98 915.139  33
  -1  -3  10 4484.25 1036.70  55
  -1  -3  10 2777.29 1290.25  53
  -1  -3  10 3548.38 1025.91  25
  -1  -3  10 4559.27 837.124  21
   1  -3 -10 4718.86 831.625  47
  -1  -3  10 770.984 577.785  44
  -1  -3  10 4102.33 765.741  13
  -1  -3   9 571.981 450.379  55
  -1  -3   9 673.637 909.329  53
  -1  -3   9 865.957 712.872  23
   1  -3  -9 1081.33 394.620  47
  -1  -3   9 883.850 491.037   4
  -1  -3   9 875.272 335.263  13
   1  -3  -8 17012.2 1766.06  47
  -1  -3   8 11172.9 2415.22  23
  -1  -3   8 9767.29 2528.35  53
  -1  -3   8 12371.4 2125.74  52
  -1  -3   8 13258.4 1970.15  55
  -1  -3   8 16392.0 1732.58  13
   1  -3  -7 16350.9 1667.70  47
  -1  -3   7 12636.3 2493.83  23
  -1  -3   7 13138.3 2718.18  53
  -1  -3   7 12847.5 2113.48  52
  -1  -3   7 13560.1 1584.47  13
   1  -3  -6 13951.8 1451.81  47
  -1  -3   6 10394.9 2260.36  23
  -1  -3   6 9277.21 1832.29  52
  -1  -3   6 10006.9 2399.91  53
  -1  -3   6 13553.1 1419.63  13
  -1  -3   5 11322.7 1857.60  49
   1  -3  -5 13818.1 1372.16  47
  -1  -3   5 9051.12 2046.59  23
  -1  -3   5 10539.2 2250.52  53
  -1  -3   5 9604.73 1853.02  52
  -1  -3   5 12882.0 1333.20  13
   1  -3  -4 17036.4 1600.19  47
  -1  -3   4 13457.5 2118.57  49
  -1  -3   4 14754.8 2454.56  23
  -1  -3   4 12905.1 2473.00  53
  -1  -3   4 11328.7 2026.16  52
  -1  -3   4 16328.2 1568.18  13
   1  -3  -3 3463.25 681.725  49
  -1  -3   3 1512.11 706.477  49
  -1  -3   3 3031.02 1061.01  23
  -1  -3   3 1898.60 746.883  52
  -1  -3   3 2419.80 388.566  13
  -1  -3   2 15526.4 2263.60  52
  -1  -3   2 16444.8 2498.68  23
  -1  -3   2 16493.5 2261.25  49
   1  -3  -2 20894.2 2023.32  49
  -1  -3   1 23552.9 2968.26  49
   1  -3  -1 29355.8 2645.01  49
  -1  -3   1 24163.1 3156.25  23
   1  -3  -1 32460.2 3009.93  23
   1  -3  -1 31946.9 2826.43  52
  -1  -3   1 24271.1 2996.38  52
   1  -3  -1 24660.6 2327.42  17
   1  -3   0 9509.21 1154.39  49
  -1  -3   0 10120.5 1560.83  49
   1  -3   0 10084.9 1451.26  23
  -1  -3   0 11884.5 1649.02  52
   1  -3   0 12425.6 1344.23  52
   1  -3   0 9596.89 944.990  17
  -1  -3  -1 4628.20 982.452  52
   1  -3   1 3859.77 679.372  52
   1  -3   1 5865.19 1044.45  23
   1  -3   1 4237.50 620.665  49
  -1  -3  -1 3727.19 896.138  49
  -1  -3  -1 3750.83 491.872   6
   1  -3   1 3868.07 443.434  17
   1  -3   2 12337.1 2482.82  53
   1  -3   2 11233.8 1377.65  52
   1  -3   2 13963.1 1802.64  23
  -1  -3  -2 13862.0 1760.79  49
  -1  -3  -2 11752.1 1173.56   6
   1  -3   2 10543.2 1098.24  17
  -1  -3  -3 16180.1 2085.74  49
   1  -3   3 15569.8 2159.18  23
   1  -3   3 15381.0 1512.30  22
   1  -3   3 14734.6 3026.92  53
   1  -3   3 15801.6 1774.07  52
  -1  -3  -4 1465.73 628.168  49
  -1  -3  -4 773.032 279.125  47
   1  -3   4 984.317 564.906  23
   1  -3   4 1430.79 278.961  22
   1  -3   4 1029.55 352.127  52
   1  -3   4 1320.37 1259.70  53
  -1  -3  -5 9526.38 1468.15  49
  -1  -3  -5 6406.02 902.985  47
   1  -3   5 5615.66 1268.97  23
   1  -3   5 6554.81 835.193  22
   1  -3   5 8403.14 2253.76  53
  -1  -3  -5 8616.38 1385.69  52
  -1  -3  -6 7243.44 1311.92  49
  -1  -3  -6 3665.65 708.901  47
   1  -3   6 5829.04 1472.01  50
   1  -3   6 3758.19 1054.54  23
   1  -3   6 4873.66 698.188  22
   1  -3   6 7015.43 2028.24  53
  -1  -3  -6 6331.11 1210.11  52
  -1  -3  -7 9665.78 1311.06  47
   1  -3   7 12241.7 2174.28  50
   1  -3   7 10360.4 1242.33  22
  -1  -3  -7 9889.78 1665.95  52
   1  -3   7 9670.99 2591.86  53
  -1  -3  -8 12967.9 1880.07  52
   1  -3   8 10810.1 1364.19  26
   1  -3   8 10220.9 1322.65  13
  -1  -3  -8 11604.5 1444.22  47
   1  -3   8 14535.3 2304.38  50
  -1  -3  -9 11792.2 1890.71  52
  -1  -3  -9 11361.0 1512.13  47
   1  -3   9 10334.5 2031.94  50
   1  -3   9 11659.7 1458.97  26
   1  -3   9 9196.67 1364.82  13
   1  -3  10 6724.23 1037.45  26
   1  -3  10 3469.63 1136.81  33
  -1  -3 -10 8411.50 1556.08  52
   1  -3  10 6749.42 1048.59  21
  -1  -3 -10 6606.06 1107.07  47
   1  -3  10 6660.29 1496.18  50
   1  -3  10 2161.12 896.270  44
   1  -3  10 6589.78 1028.71  13
   1  -3  11 3949.11 816.950  26
   1  -3  11 2519.66 968.053  33
  -1  -3 -11 4665.75 1194.45  52
   1  -3  11 4034.39 843.539  21
   1  -3  11 3658.19 1122.21  50
  -1  -3 -11 4853.41 1338.45  49
  -1  -3 -11 4027.86 887.132  47
   1  -3  11 1162.88 702.723  44
   1  -3  11 4785.37 889.432  13
   1  -3  12 12183.8 1603.85  13
  -1  -3 -12 9984.46 2076.89  56
   1  -3  12 8360.88 2608.65  53
  -1  -3 -12 11048.3 1944.29  52
   1  -3  12 12354.8 1620.49  21
  -1  -3 -12 11051.3 1632.41  47
  -1  -3 -12 11677.5 2213.80  49
   1  -3  12 4142.93 1384.86  44
   1  -3  12 5656.90 1702.78  33
   1  -3  12 11726.6 1998.77  25
   1  -3  12 11568.1 1545.60  26
  -1  -3 -13 4091.96 1322.62  56
   1  -3  13 2040.69 1388.37  53
  -1  -3 -13 1965.30 822.168  52
   1  -3  13 2752.94 756.354  21
  -1  -3 -13 3546.82 1179.17  49
  -1  -3 -13 2563.41 762.510  47
   1  -3  13 2485.14 726.238  13
   1  -3  13 1742.71 784.628  25
   1  -3  13 1920.88 936.950  33
   1  -3  13 2361.00 692.986  26
  -1  -3 -14 1969.22 933.696  56
  -1  -3 -14 874.898 645.269  52
   1  -3  14 1040.80 1148.71  53
   1  -3  14 2090.79 667.072  21
  -1  -3 -14 1682.07 980.157  49
  -1  -3 -14 594.504 414.947  47
   1  -3  14 1960.53 619.127  13
   1  -3  14 1994.57 915.104  33
   1  -3  15 3116.37 1647.75  53
  -1  -3 -15 3409.15 1073.12  52
   1  -3  15 4874.08 1015.90  21
  -1  -3 -15 4783.95 1421.96  49
  -1  -3 -15 4995.78 1468.24  56
   1  -3  15 2264.19 1154.42  33
   1  -3  16 1083.67 600.563  55
  -1  -3 -16 1288.18 757.849  56
  -1  -3 -16 2752.28 764.826  42
   1  -3  16 490.156 550.951  33
   1  -3  16 1907.50 620.006  21
  -1  -3 -17 1988.14 903.180  56
  -1  -3 -17 2898.68 753.457  42
   1  -3  17 1373.43 826.129  33
   1  -3  17 3405.51 1033.04  25
   1  -3  17 3497.91 810.674  21
  -1  -3 -18 2880.22 912.632  56
   1  -3  18 4402.52 842.334  21
   1  -3  18 3670.89 1049.32  25
  -1  -3 -18 3910.35 855.526  42
   1  -3  18 4071.32 1206.51  33
   1  -3  19 2511.89 580.427  21
   1  -3  19 1713.26 658.061  25
  -1  -3 -19 1443.47 898.762  54
  -1  -3 -19 3094.66 670.579  42
   1  -3  19 2389.88 841.207  33
  -1  -3 -20-57.0502 140.344  42
   1  -3  20-105.890 260.221  25
  -1  -3 -20-178.415 438.328  54
  -1  -3 -21 338.574 278.737  54
   1  -2 -22 55.1055 148.357  42
   1  -2 -21 453.472 441.513  54
  -1  -2  21 895.820 360.138  12
  -1  -2  21 236.078 320.634  28
   1  -2 -20 438.543 541.039  54
  -1  -2  20 479.990 529.758  33
  -1  -2  20 632.842 428.775  28
  -1  -2  20 710.336 389.527  12
  -1  -2  19 847.750 516.078  21
   1  -2 -19 1404.58 816.989  54
  -1  -2  19-194.566 428.454  33
  -1  -2  19 1153.94 598.277  28
  -1  -2  18 1965.05 878.282  28
  -1  -2  18 1770.99 856.255  33
  -1  -2  18 2084.84 778.658  21
  -1  -2  18 1505.99 654.953  25
  -1  -2  17 3340.44 1274.76  33
  -1  -2  17 7679.69 1415.00  21
  -1  -2  17 7405.20 1500.78  25
  -1  -2  16 5667.98 1400.10  25
  -1  -2  16 8381.40 1462.73  21
   1  -2 -16 7958.26 1385.06  47
  -1  -2  16 5019.37 1353.06  46
  -1  -2  16 3687.23 1318.10  33
  -1  -2  16 6800.81 1308.53  13
  -1  -2  15 487.977 599.340  33
  -1  -2  15 564.006 505.891  30
  -1  -2  15 148.205 230.248  55
  -1  -2  15-205.493 391.000  25
  -1  -2  15 459.630 412.270  21
   1  -2 -15-148.483 282.524  47
  -1  -2  15 223.689 245.733  46
  -1  -2  15-148.443 364.639  13
  -1  -2  14 2588.50 1051.97  33
  -1  -2  14 3614.78 1056.98  30
  -1  -2  14 5925.43 1909.69  53
  -1  -2  14 6811.42 1268.41  55
  -1  -2  14 5419.75 1332.57  25
  -1  -2  14 6432.56 1349.75  21
   1  -2 -14 5485.76 1102.36  47
  -1  -2  14 3517.94 1181.63  46
  -1  -2  14 6341.62 1249.47  13
  -1  -2  13 222.307 488.628  33
  -1  -2  13 681.566 458.715  30
  -1  -2  13 445.887 400.186  55
  -1  -2  13 700.174 769.301  53
  -1  -2  13 190.382 418.520  25
  -1  -2  13 678.456 447.407  21
   1  -2 -13 505.280 367.412  47
  -1  -2  13 411.423 452.182  44
  -1  -2  13-210.101 461.822  46
  -1  -2  13-130.156 378.554  13
  -1  -2  12 2484.38 971.287  33
  -1  -2  12 1904.66 756.185  30
  -1  -2  12 1959.81 1288.73  53
  -1  -2  12 6532.04 1215.94  55
  -1  -2  12 7418.59 1373.10  25
  -1  -2  12 5916.43 1085.91  21
   1  -2 -12 6519.59 1068.64  47
  -1  -2  12 2683.51 932.493  44
  -1  -2  12 3354.54 1004.28  46
  -1  -2  12 5881.21 1033.19  13
  -1  -2  11 5145.81 1186.35  30
  -1  -2  11 4396.22 1291.77  33
  -1  -2  11 6651.36 1865.14  53
  -1  -2  11 7854.52 1365.96  55
  -1  -2  11 10901.9 1459.98  21
  -1  -2  11 8708.45 1538.62  25
   1  -2 -11 11359.7 1361.46  47
  -1  -2  11 4082.84 1190.31  44
  -1  -2  11 10031.1 1346.51  13
  -1  -2  10 9809.90 2277.91  53
  -1  -2  10 11574.7 1788.35  55
  -1  -2  10 12042.5 1644.92  21
  -1  -2  10 11063.3 1833.76  25
  -1  -2  10 12816.5 1615.28  13
   1  -2 -10 14694.7 1666.65  47
   1  -2  -9 10810.9 1375.91  47
  -1  -2   9 7300.29 1913.33  53
  -1  -2   9 11177.5 1390.95  13
   1  -2  -8 19787.8 2019.86  47
  -1  -2   8 15545.5 2686.57  23
  -1  -2   8 20106.0 2023.22  13
   1  -2  -7 24705.2 2096.80  48
   1  -2  -7 26828.8 2316.06  47
  -1  -2   7 16261.0 2004.55  50
  -1  -2   7 20429.9 2999.60  23
  -1  -2   7 21144.6 3166.52  53
  -1  -2   7 21502.9 2688.30  52
  -1  -2   7 24833.4 2262.79  13
   1  -2  -6 1481.15 368.216  47
  -1  -2   6 967.513 714.047  23
  -1  -2   6 1364.11 628.143  52
  -1  -2   6 1289.77 890.795  53
  -1  -2   6 1258.13 334.234  13
  -1  -2   5 6367.07 1329.11  49
  -1  -2   5 9934.30 1784.06  23
  -1  -2   5 8166.29 1776.30  53
  -1  -2   5 11338.3 1602.52  52
  -1  -2   5 9621.75 1047.45  13
  -1  -2   4 6847.69 1479.97  53
  -1  -2   4 9110.92 1404.83  52
  -1  -2   4 8253.45 906.747  13
  -1  -2   4 7254.01 1312.04  49
  -1  -2   3 13060.2 1735.46  52
  -1  -2   3 11558.4 1187.30  13
  -1  -2   3 11238.6 1604.67  49
  -1  -2   2 19395.3 2347.78  52
  -1  -2   2 20374.3 1883.11  13
  -1  -2   2 19398.3 2309.71  49
  -1  -2   1 54605.9 5042.77  49
  -1  -2   1 49369.7 4608.95   6
  -1  -2   1 56627.0 5085.18  52
   1  -2   0 36401.4 3136.29  23
  -1  -2   0 30821.6 3256.39  49
   1  -2   0 31282.8 2879.66  49
  -1  -2   0 30659.2 2907.69   6
   1  -2   0 32157.9 2850.50  17
  -1  -2  -1 18954.0 2162.34  49
   1  -2   1 18191.9 2046.02  23
   1  -2   1 18468.4 1772.06  17
   1  -2   1 20827.8 1878.47  52
   1  -2   1 23232.7 2849.00  53
  -1  -2  -2 23729.4 2466.79  49
  -1  -2  -2 19827.2 2108.51  47
   1  -2   2 25046.5 2447.71  23
   1  -2   2 23216.3 2067.10  17
   1  -2   2 30171.2 3372.44  53
   1  -2   2 21551.3 2113.03  52
  -1  -2  -3 150.490 165.361  47
   1  -2   3 80.4180 342.170  23
   1  -2   3-25.2377 103.800  17
  -1  -2  -3 242.936 320.767  52
   1  -2   3-216.504 629.276  53
   1  -2   3 54.0216 129.391  52
  -1  -2  -4 25654.6 2449.65  47
   1  -2   4 21759.8 2658.17  23
   1  -2   4 24568.5 2331.43  17
  -1  -2  -4 27248.7 2740.84  52
   1  -2   4 25369.2 3546.55  53
   1  -2   5 12535.4 1949.87  50
  -1  -2  -5 10175.3 1303.24  47
   1  -2   5 11884.5 1258.31  22
  -1  -2  -5 12654.5 1602.96  52
   1  -2   5 14837.3 2552.57  53
  -1  -2  -6 18588.8 2055.88  47
   1  -2   6 20350.1 2697.87  50
   1  -2   6 18151.3 1939.39  22
   1  -2   6 15953.7 2999.57  53
  -1  -2  -6 24509.0 2439.51  52
  -1  -2  -7 4762.54 780.158  47
  -1  -2  -7 3981.26 950.024  49
   1  -2   7 4196.39 1128.26  50
   1  -2   7 3943.67 652.769  22
   1  -2   7 4155.96 1466.22  53
  -1  -2  -8 15504.0 2039.36  49
  -1  -2  -8 10998.5 1505.77  47
   1  -2   8 13935.6 2111.59  50
   1  -2   8 11676.4 1422.09  22
   1  -2   8 9944.11 2351.55  53
   1  -2   9 12340.8 1497.96  22
   1  -2   9 11620.1 1471.06  26
  -1  -2  -9 13151.4 1639.69  47
   1  -2   9 10007.1 1952.63  50
  -1  -2  -9 13498.4 2035.36  49
  -1  -2 -10 857.673 412.966  47
  -1  -2 -10 756.093 626.228  49
   1  -2  10 1521.48 726.568  50
   1  -2  10 482.326 286.491  26
   1  -2  10 718.698 361.537  13
   1  -2  10 1019.77 436.790  21
   1  -2  11 9395.44 1315.14  13
  -1  -2 -11 8163.30 1733.82  56
   1  -2  11 8485.12 1274.52  21
  -1  -2 -11 10575.1 1886.54  49
  -1  -2 -11 8241.14 1330.93  47
   1  -2  11 8687.67 1682.18  50
   1  -2  11 4340.95 1225.14  44
   1  -2  11 5913.90 1484.11  33
   1  -2  11 8703.42 1210.76  26
  -1  -2 -12 2845.96 1083.53  56
   1  -2  12 446.281 874.172  53
  -1  -2 -12 2409.47 806.713  52
   1  -2  12 3619.68 807.392  21
  -1  -2 -12 2922.80 1009.53  49
  -1  -2 -12 2761.26 737.470  47
   1  -2  12 2531.13 880.391  50
   1  -2  12 3552.79 783.415  13
   1  -2  12 1051.49 723.499  33
  -1  -2 -13 12328.5 2391.01  56
   1  -2  13 8623.79 2605.70  53
  -1  -2 -13 9344.00 1730.49  52
   1  -2  13 11021.2 1630.24  21
  -1  -2 -13 8637.06 1900.80  49
  -1  -2 -13 9408.02 1592.06  47
   1  -2  13 11220.5 1616.69  13
   1  -2  13 7317.38 1758.82  33
  -1  -2 -14 7045.87 1772.17  56
  -1  -2 -14 5854.44 1312.56  52
   1  -2  14 5068.41 2063.60  53
   1  -2  14 6739.83 1255.13  21
  -1  -2 -14 7268.96 1333.46  47
  -1  -2 -14 8018.75 1741.29  49
   1  -2  14 3537.64 971.186  13
   1  -2  14 4632.62 1446.93  33
  -1  -2 -15 9687.79 2171.08  56
   1  -2  15 8928.95 2784.37  53
   1  -2  15 11324.4 1730.07  21
  -1  -2 -15 12472.1 2267.10  49
  -1  -2 -15 9353.90 1671.43  47
   1  -2  15 10133.3 1651.64  13
   1  -2  15 13129.3 2187.83  25
   1  -2  15 7346.25 1904.39  33
  -1  -2 -16 3042.89 1233.67  56
   1  -2  16 5278.71 2042.55  53
   1  -2  16 5440.39 1089.02  55
  -1  -2 -16 5494.39 1498.11  49
  -1  -2 -16 3017.92 898.089  47
   1  -2  16 4425.48 1023.09  13
   1  -2  16 6339.49 1189.27  21
   1  -2  16 3813.99 1221.17  25
   1  -2  16 3817.39 1362.45  33
   1  -2  17 2355.25 708.967  21
   1  -2  17 996.805 632.378  25
  -1  -2 -17 1210.48 762.917  56
   1  -2  17 1472.42 942.506  33
  -1  -2 -18 2047.30 1199.96  54
  -1  -2 -18 1725.09 722.868  56
   1  -2  18 2843.02 892.677  25
   1  -2  18 2785.31 771.870  21
  -1  -2 -18 2907.58 790.594  42
   1  -2  18 1127.82 725.276  33
  -1  -2 -19 451.360 352.108  42
   1  -2  19 593.217 432.262  25
   1  -2  19 217.446 339.372  21
  -1  -2 -19 283.172 539.778  54
  -1  -2 -20 1786.36 527.147  42
   1  -2  20 1382.01 483.765  21
  -1  -2 -21 2737.26 550.394  42
  -1  -2 -21 1778.50 726.549  54
   1  -2  21 3023.73 584.823  21
  -1  -1  22 64.5613 158.686  12
   1  -1 -21 327.128 360.636  54
  -1  -1  21 135.038 333.088  28
  -1  -1  21 644.918 366.171  12
  -1  -1  20 3756.71 830.138  21
   1  -1 -20 2558.46 1045.21  54
  -1  -1  20 1581.56 754.749  28
  -1  -1  19 3101.60 890.267  21
   1  -1 -19 3557.56 1328.69  54
  -1  -1  19 3654.52 1166.94  33
  -1  -1  19 2307.62 985.515  28
  -1  -1  18 902.113 574.709  21
  -1  -1  18 227.304 614.033  33
  -1  -1  18 702.631 682.871  28
   1  -1 -18 693.631 763.901  54
   1  -1 -17 1506.39 1098.00  54
  -1  -1  17 819.504 575.938  25
  -1  -1  17 2066.01 765.921  21
  -1  -1  17 240.313 535.060  33
  -1  -1  17 1235.58 862.823  28
  -1  -1  17 1086.90 519.012  13
   1  -1 -17 1668.93 629.628  47
  -1  -1  17 669.303 554.844  46
  -1  -1  16 3476.99 1004.93  25
  -1  -1  16 3364.36 982.499  21
  -1  -1  16 1938.36 973.754  33
  -1  -1  16 5450.74 1152.10  13
   1  -1 -16 5113.38 1065.49  47
  -1  -1  16 3281.69 1106.93  46
  -1  -1  15 932.760 512.915  21
  -1  -1  15 174.970 430.486  25
  -1  -1  15 234.234 364.709  46
  -1  -1  15-235.219 578.307  33
  -1  -1  15 751.926 467.901  13
  -1  -1  14 1609.62 629.697   5
  -1  -1  14 1774.17 893.864  33
  -1  -1  14 1072.92 579.748  30
  -1  -1  14 729.428 911.052  53
  -1  -1  14 3047.44 887.917  25
  -1  -1  14 2777.54 835.425  21
   1  -1 -14 2766.87 756.363  47
  -1  -1  14 1804.07 873.986  46
  -1  -1  14 2815.69 820.495  13
  -1  -1  13 4325.15 990.754   5
  -1  -1  13 3786.01 1043.88  30
  -1  -1  13 4709.73 1287.00  33
  -1  -1  13 7012.67 1933.51  53
  -1  -1  13 7795.01 1396.34  25
  -1  -1  13 6975.66 1267.94  21
   1  -1 -13 9030.51 1300.64  47
  -1  -1  13 5073.93 1343.03  46
  -1  -1  13 6369.37 1157.84  13
  -1  -1  12 3729.52 1071.69  33
  -1  -1  12 2241.41 808.296  30
  -1  -1  12 3595.61 1369.28  53
  -1  -1  12 4833.16 1011.09  21
  -1  -1  12 5850.82 1164.00  25
   1  -1 -12 7032.94 1074.90  47
  -1  -1  12 4283.40 1173.27  46
  -1  -1  12 5477.14 1021.15  13
   1  -1 -11 2183.31 589.336  47
  -1  -1  11 2250.13 719.881  25
  -1  -1  11 2253.40 638.069  21
  -1  -1  11 1589.43 891.143  53
  -1  -1  11 1956.16 582.205  13
   1  -1 -10 13175.3 1571.97  47
  -1  -1  10 9064.95 2014.80  53
  -1  -1  10 12315.9 1588.46  13
   1  -1  -9 11090.1 1328.03  47
  -1  -1   9 7102.51 1685.41  53
  -1  -1   9 9869.40 1315.78  13
   1  -1  -8 4340.92 687.774  47
  -1  -1   8 2295.47 957.713  53
  -1  -1   8 3261.39 636.289  13
   1  -1  -7 1149.81 265.991  48
   1  -1  -7 1947.08 430.945  47
  -1  -1   7 1695.88 747.605  53
  -1  -1   7 1412.03 390.521  13
   1  -1  -6 957.764 248.010  48
  -1  -1   6 1082.67 599.839  53
  -1  -1   6 806.895 309.642  13
   1  -1  -5 4327.31 555.388  48
  -1  -1   5 4180.16 588.482  13
  -1  -1   5 2400.61 837.680  53
  -1  -1   5 3359.68 805.244  52
  -1  -1   4 17963.8 1759.31  13
  -1  -1   4 18112.7 2254.67  53
  -1  -1   4 17981.9 2144.65  52
  -1  -1   3 31527.6 3362.29  49
  -1  -1   3 30585.9 3512.20  23
  -1  -1   3 32793.6 3006.67  13
  -1  -1   3 36754.2 3469.69  53
  -1  -1   3 33354.4 3432.93  52
  -1  -1   2 8337.80 870.057  13
  -1  -1   2 8794.13 1309.93  23
  -1  -1   2 8512.45 1182.35  49
  -1  -1   1 15254.3 1412.26  13
  -1  -1   1 14058.0 1448.53   6
  -1  -1   1 16330.4 1783.94  23
  -1  -1   0 12608.1 1646.90  23
   1  -1   0 16939.5 1429.29  23
  -1  -1   0 11453.3 1627.74  52
  -1  -1   0 15105.0 1492.15   6
  -1  -1  -1 5398.24 650.086  47
   1  -1   1 5160.46 588.539  23
   1  -1   1 7384.98 1189.29  53
  -1  -1  -1 5580.73 791.028  52
   1  -1   1 6233.58 614.849  17
  -1  -1  -2 13586.2 1410.62  47
  -1  -1  -2 13836.9 1551.88  49
   1  -1   2 18029.4 1931.09  50
   1  -1   2 16597.0 2060.91  53
  -1  -1  -2 13316.2 1505.29  52
   1  -1   2 13896.7 1343.14  17
  -1  -1  -3 20941.9 2125.26  47
  -1  -1  -3 24299.0 2319.70  49
  -1  -1  -3 23898.2 2243.76  52
   1  -1   3 20808.8 2707.49  53
   1  -1   3 21202.2 2041.55  17
  -1  -1  -4 8169.22 1018.67  47
  -1  -1  -4 12177.4 1285.34  49
   1  -1   4 10365.6 1469.60  50
  -1  -1  -4 9573.38 1123.16  52
   1  -1   4 7877.56 1556.48  53
   1  -1   4 7544.34 911.776  17
   1  -1   5 2533.81 818.419  50
  -1  -1  -5 4110.58 624.999  47
   1  -1   5 3741.01 518.794  17
   1  -1   5 1997.67 1002.73  53
  -1  -1  -6 19759.2 2115.28  47
   1  -1   6 22258.8 2592.83  50
   1  -1   6 19832.0 2010.82  22
   1  -1   6 18878.3 2841.16  53
   1  -1   7 13380.4 1897.77  50
  -1  -1  -7 13138.6 1519.18  47
   1  -1   7 11245.9 1362.02  22
   1  -1   7 14355.6 2456.34  53
  -1  -1  -8 8853.03 1159.30  47
   1  -1   8 7507.48 1434.50  50
   1  -1   8 7953.55 1010.09  22
   1  -1   8 6771.24 790.187  18
   1  -1   8 7839.09 1856.59  53
   1  -1   9 4179.75 558.872  18
  -1  -1  -9 4849.42 879.528  47
   1  -1   9 4182.85 1085.31  50
   1  -1   9 5301.93 811.255  22
   1  -1  10 687.650 468.938  50
  -1  -1 -10 1239.22 446.043  47
   1  -1  10 1406.10 449.035  21
   1  -1  10 723.407 361.465  22
  -1  -1 -10 620.649 561.978  56
   1  -1  10 789.745 324.708  26
  -1  -1 -11 703.441 582.598  56
   1  -1  11 1198.49 460.767  21
   1  -1  11 1285.73 448.392  22
   1  -1  11 733.722 540.278  50
  -1  -1 -11 1387.37 515.519  47
   1  -1  11 1457.47 485.317  13
   1  -1  11 178.037 400.841  33
   1  -1  11 1380.09 417.956  26
  -1  -1 -12 8094.47 1816.36  56
  -1  -1 -12 6522.98 1423.02  59
   1  -1  12 9595.77 2493.75  53
   1  -1  12 6853.45 1178.23  21
  -1  -1 -12 7175.89 1259.18  47
   1  -1  12 4612.61 1259.08  50
   1  -1  12 6702.84 1164.95  13
   1  -1  12 7381.24 1144.20  26
   1  -1  12 6963.41 1530.82  33
  -1  -1 -13 19319.1 2676.10  59
  -1  -1 -13 18968.3 3055.86  56
   1  -1  13 14304.7 3404.61  53
   1  -1  13 19791.6 2294.02  21
  -1  -1 -13 17517.6 2293.41  47
   1  -1  13 12045.0 2329.07  50
   1  -1  13 16536.7 2165.94  13
   1  -1  13 18501.7 2118.78  26
   1  -1  13 13830.1 2527.34  33
  -1  -1 -14 4150.51 1359.53  56
  -1  -1 -14 2443.56 919.681  59
   1  -1  14 2508.08 1473.35  53
   1  -1  14 4063.01 917.632  21
  -1  -1 -14 1806.28 654.195  47
   1  -1  14 2537.04 749.386  13
   1  -1  14 1665.01 853.195  33
  -1  -1 -15-297.161 461.722  56
  -1  -1 -15-211.062 401.664  59
   1  -1  15-532.788 1013.78  53
  -1  -1 -15-157.843 346.876  47
  -1  -1 -15 452.532 430.589  49
   1  -1  15-251.405 552.409  33
   1  -1  15 142.319 221.229  13
   1  -1  15-143.599 315.587  21
   1  -1  16 2502.71 763.173  21
  -1  -1 -16 633.149 619.102  59
  -1  -1 -16 842.668 622.796  56
  -1  -1 -16 1569.76 783.518  49
  -1  -1 -16 649.482 444.873  47
   1  -1  16 734.170 463.859  13
   1  -1  16 1028.93 752.318  33
   1  -1  16 1168.69 610.984  25
  -1  -1 -17 247.296 384.888  56
  -1  -1 -17 201.309 383.734  59
   1  -1  17 252.773 680.575  33
   1  -1  17 184.929 454.851  25
   1  -1  17 434.745 390.632  21
  -1  -1 -18 4201.51 988.296  42
  -1  -1 -18 1804.71 784.276  59
  -1  -1 -18 2192.51 885.423  56
   1  -1  18 4151.58 1031.12  25
   1  -1  18 3533.90 894.726  21
  -1  -1 -19 5331.64 1053.53  42
  -1  -1 -19 5034.58 1134.82  59
   1  -1  19 4467.79 975.036  21
   1  -1  20 1205.87 453.877  21
  -1  -1 -20 1252.17 497.541  42
   1  -1  21 461.545 307.762  21
  -1  -1 -21 551.576 302.983  42
   1  -1  22 755.422 266.978  21
  -1  -1 -22 201.972 159.667  42
   1   0 -23 161.740 134.056  42
  -1   0  23 189.411 196.719  35
  -1   0  22 69.4990 170.853  12
   1   0 -22 91.9073 202.042  54
  -1   0  21 6166.66 1013.54  12
   1   0 -21 4102.60 1076.89  54
  -1   0  20 584.582 464.854  21
   1   0 -20-223.692 550.971  54
   1   0 -20 811.133 471.374  59
  -1   0  20 548.528 569.561  28
  -1   0  19 5068.43 1081.55  21
   1   0 -19 4849.83 1480.08  54
   1   0 -19 5126.58 1166.83  59
  -1   0  19 2392.17 1020.41  28
   1   0 -18 3702.66 1084.05  59
   1   0 -18 2680.21 1404.13  54
  -1   0  18 4690.72 1060.75  21
  -1   0  18 2417.96 1129.01  28
  -1   0  18 2911.04 1160.17  33
  -1   0  18 2823.28 794.801   5
  -1   0  17 431.176 357.118   5
   1   0 -17 1242.98 721.672  59
   1   0 -17 1831.51 1066.00  54
  -1   0  17 1427.73 654.268  21
   1   0 -17 150.965 374.711  47
  -1   0  17 1085.37 592.493  13
  -1   0  17 235.398 733.390  33
  -1   0  17 761.155 560.028  28
  -1   0  16 301.618 370.738   5
   1   0 -16 1043.29 648.499  59
   1   0 -16 376.286 716.122  54
  -1   0  16 317.588 390.338  21
   1   0 -16 149.124 366.602  47
  -1   0  16 308.968 379.758  13
  -1   0  16 235.160 577.836  33
  -1   0  16-253.440 482.451  28
  -1   0  15 1810.99 712.565   5
   1   0 -15 2417.45 907.811  59
   1   0 -15 3299.74 1350.90  54
  -1   0  15 3830.00 943.511  21
  -1   0  15 1463.81 871.086  46
   1   0 -15 2792.64 777.942  47
  -1   0  15 4005.50 943.611  13
  -1   0  15 2675.01 1019.63  28
  -1   0  15 902.200 729.138  33
   1   0 -14 5278.30 1317.66  59
  -1   0  14 7744.87 1325.25  21
  -1   0  14 3392.22 1168.35  28
  -1   0  14 3983.84 1210.66  33
  -1   0  14 3263.23 1199.21  46
   1   0 -14 6755.05 1171.98  47
  -1   0  14 6084.80 1180.04  13
  -1   0  14 5090.95 1124.61   5
  -1   0  13 272.807 337.677   5
  -1   0  13 258.533 320.289  25
  -1   0  13 787.222 434.428  21
  -1   0  13 380.968 420.606  33
   1   0 -13 947.851 452.823  47
  -1   0  13 433.739 478.324  46
  -1   0  13 573.436 474.316  43
  -1   0  13 636.551 372.392  13
  -1   0  12 18392.3 2539.40  25
  -1   0  12 25125.0 2696.26  21
   1   0 -12 26280.9 2642.15  47
  -1   0  12 19004.0 3192.23  46
  -1   0  12 24953.7 2663.51  13
  -1   0  12 17560.6 2570.57   5
   1   0 -11 22642.8 2542.64  47
  -1   0  11 22401.0 2629.94  21
  -1   0  11 22954.7 3413.20  53
  -1   0  11 23040.8 2586.55  13
   1   0 -10 4198.23 746.172  47
  -1   0  10 2857.02 1090.84  53
  -1   0  10 2900.71 653.811  13
   1   0  -9 6008.90 884.528  47
  -1   0   9 5532.15 1359.99  53
  -1   0   9 4718.17 822.387  13
   1   0  -8 312.817 259.059  47
   1   0  -8 364.918 181.993  48
  -1   0   8 456.343 473.679  53
  -1   0   8 391.988 250.581  13
   1   0  -7 3125.86 499.435  48
  -1   0   7 3682.82 919.871  53
  -1   0   7 3614.69 598.745  13
   1   0  -6 22549.9 2186.10  48
  -1   0   6 22266.1 2568.83  53
  -1   0   6 22841.3 2260.95  13
   1   0  -5 112067. 9523.79  48
  -1   0   5 100073. 9741.35  53
  -1   0   5 108859. 9544.47  13
   1   0  -4 4008.39 533.026  48
  -1   0   4 2550.99 551.401  53
  -1   0   4 3937.32 519.262  13
   1   0  -3 91327.0 7452.73  48
   1   0  -3 78666.4 7322.35  50
  -1   0   3 90390.8 7412.50  13
  -1   0   3 86483.3 7399.80  53
  -1   0   3 80579.9 7388.76  51
  -1   0   2 25191.8 2355.62  51
  -1   0   2 25435.2 2560.83  52
  -1   0   2 24279.0 2548.87  23
   1   0  -2 30565.1 2460.16  48
   1   0  -2 26887.1 2414.65  50
  -1   0   2 27619.5 2378.21  13
  -1   0   2 21691.3 2393.81   6
  -1   0   1 9356.03 900.020  51
  -1   0   1 9105.97 1072.74  52
  -1   0   1 8968.22 1053.18  23
   1   0  -1 9671.91 1052.94  50
  -1   0   1 8838.00 1081.67  49
   1   0  -1 10879.5 1017.51  48
  -1   0   1 9241.95 920.765  13
  -1   0   1 8316.22 946.841   6
  -1   0   0 1934.81 388.181  49
   1   0   0 1794.90 419.587  50
  -1   0   0 2412.50 365.555  23
  -1   0   0 1836.73 240.496  51
  -1   0   0 2120.89 393.782  52
   1   0   0 1445.97 349.900  53
  -1   0   0 1696.33 294.732   6
   1   0   1 19467.2 1868.03  50
  -1   0  -1 16168.7 1620.16  47
  -1   0  -1 15941.5 1635.73  49
   1   0   1 15797.2 1566.05  17
   1   0   1 16674.6 1799.95  53
  -1   0  -1 20844.9 1707.79  52
  -1   0  -2 30836.8 2850.44  47
  -1   0  -2 32222.8 2848.89  49
   1   0   2 35428.3 3140.65  50
  -1   0  -2 28217.6 2717.99  19
   1   0   2 33157.5 3163.90  53
  -1   0  -2 32664.8 2802.39  52
   1   0   2 30690.8 2771.57  17
  -1   0  -3 7047.93 833.145  47
  -1   0  -3 8758.72 887.241  49
   1   0   3 7455.71 1175.00  53
  -1   0  -3 6470.69 740.503  52
   1   0   3 6503.66 743.862  17
  -1   0  -4 72227.6 6652.40  47
   1   0   4 69863.6 7137.31  53
   1   0   4 76589.5 6554.52  17
   1   0   5 24986.9 2692.44  50
  -1   0  -5 21876.7 2358.24  47
   1   0   5 24770.8 2274.87  17
   1   0   5 23811.1 2930.61  53
   1   0   6 15169.5 2086.46  50
  -1   0  -6 15980.5 1818.54  47
   1   0   6 17557.2 1752.08  22
   1   0   6 18892.8 1742.71  17
   1   0   6 13993.8 2313.58  53
   1   0   7 7602.31 1334.86  50
  -1   0  -7 7603.72 1072.06  47
   1   0   7 8977.15 1018.37  22
   1   0   7 7573.85 878.012  18
   1   0   7 9842.74 1801.48  53
   1   0   8 7162.02 1398.04  50
   1   0   8 9645.59 923.744  48
  -1   0  -8 9044.40 1240.35  47
   1   0   8 8854.91 1123.14  22
   1   0   8 8859.04 997.249  18
   1   0   8 7979.13 1786.08  53
   1   0   9 2531.95 447.612  18
  -1   0  -9 3496.71 689.819  47
   1   0   9 2505.38 806.532  50
   1   0   9 3171.65 605.348  22
   1   0  10 19481.8 1979.37  18
  -1   0 -10 18474.5 2276.88  47
   1   0  10 16289.4 2562.56  50
   1   0  10 21018.2 2267.36  21
   1   0  10 21791.8 2225.72  22
  -1   0 -11 45838.2 5039.40  56
   1   0  11 43300.9 4086.48  21
   1   0  11 43284.5 4027.36  22
   1   0  11 33663.5 4442.28  50
  -1   0 -11 38429.9 4104.71  47
   1   0  11 34480.7 3662.90  18
   1   0  11 43874.5 3938.20  26
  -1   0 -12 360.869 449.560  59
  -1   0 -12 507.701 488.832  56
   1   0  12 2057.37 1280.72  53
   1   0  12 1966.22 592.664  21
  -1   0 -12 634.351 424.830  47
   1   0  12 818.703 599.622  50
   1   0  12 388.625 433.497  33
   1   0  12 1809.16 479.141  26
   1   0  12 962.423 413.835  13
   1   0  13 6816.40 1254.19  13
  -1   0 -13 9292.19 1973.26  56
  -1   0 -13 9587.39 1787.26  59
   1   0  13 8780.42 2477.59  53
   1   0  13 9592.16 1426.23  21
  -1   0 -13 8360.03 1402.82  47
   1   0  13 6228.45 1536.60  50
  -1   0 -13 7724.21 1522.30  38
   1   0  13 7540.37 1679.58  33
   1   0  14-130.886 321.545  13
  -1   0 -14 625.465 458.092  59
  -1   0 -14 284.322 441.741  56
  -1   0 -14-405.100 890.054  54
  -1   0 -14 150.354 286.123  47
   1   0  14-234.695 364.647  33
  -1   0 -14-180.574 396.765  38
   1   0  14 397.982 412.224  21
   1   0  15 424.180 384.777  21
  -1   0 -15 567.074 698.849  56
  -1   0 -15 1517.68 755.368  59
  -1   0 -15 475.415 430.274  47
   1   0  15 1542.17 558.260  13
   1   0  15 998.099 727.507  33
   1   0  15 363.836 403.791  28
   1   0  16 145.866 320.481  21
  -1   0 -16 268.611 590.164  56
  -1   0 -16-218.248 415.269  59
  -1   0 -16 163.902 311.863  47
  -1   0 -16 392.644 431.338  49
   1   0  16-145.488 226.027  13
   1   0  16-256.893 488.800  33
   1   0  16 181.149 398.000  28
   1   0  17 7953.92 1378.63  21
  -1   0 -17 4749.91 1385.27  56
  -1   0 -17 6322.33 1470.12  59
   1   0  17 6015.54 1287.25  25
  -1   0 -18 4854.24 1095.14  42
   1   0  18 6016.33 1105.38  21
  -1   0 -18 3284.59 1030.71  59
  -1   0 -18 2505.40 960.786  56
  -1   0 -19 2006.12 648.628  42
   1   0  19 1225.94 531.648  21
  -1   0 -19 664.308 526.186  59
  -1   0 -20 11630.3 1540.87  42
   1   0  20 9495.02 1407.40  21
  -1   0 -20 7581.25 1470.35  59
  -1   0 -21 1695.39 513.011  42
   1   0  21 2894.12 610.093  21
  -1   0 -21 1658.42 526.578  59
  -1   0 -22 283.489 207.207  42
   1   0  22 330.902 235.200  21
   1   0  22 71.5712 158.076  35
  -1   1  22-63.2871 120.426  12
   1   1 -22 57.8237 127.051  59
   1   1 -22 62.1397 204.795  42
  -1   1  22 105.470 231.731  35
   1   1 -21 546.352 398.072  54
   1   1 -21 317.390 308.890  59
  -1   1  21 270.523 263.725  12
  -1   1  20 2434.49 680.504  21
   1   1 -20 2588.88 770.666  59
  -1   1  20 2744.06 643.060   5
   1   1 -20 196.016 501.592  54
   1   1 -19 1759.02 894.736  54
   1   1 -19 3662.55 996.455  59
  -1   1  19 3140.53 836.519  21
   1   1 -19 3224.30 879.612  38
  -1   1  19 1440.61 547.172   5
  -1   1  18 850.716 472.740   5
   1   1 -18 588.807 574.937  59
   1   1 -18 1186.42 865.051  54
  -1   1  18 1601.89 623.721  21
   1   1 -18 830.285 581.302  38
  -1   1  18 239.126 591.751  28
  -1   1  17 1561.01 667.896   5
   1   1 -17 1665.86 795.561  59
   1   1 -17 1306.54 951.983  54
  -1   1  17 2305.05 758.252  21
   1   1 -17 1805.45 622.442  47
  -1   1  17 252.542 624.354  28
  -1   1  17 141.944 279.158  11
  -1   1  17 1809.19 666.244  13
  -1   1  16 606.111 474.719  11
  -1   1  16 4077.13 940.455  13
  -1   1  16 2762.93 855.974   5
   1   1 -16 1683.29 786.836  59
   1   1 -16 3050.90 1247.74  54
  -1   1  16 4022.42 992.264  21
   1   1 -16 4790.72 1029.19  47
  -1   1  16 2222.17 700.867  37
  -1   1  16 1521.67 898.668  28
  -1   1  15 874.202 482.148  13
  -1   1  15 153.261 242.055  11
  -1   1  15 485.996 438.090   5
   1   1 -15 409.216 451.649  59
   1   1 -15 669.478 736.742  54
  -1   1  15 1050.05 522.930  21
   1   1 -15 1269.43 538.519  47
  -1   1  15 757.810 440.918  37
  -1   1  15 244.325 466.923  28
  -1   1  15 643.209 578.575  33
  -1   1  14 1562.27 668.062   5
   1   1 -14 2509.79 893.654  59
   1   1 -14 2540.36 1171.54  54
  -1   1  14 2679.80 811.246  21
   1   1 -14 3033.09 801.604  47
  -1   1  14 3632.44 1174.13  46
  -1   1  14 2728.57 718.748  37
  -1   1  14 1366.87 850.228  28
  -1   1  14 2588.18 970.976  33
  -1   1  14 1191.04 572.874  11
  -1   1  14 2182.23 678.584  13
  -1   1  13 5867.49 1296.89   5
  -1   1  13 6425.64 1567.69  28
  -1   1  13 6846.16 1559.88  33
   1   1 -13 6424.00 1763.75  54
  -1   1  13 9195.20 1454.49  21
  -1   1  13 8579.89 1807.08  46
   1   1 -13 10745.3 1451.43  47
  -1   1  13 6588.72 1466.15  43
  -1   1  13 8821.88 1389.44  13
  -1   1  12 3918.27 986.238   5
  -1   1  12 3150.45 1083.64  28
   1   1 -12 5246.45 1473.98  54
  -1   1  12 5958.22 1088.26  21
   1   1 -12 6098.44 1038.02  47
  -1   1  12 6191.83 1388.32  46
  -1   1  12 4397.53 1114.77  43
  -1   1  12 5432.63 1022.37  13
   1   1 -11 1812.48 544.718  47
  -1   1  11 1560.07 532.215  21
  -1   1  11 1604.31 548.847  13
   1   1 -11 2548.79 963.979  54
  -1   1  10 11162.4 1371.36  13
   1   1 -10 11643.3 1372.38  47
  -1   1   9 6796.67 988.169  13
   1   1  -9 4280.28 807.625  48
  -1   1   8 3751.82 653.288  13
   1   1  -8 3144.06 590.735  47
   1   1  -8 2230.15 511.908  48
  -1   1   7 1406.85 385.677  13
   1   1  -7 2178.80 446.770  47
   1   1  -7 1386.76 385.715  48
  -1   1   6 810.655 294.697  13
   1   1  -6 311.517 224.885  48
  -1   1   5 4669.78 637.687  13
  -1   1   5 4983.87 685.686  51
   1   1  -5 4046.87 651.806  48
  -1   1   4 21061.2 1861.62  13
  -1   1   4 18399.6 1874.80  51
   1   1  -4 16811.3 1886.38  48
  -1   1   3 35739.3 3192.87  13
  -1   1   3 34973.1 3236.38  51
   1   1  -3 34135.9 3291.23  48
  -1   1   2 10864.5 975.377  13
  -1   1   2 9274.67 988.875  51
   1   1  -2 9129.15 1060.05  48
   1   1  -2 7849.71 1021.97  50
  -1   1   1 15530.6 1412.36  51
  -1   1   1 15106.6 1385.44  13
  -1   1   1 13015.0 1404.58   6
   1   1  -1 15601.2 1506.75  48
   1   1  -1 13657.1 1542.85  50
   1   1   0 14319.2 1805.74  50
  -1   1   0 17476.8 1656.21  51
  -1   1   0 19713.6 1690.96   6
   1   1   1 7215.59 778.630  48
   1   1   1 5505.50 870.112  50
  -1   1  -1 7740.84 727.096  51
   1   1   1 5802.73 580.637  19
  -1   1  -1 7788.84 798.899  19
   1   1   1 6339.48 661.041  17
   1   1   2 15535.6 1441.78  48
   1   1   2 14103.3 1666.10  50
  -1   1  -2 14113.4 1425.40  47
  -1   1  -2 13684.7 1441.53  19
   1   1   2 13851.3 1354.89  17
  -1   1  -3 21285.7 2034.14  47
   1   1   3 23531.8 1997.31  48
   1   1   3 20373.7 2291.96  50
  -1   1  -3 18482.3 2012.15  19
   1   1   3 19911.7 1933.81  17
  -1   1  -4 7103.54 922.372  47
   1   1   4 8942.80 875.049  48
   1   1   4 7781.35 858.524  17
  -1   1  -4 7297.10 944.841  19
   1   1   5 3591.59 848.416  50
   1   1   5 4024.98 492.312  48
  -1   1  -5 3495.87 592.683  47
   1   1   5 3497.57 508.608  17
   1   1   5 3656.99 1022.81  53
   1   1   6 18779.0 2345.80  50
  -1   1  -6 18863.8 2007.71  47
   1   1   6 17159.1 1735.88  48
   1   1   6 20608.5 1930.72  22
   1   1   6 20397.0 1882.61  18
   1   1   6 25057.6 2957.18  53
   1   1   7 14908.8 1981.62  50
  -1   1  -7 12384.3 1534.31  47
   1   1   7 12451.9 1429.58  22
   1   1   7 12747.1 1383.83  18
   1   1   7 17724.5 2488.61  53
  -1   1  -8 7599.63 1137.17  47
   1   1   8 5727.43 1322.39  50
   1   1   8 8118.50 1046.19  22
   1   1   8 9366.76 1019.14  18
  -1   1  -9 4973.56 891.377  47
   1   1   9 5573.81 1269.11  50
   1   1   9 4329.66 702.645  18
   1   1   9 5990.57 861.374  22
  -1   1 -10 1279.88 850.147  54
   1   1  10 1628.14 463.571  21
   1   1  10 1725.03 467.793  22
  -1   1 -10 1230.55 448.816  47
   1   1  10 194.312 439.707  50
   1   1  10 1491.53 377.013  18
  -1   1 -10 987.594 583.655  56
   1   1  11 1728.82 468.702  57
  -1   1 -11 654.693 542.585  56
  -1   1 -11 679.622 534.539  59
  -1   1 -11 2021.20 1006.56  54
   1   1  11 1254.12 437.066  22
   1   1  11 1460.74 473.791  21
   1   1  11-214.087 415.890  50
  -1   1 -11 922.586 428.459  47
   1   1  11 1757.68 776.896  33
   1   1  11 855.610 385.771  13
   1   1  11 1073.52 336.008  18
   1   1  12 6775.04 1165.82  13
   1   1  12 6042.13 1129.93   5
  -1   1 -12 5760.16 1366.82  59
  -1   1 -12 5936.65 1530.27  56
   1   1  12 7483.58 1155.70  57
  -1   1 -12 8696.25 2091.49  54
   1   1  12 8545.84 1298.64  21
   1   1  12 6021.26 1519.85  50
  -1   1 -12 8855.52 1356.16  47
  -1   1 -12 7367.23 1466.47  38
   1   1  12 7543.59 1423.78  28
   1   1  13 19066.4 2341.98  13
   1   1  13 20400.5 2260.97  57
  -1   1 -13 20526.1 3126.76  56
  -1   1 -13 17252.7 2662.03  59
   1   1  13 21612.8 2442.89  21
   1   1  13 18104.9 2317.40   5
   1   1  13 16101.7 2795.16  50
  -1   1 -13 17184.2 2393.74  47
  -1   1 -13 18191.8 2674.65  38
   1   1  13 17944.9 2537.52  28
   1   1  14 1568.93 600.001  13
  -1   1 -14 1914.94 827.973  59
  -1   1 -14 2619.72 1090.62  56
   1   1  14 4360.35 911.356  21
   1   1  14 2509.50 703.732   5
  -1   1 -14 758.599 502.163  47
   1   1  14 2720.86 1031.32  50
  -1   1 -14 3736.86 1050.53  38
   1   1  14 2320.05 893.682  28
  -1   1 -15 260.400 495.582  56
  -1   1 -15 220.090 418.902  59
  -1   1 -15 318.836 391.736  47
   1   1  15-140.121 266.816  21
  -1   1 -15 200.809 312.145  38
   1   1  15 139.366 216.765  13
  -1   1 -16 661.207 599.399  59
  -1   1 -16 1230.11 815.435  56
  -1   1 -16 984.964 517.412  47
  -1   1 -16 593.188 443.024  38
   1   1  16 1293.98 553.984  13
   1   1  16 2011.34 693.404  21
   1   1  17-141.402 347.372  21
  -1   1 -17-218.226 415.253  56
  -1   1 -17 211.941 465.677  59
  -1   1 -17 185.603 288.385  38
   1   1  18 2916.45 788.225  21
  -1   1 -18 2523.64 881.097  59
  -1   1 -18 1596.04 736.246  56
  -1   1 -18 3949.06 969.319  42
   1   1  19 6001.02 1085.78  21
  -1   1 -19 4362.86 1153.76  59
  -1   1 -19 5566.26 1098.20  42
   1   1  20 1759.84 540.696  21
  -1   1 -20 1515.40 546.158  42
  -1   1 -20 1079.52 548.787  59
  -1   1 -21 97.1895 261.897  59
   1   1  21 671.817 307.143  21
  -1   1 -21-154.964 340.757  54
  -1   1 -21 324.042 252.099  42
   1   1  21 115.346 310.696  35
   1   1  22 437.962 201.732  21
  -1   1 -22 462.766 220.333  42
   1   1  22 67.7154 184.090  35
  -1   1 -22 380.673 331.644  54
  -1   2  22 85.1096 187.206  35
   1   2 -22 124.428 193.514  59
   1   2 -21 1238.76 496.660  59
  -1   2  21 263.511 357.806  35
   1   2 -21 524.086 329.238  54
  -1   2  20 1178.79 446.507  12
   1   2 -20 693.311 483.152  59
   1   2 -20 158.185 390.368  54
  -1   2  20 956.471 421.954   5
   1   2 -20 114.175 282.949  38
  -1   2  20 174.565 385.358  35
   1   2 -19 413.619 456.522  54
   1   2 -19 338.316 374.271  59
  -1   2  19 1156.34 510.036  21
   1   2 -19 595.140 518.750  38
  -1   2  19 369.995 385.748   5
  -1   2  18 873.569 531.386   5
   1   2 -18 1978.44 901.588  54
   1   2 -18 772.060 600.538  59
  -1   2  18 2115.73 712.328  21
   1   2 -18 1403.93 640.156  38
  -1   2  18-138.904 218.038  11
  -1   2  17 4513.51 1152.61   5
   1   2 -17 8750.69 1697.55  59
   1   2 -17 7721.46 1863.98  54
  -1   2  17 9564.98 1485.05  21
  -1   2  17 8568.82 1371.48  37
  -1   2  17 3332.08 995.755  11
  -1   2  16 6612.66 1362.17   5
   1   2 -16 6871.84 1572.23  59
   1   2 -16 5802.62 1682.66  54
  -1   2  16 7336.02 1341.96  21
   1   2 -16 6078.49 1198.69  47
  -1   2  16 6894.59 1287.92  37
  -1   2  16 7628.87 1290.50  13
  -1   2  16 1871.35 802.633  11
  -1   2  15-173.581 190.688  11
  -1   2  15 141.080 346.552  13
  -1   2  15 170.737 375.125   5
   1   2 -15 212.892 330.744  59
   1   2 -15-290.874 319.539  54
  -1   2  15-144.541 317.570  21
   1   2 -15 144.860 275.630  47
  -1   2  15 423.975 380.289  37
  -1   2  15 242.347 461.123  28
  -1   2  14 4319.47 1134.72   5
   1   2 -14 5396.31 1229.43   3
  -1   2  14 5281.16 1469.98  28
   1   2 -14 3647.42 1307.06  54
  -1   2  14 7166.32 1268.65  21
   1   2 -14 6727.25 1197.34  47
  -1   2  14 7670.89 1300.31  37
  -1   2  14 6691.71 1218.75  13
  -1   2  14 2385.66 885.516  11
  -1   2  13 314.837 387.291   5
   1   2 -13 476.705 390.929   3
  -1   2  13-133.810 255.523  37
  -1   2  13 636.522 571.344  28
   1   2 -13-262.719 500.353  54
  -1   2  13 639.965 487.555  21
   1   2 -13 746.743 432.894  47
  -1   2  13 350.263 509.475  43
  -1   2  13 866.010 451.273  13
  -1   2  13 487.413 399.684  11
   1   2 -12 4228.61 1034.76   3
  -1   2  12 3805.18 993.097   5
  -1   2  12 3467.90 1107.81  28
  -1   2  12 4024.35 912.507  37
   1   2 -12 2888.15 1107.19  54
  -1   2  12 5826.17 1020.47  21
   1   2 -12 5313.22 985.416  47
  -1   2  12 5003.87 1194.99  43
  -1   2  12 6726.26 1067.10  13
  -1   2  12 1516.42 663.620  11
  -1   2  11 9110.02 1468.85   5
  -1   2  11 5882.46 1446.94  28
   1   2 -11 8899.86 1788.16  54
  -1   2  11 9614.84 1356.04  21
   1   2 -11 9160.63 1290.17  47
  -1   2  11 9100.32 1563.33  43
  -1   2  11 10805.4 1371.64  13
  -1   2  11 4462.06 1135.47  11
   1   2 -10 15721.5 1717.55  47
   1   2 -10 8855.22 1493.61  48
  -1   2  10 15386.0 1746.45  21
  -1   2  10 14383.7 1672.23  13
   1   2 -10 9683.65 1941.11  54
  -1   2   9 9172.67 1202.29  13
   1   2  -9 9871.34 1223.83  47
   1   2  -9 6423.17 1128.96  48
  -1   2   8 19957.6 2112.73  13
   1   2  -8 21776.6 2152.74  47
   1   2  -8 16693.6 2151.85  48
  -1   2   7 27442.2 2607.98  13
   1   2  -7 20700.2 2638.78  48
   1   2  -7 28561.6 2639.45  47
  -1   2   6 1216.89 318.840  13
   1   2  -6 1065.47 404.890  48
   1   2  -6 1211.30 347.603  47
  -1   2   5 10125.9 1091.53  13
   1   2  -5 8470.80 1207.70  48
  -1   2   4 9298.56 933.319  13
   1   2  -4 6146.10 1014.25  48
  -1   2   3 14459.4 1334.97  13
   1   2  -3 10966.3 1463.89  48
  -1   2   2 20206.9 1897.18  13
   1   2  -2 20648.5 2131.00  48
  -1   2   1 47032.6 4490.02   6
   1   2  -1 57208.6 4644.42  19
   1   2   0 32185.9 2959.07  19
  -1   2   0 31540.3 2905.81   6
   1   2   0 30919.0 2856.45  17
   1   2   0 34879.4 3389.92  50
   1   2   0 34877.0 3125.87  48
   1   2   1 18713.0 1938.09  19
  -1   2  -1 20521.1 2139.10  19
  -1   2  -1 23349.6 1973.35   6
   1   2   1 21786.7 2434.90  50
   1   2   1 20193.2 2098.95  48
   1   2   1 20622.2 1901.00  17
   1   2   2 22691.5 2198.94  48
  -1   2  -2 19934.0 2063.01  47
   1   2   2 23943.0 2603.52  50
  -1   2  -2 24260.1 2285.45  19
   1   2   2 21675.1 2016.28  17
   1   2   3-230.892 380.531  50
   1   2   3 44.3080 175.632  48
  -1   2  -3 110.146 151.070  47
   1   2   3 123.855 118.813  17
  -1   2  -3 120.960 265.850  19
  -1   2  -4 25353.3 2481.51  47
   1   2   4 26253.8 2479.26  48
  -1   2  -4 23626.1 2608.50  19
   1   2   4 24007.1 2377.54  17
   1   2   4 28062.8 2469.37  18
  -1   2  -5 11257.1 1319.39  47
   1   2   5 11368.6 1239.52  48
  -1   2  -5 11262.0 1447.76  19
   1   2   5 12202.4 1253.61  22
   1   2   5 11559.4 1269.26  18
   1   2   6 17378.7 2318.72  50
   1   2   6 13424.7 1552.51  48
  -1   2  -6 17235.5 1800.08  47
  -1   2  -6 16299.7 1915.02  19
   1   2   6 18159.4 1708.27  22
   1   2   6 18273.9 1736.67  18
   1   2   7 3245.90 1005.79  50
  -1   2  -7 2880.91 603.753  47
   1   2   7 3852.94 588.554  22
  -1   2  -7 1991.94 603.877  19
   1   2   7 2684.85 522.399  18
   1   2   8 11965.0 2002.44  50
  -1   2  -8 12948.9 1530.38  47
   1   2   8 11976.1 1390.06  18
  -1   2  -8 8363.48 1495.68  19
   1   2   8 13262.6 1437.47  22
  -1   2  -9 13768.2 2272.96  54
   1   2   9 11228.2 1399.54  22
  -1   2  -9 10255.0 1607.53  19
   1   2   9 10110.4 1957.60  50
  -1   2  -9 12019.8 1557.74  47
   1   2   9 11127.9 1452.19  57
  -1   2  -9 9906.99 1809.45  56
   1   2   9 12333.1 1411.20  18
  -1   2 -10 987.349 773.303  54
   1   2  10 1624.64 812.300  50
  -1   2 -10 1466.39 511.196  47
  -1   2 -10 763.158 563.262  56
   1   2  10 1319.32 432.605  57
   1   2  10 1676.12 442.298  18
  -1   2 -10 781.944 485.005  19
   1   2  10 1299.07 436.800  13
   1   2  10 801.663 426.748  21
   1   2  10 978.974 402.953  22
  -1   2 -11 7064.20 1464.91   2
   1   2  11 6513.49 1258.21   5
   1   2  11 8760.26 1296.94  21
   1   2  11 8513.16 1259.81  57
  -1   2 -11 7271.56 1618.22  56
   1   2  11 9355.06 1949.44  50
  -1   2 -11 8459.49 1341.28  47
  -1   2 -11 6542.52 1482.18  38
   1   2  11 11628.2 1408.19  13
  -1   2 -11 7561.70 1407.64  19
  -1   2 -12 1270.42 659.130   2
   1   2  12 1917.86 658.320   5
   1   2  12 3931.67 804.958  21
  -1   2 -12 1562.99 800.299  56
   1   2  12 3287.48 714.202  57
  -1   2 -12 2473.17 713.520  47
   1   2  12 2975.26 1129.09  50
  -1   2 -12 3124.95 979.546  38
   1   2  12 2435.34 661.889  13
  -1   2 -12 1540.28 641.110  19
  -1   2 -13 5281.26 1352.12   2
   1   2  13 10190.0 1554.84   5
   1   2  13 10487.2 1519.81  21
   1   2  13 8681.19 1377.05  57
  -1   2 -13 7058.04 1658.49  56
  -1   2 -13 9231.23 1804.26  59
  -1   2 -13 10498.7 1585.50  47
  -1   2 -13 9096.06 1811.00  38
   1   2  13 11213.9 1529.46  13
  -1   2 -13 6704.16 1424.97  19
  -1   2 -14 4350.98 1133.01   2
   1   2  14 6352.57 1225.13   5
   1   2  14 7024.30 1222.83  21
  -1   2 -14 3738.15 1219.01  59
  -1   2 -14 2897.74 1152.47  56
   1   2  14 5942.92 1097.13  57
  -1   2 -14 7501.52 1336.47  47
  -1   2 -14 7498.52 1590.20  38
   1   2  14 5924.62 1154.06  13
  -1   2 -14 3708.72 1045.91  19
  -1   2 -15 9329.20 1742.44   2
   1   2  15 11092.3 1711.37   5
  -1   2 -15 9195.03 1912.67  59
  -1   2 -15 8095.27 1900.12  56
  -1   2 -15 11912.6 1825.51  47
   1   2  15 14790.7 1871.75  21
  -1   2 -15 11006.5 2044.00  38
  -1   2 -15 8725.12 1676.33  19
   1   2  15 10778.1 1683.23  13
   1   2  16 7645.25 1334.85  21
  -1   2 -16 5099.71 1204.66  42
  -1   2 -16 5240.16 1354.04  38
  -1   2 -16 6189.46 1499.26  59
  -1   2 -16 5803.04 1471.93  56
  -1   2 -16 5094.62 1185.40  47
   1   2  17 1069.33 504.516  21
  -1   2 -17 2342.66 759.364  42
  -1   2 -17 1750.26 751.698  38
  -1   2 -17 1881.46 838.441  59
  -1   2 -17 1371.94 726.143  56
   1   2  18 4150.05 877.781  21
  -1   2 -18 1568.77 670.166  56
  -1   2 -18 2260.66 795.576  59
  -1   2 -18 1193.28 647.370  38
  -1   2 -18 4219.04 957.316  42
  -1   2 -18 1133.69 843.744  54
   1   2  19 271.427 335.857  11
  -1   2 -19 472.856 582.199  54
  -1   2 -19 642.266 500.572  59
   1   2  19 523.161 365.766  21
  -1   2 -19 951.767 472.991  42
   1   2  19 178.335 481.609  35
  -1   2 -20 2043.94 644.781  59
   1   2  20 2816.67 591.628  21
  -1   2 -20 1208.46 470.280  42
  -1   2 -20 916.324 571.333  54
   1   2  20 1837.58 696.001  35
  -1   2 -21 2698.35 753.643  54
   1   2  21 2592.70 676.714  35
  -1   2 -21 2564.54 651.543  59
   1   3 -21 1151.94 441.290  59
   1   3 -21 614.518 299.364  38
  -1   3  21 1093.98 469.124  35
   1   3 -20 1270.88 538.462  54
   1   3 -20 2604.27 730.283  59
  -1   3  20 2732.92 638.257   5
   1   3 -20 2969.63 775.596  38
  -1   3  20 1701.73 666.918  35
   1   3 -19 642.023 563.659  54
   1   3 -19 624.644 461.323  59
  -1   3  19 1157.35 482.825   5
   1   3 -19 1602.53 645.467  38
  -1   3  19 1075.15 627.942  35
  -1   3  18-141.161 310.144  11
   1   3 -18 183.788 403.799  59
   1   3 -18-198.404 487.364  54
  -1   3  18 557.467 459.303   5
   1   3 -18 704.758 580.658  38
  -1   3  18 209.596 398.806  35
   1   3 -17 819.428 597.764  59
   1   3 -17 454.622 502.224  54
  -1   3  17 630.244 492.424   5
   1   3 -17 131.494 357.775   2
  -1   3  17 1432.78 543.393  21
  -1   3  17 1153.58 718.827  35
  -1   3  17 657.146 445.236  11
   1   3 -16-152.199 236.515   2
  -1   3  16-169.214 371.819   5
   1   3 -16 871.178 633.039  59
   1   3 -16-245.359 466.885  54
  -1   3  16 638.515 443.662  21
  -1   3  16 144.803 275.574  37
  -1   3  16-180.006 342.548  11
  -1   3  15 6264.54 1340.08   5
   1   3 -15 6897.83 1548.76  59
   1   3 -15 5045.71 1451.96  54
  -1   3  15 6507.69 1172.01  21
   1   3 -15 6012.34 1166.03  47
  -1   3  15 5447.78 1173.13  37
  -1   3  15 2441.68 932.236  11
  -1   3  15 4976.59 1044.90  13
  -1   3  14 14201.2 1742.24  13
  -1   3  14 4898.35 1384.90  11
   1   3 -14 5987.23 1711.40  54
  -1   3  14 10839.2 1593.76  21
   1   3 -14 12605.3 1717.32  47
  -1   3  14 10802.2 1697.82  37
  -1   3  14 9848.15 1757.66   5
   1   3 -14 11816.3 1934.99   3
  -1   3  13 1649.19 780.300  11
  -1   3  13 6817.32 1116.63  13
   1   3 -13 4786.10 1375.09  54
  -1   3  13 8473.93 1263.18  21
   1   3 -13 6255.82 1113.52  47
  -1   3  13 6084.75 1232.36  37
  -1   3  13 5495.84 1197.93   5
   1   3 -13 3801.85 1119.52   3
  -1   3  12 283.043 348.164  37
   1   3 -12 224.424 247.282  54
  -1   3  12 336.346 326.423  21
   1   3 -12 225.924 215.788  47
  -1   3  12 157.025 299.390   5
   1   3 -12 184.981 352.491   3
  -1   3  12 216.502 238.606  13
  -1   3  12 174.170 331.953  11
  -1   3  11 4379.79 959.105  37
   1   3 -11 3106.41 1011.17  54
  -1   3  11 4380.57 868.696  21
   1   3 -11 3983.68 810.833  47
  -1   3  11 6064.34 954.242  13
  -1   3  11 1465.67 665.501  11
   1   3 -11 3538.58 1017.48   3
   1   3 -10 2674.65 909.305   3
  -1   3  10 4551.11 932.760  37
   1   3 -10 2267.74 904.208  54
  -1   3  10 4560.27 822.925  21
   1   3 -10 4004.73 790.424  47
  -1   3  10 4155.65 1007.63  43
  -1   3  10 4090.86 766.659  13
  -1   3  10 1807.12 684.163  11
  -1   3   9 291.768 282.948  57
   1   3  -9-171.131 376.198  54
   1   3  -9 127.482 313.399  48
   1   3  -9 551.209 287.173  47
  -1   3   9 607.403 353.302   5
  -1   3   9-138.283 304.076  11
  -1   3   9 688.103 325.533  13
  -1   3   8 15059.1 1875.55  20
  -1   3   8 14792.0 1865.03  57
  -1   3   8 17115.7 1805.25  13
   1   3  -8 12037.4 1932.27  48
   1   3  -8 18644.3 1850.76  47
  -1   3   7 15899.8 1660.98  13
   1   3  -7 11575.8 1839.99  48
   1   3  -7 16051.0 1684.46  47
   1   3  -6 12846.5 1825.14  48
   1   3  -6 16061.8 1588.26  47
  -1   3   6 14621.6 1546.97  13
  -1   3   6 12718.9 1642.08  51
   1   3  -5 8203.28 1396.89  48
   1   3  -5 11910.9 1210.11  47
  -1   3   5 11559.0 1190.68  13
  -1   3   5 9526.92 1282.23  51
   1   3  -4 10993.8 1706.14  48
   1   3  -4 15134.5 1475.28  47
  -1   3   4 14764.9 1448.43  13
  -1   3   4 14763.2 1615.34  51
  -1   3   3 1630.27 396.130  51
   1   3  -3 1672.87 529.781  48
   1   3  -3 1919.34 268.506  51
   1   3  -3 1252.81 427.613  19
  -1   3   3 1533.35 284.329  13
   1   3  -3 1628.19 266.081  18
   1   3  -2 17034.2 1886.48  19
   1   3  -2 15948.5 1521.19  51
  -1   3   2 18327.1 1782.72  51
   1   3  -2 17994.5 1626.05  18
   1   3  -1 22053.9 2449.46  48
   1   3  -1 23503.1 2333.81  19
   1   3  -1 19493.2 1967.91  51
  -1   3   1 28401.4 2292.77  51
   1   3  -1 25560.0 2041.71  17
   1   3  -1 28361.0 2176.72  18
   1   3   0 10008.2 1371.74  48
   1   3   0 12018.2 1288.12  19
  -1   3   0 10395.7 1180.19  51
   1   3   0 11537.8 1146.63  18
   1   3   0 10135.7 1005.71  17
  -1   3  -1 4426.25 635.568  51
   1   3   1 5113.95 698.025  19
  -1   3  -1 3546.56 491.109   6
   1   3   1 5345.66 626.611  18
   1   3   1 4106.89 466.344  17
   1   3   1 4466.68 784.485  48
  -1   3  -2 13633.4 1410.60  51
  -1   3  -2 13218.6 1278.11   6
   1   3   2 13250.5 1569.57  48
   1   3   2 12308.1 1355.53  18
   1   3   2 12128.9 1220.32  17
   1   3   3 17594.0 1897.59  48
  -1   3  -3 18589.6 1794.76  51
   1   3   3 14654.2 1572.96  22
   1   3   3 18071.0 1750.27  18
  -1   3  -4 1059.69 326.918  51
   1   3   4 806.616 346.446  48
  -1   3  -4 509.521 244.768  47
   1   3   4 1211.03 260.825  22
   1   3   4 981.195 304.000  18
  -1   3  -4 658.077 379.703  19
  -1   3  -5 6195.22 1073.59  19
   1   3   5 6715.84 797.050  22
   1   3   5 5784.35 898.470  48
  -1   3  -5 6380.13 857.088  47
  -1   3  -6 4911.34 787.552  47
   1   3   6 6490.26 884.522  18
  -1   3  -6 6162.50 1077.35  19
   1   3   6 5312.22 750.135  22
  -1   3  -7 9939.50 1783.28  54
  -1   3  -7 8745.24 1445.29  19
   1   3   7 10645.3 1203.52  22
  -1   3  -7 9984.61 1271.98  47
  -1   3  -7 5241.48 1332.61  56
   1   3   7 10483.0 1347.60  57
   1   3   7 13425.4 1381.41  18
   1   3   7 8769.04 1469.25  15
  -1   3  -8 12940.1 2144.66  54
  -1   3  -8 11087.2 1699.16  19
   1   3   8 12288.8 1493.78  20
  -1   3  -8 11105.3 1484.98  47
   1   3   8 12918.5 1571.86  57
   1   3   8 14071.6 1541.44  18
   1   3   8 13670.0 1487.62  13
  -1   3  -9 9638.28 1629.38  19
   1   3   9 11615.2 1431.63  20
   1   3   9 10844.1 1424.76  21
  -1   3  -9 8724.36 1664.24   2
   1   3   9 11004.6 1629.20   5
  -1   3  -9 10800.1 1471.42  47
  -1   3  -9 6131.77 1551.31  56
   1   3   9 11549.3 1527.01  57
   1   3   9 12169.8 1482.69  18
   1   3   9 12941.5 1473.58  13
  -1   3 -10 5829.43 1367.39  56
  -1   3 -10 5211.69 1280.27  59
   1   3  10 7205.48 1133.62  57
   1   3  10 6689.78 1061.25  21
   1   3  10 6452.89 1025.34  20
  -1   3 -10 4639.38 1169.73   2
   1   3  10 3925.63 1009.37   5
  -1   3 -10 6506.54 1097.86  47
  -1   3 -10 7945.19 1234.10  42
  -1   3 -10 5672.26 1234.05  19
   1   3  10 7488.62 1093.48  13
  -1   3 -11 3125.52 997.925  59
  -1   3 -11 2285.59 896.799  56
   1   3  11 2638.99 715.936  57
   1   3  11 5331.41 934.895  21
   1   3  11 2657.72 634.841  20
   1   3  11 3931.38 927.323   5
  -1   3 -11 2268.71 858.141   2
  -1   3 -11 3502.30 796.270  47
  -1   3 -11 4668.18 949.137  42
  -1   3 -11 3513.42 1051.55  38
  -1   3 -11 3453.48 977.769  19
   1   3  11 2805.68 697.715  13
  -1   3 -12 7955.51 1755.85  59
  -1   3 -12 5701.67 1598.36  56
   1   3  12 12743.8 1638.04  57
   1   3  12 12860.6 1645.05  21
  -1   3 -12 6706.06 1593.61   2
   1   3  12 11010.6 1762.61   5
  -1   3 -12 11244.6 1633.09  47
  -1   3 -12 14046.0 1851.03  42
  -1   3 -12 11175.2 2057.26  38
  -1   3 -12 9402.97 1728.51  19
   1   3  12 10547.4 1527.25  13
  -1   3 -13 2642.58 938.067  59
  -1   3 -13 2268.31 931.582  56
   1   3  13 2756.58 738.930  57
   1   3  13 3764.34 837.406  21
   1   3  13 2478.48 781.564   5
  -1   3 -13 2767.45 939.261   2
  -1   3 -13 2740.05 777.350  47
  -1   3 -13 3420.68 1091.02  38
  -1   3 -13 4482.52 1022.11  42
  -1   3 -13 2894.24 922.172  19
   1   3  13 2406.98 692.922  13
   1   3  14 761.402 425.576  13
  -1   3 -14 549.035 409.742  19
   1   3  14 944.353 552.415   5
  -1   3 -14 365.649 455.955   2
  -1   3 -14 904.591 662.001  59
  -1   3 -14 456.300 507.422  56
   1   3  14 1210.74 503.860  57
   1   3  14 1398.44 564.167  21
  -1   3 -14 1574.03 572.226  47
  -1   3 -14 2084.08 884.728  38
  -1   3 -14 1195.20 573.974  42
   1   3  14 1390.59 808.980  35
   1   3  15 3448.97 832.974  13
  -1   3 -15 3943.61 1035.34  19
  -1   3 -15 3144.04 934.729   2
  -1   3 -15 4053.35 1187.44  59
   1   3  15 3320.27 810.948  57
  -1   3 -15 2203.68 908.607  56
  -1   3 -15 602.974 626.722  54
   1   3  15 4881.21 969.461  21
  -1   3 -15 3327.78 863.604  47
  -1   3 -15 3645.53 1174.46  38
  -1   3 -15 3432.88 918.339  42
   1   3  15 3728.27 1226.90  35
  -1   3 -16 605.682 509.704  56
  -1   3 -16 289.765 788.551  54
  -1   3 -16 1111.86 564.192   2
   1   3  16 4099.17 860.267  21
  -1   3 -16 1078.57 680.507  38
  -1   3 -16 3431.03 882.285  42
   1   3  16 1355.44 793.549  35
  -1   3 -17 2661.07 1032.65  54
  -1   3 -17 1032.80 631.225  56
   1   3  17 3989.55 836.323  21
  -1   3 -17 3252.36 845.508  42
  -1   3 -17 2730.37 955.506  38
   1   3  17 1886.05 822.709  35
   1   3  18 3505.86 1036.15  35
  -1   3 -18 4884.18 905.339  42
  -1   3 -18 3003.74 959.242  38
   1   3  18 1250.76 608.999  11
  -1   3 -18 1854.19 976.723  54
  -1   3 -19 1897.22 812.577  54
   1   3  19 502.092 376.571  11
   1   3  19 2134.81 696.948  35
  -1   3 -19 1435.87 597.528  59
  -1   3 -20-143.062 272.213  54
  -1   3 -20 109.934 241.540  59
   1   3  20 91.4223 200.868  11
   1   3  20-115.394 310.515  35
  -1   3 -21 374.651 309.360  54
   1   3  21 401.682 250.460   7
   1   3  21 108.570 134.917  11
   1   3  21 512.839 267.718  35
  -1   3 -21 220.283 214.400  59
   1   4 -21 236.247 195.694  59
   1   4 -20-91.3391 224.397  38
  -1   4  20 197.583 242.701  35
  -1   4  19 292.216 283.990   5
  -1   4  19 1095.37 521.532  35
   1   4 -19 257.416 316.952  38
   1   4 -19 111.754 213.813  54
  -1   4  18 243.356 267.342   5
   1   4 -18-99.0880 188.545   2
  -1   4  18 169.456 322.433  35
   1   4 -18 162.698 309.576  38
   1   4 -18-150.697 405.511  54
   1   4 -17 182.127 530.165  54
  -1   4  17 586.442 568.922  35
  -1   4  17 852.681 518.620   5
   1   4 -17 264.113 325.716   2
   1   4 -17 576.764 518.169  38
  -1   4  17 155.125 296.623  11
   1   4 -16 2260.31 879.395  54
   1   4 -16 2927.36 1031.64  59
  -1   4  16 184.505 363.671   7
   1   4 -16 1425.39 584.796   2
  -1   4  16 2049.20 699.134   5
  -1   4  16 2565.27 944.141  35
  -1   4  16 1054.70 587.046  11
  -1   4  15 758.522 520.296  11
   1   4 -15 1541.20 844.001  54
   1   4 -15 1779.04 816.586  59
  -1   4  15 807.012 635.065   7
  -1   4  15 1839.34 718.656   5
  -1   4  15 1521.01 676.045  37
  -1   4  15 895.297 610.799  35
   1   4 -14 1472.01 738.967  19
  -1   4  14 1571.23 691.328  11
   1   4 -14 1811.76 794.589  54
   1   4 -14 1367.86 759.547  59
   1   4 -14 1497.11 751.285   3
  -1   4  14 841.218 528.477   7
  -1   4  14 1102.79 609.785  37
  -1   4  14 1357.10 753.701  35
   1   4 -13 3383.69 1159.60  54
  -1   4  13 2445.14 911.183  35
   1   4 -13 2989.25 944.177  34
   1   4 -13 2867.99 1026.45   3
  -1   4  13 3807.91 1138.98   7
  -1   4  13 4420.86 1023.64  37
   1   4 -13 3931.74 1091.78  19
  -1   4  13 1180.80 654.973  11
   1   4 -12-219.263 419.880  54
  -1   4  12 1498.02 666.625  35
   1   4 -12 657.780 544.018  34
  -1   4  12 1036.93 604.620   7
   1   4 -12 1326.40 769.425   3
  -1   4  12 3267.51 862.039   5
  -1   4  12 2158.12 720.019  37
   1   4 -12 1192.19 656.551  19
   1   4 -11 209.389 463.675  54
   1   4 -11 501.655 414.818  34
  -1   4  11 609.510 450.121  35
  -1   4  11 1597.87 696.269   7
   1   4 -11 1515.83 754.487   3
  -1   4  11 1083.42 513.352   5
  -1   4  11 590.010 401.110  37
  -1   4  11 1050.02 640.238  43
   1   4 -11 376.593 417.735  19
   1   4 -10 2824.73 889.692  19
   1   4 -10 1185.55 714.446  54
  -1   4  10 3086.57 752.664  57
  -1   4  10 1521.71 779.038   7
   1   4 -10 2711.45 937.688   3
  -1   4  10 2893.84 819.089   5
  -1   4  10 3911.94 967.999  43
  -1   4  10 1721.51 837.606  35
   1   4 -10 2001.89 781.170  34
  -1   4   9 1628.20 684.470  11
   1   4  -9 2960.00 877.445  19
  -1   4   9 4735.91 895.482  57
  -1   4   9 5159.04 967.362  58
   1   4  -9 2406.62 863.899  54
  -1   4   9 3059.77 971.939   7
  -1   4   9 4014.67 940.333   5
   1   4  -9 4363.51 1148.45   3
  -1   4   9 3752.69 963.088  43
   1   4  -9 3450.62 982.003  34
  -1   4   9 4125.18 1082.39  35
  -1   4   9 3764.27 903.645  37
   1   4  -8 765.085 483.829  19
  -1   4   8 454.730 382.980  11
  -1   4   8 1229.42 513.230   5
  -1   4   8 2037.24 727.858   7
   1   4  -8 1309.30 622.913   3
  -1   4   8 1659.98 551.026  58
  -1   4   8 1316.33 453.881  57
   1   4  -8 864.410 544.603  54
  -1   4   8 813.853 381.346  20
  -1   4   8 1370.92 570.589  43
  -1   4   8 671.907 529.576  35
  -1   4   8 1443.48 536.128  37
  -1   4   7 11693.1 1620.36   5
  -1   4   7 13305.2 1575.99  57
   1   4  -7 9043.36 1712.61  54
   1   4  -7 12327.1 1776.96  19
   1   4  -7 12335.3 1867.73  48
  -1   4   7 13872.3 1713.70  37
  -1   4   7 12061.9 1715.32  15
  -1   4   7 5905.92 1397.70  11
   1   4  -6 7419.76 1416.02  54
  -1   4   6 9007.25 1207.49  51
  -1   4   6 8691.61 1219.16  20
  -1   4   6 6616.16 1082.93  57
   1   4  -6 9329.18 1568.51  48
   1   4  -6 7459.96 913.798  51
  -1   4   6 7148.75 1263.80  15
   1   4  -6 6809.65 1284.10  19
  -1   4   5 1900.55 510.596  51
   1   4  -5 1747.30 673.427  48
   1   4  -5 1433.26 296.113  51
  -1   4   5 1193.01 430.163  20
   1   4  -5 2172.89 636.732  19
  -1   4   5 2181.46 620.022  15
   1   4  -4 110.873 298.830  19
  -1   4   4 219.214 227.678  51
   1   4  -4 208.901 104.812  51
   1   4  -4 136.928 368.849  48
   1   4  -3 6305.41 1145.88  19
  -1   4   3 8852.34 1112.75  51
   1   4  -2-93.0033 204.345  19
  -1   4   2 126.472 196.493  51
   1   4  -1 27806.1 3355.87  48
   1   4  -1 32656.8 3253.38  19
  -1   4   1 31740.2 3080.97  51
   1   4   0 11858.8 1712.73  48
   1   4   0 12165.8 1548.12  19
  -1   4   0 12111.6 1422.87  51
   1   4   0 12431.7 1361.02  18
   1   4   1 17454.1 2131.88  48
  -1   4  -1 16483.4 1801.45  51
   1   4   1 16075.9 1747.53  18
   1   4   2 3864.73 889.512  48
  -1   4  -2 5807.81 799.976  51
  -1   4  -2 3678.42 887.248  19
   1   4   2 4791.16 718.186  18
   1   4   3 9148.67 1384.59  48
   1   4   3 9894.07 1183.65  18
  -1   4  -3 8358.70 1146.09  51
  -1   4  -4 2541.20 807.242  54
   1   4   4 1934.45 520.801  20
  -1   4  -4 2575.11 547.485  51
   1   4   4 2363.27 555.596  57
  -1   4  -4 1084.08 563.584  56
   1   4   4 1511.32 439.708  18
   1   4   4 2525.18 699.929  15
  -1   4  -5 1080.88 629.872  54
  -1   4  -5 657.034 318.700  51
   1   4   5 613.159 327.029  57
  -1   4  -5 647.104 475.585  56
   1   4   5 923.921 352.543  20
   1   4   5 1204.69 385.699  18
   1   4   5 1067.71 512.882  15
  -1   4  -6 16171.5 1748.22  51
   1   4   6 18074.0 1896.11  57
   1   4   6 15075.0 1728.21  18
   1   4   6 13685.3 1987.94  15
   1   4   6 14963.9 1750.29  20
  -1   4  -6 11510.4 1905.26  19
  -1   4  -7 5340.49 1167.08  19
   1   4   7 5377.31 1181.51  15
  -1   4  -7 3579.04 1079.67  56
   1   4   7 6011.00 994.456  20
  -1   4  -7 7927.78 1068.38  51
  -1   4  -7 7591.46 1451.28  38
  -1   4  -7 4250.90 1155.42  34
   1   4   7 6215.98 1308.94  35
  -1   4  -8 2913.81 851.228  19
   1   4   8 2839.24 761.815   5
  -1   4  -8 755.593 611.032  56
  -1   4  -8 2574.50 846.320  59
   1   4   8 1981.93 583.601  20
  -1   4  -8 1316.63 675.136  38
  -1   4  -8 2220.14 835.233  34
   1   4   8 2744.98 869.665  35
  -1   4  -9 8912.54 1712.67  19
   1   4   9 10820.4 1715.01   5
  -1   4  -9 8227.08 1707.55   2
  -1   4  -9 11153.6 1888.76  59
   1   4   9 15098.8 1759.45  57
  -1   4  -9 6176.82 1620.74  56
   1   4   9 12641.3 1572.32  20
  -1   4  -9 11192.2 1975.98  38
   1   4   9 11234.5 1947.95  35
  -1   4 -10 4694.27 1194.67  19
  -1   4 -10 3914.09 1184.31   2
   1   4  10 8708.95 1441.61   5
  -1   4 -10 5022.76 1334.13  56
   1   4  10 7347.05 1198.97  57
  -1   4 -10 5385.80 1311.68  59
   1   4  10 5565.95 1034.25  20
  -1   4 -10 8718.33 1681.35  38
   1   4  10 5312.42 1344.96  35
  -1   4 -11 1130.74 622.761  19
  -1   4 -11 404.100 387.146   2
  -1   4 -11 1234.86 716.422  59
  -1   4 -11 217.855 480.818  56
   1   4  11 500.992 391.831  57
   1   4  11 1003.21 399.969  20
  -1   4 -11 230.332 440.630  38
   1   4  11 214.080 409.886  35
  -1   4 -12 216.051 414.938  59
  -1   4 -12 893.610 603.789  56
   1   4  12 1153.24 490.874  57
  -1   4 -12 819.105 597.845   2
   1   4  12 443.541 490.503  35
  -1   4 -12 775.679 566.439  19
  -1   4 -13 1955.01 810.662  19
  -1   4 -13 2177.80 975.639  54
  -1   4 -13 2687.89 951.430  56
   1   4  13 3336.20 832.697  57
  -1   4 -13 3765.99 1166.39  59
  -1   4 -13 1822.45 894.320   2
  -1   4 -13 3768.70 842.827  42
   1   4  13 3387.81 1107.78  35
  -1   4 -14 270.441 424.500  54
   1   4  14 1126.02 517.821  57
  -1   4 -14 435.163 481.873  56
  -1   4 -14 1323.30 768.565  59
  -1   4 -14 388.269 480.712   2
  -1   4 -14 2390.83 948.914  38
  -1   4 -14 1390.84 528.460  42
   1   4  14 224.671 497.328  35
   1   4  15-196.012 312.915  11
  -1   4 -15 1563.90 994.505  54
  -1   4 -15 2120.78 934.688  59
  -1   4 -15 2024.40 864.316  56
   1   4  15 2478.81 665.104  57
  -1   4 -15 1431.55 655.940   2
  -1   4 -15 2958.95 1002.76  38
   1   4  15 867.294 587.871  35
   1   4  16 1088.32 588.510  11
  -1   4 -16 1209.48 815.007  54
  -1   4 -16 3329.96 1000.54  59
  -1   4 -16 1242.66 639.545  56
  -1   4 -16 2980.81 861.143   2
  -1   4 -16 3952.70 1155.18  38
   1   4  16 4032.19 1120.27  35
   1   4  17-159.417 350.624  11
  -1   4 -17 644.299 472.136  54
  -1   4 -17 863.811 537.041  59
  -1   4 -17 142.354 271.340  56
  -1   4 -17 181.352 345.440  38
   1   4  17 717.104 521.311  35
   1   4  18 1146.58 569.534   7
  -1   4 -18 144.321 225.525  59
   1   4  18 301.766 406.734  35
   1   4  19 634.819 443.500   7
  -1   4 -19 448.745 329.359  59
   1   4  19 588.321 431.215  35
  -1   4 -19 566.432 383.871  54
   1   4  20 169.742 208.500   7
  -1   4 -20 98.1342 186.747  54
   1   4  20-66.7019 103.669  11
  -1   4 -20 384.452 280.163  59
   1   5 -19 170.714 248.103  59
   1   5 -19-93.2916 229.180  38
  -1   5  19-70.1462 172.331  16
   1   5 -18 1432.44 495.170  54
   1   5 -18 2137.67 663.016  59
   1   5 -18 1703.62 494.372   2
   1   5 -18 2190.69 717.693  38
  -1   5  18 708.799 387.537  16
   1   5 -17 584.372 395.381   2
   1   5 -17 1637.12 660.047  59
   1   5 -17 1331.20 573.369  54
  -1   5  17 1346.77 621.524  35
   1   5 -16 740.287 521.889   2
   1   5 -16 2275.34 820.532  59
   1   5 -16 488.082 513.197  54
  -1   5  16 1913.11 792.705  35
  -1   5  15 5690.91 1347.16   7
   1   5 -15 4540.68 1203.53   2
   1   5 -15 6308.00 1417.95  54
  -1   5  15 8082.39 1649.47  35
  -1   5  14 765.621 600.898   7
  -1   5  14 1081.34 617.864   5
   1   5 -14 2736.91 984.987  59
  -1   5  14 1639.98 751.823  35
   1   5 -14 403.565 503.053  54
  -1   5  13 580.400 480.440  11
   1   5 -13 1058.83 661.762  54
   1   5 -13 873.452 541.008  59
   1   5 -13 943.731 583.826   3
  -1   5  13 635.098 498.353   5
  -1   5  13 407.165 552.336   7
  -1   5  13 1857.47 683.818  37
  -1   5  13 1059.41 662.117  35
   1   5 -13 681.052 499.866  34
   1   5 -12 864.959 597.826  54
   1   5 -12 3076.00 1033.18  59
  -1   5  12 1260.11 705.609   7
   1   5 -12 2205.88 942.747   3
  -1   5  12 2382.66 792.343   5
   1   5 -12 2604.01 877.686  34
  -1   5  12 1925.00 825.429  35
  -1   5  12 1176.40 624.463  11
   1   5 -12 1182.90 627.749  19
   1   5 -11 2972.05 1076.58   3
  -1   5  11 4444.58 1160.18   7
  -1   5  11 3261.32 897.433   5
   1   5 -11 3929.03 1142.86  34
  -1   5  11 2969.95 1013.02  35
  -1   5  11 1360.07 710.074  11
   1   5 -11 2716.34 906.061  19
   1   5 -11 1514.26 818.430  54
   1   5 -10 213.286 405.844  54
   1   5 -10 202.331 444.555  34
  -1   5  10 207.820 395.445  35
  -1   5  10 149.194 231.814   5
  -1   5  10 209.767 609.694   7
   1   5 -10 244.666 465.549   3
  -1   5  10 298.411 327.839  37
   1   5 -10-188.416 358.524  19
  -1   5  10-189.293 207.978  11
   1   5  -9 9606.83 1741.26  19
  -1   5   9 4007.39 1301.42  11
  -1   5   9 13299.0 1676.13  57
   1   5  -9 8750.50 1819.86  54
  -1   5   9 10292.3 1885.79   7
  -1   5   9 15558.0 1913.63   5
  -1   5   9 13531.6 1786.07  37
  -1   5   9 11109.0 1960.51  35
   1   5  -9 10625.2 1953.60  34
  -1   5   8 4692.20 1416.01  11
  -1   5   8 16431.1 1923.22  58
  -1   5   8 14847.1 1758.39  57
   1   5  -8 11950.0 2059.54  54
  -1   5   8 7224.35 1707.74   7
  -1   5   8 13409.3 1804.90   5
   1   5  -8 12476.9 1933.43  19
  -1   5   8 15479.0 1905.27  37
   1   5  -8 7629.18 1805.53  41
  -1   5   8 15000.1 2012.20  43
   1   5  -8 10369.3 2041.52  34
  -1   5   8 12115.9 2047.77  35
   1   5  -7 165.373 406.233  19
  -1   5   7 154.940 294.820  15
  -1   5   7-164.842 313.660  11
  -1   5   7 116.679 286.622  58
  -1   5   7-105.093 258.164  57
   1   5  -7-196.709 305.612  54
   1   5  -7 431.524 474.054   3
  -1   5   7 123.694 384.343   5
  -1   5   7 194.923 370.894   7
  -1   5   7-114.786 252.206  20
  -1   5   7-133.925 294.254  43
  -1   5   7 252.545 339.791  37
   1   5  -7 221.913 487.569  41
  -1   5   7 565.925 507.618  35
  -1   5   6 7938.99 1645.57   7
   1   5  -6 9750.45 1812.22   3
  -1   5   6 8129.76 1369.93   5
  -1   5   6 9581.68 1423.31  58
  -1   5   6 10036.5 1369.80  57
   1   5  -6 7659.62 1621.93  54
  -1   5   6 9371.14 1410.17  20
  -1   5   6 10128.5 1523.25  43
  -1   5   6 10486.9 1501.28  37
  -1   5   6 7677.53 1476.93  15
   1   5  -6 8007.07 1523.29  19
   1   5  -5 761.708 556.663   3
  -1   5   5 549.822 454.114   7
  -1   5   5 315.615 311.513   5
  -1   5   5 1519.86 475.979  58
  -1   5   5 1492.04 456.129  57
   1   5  -5 749.547 547.877  54
  -1   5   5 316.520 290.074  20
  -1   5   5 567.797 349.889  51
  -1   5   5 1204.02 484.641  37
   1   5  -5 594.845 404.564  19
  -1   5   5 879.781 459.473  15
  -1   5   4 4331.81 820.339  58
  -1   5   4 4500.37 776.058  57
   1   5  -4 3510.59 1046.20  54
  -1   5   4 4032.44 833.341  20
  -1   5   4 3966.18 772.036  51
  -1   5   4 3435.33 920.614  15
   1   5  -4 5061.26 1041.03  19
   1   5  -4 1601.69 776.298   3
  -1   5   4 4804.17 1152.56   7
  -1   5   3 259.662 319.401  16
   1   5  -3 663.003 385.800  19
  -1   5   3 561.161 377.911  15
   1   5  -3 367.799 404.424  54
   1   5  -3 92.9834 229.079  20
  -1   5   3 384.639 317.393  20
  -1   5   3 687.850 341.011  51
  -1   5   3 237.663 639.763  41
  -1   5   3-173.167 191.039   7
   1   5  -3 165.985 316.313   3
  -1   5   2 12001.6 1859.69  15
  -1   5   2 6233.27 1471.90  16
   1   5  -2 15987.4 1637.04  57
  -1   5   2 15751.1 1682.52  51
  -1   5   2 9802.73 2064.65  54
   1   5  -2 13868.0 2155.49  54
  -1   5   2 10662.3 1949.51   7
   1   5  -2 15165.6 1898.27  19
   1   5  -2 14250.5 1709.72  20
  -1   5   2 14195.0 1688.03  20
  -1   5   2 11254.3 2208.05  41
   1   5  -2 14144.8 2167.54  29
   1   5  -1 8801.44 1362.08  19
   1   5  -1 9124.14 1173.73  57
  -1   5   1 8111.60 1144.62  51
   1   5  -1 8260.70 1646.15  54
  -1   5   1 8602.83 1748.94  54
  -1   5   1 6655.38 1434.92   7
   1   5  -1 5154.93 1258.08   7
  -1   5   1 8184.68 1193.81  20
   1   5  -1 9033.08 1274.95  20
  -1   5   1 6508.05 1621.40  41
   1   5  -1 7584.66 1499.44  29
   1   5   0 7689.05 1562.98  54
  -1   5   0 7370.92 1075.12  51
  -1   5   0 7493.13 1627.12  54
   1   5   0 7244.16 1067.05  57
  -1   5   0 6277.39 1039.14  20
   1   5   0 7261.89 1165.40  20
  -1   5   0 6308.08 1662.02  41
   1   5   0 5594.95 1286.17   7
   1   5   1 20489.4 2856.36   7
   1   5   1 25180.5 2535.12  57
  -1   5  -1 22695.0 3163.60  54
  -1   5  -1 23965.8 2453.62  51
  -1   5  -1 23200.5 2448.85  20
  -1   5  -1 14902.9 3087.43  41
   1   5   1 19979.2 2706.28  15
   1   5   2 175.041 333.190   7
   1   5   2 367.570 247.451  57
  -1   5  -2 210.061 461.619  54
  -1   5  -2 235.129 211.111  51
  -1   5  -2 324.976 399.250  34
   1   5   2-150.800 287.087  15
  -1   5  -3 6190.41 1287.60  19
   1   5   3 4969.47 1143.08  15
   1   5   3 4715.35 1200.73   7
  -1   5  -3 2135.99 839.823   2
   1   5   3 6649.83 1040.81  57
  -1   5  -3 6515.11 930.819  51
   1   5   3 4854.57 940.169  20
  -1   5  -3 4468.47 1371.90  41
  -1   5  -3 4950.60 1169.31  34
  -1   5  -4 1549.37 686.217  19
   1   5   4 1120.36 533.080  15
   1   5   4 375.961 468.155   7
  -1   5  -4 657.465 448.962   2
   1   5   4 1351.67 463.345  57
   1   5   4 2055.61 599.241  20
  -1   5  -4 1233.58 430.707  51
  -1   5  -4 250.489 396.721  41
  -1   5  -4 536.335 525.307  34
   1   5   5 15364.1 2034.84  15
   1   5   5 4740.47 1257.22  11
  -1   5  -5 11265.9 1872.53   2
   1   5   5 12862.2 2028.28   7
  -1   5  -5 6116.46 1649.29  56
   1   5   5 14341.7 1702.81  57
  -1   5  -5 17315.9 1649.40  51
   1   5   5 13054.1 1635.51  20
  -1   5  -5 12215.3 1877.83  38
  -1   5  -5 9100.57 2013.20  41
  -1   5  -5 13433.8 2063.71  34
  -1   5  -6 1874.51 724.274   2
   1   5   6 1210.54 676.633   7
   1   5   6 1863.68 585.823  57
  -1   5  -6 1043.32 660.365  56
   1   5   6 1692.57 568.358  20
  -1   5  -6 1882.08 517.441  51
  -1   5  -6 1019.77 802.008  41
  -1   5  -6 1943.39 809.984  38
   1   5   6 794.006 429.873  11
   1   5   6 2045.83 711.888  15
   1   5   7 4436.66 1393.85  11
   1   5   7 19001.9 2318.15  15
  -1   5  -7 6848.88 1798.22  56
   1   5   7 19727.8 2052.39  57
  -1   5  -7 15744.1 1730.90  51
   1   5   7 13355.6 2204.89   7
  -1   5  -7 11898.5 2108.84   2
   1   5   7 15691.1 1840.91  20
  -1   5  -7 17639.0 2327.86  19
  -1   5  -7 15758.9 2295.08  38
   1   5   7 16677.1 2372.90  35
  -1   5  -7 14824.7 2268.49  34
  -1   5  -8 8216.24 1632.06  19
   1   5   8 3230.56 1064.08  11
  -1   5  -8 8738.24 1718.80   2
   1   5   8 8404.42 1739.20   7
   1   5   8 11006.2 1511.64  57
  -1   5  -8 5048.98 1420.22  56
  -1   5  -8 11360.1 1395.93  51
   1   5   8 10503.7 1427.79  20
  -1   5  -8 10964.8 1896.74  38
   1   5   8 10592.5 1865.45  35
  -1   5  -9 201.143 383.153  19
   1   5   9 656.412 403.517  11
   1   5   9 221.820 345.095   7
  -1   5  -9 241.703 297.418   9
  -1   5  -9 448.914 551.661  56
  -1   5  -9 524.400 470.716  59
   1   5   9 230.628 283.843  20
  -1   5  -9 100.729 248.101  51
  -1   5  -9 220.065 342.371  38
   1   5   9-217.113 337.792  35
  -1   5 -10 4099.10 1101.89  19
   1   5  10 692.767 515.176  11
  -1   5 -10 3091.74 1052.43   2
   1   5  10 2496.72 958.447   7
  -1   5 -10 4851.65 1144.05  59
  -1   5 -10 227.865 821.473  56
  -1   5 -10 4606.64 1336.84  54
   1   5  10 3302.75 782.124  20
  -1   5 -10 5180.35 886.912  51
  -1   5 -10 4152.04 1181.80  38
   1   5  10 4862.32 1257.34  35
  -1   5 -11-206.376 320.638  19
   1   5  11-180.054 342.610  11
  -1   5 -11 221.725 421.896   2
   1   5  11 229.988 357.319   7
  -1   5 -11 228.492 502.029  56
   1   5  11 407.667 365.674  57
  -1   5 -11 584.440 478.555  59
  -1   5 -11 257.887 490.701  54
   1   5  11 221.248 271.758  20
  -1   5 -11-105.259 163.558  51
  -1   5 -11-237.434 451.787  38
   1   5  11 222.644 423.645  35
  -1   5 -12 1632.80 715.142  19
   1   5  12 550.273 460.136  11
  -1   5 -12 1783.85 728.164  59
  -1   5 -12 449.764 502.827  56
   1   5  12 1605.27 576.759  57
  -1   5 -12 1279.92 848.778  54
  -1   5 -12 1086.93 681.874   2
   1   5  12 688.987 625.004   7
  -1   5 -12 1051.77 442.281  51
  -1   5 -12 2628.34 1020.89  38
   1   5  12 1546.60 773.191  35
   1   5  13 910.150 539.770  11
  -1   5 -13 747.188 621.083  54
  -1   5 -13 1565.37 720.902  59
   1   5  13 2953.87 740.861  57
  -1   5 -13 862.180 589.784  56
  -1   5 -13 1242.63 727.370   2
  -1   5 -13 1169.82 778.444  38
   1   5  13 1289.25 754.079  35
   1   5  14 3847.78 1140.91  11
  -1   5 -14 6852.33 1674.63  54
   1   5  14 10895.1 1463.98  57
  -1   5 -14 9885.77 1714.62  59
  -1   5 -14 5776.42 1466.41  56
  -1   5 -14 7620.78 1575.24   2
  -1   5 -14 8650.25 1829.55  38
   1   5  14 9165.06 1769.75  35
   1   5  15 1293.29 582.510  11
  -1   5 -15 1086.82 732.865  54
  -1   5 -15 2560.99 810.637  59
  -1   5 -15 2016.01 731.332   2
  -1   5 -15 1822.81 875.489  38
   1   5  15 2992.42 931.762  35
  -1   5 -16 2312.06 889.881  54
  -1   5 -16 3724.32 927.660  59
  -1   5 -16 1685.02 641.105   2
   1   5  16 1141.57 548.273  11
   1   5  16 3634.07 958.844  35
   1   5  17 2057.24 699.593   7
  -1   5 -17 2567.43 712.328  59
   1   5  17 1071.11 474.862  11
  -1   5 -17 1790.90 772.121  54
   1   5  18 113.842 216.808   7
   1   5  18 91.7684 201.834  11
  -1   5 -18 128.407 282.273  54
   1   5  19-74.9463 116.612   7
   1   6 -18 69.2051 152.166  38
   1   6 -17 619.670 361.783  38
   1   6 -17 495.381 290.567   2
   1   6 -16 231.634 285.660   2
  -1   6  16 335.047 301.626  16
   1   6 -16 664.201 462.194  38
   1   6 -16 208.786 282.089  54
   1   6 -15 582.806 365.374   2
  -1   6  15 1064.61 490.397  16
   1   6 -15 1427.14 632.366  38
   1   6 -15 819.837 503.238  54
   1   6 -14 343.855 327.743   2
  -1   6  14 150.994 287.996  16
   1   6 -14 359.472 484.060  38
   1   6 -14 162.201 356.930  54
  -1   6  13 1560.30 693.898   7
   1   6 -13 547.779 501.371  54
   1   6 -13 1759.57 780.787  38
   1   6 -13 1488.27 662.544  59
   1   6 -12-198.382 377.710  54
   1   6 -12 174.997 471.089  59
   1   6 -12 739.547 537.539  34
  -1   6  12 380.814 418.559   7
  -1   6  12 1085.73 471.659   5
   1   6 -11 1890.41 863.887  54
   1   6 -11 3764.44 1067.69  59
   1   6 -11 2246.96 899.699  34
  -1   6  11 3044.35 999.314   7
  -1   6  11 3042.41 836.878   5
   1   6 -10-218.188 420.630  54
  -1   6  10 2070.01 664.264   5
  -1   6  10 1058.31 618.901   7
   1   6 -10 2142.00 736.817  59
   1   6 -10 655.665 638.818  34
   1   6  -9 188.277 296.336  19
   1   6  -9 693.840 428.732  59
   1   6  -9 670.610 696.187  54
  -1   6   9 1086.25 633.215   7
  -1   6   9 541.400 396.251   5
   1   6  -9 757.542 681.144   3
   1   6  -9 726.634 319.089  20
   1   6  -9 665.963 599.228  41
   1   6  -9 455.830 503.000  34
   1   6  -8 1396.08 808.440  34
   1   6  -8 226.869 498.665  54
  -1   6   8 654.295 431.510   5
  -1   6   8 440.955 419.763   7
   1   6  -8 743.694 817.113   3
   1   6  -8 96.9942 238.703  20
  -1   6   8 390.147 378.265  20
   1   6  -8 736.939 661.165  41
   1   6  -8-186.719 355.575  19
   1   6  -7 2102.24 869.995  34
   1   6  -7 1831.39 853.401  54
   1   6  -7 2159.67 930.857   3
  -1   6   7 1775.41 791.817   7
   1   6  -7 2034.80 587.281  20
  -1   6   7 3347.73 795.506  20
  -1   6   7 3261.15 1150.50  41
   1   6  -7 1857.16 939.182  41
   1   6  -7 4222.61 1063.43  19
  -1   6   7 1060.88 578.304  16
  -1   6   7 2118.19 772.417  15
   1   6  -6 6479.51 1530.92  34
   1   6  -6 4146.16 1272.69  54
   1   6  -6 5930.93 1285.83  19
  -1   6   6 9385.50 1575.35  15
  -1   6   6 2573.34 922.165  16
   1   6  -6 7078.14 1117.21  20
  -1   6   6 9605.35 1367.07  20
  -1   6   6 5087.76 1596.08  41
   1   6  -6 3378.99 1245.26  41
   1   6  -6 5974.31 1500.02   3
  -1   6   6 4887.31 1326.48   7
  -1   6   5 1772.37 827.207   7
   1   6  -5 2836.97 975.841   3
  -1   6   5 3042.32 709.129  58
  -1   6   5 4441.68 775.275  57
   1   6  -5 2084.71 899.840  54
  -1   6   5 2956.78 726.129  20
   1   6  -5 2291.07 625.943  20
  -1   6   5 2517.89 1079.89  41
   1   6  -5 2948.06 1136.36  41
   1   6  -5 875.598 573.391  19
  -1   6   5 827.679 545.213  16
  -1   6   5 1775.17 776.623  15
  -1   6   4 5510.10 1371.67   7
   1   6  -4 4942.45 1247.31   3
  -1   6   4 6221.49 994.458  58
   1   6  -4 4663.05 1277.34  54
   1   6  -4 3820.23 855.672  20
  -1   6   4 4895.65 947.122  20
  -1   6   4 4752.78 881.365  51
  -1   6   4 3460.73 1314.80  41
   1   6  -4 5098.45 1143.61  19
  -1   6   4 1749.22 741.610  16
  -1   6   4 3378.33 980.881  15
   1   6  -3 164.357 312.744  19
  -1   6   3 304.429 334.445  16
  -1   6   3-178.082 338.859  15
   1   6  -3-193.271 367.757   3
  -1   6   3-218.948 537.839   7
  -1   6   3 285.901 256.462  58
   1   6  -3 235.150 447.440  54
   1   6  -3 462.305 335.936  20
  -1   6   3-115.083 178.819  20
  -1   6   3 99.1579 188.699  51
  -1   6   3 294.752 647.605  41
  -1   6   3 152.645 335.391  36
   1   6  -2 2704.98 916.981   3
  -1   6   2 2778.43 910.831  36
   1   6  -2 2614.71 1038.63  54
   1   6  -2 3205.29 763.672  20
  -1   6   2 3313.97 755.892  20
  -1   6   2 3886.41 776.396  51
  -1   6   2 3295.15 1253.82  41
  -1   6   2 1453.02 622.240  16
  -1   6   2 2677.75 886.946  15
  -1   6   1 2861.17 966.344  15
  -1   6   1 1661.42 657.127  16
   1   6  -1 3338.29 926.353   3
   1   6  -1 4220.17 767.178  57
   1   6  -1 4815.52 1354.21  54
  -1   6   1 4642.51 869.810  20
   1   6  -1 4390.29 905.921  20
  -1   6   1 4411.12 833.772  51
  -1   6   1 5761.90 1690.98  41
  -1   6   1 2104.21 808.665  34
   1   6   0 3897.74 1047.00  15
   1   6   0 3119.83 691.030  57
  -1   6   0 3105.92 693.437  20
   1   6   0 2877.99 753.021  20
   1   6   0 2334.43 904.313   7
  -1   6   0 2662.14 670.508  51
  -1   6   0 3060.78 1280.50  41
  -1   6   0 1743.32 755.206  34
   1   6   1 2811.78 927.834  15
   1   6   1 3438.79 732.553  57
  -1   6  -1 3115.11 688.892  20
   1   6   1 3075.23 768.214  20
  -1   6  -1 2519.84 634.074  51
  -1   6  -1 1853.40 770.773  34
  -1   6  -1 2772.88 1242.74  41
   1   6   1 2155.28 916.519   7
   1   6   2 656.349 592.225   7
  -1   6  -2 636.470 466.927   2
   1   6   2 1077.17 477.683  57
  -1   6  -2 841.227 375.771  51
  -1   6  -2 390.568 529.410  34
   1   6   2 757.280 554.004  15
   1   6   3 4390.97 1116.51  15
   1   6   3 4332.93 899.474  57
  -1   6  -3 2423.98 868.438   2
   1   6   3 3326.98 1054.63   7
  -1   6  -3 3855.09 791.066  51
  -1   6  -3 4951.94 1554.00  41
  -1   6  -3 4290.56 1230.25  34
   1   6   4 2886.47 943.779  15
   1   6   4 2404.80 678.522  57
   1   6   4 3360.65 847.159  20
  -1   6  -4 929.302 612.498   2
   1   6   4 4263.38 1224.73   7
  -1   6  -4 2713.40 649.608  51
  -1   6  -4 1542.68 980.156  41
  -1   6  -4 3822.54 1160.97  34
   1   6   5 2128.80 781.339  15
   1   6   5 2771.77 708.389  57
   1   6   5 2296.11 696.587  20
   1   6   5 905.987 675.487   7
  -1   6  -5 1381.47 766.124   2
  -1   6  -5 1985.75 540.998  51
  -1   6  -5 612.207 689.362  41
  -1   6  -5 2192.16 881.382  34
   1   6   6 1165.29 646.599  15
   1   6   6 1595.64 714.185   7
  -1   6  -6 829.689 565.630   2
   1   6   6 1178.86 506.821  57
   1   6   6 672.877 428.083  20
  -1   6  -6 1337.02 454.455  51
  -1   6  -6 1214.69 609.755  38
  -1   6  -6 301.792 669.377  41
  -1   6  -6 2019.58 858.848  34
  -1   6  -7 862.461 629.753   2
   1   6   7 2056.81 834.971   7
   1   6   7 674.316 448.780  57
  -1   6  -7 268.046 513.790  54
   1   6   7 2258.55 687.371  20
  -1   6  -7 1057.78 400.113  51
  -1   6  -7 1495.37 683.868  38
   1   6   7 138.324 270.425  11
   1   6   7 1359.53 710.352  15
   1   6   8 455.838 434.014   7
  -1   6  -8 663.770 643.310   2
   1   6   8 1509.81 584.228  57
  -1   6  -8 265.244 412.440  54
   1   6   8 388.939 318.934  20
  -1   6  -8 962.807 381.745  51
  -1   6  -8 197.636 376.446  38
   1   6   8-144.599 275.675  11
  -1   6  -9 130.699 291.821   9
  -1   6  -9 2011.64 852.171   2
   1   6   9 1128.15 702.989   7
   1   6   9 3027.65 772.632  57
  -1   6  -9 1303.15 811.486  54
   1   6   9 1248.30 515.724  20
  -1   6  -9 2075.37 540.986  51
  -1   6  -9 1435.40 714.242  38
  -1   6  -9 3032.93 982.620  19
   1   6   9-149.073 237.355  11
   1   6  10 3525.17 848.644  57
  -1   6 -10 2535.56 1047.14  54
  -1   6 -10 1256.29 480.275   9
   1   6  10 2652.90 946.053   7
  -1   6 -10 1550.26 813.255   2
   1   6  10 2952.11 729.346  20
  -1   6 -10 3542.61 1053.96  38
   1   6  10 151.202 305.057  11
   1   6  11 1177.21 500.807  57
  -1   6 -11 730.192 709.576  54
   1   6  11 640.882 577.484   7
   1   6  11 984.445 419.890  20
  -1   6 -11 206.826 397.379  38
   1   6  11 451.051 373.418  11
  -1   6 -12 404.180 544.058   2
   1   6  12 810.906 589.459   7
  -1   6 -12 689.013 618.244  54
  -1   6 -12 1598.01 694.121  38
   1   6  12-145.926 227.325  11
  -1   6 -13 184.328 453.160   2
  -1   6 -13-212.128 571.105  54
  -1   6 -13 560.789 503.340  38
   1   6  13 275.055 302.718  11
  -1   6 -14 646.918 470.065   2
  -1   6 -14 763.127 554.505  54
  -1   6 -14 843.017 641.617  38
   1   6  14-125.046 237.932  11
   1   6  15-108.668 168.918  11
  -1   6 -15 135.107 296.895   2
  -1   6 -15-165.811 364.345  54
  -1   6 -16 165.993 408.985  10
  -1   6 -16 686.254 501.076  54
   1   6  17 713.725 382.400   7
  -1   6 -17 416.915 327.154  54
  -1   7  16 216.839 168.517  16
   1   7 -16-59.9890 147.448   2
  -1   7  15 543.900 289.101  16
   1   7 -15 1003.17 429.068   2
  -1   7  14 96.9395 213.301  16
   1   7 -14 235.741 342.784   2
  -1   7  13 1925.96 601.263  16
   1   7 -13 2713.00 766.035  54
  -1   7  12 127.034 279.885  16
   1   7 -12 595.549 491.122  54
   1   7 -11 1234.56 656.102   2
  -1   7  11 1938.55 743.612   7
   1   7 -11 1873.30 782.662  54
   1   7 -11 2433.46 864.164  34
  -1   7  11 1105.65 520.693  16
  -1   7  10 3404.80 984.539   7
   1   7 -10 2073.22 876.354  54
   1   7 -10 2913.91 1042.44  34
  -1   7  10 1762.05 655.385  16
  -1   7   9 1551.79 712.049   7
   1   7  -9 1223.37 747.936  54
   1   7  -9 1892.63 983.952  34
  -1   7   9 612.117 420.831  16
   1   7  -8 3104.34 1106.07  34
   1   7  -8 3540.27 1076.69   3
  -1   7   8 2474.61 953.473   7
   1   7  -8 1518.50 777.536  54
   1   7  -8 1888.56 918.537  41
  -1   7   8 2040.45 694.710  16
   1   7  -7 915.344 717.704  34
   1   7  -7 1823.33 797.757  54
  -1   7   7 1081.21 678.957   7
   1   7  -7 660.660 600.576   3
   1   7  -7 1860.00 881.126  41
  -1   7   7 1111.90 560.381  16
   1   7  -6 2134.55 991.060  54
  -1   7   6 1794.60 836.565   7
   1   7  -6 3452.39 1048.51   3
  -1   7   6 3131.13 774.427  20
   1   7  -6 2697.43 668.947  20
  -1   7   6 2111.38 1099.40  41
   1   7  -6 1453.05 920.425  41
  -1   7   6 953.482 553.273  16
  -1   7   6 2531.75 838.301  15
   1   7  -5 231.681 569.109  34
   1   7  -5 489.944 538.229  54
   1   7  -5 208.547 396.814   3
  -1   7   5 248.881 334.858  20
   1   7  -5 222.117 298.850  20
  -1   7   5-285.679 543.574  41
   1   7  -5-310.788 482.837  41
  -1   7   5 157.367 345.753  16
  -1   7   5-186.746 355.333  15
   1   7  -4 11896.6 2133.21  34
   1   7  -4 7545.73 1863.44  54
   1   7  -4 13395.2 1629.09  20
  -1   7   4 11252.9 1553.31  20
  -1   7   4 5402.45 1300.98  16
  -1   7   4 7674.30 1630.64  15
  -1   7   4 8466.75 2131.58  41
   1   7  -4 8158.58 2279.93  41
   1   7  -4 8954.62 1761.78   3
   1   7  -3 3745.82 1037.25   3
   1   7  -3 2462.34 1013.64  34
  -1   7   3 3570.49 832.111  20
   1   7  -3 4191.86 880.531  20
  -1   7   3 630.414 948.283  41
   1   7  -3 4387.83 1548.27  41
  -1   7   3 1949.81 683.477  16
  -1   7   3 3924.69 1166.67  15
   1   7  -2 2771.64 874.369   3
  -1   7   2 2522.36 660.942  20
   1   7  -2 3469.87 823.440  20
  -1   7   2 1498.66 758.715  36
   1   7  -2 1956.39 915.748  34
  -1   7   2 1299.79 965.526  41
   1   7  -2 3897.21 1121.97  15
  -1   7   2 1796.80 844.786  15
   1   7  -1 1596.78 614.240  20
  -1   7   1 1311.18 479.741  20
   1   7  -1 1467.73 806.662  34
  -1   7   1 1083.71 638.534  36
  -1   7   1 1328.38 972.473  41
   1   7  -1 1657.97 829.376  15
  -1   7   1 1414.37 711.839  15
   1   7   0 3837.29 904.872  20
  -1   7   0 1542.14 517.538  20
   1   7   0 1004.16 715.706  34
  -1   7   0 2695.16 1237.81  41
   1   7   0 1667.48 776.026  15
  -1   7   0 2238.70 908.437  15
  -1   7  -1 2646.90 1010.37  15
   1   7   1 2292.86 896.860  15
   1   7   1 3681.97 729.943  57
   1   7   1 4346.37 961.412  20
  -1   7  -1 3424.33 719.700  20
  -1   7  -1 2036.29 1149.47  41
   1   7   1 2287.86 903.341  34
   1   7   2 2394.04 1048.05   7
   1   7   2 5388.59 937.309  57
   1   7   2 5836.09 1120.20  20
   1   7   2 4643.83 1183.43  34
  -1   7  -2 2834.22 1034.30  15
   1   7   2 4151.41 1173.86  15
   1   7   3 8841.21 1704.82  15
   1   7   3 9397.04 1336.52  57
  -1   7  -3 5670.67 1293.71   2
   1   7   3 6661.18 1588.66   7
  -1   7  -3 6062.39 1991.41  41
   1   7   3 7855.90 1531.69  34
   1   7   4 226.701 249.099  57
  -1   7  -4 294.553 647.183  54
   1   7   4 469.998 447.174   7
  -1   7  -4-174.414 383.241   2
  -1   7  -4 662.371 891.196  41
   1   7   4 202.454 497.342  15
  -1   7  -5 4007.41 1353.54  54
  -1   7  -5 3307.92 1062.67   2
   1   7   5 5075.07 1349.39   7
   1   7   5 4634.59 1038.95  20
   1   7   5 3369.98 1048.60  15
   1   7   5 7396.35 1161.35  57
  -1   7  -6 1381.99 873.376  54
   1   7   6 1574.35 758.036   7
  -1   7  -6 1140.80 679.332   2
   1   7   6 2456.67 720.951  20
   1   7   6 1928.10 808.281  15
   1   7   6 2518.64 690.334  57
   1   7   7 2090.87 653.463  20
   1   7   7 2393.20 933.637   7
  -1   7  -7 755.516 485.047   9
  -1   7  -7 966.420 612.794   2
  -1   7  -7 794.681 723.131  54
   1   7   7 2895.78 736.145  57
   1   7   8 1969.83 645.298  20
  -1   7  -8 406.914 383.673   9
   1   7   8 1876.56 802.237   7
  -1   7  -8 1928.81 773.077   2
  -1   7  -8 3271.01 1178.67  54
   1   7   8 2743.89 703.499  57
   1   7   9 5344.32 951.841  20
  -1   7  -9 3205.60 1024.86   2
   1   7   9 3161.04 978.967   7
  -1   7  -9 1518.80 571.804   9
  -1   7  -9 1891.46 897.481  54
   1   7   9 6707.08 1062.31  57
   1   7  10 5853.28 951.664  20
  -1   7 -10 1224.86 484.931   9
  -1   7 -10 2881.22 956.018   2
   1   7  10 3876.00 1097.34   7
   1   7  10 7016.44 1040.61  57
  -1   7 -10 1973.13 930.108  54
   1   7  11 1185.77 563.558   7
  -1   7 -11 502.071 456.877   2
   1   7  11 1823.62 550.652  57
  -1   7 -11 399.958 497.235  54
  -1   7 -12 3463.57 948.854   2
   1   7  12 5469.97 1105.50   7
   1   7  12 1128.54 454.478  16
  -1   7 -12 4644.78 1133.31  54
   1   7  12 7724.03 1014.17  57
  -1   7 -13 620.648 452.482  54
   1   7  13 375.140 250.001  16
  -1   7 -14 645.775 453.650  54
   1   7  14 837.907 294.322  16
  -1   7 -15 99.2566 218.208  54
  -1   7 -15 61.3715 190.842  36
  -1   7 -15 136.036 298.980  10
   1   8 -13 185.869 167.474   2
   1   8 -12 76.0863 187.135  15
   1   8 -12 164.131 238.706   2
   1   8 -11 1388.00 480.422  15
  -1   8  11 356.145 242.035  16
   1   8 -11 1568.87 541.803   2
  -1   8  10-163.962 220.731  16
   1   8 -10 885.187 454.870   2
   1   8  -9 882.623 560.626  34
  -1   8   9 271.685 224.527  16
   1   8  -9 359.780 324.138   2
   1   8  -8 1197.11 577.807  15
  -1   8   8 1068.68 429.479  16
   1   8  -8 2392.73 687.699   2
   1   8  -7 1442.09 645.586  15
   1   8  -6-178.528 392.499  34
   1   8  -6-228.878 503.067  41
   1   8  -6-154.230 293.804  15
   1   8  -5 1639.74 883.028  34
   1   8  -5 2528.55 1119.44  41
   1   8  -5 2770.76 850.820  15
  -1   8   5 3201.15 848.334  15
  -1   8   5 735.942 447.412   9
   1   8  -4 182.832 494.690  34
  -1   8   4 488.716 602.471  41
   1   8  -4 1086.76 896.887  41
   1   8  -4 851.810 531.863  15
  -1   8   4 802.290 586.907  15
   1   8  -3 180.723 448.215  34
   1   8  -3 856.448 832.049  41
  -1   8   3 1050.57 765.865  41
   1   8  -3 176.233 392.105  15
  -1   8   3 1504.36 639.086  15
   1   8  -3 1582.36 489.784  20
   1   8  -2 2640.96 938.419  34
   1   8  -2 3534.05 1316.18  41
  -1   8   2 1382.77 990.258  41
   1   8  -2 3065.52 917.856  15
  -1   8   2 2412.66 900.154  15
   1   8  -2 3586.70 762.488  20
   1   8  -1 5742.53 1277.49  34
   1   8  -1 2692.55 1318.12  41
  -1   8   1 4584.72 1547.99  41
   1   8  -1 2742.50 1002.36  15
  -1   8   1 4396.93 1161.51  15
   1   8  -1 4324.90 894.379  20
   1   8   0 159.011 496.044  34
   1   8   0-299.963 572.457  41
  -1   8   0 585.659 720.668  41
  -1   8   0 1242.28 618.091  15
   1   8   0 367.080 405.666  15
   1   8   0 1150.55 474.977  20
  -1   8  -1 319.107 465.498  36
  -1   8  -1 295.438 563.592  41
  -1   8  -1 531.159 551.615  15
   1   8   1 364.846 402.834  15
   1   8   1 824.635 450.123  20
  -1   8  -2 2667.12 975.087  36
  -1   8  -2 1920.42 818.957  15
   1   8   2 2333.65 840.527  15
   1   8   2 2977.15 747.535  20
  -1   8  -3 681.950 563.105  36
   1   8   3 830.911 414.045  20
  -1   8  -3 170.245 419.857  15
   1   8   3 174.813 471.878  15
   1   8   3 282.814 622.490  41
   1   8   4 2563.70 690.156  20
  -1   8  -4 1802.36 720.989  15
   1   8   4 2022.89 785.390  15
  -1   8  -5 2857.99 1099.53  54
  -1   8  -5 1548.09 616.351   9
   1   8   5 4349.60 1364.66  41
  -1   8  -5 3425.59 960.745  15
   1   8   5 2734.39 837.206  15
  -1   8  -6 2456.29 960.609  54
  -1   8  -6 772.315 447.338   9
   1   8   6 2775.29 668.138  20
   1   8   6 1893.76 911.953  41
  -1   8  -6 2335.94 782.167  15
  -1   8  -7 620.208 556.963  54
  -1   8  -7 113.737 218.105   9
   1   8   7 1090.82 436.595  20
   1   8   7 212.668 572.908  41
  -1   8  -7 269.767 363.968  15
   1   8   8 450.103 296.781  20
  -1   8  -8 122.500 301.017  15
  -1   8  -8-95.5570 181.993   9
  -1   8  -8 566.028 586.300  54
  -1   8  -9 108.900 239.381  15
  -1   8  -9-146.800 197.652   9
   1   8   9-136.767 260.340   7
  -1   8  -9 507.704 415.779  54
  -1   8 -10 187.981 231.639  15
  -1   8 -10 296.776 364.985  54
  -1   8 -11 401.082 333.662  36
  -1   8 -11 755.002 417.262  54
  -1   8 -12 629.020 377.535  36
  -1   8 -12 172.925 425.692  10
  -1   8 -12 201.204 313.827  54
   1   9  -7 379.882 265.930  15
   1   9  -6 1031.87 410.388  15
   1   9  -5 94.5162 254.460  15
   1   9  -4 1930.04 582.411  15
   1   9  -4 933.330 604.857  41
  -1   9   3 419.394 282.818   9
   1   9  -3 1499.68 542.561  15
   1   9  -3 1016.75 591.709  41
  -1   9   2 461.003 310.104   9
   1   9  -2 999.381 460.607  15
   1   9  -2 1608.76 763.043  41
  -1   9   1 195.214 241.454   9
   1   9  -1 679.329 431.804  15
   1   9  -1 551.353 639.087  41
  -1   9   0 301.312 295.121   9
   1   9   0 1023.28 485.683  15
   1   9   0 554.599 499.339  41
   1   9   1 925.725 327.927  20
   1   9   1 112.423 329.811  15
   1   9   2 537.504 288.314  20
  -1   9  -2 197.856 268.835   9
   1   9   2 704.354 581.536  41
   1   9   2 656.642 400.504  15
   1   9   3 4159.29 1201.52  41
   1   9   3 5934.22 777.970  20
   1   9   4 917.043 607.021  41
   1   9   4 452.051 249.764  20
  -1   9  -4 526.927 308.323   9
   1   9   5 808.887 540.826  41
  -1   9  -5 548.325 298.009   9
  -1   9  -6 656.852 275.781   9
  -1   9  -7 194.047 151.646   9
  -1   9  -8 223.667 185.273  36
  -2  -9   6 207.771 201.958  30
  -2  -9   6 162.122 267.649  33
  -2  -9   5 702.140 361.755  27
  -2  -9   5 93.3349 272.600  33
  -2  -9   4 95.6741 210.240  27
  -2  -9   4-102.846 252.664  33
  -2  -9   3-96.2169 211.398  46
  -2  -9   3 100.613 292.431  27
  -2  -9   3 109.751 361.700  33
  -2  -9   2 808.537 424.200  46
  -2  -9   2 1231.70 494.374  27
  -2  -9   2 114.119 379.852  33
  -2  -9   1 130.548 286.888  46
  -2  -9   1-101.623 223.353  27
  -2  -9   1 464.089 382.414  33
  -2  -9   0 283.194 381.945  46
  -2  -9   0 346.619 440.486  33
  -2  -9  -1 445.853 435.898  46
  -2  -9  -1 1014.68 513.996  33
  -2  -9  -2 2878.81 883.754  46
  -2  -9  -3 150.179 330.208  46
  -2  -9  -4 144.421 354.975  46
  -2  -9  -5-133.822 254.886  46
  -2  -9  -6 351.984 317.150  46
  -2  -8  12-70.5089 155.126  44
  -2  -8  12-119.820 147.387  30
  -2  -8  12 79.3799 213.755  33
  -2  -8  11 96.9358 213.021  44
  -2  -8  11-106.664 310.048  33
  -2  -8  11-78.0247 210.000  55
  -2  -8  10 363.630 353.245  44
  -2  -8  10 131.064 250.722  33
  -2  -8  10 557.535 339.549  55
  -2  -8   9 144.515 317.686  44
  -2  -8   9-153.404 412.924  33
  -2  -8   9 1302.40 477.031  27
  -2  -8   9 942.580 445.718  55
  -2  -8   8 725.126 459.928  46
  -2  -8   8 333.980 449.369  44
  -2  -8   8-173.660 426.603  33
  -2  -8   8-128.843 316.520  27
  -2  -8   8 681.365 449.819  55
  -2  -8   7 1243.76 611.637  46
  -2  -8   7 1915.13 855.724  33
  -2  -8   7 1596.13 675.293  27
  -2  -8   7 2864.46 746.315  55
  -2  -8   6 1494.89 686.263  46
  -2  -8   6 947.057 581.525  27
  -2  -8   6-206.563 562.487  33
  -2  -8   6 2439.17 701.487  55
  -2  -8   5 215.956 411.440  46
  -2  -8   5-218.456 480.422  33
  -2  -8   5 726.596 480.114  55
  -2  -8   4 1909.20 770.231  27
  -2  -8   4 1134.82 833.918  33
  -2  -8   4 728.086 761.740  46
  -2  -8   3 1061.92 615.241  27
  -2  -8   3 118.418 261.127   4
  -2  -8   3 266.583 507.726  46
  -2  -8   2-177.727 338.235  27
  -2  -8   2-117.453 258.143   4
  -2  -8   1 1056.12 643.789  27
  -2  -8   1 460.395 339.231   4
  -2  -8   1 1212.54 817.639  46
  -2  -8   0 2564.98 697.395   4
  -2  -8   0 2202.52 1122.89  46
  -2  -8  -1 165.143 363.456  27
  -2  -8  -1 213.655 263.271   4
  -2  -8  -1 963.617 789.304  46
  -2  -8  -2 645.565 717.401  46
  -2  -8  -2 1870.63 714.328  27
  -2  -8  -3 1917.20 1238.83  46
  -2  -8  -3 3159.58 867.791  27
  -2  -8  -4 311.723 485.020  46
  -2  -8  -5-299.638 465.705  46
  -2  -8  -5-98.2803 264.803  32
  -2  -8  -6 1492.66 582.216  32
  -2  -8  -7 1364.66 526.657  32
   2  -8   8-72.3890 210.404  55
  -2  -8  -8 184.315 267.860  32
  -2  -8  -9 3400.06 1039.23  56
  -2  -8  -9 2164.76 566.574  32
  -2  -8  -9 1678.48 821.006  46
  -2  -8 -10 2408.96 797.062  56
  -2  -8 -10 1043.43 584.190  46
  -2  -8 -10 1186.52 407.001  32
  -2  -8 -11 126.303 310.442  46
  -2  -7  15 189.004 183.826  30
  -2  -7  14 195.863 306.221  25
  -2  -7  14 682.276 356.780  55
  -2  -7  13 851.274 462.847  25
  -2  -7  13-106.076 233.180  30
  -2  -7  13 126.767 278.619  44
  -2  -7  13 729.388 462.672  55
  -2  -7  12 142.665 350.987  25
  -2  -7  12 175.067 509.203  33
  -2  -7  12 612.339 445.364  44
  -2  -7  12 142.299 383.403  55
  -2  -7  11 1772.16 666.088  25
  -2  -7  11 1211.40 739.110  33
  -2  -7  11 421.438 384.770  46
  -2  -7  11 536.725 445.301  44
  -2  -7  11 1595.40 659.689  55
  -2  -7  10 353.565 434.271  25
  -2  -7  10 226.796 704.701  33
  -2  -7  10 732.411 425.766  27
  -2  -7  10-408.373 501.584  44
  -2  -7  10 177.416 389.818  46
  -2  -7  10 692.099 537.630  55
  -2  -7   9 3602.14 1100.71  25
  -2  -7   9 4728.16 1161.06  27
  -2  -7   9 1993.45 1113.25  33
  -2  -7   9 1264.53 759.239  46
  -2  -7   9 1371.46 779.669  44
  -2  -7   9 3469.97 1003.22  55
  -2  -7   8 1596.06 772.811  25
  -2  -7   8 2423.57 880.793  27
  -2  -7   8 1610.78 943.714  33
  -2  -7   8 1210.87 811.055  46
  -2  -7   8 1695.92 760.189  55
  -2  -7   7 1716.38 785.616  55
  -2  -7   7 598.511 492.829  27
  -2  -7   7 284.122 626.413  33
  -2  -7   7 826.580 602.867  25
  -2  -7   7 272.250 520.636  46
  -2  -7   7 552.136 455.087   4
  -2  -7   6 189.826 418.339  55
  -2  -7   6 625.473 561.971  27
  -2  -7   6-295.786 563.748  33
  -2  -7   6 844.678 614.627  25
  -2  -7   6 601.993 662.121  46
  -2  -7   6 560.238 503.568   4
  -2  -7   5-213.285 468.626  25
  -2  -7   5 374.143 411.036   4
  -2  -7   5-328.053 624.213  46
  -2  -7   5 186.201 457.410  55
  -2  -7   4 1065.92 662.409  25
  -2  -7   4 352.806 775.156  46
  -2  -7   4-185.442 352.868   4
  -2  -7   4 1081.19 626.006  55
  -2  -7   3 1944.48 865.425  27
  -2  -7   3 1123.54 832.889  46
  -2  -7   3 1458.34 676.588   4
  -2  -7   3 1548.55 718.903  55
  -2  -7   2 2351.66 855.261  27
  -2  -7   2 890.184 566.082   4
  -2  -7   2 1962.25 1225.31  46
  -2  -7   1 209.782 515.624  27
  -2  -7   1 173.038 269.421   4
  -2  -7   1 406.059 631.099  46
  -2  -7   0 3268.19 1032.12  27
  -2  -7   0 502.774 459.632   4
  -2  -7   0 2075.19 1370.70  46
  -2  -7  -1 485.730 439.412   4
  -2  -7  -1 986.607 576.351  27
  -2  -7  -2 312.246 344.046   4
  -2  -7  -2 567.020 509.288  27
  -2  -7  -2 171.271 377.237  32
  -2  -7  -3-150.269 330.268   4
  -2  -7  -3 539.791 559.139  32
  -2  -7  -4 721.493 466.757   4
   2  -7   4 2775.60 839.951  55
  -2  -7  -4 2003.50 745.031  27
  -2  -7  -4 2415.41 875.635  32
  -2  -7  -5 138.077 216.235   4
   2  -7   5 1558.08 663.470  55
  -2  -7  -5 304.690 474.143  27
  -2  -7  -5 566.541 464.687  32
  -2  -7  -6 919.668 476.241   4
   2  -7   6 2792.99 863.069  55
  -2  -7  -6 3026.35 961.864  32
  -2  -7  -7 1858.37 645.933   4
   2  -7   7 4572.89 1076.50  55
  -2  -7  -7 5785.40 1272.98  32
  -2  -7  -8 115.154 253.420   4
   2  -7   8 295.079 397.277  55
  -2  -7  -8 181.236 398.456  32
  -2  -7  -9 731.300 396.333   4
  -2  -7  -9 2421.06 856.738  32
   2  -7   9 2947.48 837.637  55
  -2  -7 -10 1455.19 666.484  32
   2  -7  10 261.487 409.315  55
  -2  -7 -11 845.841 617.894  56
  -2  -7 -11 589.857 462.597  32
   2  -7  11 830.210 436.786  55
  -2  -7 -12 572.070 518.231  56
  -2  -7 -12 1431.30 593.812  32
   2  -7  12 726.653 447.589  55
  -2  -7 -13 1628.78 749.040  56
   2  -7  13 2928.97 665.487  55
  -2  -7 -13 3164.72 798.785  32
  -2  -7 -14 496.431 354.578  32
  -2  -6  17-81.8717 201.242  25
  -2  -6  17-87.9397 216.139  33
  -2  -6  16 280.219 255.668  30
  -2  -6  16 491.042 407.275  33
  -2  -6  15 1013.12 554.873  25
  -2  -6  15 906.609 454.935  55
  -2  -6  15 687.523 383.592  30
  -2  -6  15 618.027 513.630  33
  -2  -6  14 341.929 461.257  25
  -2  -6  14 785.123 489.044  55
  -2  -6  14 268.295 362.519  30
  -2  -6  14 316.236 389.841  44
  -2  -6  13 549.261 493.929  44
  -2  -6  13 163.556 313.200  46
  -2  -6  13 1352.72 672.246  25
  -2  -6  12 619.833 606.987  44
  -2  -6  12 589.867 578.281  46
  -2  -6  12 1688.21 773.937  25
  -2  -6  12 1987.36 821.654  55
  -2  -6  11 2924.62 1012.53  46
  -2  -6  11 2741.32 1026.51  44
  -2  -6  11 4480.83 1274.14  25
  -2  -6  10-232.408 571.082  25
  -2  -6  10-219.474 417.860  55
  -2  -6  10-496.625 610.138  44
  -2  -6  10 250.268 476.422  46
  -2  -6  10-177.489 276.135  27
  -2  -6   9 5914.39 1494.99  25
  -2  -6   9 5997.02 1471.53  55
  -2  -6   9 2734.50 1146.42  46
  -2  -6   9 4272.77 1189.86  27
  -2  -6   8 1028.12 639.885  27
  -2  -6   8 474.441 583.788  25
  -2  -6   8-468.542 892.215  23
  -2  -6   8 1902.43 985.829  52
  -2  -6   8 441.083 542.898  55
  -2  -6   8 295.071 459.780  46
  -2  -6   8 219.044 342.137   4
  -2  -6   7 2974.42 1050.95  27
  -2  -6   7 6038.49 1445.15  55
  -2  -6   7 7407.91 1882.75  52
  -2  -6   7 2838.60 1250.83  46
  -2  -6   7 2833.77 1020.52   4
  -2  -6   7 6112.69 1502.84  25
  -2  -6   7 6830.54 2301.05  23
  -2  -6   6 3958.81 1158.05  55
  -2  -6   6 3912.61 1419.91  52
  -2  -6   6 3941.11 1863.92  53
  -2  -6   6 3233.44 1090.89  25
  -2  -6   6 1512.95 1368.54  23
  -2  -6   6 2006.61 1175.19  46
  -2  -6   6 858.601 604.091   4
  -2  -6   5 5225.39 1668.64  52
  -2  -6   5 2964.96 1624.99  53
  -2  -6   5 3786.25 1071.80  55
  -2  -6   5 6763.05 1517.35  25
  -2  -6   5 6166.53 2134.47  23
  -2  -6   5 4508.90 1554.75  49
  -2  -6   5 4223.17 1478.86  46
  -2  -6   5 1677.42 823.451   4
  -2  -6   4 4353.87 1133.17  55
  -2  -6   4 4660.32 1661.38  52
  -2  -6   4 4255.53 2118.99  53
  -2  -6   4 4820.95 1285.53  25
  -2  -6   4 5753.27 2156.79  23
  -2  -6   4 2492.28 1186.08  49
  -2  -6   4 367.479 720.330  46
  -2  -6   4 1018.23 616.694   4
  -2  -6   3 2104.90 861.741  27
  -2  -6   3 4110.27 1043.12  55
  -2  -6   3 2409.93 1341.54  52
   2  -6  -3 3180.26 1661.29  53
  -2  -6   3 4278.36 2237.51  53
  -2  -6   3 3821.32 1139.51  25
  -2  -6   3 2911.25 1343.67  49
  -2  -6   3 3806.20 1464.75  46
  -2  -6   3 1182.41 685.063   4
  -2  -6   2 12524.4 2086.67  25
  -2  -6   2 9894.18 1901.06  27
  -2  -6   2 10729.9 2511.65  49
  -2  -6   2 9480.63 2454.09  52
   2  -6  -2 20193.3 4125.37  53
  -2  -6   2 13293.8 3421.62  53
  -2  -6   2 14090.7 1987.78  55
  -2  -6   2 12902.5 2808.23  46
  -2  -6   2 4949.69 1399.88   4
  -2  -6   1 3912.23 951.785  55
  -2  -6   1 838.410 1039.07  52
   2  -6  -1 1184.78 1135.69  53
  -2  -6   1 551.710 513.986   4
  -2  -6   1 3218.13 1022.02  27
  -2  -6   1 2519.75 816.285  32
  -2  -6   1 1499.40 1018.20  49
   2  -6   0 1860.59 1811.93  53
  -2  -6   0 2967.72 1484.21  52
  -2  -6   0 1601.28 701.547   4
  -2  -6   0 2348.47 879.369  27
  -2  -6   0 2157.91 834.965  32
  -2  -6   0 3404.76 1451.31  49
   2  -6   1 2575.37 1734.25  53
  -2  -6  -1 2130.71 1406.57  52
  -2  -6  -1 760.217 936.947  49
  -2  -6  -1 172.598 431.058   4
  -2  -6  -1 1709.26 696.324  27
  -2  -6  -1 1712.32 757.592  32
   2  -6   2 8602.96 3015.63  53
  -2  -6  -2 8948.54 2363.85  52
  -2  -6  -2 6961.71 2404.01  23
  -2  -6  -2 4578.58 1708.94  49
  -2  -6  -2 2016.35 809.112   4
  -2  -6  -2 4592.81 1171.38  27
  -2  -6  -2 4580.86 1184.07  32
   2  -6   3 674.835 1050.88  53
  -2  -6  -3 1950.77 1314.29  23
   2  -6   3 997.501 1098.16  50
  -2  -6  -3 382.356 843.147  49
  -2  -6  -3 328.442 409.762   4
  -2  -6  -3 1238.34 618.750  27
  -2  -6  -3 2479.62 882.098  32
   2  -6   4 5429.34 2371.76  53
  -2  -6  -4 1913.23 1414.02  23
   2  -6   4 3497.39 1666.75  50
  -2  -6  -4 4974.07 1648.31  49
  -2  -6  -4 2255.35 794.073   4
  -2  -6  -4 2538.74 870.747  27
  -2  -6  -4 5102.30 1305.04  32
   2  -6   5 8777.60 2933.81  53
  -2  -6  -5 8300.06 2266.06  52
  -2  -6  -5 11730.2 2838.92  23
   2  -6   5 7367.71 2365.45  50
  -2  -6  -5 10702.8 2448.88  49
  -2  -6  -5 3486.78 1069.01   4
  -2  -6  -5 9766.84 1558.02  27
  -2  -6  -5 10848.5 1925.23  32
  -2  -6  -6 379.625 834.559  49
   2  -6   6 945.209 1038.75  50
  -2  -6  -6-459.104 874.022  23
  -2  -6  -6 468.436 384.619   4
   2  -6   6 1332.47 1464.06  53
  -2  -6  -6 1223.58 896.561  52
   2  -6   7 1947.47 1607.39  53
  -2  -6  -7 4381.38 1590.56  52
  -2  -6  -7 5393.83 1923.08  23
  -2  -6  -7 1383.40 618.954   4
   2  -6   7 890.739 871.244  50
  -2  -6  -7 3767.67 1447.99  49
   2  -6   7 3626.61 709.653  26
   2  -6   8 363.132 283.784  26
   2  -6   9 3299.95 717.732  26
   2  -6   9 3894.24 998.496  25
   2  -6  10 1054.77 531.181  25
   2  -6  11 1997.92 704.418  25
   2  -6  12 1844.46 670.152  25
  -2  -6 -12 242.012 540.322  56
   2  -6  12 1918.56 751.319  55
   2  -6  13 2735.23 780.224  55
  -2  -6 -13 1776.15 884.207  56
  -2  -6 -13 533.232 363.365   4
   2  -6  13 1177.39 541.205  25
  -2  -6 -13 1281.51 641.152  32
   2  -6  14 1308.01 527.211  25
  -2  -6 -14 2487.19 802.192  32
  -2  -6 -14 1949.74 842.341  56
  -2  -6 -15 159.417 303.850  56
   2  -6  15 239.896 249.101  25
   2  -6  16 1016.00 375.311  55
  -2  -6 -16 989.593 414.159  32
  -2  -5  19 75.9080 144.579  28
  -2  -5  18 392.353 306.265  25
  -2  -5  18 317.403 286.292  33
  -2  -5  17 675.018 420.413  25
  -2  -5  17 139.974 308.810  33
  -2  -5  16-336.028 412.877  25
  -2  -5  16 273.234 367.804  55
  -2  -5  16 132.033 290.321  30
  -2  -5  16-171.092 325.751  33
  -2  -5  15 392.626 528.615  25
  -2  -5  15 999.558 549.377  55
  -2  -5  15 150.432 286.896  30
  -2  -5  15-199.313 438.344  33
  -2  -5  15 165.453 315.417  46
  -2  -5  15 344.898 424.056  44
  -2  -5  14 3635.27 1064.52  55
  -2  -5  14 1791.55 903.081  33
  -2  -5  14 2567.90 910.634  46
  -2  -5  14 1164.13 661.539  44
  -2  -5  13 212.471 407.458  44
  -2  -5  13 222.254 548.311  46
  -2  -5  13 1466.23 806.965  33
  -2  -5  12-486.481 534.627  25
  -2  -5  12-221.194 421.133  55
  -2  -5  12 241.569 375.588  46
  -2  -5  12 683.105 559.527  44
  -2  -5  12-260.226 571.933  33
  -2  -5  11 3934.99 1328.34  25
   2  -5 -11 5444.03 1425.52  52
  -2  -5  11 3357.68 1125.03  44
  -2  -5  11 1798.09 939.099  46
  -2  -5  11 4918.92 1113.66  27
  -2  -5  11 2714.96 1114.46  33
  -2  -5  10-424.116 663.582  23
  -2  -5  10 2679.08 1073.11  25
   2  -5 -10 2198.61 893.539  52
  -2  -5  10 1346.66 938.938  46
  -2  -5  10 996.532 674.992  44
  -2  -5  10 1393.66 694.486  27
  -2  -5  10 278.472 616.872  33
  -2  -5   9-183.937 350.034  27
  -2  -5   9 281.616 691.794  33
  -2  -5   9 237.409 451.766  25
  -2  -5   9 431.729 670.752  23
  -2  -5   9 441.636 594.225  55
   2  -5  -9 228.042 501.064  52
  -2  -5   9 296.974 461.412  52
  -2  -5   9 279.916 532.640  46
  -2  -5   9 217.282 477.427   4
  -2  -5   8 281.442 536.230  33
  -2  -5   8 850.936 618.930  55
  -2  -5   8 915.852 821.951  52
   2  -5  -8 211.792 403.939  52
  -2  -5   8 289.319 636.267  46
  -2  -5   8 212.053 330.608   4
  -2  -5   8 457.588 503.447  25
  -2  -5   8 872.812 959.227  23
  -2  -5   7 4863.94 1284.02  55
  -2  -5   7 2819.98 1218.32  52
  -2  -5   7 5948.85 2087.72  53
   2  -5  -7 3535.69 1042.57  52
  -2  -5   7 3575.10 1249.87  46
  -2  -5   7 1025.90 684.836   4
  -2  -5   7 6565.53 1464.03  25
  -2  -5   6 1283.05 876.696  52
  -2  -5   6 4739.14 1810.00  53
   2  -5  -6 2919.45 887.130  52
  -2  -5   6 2298.64 829.344  55
  -2  -5   6 2291.92 870.094  25
  -2  -5   6 1223.22 766.733  46
  -2  -5   6 986.865 632.215   4
  -2  -5   5 6303.73 1327.58  55
  -2  -5   5 4903.78 1586.88  52
   2  -5  -5 6465.17 1316.67  52
  -2  -5   5 5772.23 2159.69  53
  -2  -5   5 6335.08 1412.06  25
  -2  -5   5 8130.79 1963.47  49
  -2  -5   5 4379.10 1484.53  46
  -2  -5   5 3027.40 1008.70   4
  -2  -5   4 14296.7 2012.32  25
   2  -5  -4 12756.1 1783.51  52
  -2  -5   4 8975.64 2164.98  52
  -2  -5   4 12405.3 2943.01  53
   2  -5  -4 13267.9 2881.50  53
  -2  -5   4 10634.4 1701.55  55
  -2  -5   4 11595.2 2323.21  49
  -2  -5   4 7646.33 1930.51  46
  -2  -5   3-157.923 300.521  55
  -2  -5   3 336.575 640.432  52
   2  -5  -3-440.247 837.689  53
  -2  -5   3 934.764 1026.89  53
  -2  -5   3 179.065 340.745  25
  -2  -5   3 1254.45 911.521  49
  -2  -5   3 322.963 614.532  46
  -2  -5   3-173.596 190.759   4
  -2  -5   2 2950.16 815.266  55
  -2  -5   2 3726.43 1491.35  52
   2  -5  -2 2807.53 1544.76  53
  -2  -5   2 1539.62 757.140  25
  -2  -5   2 2511.25 1197.99  49
  -2  -5   2 166.790 377.472   4
  -2  -5   2 1044.11 574.793  32
  -2  -5   1 2480.10 737.126  55
  -2  -5   1 1700.72 996.891  52
   2  -5  -1 496.336 1098.00  53
  -2  -5   1 1641.23 637.573  25
  -2  -5   1 2465.83 1433.42  23
  -2  -5   1 314.185 782.335  49
  -2  -5   1 965.762 545.722   4
  -2  -5   1 2828.87 889.607  32
  -2  -5   0 3471.57 884.546  55
   2  -5   0 6300.08 2329.43  53
  -2  -5   0 6130.06 1784.19  52
  -2  -5   0 4910.29 1092.75  25
  -2  -5   0 6018.89 1948.31  23
  -2  -5   0 5343.65 1614.96  49
  -2  -5   0 1718.82 738.969   4
  -2  -5   0 3811.69 999.502  27
  -2  -5   0 5764.96 1189.01  32
   2  -5   1 1099.88 1361.66  53
  -2  -5  -1 1968.03 1156.71  23
  -2  -5  -1 2839.72 1212.83  49
  -2  -5  -1 1222.20 582.282   4
  -2  -5  -1 2914.01 832.711  27
  -2  -5  -1 2750.02 861.528  32
   2  -5   2 13131.9 3478.94  53
  -2  -5  -2 15114.3 3070.08  23
  -2  -5  -2 22870.3 3272.16  49
  -2  -5  -2 7377.44 1601.56   4
  -2  -5  -2 13136.2 1974.59  27
  -2  -5  -2 18224.0 2332.57  32
  -2  -5  -3 4477.14 1493.95  49
  -2  -5  -3 6123.03 1868.63  23
  -2  -5  -3 3712.87 985.563  27
   2  -5   3 4123.48 2078.79  53
  -2  -5  -3 4417.62 1537.35  52
   2  -5   4 884.160 1088.50  50
  -2  -5  -4 648.202 799.624  49
  -2  -5  -4 380.894 596.443  23
  -2  -5  -4 1056.97 529.833  27
  -2  -5  -4 1020.22 750.893  52
   2  -5   5 7520.26 2288.05  50
  -2  -5  -5 7245.22 1951.87  49
  -2  -5  -5 8385.36 2198.68  23
  -2  -5  -5 4838.24 1134.70  27
   2  -5   5 7910.46 2884.27  53
  -2  -5  -5 6129.08 1792.82  52
   2  -5   6 1742.52 1270.61  50
  -2  -5  -6 2010.58 1046.62  49
  -2  -5  -6 2298.20 1266.81  23
  -2  -5  -6 705.203 450.952  27
   2  -5   6 1837.08 1507.97  53
  -2  -5  -6 2372.81 1122.18  52
   2  -5   7 2114.47 1395.33  50
  -2  -5  -7 340.785 651.896  49
   2  -5   7 1031.52 601.003  25
  -2  -5  -7 1157.44 950.104  23
   2  -5   7 598.840 369.796  26
   2  -5   7 1228.26 1350.97  53
  -2  -5  -7 1015.51 746.755  52
   2  -5   8 2010.69 1263.97  50
  -2  -5  -8 4491.67 1576.54  49
   2  -5   8 2137.96 829.185  25
  -2  -5  -8 4643.52 1711.03  23
   2  -5   8 2616.65 657.993  26
   2  -5   8-610.893 968.027  53
  -2  -5  -8 3364.33 1294.40  52
   2  -5   9 4126.61 1631.95  50
   2  -5   9 4761.39 1204.69  25
  -2  -5  -9 8539.29 2200.67  23
   2  -5   9 3480.36 837.237  26
  -2  -5  -9 2985.37 1255.51  52
   2  -5   9 3620.38 1905.45  53
   2  -5  10 345.442 537.196  50
   2  -5  10 1004.31 442.629  26
   2  -5  10 2365.51 1591.50  53
  -2  -5 -10 323.085 502.499  52
   2  -5  10-186.088 290.075  25
  -2  -5 -10 772.647 949.271  23
   2  -5  11 6529.09 1168.94  26
   2  -5  11 7446.55 1559.81  25
  -2  -5 -12 6086.86 1682.61  56
   2  -5  12 7004.02 1206.49  26
   2  -5  12 6938.69 1519.39  25
  -2  -5 -13 1060.40 770.971  56
   2  -5  13 174.559 333.216  25
  -2  -5 -14 244.647 380.498  56
   2  -5  14 161.854 435.896  25
  -2  -5 -15 215.165 409.403  56
   2  -5  15 141.368 268.986  55
   2  -5  15-289.168 389.059  25
   2  -5  16 802.686 441.338  55
   2  -5  16 615.414 432.645  25
  -2  -5 -16 693.521 426.280  32
  -2  -5 -16 1233.53 645.433  56
   2  -5  17 682.216 404.143  25
  -2  -5 -17 686.214 356.601  32
  -2  -5 -17 508.754 373.512  56
  -2  -4  20 85.7529 188.550  28
  -2  -4  19 487.130 403.510  28
  -2  -4  18 2853.25 917.469  33
  -2  -4  18 3776.67 926.333  25
  -2  -4  17 150.080 233.478  46
  -2  -4  17 695.245 505.325  33
  -2  -4  17-166.250 365.469  25
  -2  -4  16 153.185 336.698  55
  -2  -4  16 187.852 357.561  46
  -2  -4  16 200.531 492.682  33
  -2  -4  16-160.274 249.183  30
  -2  -4  16 196.483 482.740  25
  -2  -4  15 178.943 340.515  55
  -2  -4  15-215.198 334.363  46
  -2  -4  15 195.686 372.370  44
  -2  -4  15 348.010 427.457  30
  -2  -4  15 222.063 487.918  33
  -2  -4  15 219.440 539.060  25
  -2  -4  14 987.668 616.835  55
  -2  -4  14 936.472 683.227  25
  -2  -4  14 702.300 578.321  46
  -2  -4  14 418.669 517.870  44
  -2  -4  14 713.270 785.965  33
  -2  -4  13 2501.81 923.708  55
  -2  -4  13 1924.55 923.078  25
   2  -4 -13 3038.54 1100.48  49
  -2  -4  13 492.302 672.823  46
  -2  -4  13 1310.28 688.756  44
  -2  -4  13 742.955 729.432  33
  -2  -4  12 7434.31 1601.73  25
  -2  -4  12 7648.98 1552.29  55
  -2  -4  12 1771.17 873.098  46
  -2  -4  12 2905.20 1015.52  44
  -2  -4  12 1513.79 954.962  33
  -2  -4  11 8171.80 1718.63  25
  -2  -4  11 2307.52 1044.22  46
  -2  -4  11 1578.38 820.156  44
  -2  -4  11 2098.33 793.703  30
  -2  -4  11 3030.98 1169.59  33
  -2  -4  11 6741.22 1447.15  55
  -2  -4  10 225.211 428.585  44
  -2  -4  10-257.718 283.215  46
  -2  -4  10-149.383 284.336  27
  -2  -4  10 249.458 548.134  33
  -2  -4  10 409.015 550.357  55
  -2  -4   9 4170.19 1069.80  27
  -2  -4   9 2681.47 1126.77  33
  -2  -4   9 4603.68 1381.67  52
  -2  -4   9 1548.73 832.913  46
  -2  -4   9 2096.35 814.940   4
  -2  -4   8 5181.28 1704.13  53
  -2  -4   8 1617.89 949.604  52
  -2  -4   8 2968.01 984.500  25
  -2  -4   8 3357.93 1180.29  46
  -2  -4   8 905.351 548.857   4
  -2  -4   7 1732.73 740.541  55
  -2  -4   7 807.098 664.567  52
  -2  -4   7 711.730 785.005  53
  -2  -4   7 1293.35 706.602  25
   2  -4  -7 1556.66 585.889  49
  -2  -4   7 517.089 496.912  46
  -2  -4   7 342.479 382.705   4
  -2  -4   6 5370.19 1487.32  52
  -2  -4   6 1073.24 1057.39  53
  -2  -4   6 4854.90 1098.33  55
  -2  -4   6 3791.88 1037.60  25
  -2  -4   6 1050.15 786.888  49
  -2  -4   6 2329.04 962.250  46
  -2  -4   6 1454.56 644.359   4
  -2  -4   5 6335.34 1229.44  55
  -2  -4   5 4812.87 1386.72  52
  -2  -4   5 5262.77 1712.79  53
  -2  -4   5 6280.18 1245.25  25
  -2  -4   5 2079.28 1189.75  23
  -2  -4   5 5400.42 1505.32  49
  -2  -4   5 4915.60 1374.12  46
  -2  -4   5 1983.81 748.857   4
  -2  -4   4 5055.13 1467.74  52
  -2  -4   4 5623.27 1128.13  55
  -2  -4   4 3717.35 1473.55  53
  -2  -4   4 4379.52 1019.70  25
  -2  -4   4 5374.51 1721.49  23
  -2  -4   4 5803.38 1576.65  49
  -2  -4   4 2579.85 1071.54  46
  -2  -4   4 2311.86 763.366   4
   2  -4  -3 11213.5 1471.11  52
  -2  -4   3 11596.0 2157.95  52
  -2  -4   3 11019.7 1541.34  55
  -2  -4   3 6444.98 1972.53  23
  -2  -4   3 10900.3 2039.40  49
  -2  -4   3 10962.3 1576.53  25
  -2  -4   2 16829.8 2692.78  49
  -2  -4   2 14264.2 2805.89  23
  -2  -4   2 14866.7 2110.96  25
   2  -4  -2 15542.0 1981.04  52
  -2  -4   2 18158.0 2155.79  55
  -2  -4   2 11730.5 2430.04  52
   2  -4  -2 14271.9 2981.27  53
  -2  -4   1 1684.67 937.919  49
  -2  -4   1 2071.11 667.330  25
  -2  -4   1 3274.76 1282.68  23
  -2  -4   1 3564.21 804.438  55
   2  -4  -1 1117.23 1101.14  53
  -2  -4   0 8367.75 1933.44  49
  -2  -4   0 12963.2 2432.57  23
  -2  -4   0 11140.1 1673.56  25
  -2  -4   0 8975.69 1625.64  27
   2  -4   0 13113.7 2921.13  53
  -2  -4   0 14380.4 1723.32  55
  -2  -4  -1 956.915 701.031  49
  -2  -4  -1 562.389 822.156  23
  -2  -4  -1 1188.78 569.039  27
   2  -4   1 1679.41 1223.56  53
  -2  -4  -2 1684.14 855.738  49
  -2  -4  -2 2492.84 1069.94  23
  -2  -4  -2 1829.49 636.154  27
   2  -4   2 3078.68 1612.93  53
  -2  -4  -2 3255.86 1149.17  52
  -2  -4  -3 7099.80 1759.30  49
  -2  -4  -3 6643.60 1760.85  23
  -2  -4  -3 7129.42 1302.44  27
   2  -4   3 8253.06 2500.79  53
  -2  -4  -3 10274.2 2014.04  52
  -2  -4  -4 12301.9 2347.11  49
  -2  -4  -4 13717.1 2631.29  23
  -2  -4  -4 11848.4 1841.45  27
   2  -4   4 14215.0 3397.84  53
  -2  -4  -4 16052.1 2620.52  52
   2  -4   5 11519.6 2753.45  50
  -2  -4  -5 12252.6 2549.55  23
  -2  -4  -5 11241.3 1703.99  27
  -2  -4  -5 11415.0 2247.46  52
   2  -4   5 15123.6 3411.81  53
   2  -4   6 360.488 688.342  50
  -2  -4  -6 880.689 969.202  23
  -2  -4  -6 630.455 371.005  27
  -2  -4  -6 772.506 635.167  52
   2  -4   6 1507.22 1235.47  53
   2  -4   7 6446.44 1958.70  50
  -2  -4  -7 9122.84 2082.58  23
  -2  -4  -7 7855.25 1824.03  52
   2  -4   7 7218.88 2554.92  53
   2  -4   8 1052.96 870.846  50
  -2  -4  -8 864.362 718.284  49
  -2  -4  -8 1262.78 858.297  23
  -2  -4  -8 3457.74 1138.27  52
   2  -4   8 2114.00 1540.96  53
   2  -4   9 1028.31 926.926  50
  -2  -4  -9 1490.77 871.448  49
  -2  -4  -9 654.426 724.778  23
   2  -4   9 1493.65 519.091  26
  -2  -4  -9 806.899 598.060  52
   2  -4   9 540.258 1032.08  53
   2  -4  10 3929.72 1501.52  50
  -2  -4 -10 5511.82 1600.05  49
  -2  -4 -10 6068.07 1789.17  23
   2  -4  10 6720.48 1448.13  25
   2  -4  10 5158.48 1001.68  26
  -2  -4 -10 3504.74 1259.86  52
   2  -4  10 4951.96 2050.04  53
  -2  -4 -11 10125.4 2049.15  52
   2  -4  11 8880.47 2752.85  53
  -2  -4 -11 14083.4 2684.59  23
   2  -4  11 6765.77 1866.06  50
  -2  -4 -11 7147.03 1913.35  49
  -2  -4 -11 8174.22 2002.90  56
   2  -4  11 8856.44 1381.17  26
   2  -4  11 5707.76 1518.45  33
   2  -4  11 10824.5 1902.13  25
  -2  -4 -12 3613.41 1225.52  52
   2  -4  12 4977.32 2048.25  53
  -2  -4 -12 4130.89 1556.71  23
  -2  -4 -12 4785.41 1514.69  56
   2  -4  12 5718.32 1037.90  26
   2  -4  12 2941.51 1075.27  33
   2  -4  12 5547.89 1309.48  25
   2  -4  12 2838.28 1182.82  50
  -2  -4 -12 5581.16 1674.44  49
   2  -4  13 392.534 576.761  33
   2  -4  13 411.330 603.791  25
   2  -4  13 1549.72 530.696  26
   2  -4  14 3797.88 1097.71  25
   2  -4  14 1705.66 781.796  33
  -2  -4 -14 3139.71 1151.45  56
   2  -4  15 562.783 582.894  25
  -2  -4 -15 261.406 406.127  56
   2  -4  15-175.168 384.874  33
   2  -4  16 845.247 528.347  25
   2  -4  16 683.056 477.985  55
  -2  -4 -16 1352.79 785.319  56
   2  -4  16 306.345 448.827  33
  -2  -4 -17 1977.72 807.007  56
   2  -4  17 1883.16 694.924  25
  -2  -4 -18 500.858 367.846  56
   2  -4  18 812.036 444.685  25
   2  -4  19 905.729 391.510  25
  -2  -3  21 82.2644 180.880  28
  -2  -3  20 486.459 402.955  28
  -2  -3  19 625.250 523.682  28
  -2  -3  19 1431.53 447.975  12
   2  -3 -18 210.102 461.682  54
  -2  -3  18-160.718 249.813  46
  -2  -3  18 499.648 517.555  33
  -2  -3  18 186.483 354.916  28
  -2  -3  18 196.300 285.380  12
  -2  -3  17 1389.23 677.094  46
  -2  -3  17 1358.60 844.130  33
  -2  -3  17 3498.92 788.437  12
  -2  -3  17 2087.51 784.208  25
  -2  -3  16 1622.98 709.841  30
  -2  -3  16 1504.02 768.155  33
  -2  -3  16 2787.81 970.643  25
  -2  -3  16 2029.25 877.014  46
  -2  -3  16 3116.31 827.066  12
  -2  -3  15 456.811 563.404  33
  -2  -3  15 681.895 498.129  55
  -2  -3  15 1291.92 711.470  25
  -2  -3  15 242.529 464.314  46
  -2  -3  15 686.074 455.113  12
  -2  -3  14 469.831 578.503  33
  -2  -3  14 1098.89 668.553  55
  -2  -3  14 222.509 490.586  25
   2  -3 -14 755.411 441.023  47
  -2  -3  14 210.693 402.979  44
  -2  -3  14 250.934 391.991  46
  -2  -3  14 388.894 404.862  13
  -2  -3  14 972.286 507.725  12
  -2  -3  13 1412.75 873.888  33
  -2  -3  13 3389.23 1005.87  55
  -2  -3  13 2661.60 958.255  25
   2  -3 -13 4225.34 1013.34  47
  -2  -3  13 1265.30 714.655  44
  -2  -3  13 252.614 642.470  46
  -2  -3  13 2641.45 737.044  13
  -2  -3  13 2172.14 671.052  12
  -2  -3  12 3308.01 1015.72  30
  -2  -3  12 3240.27 1184.91  33
  -2  -3  12 8433.17 1569.85  55
  -2  -3  12 7525.35 1569.44  25
   2  -3 -12 8390.95 1304.20  47
  -2  -3  12 4994.94 1434.42  46
  -2  -3  12 2075.79 894.284  44
  -2  -3  12 6180.36 1125.51  13
  -2  -3  12 6711.38 1184.06  12
  -2  -3  11 1121.45 787.949  33
  -2  -3  11 2480.00 847.500  30
  -2  -3  11 5098.66 1181.11  55
  -2  -3  11 2449.79 910.450  25
   2  -3 -11 6553.93 1106.67  47
  -2  -3  11 5375.60 1369.59  46
  -2  -3  11 1617.16 753.401  44
  -2  -3  11 4621.37 905.340  13
  -2  -3  11 4325.58 907.561  12
  -2  -3  10 3247.69 1029.39   4
  -2  -3  10 4517.57 1296.20  33
  -2  -3  10 7651.24 1464.59  55
  -2  -3  10 8405.44 1618.05  25
   2  -3 -10 12557.1 1513.47  47
  -2  -3  10 3570.03 1284.96  46
  -2  -3  10 3521.42 1119.76  44
  -2  -3  10 8732.50 1219.68  13
  -2  -3  10 11020.8 1403.40  12
  -2  -3   9 2554.35 865.662   4
  -2  -3   9 3275.53 1107.75  33
  -2  -3   9 5106.48 1045.28  27
  -2  -3   9 4101.69 1067.48  55
  -2  -3   9 4958.54 1220.49  25
  -2  -3   9 5609.84 1671.30  23
   2  -3  -9 7601.08 1126.00  47
  -2  -3   9 3013.39 1125.74  46
  -2  -3   9 5804.41 948.432  13
  -2  -3   9 7210.27 1087.00  12
  -2  -3   8 1186.53 577.153   4
  -2  -3   8 1834.10 648.063  27
  -2  -3   8 967.669 669.253  33
  -2  -3   8 3686.18 930.956  55
  -2  -3   8 3048.90 1050.32  52
  -2  -3   8 3023.10 1158.94  53
  -2  -3   8 3266.79 919.795  25
  -2  -3   8 3154.87 1357.51  23
   2  -3  -8 4744.87 828.312  47
  -2  -3   8 1584.28 772.941  46
  -2  -3   8 3344.64 653.126  13
  -2  -3   7 2576.60 798.331  55
  -2  -3   7 1787.59 897.856  53
  -2  -3   7 2742.27 1013.65  52
  -2  -3   7 1203.53 633.656  25
  -2  -3   7 1510.92 1058.84  23
  -2  -3   7 1541.74 455.821  13
  -2  -3   7 1236.88 561.652   4
  -2  -3   6 4361.89 1288.95  49
  -2  -3   6 3470.03 1493.54  23
  -2  -3   6 4779.27 736.363  13
  -2  -3   6 2906.53 1066.33  52
  -2  -3   6 2542.19 1131.99  53
  -2  -3   5 1256.31 694.255  49
  -2  -3   5 900.027 474.625  25
  -2  -3   5 1095.35 905.687  23
  -2  -3   5 852.058 301.241  13
  -2  -3   5 1115.73 515.236  55
  -2  -3   5 655.751 593.104  52
  -2  -3   5 489.792 715.858  53
  -2  -3   4 23359.4 3414.74  49
  -2  -3   4 25681.4 3746.57  23
  -2  -3   4 30437.3 2752.08  13
  -2  -3   4 23414.4 3555.84  53
  -2  -3   4 24778.7 3497.23  52
  -2  -3   3 22088.1 3050.85  49
  -2  -3   3 21340.8 3258.77  23
  -2  -3   3 24328.6 3194.59  52
  -2  -3   2 12903.5 2063.04  49
  -2  -3   2 11800.5 2171.50  23
   2  -3  -2 11619.1 1278.95  17
   2  -3  -2 13661.9 2429.33  53
  -2  -3   1 8336.58 1564.58  49
   2  -3  -1 6649.25 823.146  17
   2  -3  -1 8064.30 1857.56  53
  -2  -3   1 6151.08 1569.91  23
   2  -3   0 2776.93 535.026  52
   2  -3   0 2809.95 1220.72  53
  -2  -3   0 3389.80 1043.09  52
   2  -3   0 3099.42 476.913  17
  -2  -3   0 2428.60 545.863   6
  -2  -3   0 3818.00 1214.10  23
   2  -3   1 2400.30 1301.88  53
  -2  -3  -1 3119.48 999.958  52
   2  -3   1 3298.60 496.380  17
  -2  -3  -1 2614.94 543.572   6
  -2  -3  -1 3095.60 1072.14  23
   2  -3   2 3495.02 1413.52  53
  -2  -3  -2 1624.40 748.222  52
  -2  -3  -2 3628.58 1092.32  23
   2  -3   2 3111.02 471.300  17
  -2  -3  -2 2065.59 497.343   6
   2  -3   3 12752.4 2674.18  53
  -2  -3  -3 11604.4 1940.66  52
  -2  -3  -3 14214.6 2175.11  23
   2  -3   3 14237.1 2536.59  50
   2  -3   3 10853.4 1285.29  17
  -2  -3  -3 12543.0 1459.81   6
  -2  -3  -4 7823.06 1528.21  49
  -2  -3  -4 7520.53 1652.57  23
   2  -3   4 6744.74 893.504  17
  -2  -3  -4 7721.82 1482.12  52
   2  -3   4 6699.01 1992.00  53
   2  -3   5 13820.4 2700.01  50
  -2  -3  -5 17154.9 2375.83  49
  -2  -3  -5 18649.4 2513.96  23
   2  -3   5 11826.2 1434.02  17
  -2  -3  -5 14968.5 2177.24  52
  -2  -3  -6 24324.3 3097.97  52
   2  -3   6 20317.6 3811.21  53
   2  -3   6 20433.4 2266.98  22
  -2  -3  -6 25280.4 3201.77  49
   2  -3   6 21845.6 3427.39  50
  -2  -3  -7 8484.65 1654.48  52
   2  -3   7 7416.59 2226.22  53
   2  -3   7 7919.87 1097.44  22
   2  -3   7 10175.1 2198.74  50
  -2  -3  -7 8921.37 1802.36  49
  -2  -3  -7 6699.15 1168.61  47
  -2  -3  -8 199.142 378.916  52
   2  -3   8 435.174 956.119  53
   2  -3   8 173.426 233.334  21
   2  -3   8 79.4297 123.400  22
  -2  -3  -8-221.628 403.747  47
   2  -3   8 292.586 642.839  50
  -2  -3  -8 230.587 438.747  49
  -2  -3  -9 2658.25 913.761  52
   2  -3   9 1380.65 1142.63  53
   2  -3   9 2008.25 570.611  21
   2  -3   9 2116.62 538.916  22
  -2  -3  -9 1931.59 895.268  49
   2  -3   9 1475.96 932.140  50
  -2  -3  -9 1702.71 575.393  47
   2  -3  10 2344.73 1022.05  50
  -2  -3 -10 1318.59 529.786  47
  -2  -3 -10 1522.48 840.968  49
   2  -3  10 837.577 391.681  21
   2  -3  10 679.685 348.825  22
  -2  -3 -10 1466.50 733.194  52
   2  -3  10 1454.73 1307.86  53
   2  -3  10 726.864 637.494  33
   2  -3  10 1332.40 472.664  26
  -2  -3 -11 597.954 658.180  56
   2  -3  11 2031.73 1367.41  53
  -2  -3 -11 852.078 574.698  52
   2  -3  11 792.112 414.357  21
   2  -3  11 578.438 636.784  50
  -2  -3 -11 281.589 312.088  47
  -2  -3 -11 791.868 768.296  49
   2  -3  11 1380.78 686.491  33
   2  -3  11 652.967 398.659  26
   2  -3  11 224.890 217.909  13
   2  -3  12 9603.75 1436.39  13
  -2  -3 -12 8824.76 2106.29  56
  -2  -3 -12 7837.86 1676.07  52
   2  -3  12 6329.52 2419.22  53
   2  -3  12 9355.99 1423.35  21
   2  -3  12 4467.44 1536.97  50
  -2  -3 -12 7227.95 1396.81  47
  -2  -3 -12 10277.0 2067.87  49
  -2  -3 -12 10206.4 1535.55  42
   2  -3  12 9135.30 1371.54  26
   2  -3  12 5460.47 1548.18  33
   2  -3  13 3882.12 897.177  13
  -2  -3 -13 5489.58 1668.88  56
   2  -3  13 2692.55 1610.06  53
   2  -3  13 2644.37 1074.80  50
  -2  -3 -13 4528.91 1051.25  47
  -2  -3 -13 5157.04 1478.98  49
  -2  -3 -13 4830.55 1063.48  42
   2  -3  13 7063.40 1138.66  26
   2  -3  13 3491.06 1185.95  33
   2  -3  13 4844.38 1008.80  21
  -2  -3 -14 1275.77 865.000  56
  -2  -3 -14 1625.72 586.428  42
   2  -3  14 1099.37 691.662  33
   2  -3  14 433.347 592.954  25
   2  -3  14 1422.33 547.608  26
   2  -3  14 1620.88 591.057  21
  -2  -3 -15 3602.80 1341.71  56
  -2  -3 -15 2809.13 781.414  42
   2  -3  15 2135.20 940.730  33
   2  -3  15 3148.49 1059.75  25
   2  -3  15 3006.66 808.184  21
  -2  -3 -16 2134.13 1031.01  56
   2  -3  16 1879.39 597.401  21
  -2  -3 -16 2863.36 723.301  42
   2  -3  16 2928.75 999.268  25
   2  -3  16 1190.40 744.941  33
  -2  -3 -17 259.775 571.164  54
  -2  -3 -17 96.3072 212.711  42
  -2  -3 -17 442.274 543.642  56
   2  -3  17 573.212 332.593  21
  -2  -3 -18 815.191 603.366  54
   2  -3  18 1360.48 422.668  21
  -2  -3 -18 1754.73 488.857  42
  -2  -3 -18 1165.52 617.425  56
   2  -3  19 1349.14 497.373  25
  -2  -3 -19 1849.54 446.082   1
  -2  -3 -19 1487.16 526.592  56
  -2  -2  21 653.597 381.500  28
  -2  -2  21 529.714 246.710  12
  -2  -2  20 148.296 400.349  28
  -2  -2  20 515.975 314.980  12
  -2  -2  19 550.824 500.775  28
  -2  -2  19 1436.66 549.040  12
   2  -2 -18 236.407 637.652  54
  -2  -2  18 595.939 536.329  46
  -2  -2  18 1050.97 560.657  12
  -2  -2  18 425.904 407.558  28
  -2  -2  18 358.550 442.554  33
  -2  -2  17 1608.43 841.288  46
  -2  -2  17 406.239 505.814  33
  -2  -2  17 1469.57 609.734  12
  -2  -2  16 1309.62 781.294  33
  -2  -2  16 2905.49 954.453  25
  -2  -2  16 2498.75 1079.69  46
  -2  -2  16 2497.70 808.122  12
  -2  -2  15 729.096 431.147   5
  -2  -2  15-224.860 557.993  33
  -2  -2  15 1036.79 545.419  55
  -2  -2  15 1543.12 796.792  25
   2  -2 -15 2273.87 710.946  47
  -2  -2  15 1037.46 702.394  46
  -2  -2  15 1035.62 544.814  13
  -2  -2  15 2537.93 783.289  12
  -2  -2  14 1189.52 574.571   5
  -2  -2  14 672.688 659.317  33
  -2  -2  14 1420.75 608.973  55
  -2  -2  14 782.611 535.855  25
   2  -2 -14 1879.01 681.013  47
  -2  -2  14 1039.76 706.552  46
  -2  -2  14 1295.55 556.817  13
  -2  -2  13 2781.33 932.681  30
  -2  -2  13 3926.69 1248.53  33
  -2  -2  13 4819.46 1115.47  55
  -2  -2  13 3639.16 1088.85  25
   2  -2 -13 5483.59 1079.97  47
  -2  -2  13 3967.53 1123.77  44
  -2  -2  13 3302.64 1170.16  46
  -2  -2  13 5305.30 1113.39  13
  -2  -2  12 4375.67 1171.86  30
  -2  -2  12 5632.07 1420.72  33
  -2  -2  12 10123.6 1585.00  55
  -2  -2  12 10416.8 1731.54  25
   2  -2 -12 10105.5 1454.42  47
  -2  -2  12 4396.20 1360.08  46
  -2  -2  12 3965.50 1189.09  44
  -2  -2  12 12060.1 1553.73  13
  -2  -2  11 163.577 311.259  30
  -2  -2  11-197.182 530.601  33
  -2  -2  11-152.309 289.821  55
  -2  -2  11-171.144 376.033  25
   2  -2 -11 233.588 314.294  47
  -2  -2  11 178.152 338.991  44
  -2  -2  11 232.654 442.691  46
  -2  -2  11 342.030 375.749  13
  -2  -2  10 2282.04 775.460  30
  -2  -2  10 2405.51 917.785  33
  -2  -2  10 5489.36 1109.87  55
  -2  -2  10 4115.18 1047.01  25
   2  -2 -10 5251.13 942.636  47
  -2  -2  10 1988.14 863.921  46
  -2  -2  10 6437.05 990.193  13
   2  -2  -9 981.377 393.432  47
  -2  -2   9 871.702 508.348  25
  -2  -2   9 814.143 475.278  55
  -2  -2   9 454.030 305.372  13
  -2  -2   9 702.169 353.728  12
   2  -2  -8 2226.84 510.195  48
  -2  -2   8 2525.60 743.139  25
  -2  -2   8 2941.40 1227.77  23
  -2  -2   8 2408.38 751.014  55
  -2  -2   8 1408.94 695.792  53
  -2  -2   8 3052.80 637.621  13
   2  -2  -7 23072.3 2146.45  48
  -2  -2   7 15289.7 2837.85  23
  -2  -2   7 18609.2 2052.11  13
  -2  -2   7 14877.1 2419.92  53
  -2  -2   7 16355.5 2595.40  52
  -2  -2   6 13446.3 2560.07  23
  -2  -2   6 13837.1 2264.71  53
  -2  -2   6 17586.6 2505.76  52
  -2  -2   6 17632.8 1822.74  13
  -2  -2   5 8085.54 1668.24  49
  -2  -2   5 9671.47 1785.90  52
  -2  -2   5 8558.08 1673.26  53
  -2  -2   5 9982.13 1180.97  13
  -2  -2   5 10649.0 2054.66  23
  -2  -2   4 6326.94 1356.07  53
  -2  -2   4 7429.29 907.572  13
  -2  -2   4 4322.75 1341.53  23
   2  -2  -3 6322.62 1236.41  53
  -2  -2   3 7161.65 888.313  13
  -2  -2   3 5848.08 1477.14  23
  -2  -2   2-171.169 498.331  23
  -2  -2   2 647.219 616.416  52
   2  -2  -2 738.245 513.725  53
  -2  -2   2 369.869 263.849   6
  -2  -2   1 7371.93 1481.44  23
  -2  -2   1 6277.25 926.741   6
   2  -2  -1 7901.25 1538.70  53
  -2  -2   1 9802.23 1579.90  52
   2  -2   0 9419.51 1724.97  53
  -2  -2   0 10122.2 1596.87  52
  -2  -2   0 9071.79 1505.75  23
  -2  -2   0 8018.28 1402.81  49
  -2  -2   0 7988.01 1042.01   6
   2  -2   0 7440.18 921.097  17
   2  -2   1 12097.1 2139.07  53
  -2  -2  -1 9169.56 1624.49  52
  -2  -2  -1 10826.8 1712.74  23
   2  -2   1 13617.8 2112.12  50
  -2  -2  -1 9987.39 1633.14  49
  -2  -2  -1 10655.3 1316.72   6
   2  -2   1 12359.1 1241.41  17
   2  -2   2 7327.94 1678.07  53
  -2  -2  -2 7348.47 1348.50  52
  -2  -2  -2 7016.85 1289.38  23
   2  -2   2 10435.3 1868.99  50
  -2  -2  -2 6209.22 1231.29  49
  -2  -2  -2 7777.85 1019.35   6
   2  -2   2 7460.97 896.981  17
  -2  -2  -3 17473.2 2323.24  49
   2  -2   3 20455.1 2816.86  50
  -2  -2  -3 18439.8 2373.95  23
   2  -2   3 18675.5 1871.18  17
   2  -2   3 15704.4 2790.26  53
  -2  -2  -3 18980.4 2377.75  52
  -2  -2  -4 7407.46 1331.07  49
  -2  -2  -4 9621.51 1479.09  23
   2  -2   4 5597.33 1604.32  53
  -2  -2  -4 8244.52 1350.28  52
   2  -2   4 6713.84 894.027  17
  -2  -2  -5 1462.54 465.194  47
  -2  -2  -5 1164.16 652.774  49
  -2  -2  -5 2444.37 732.495  52
   2  -2   5 553.097 814.428  53
   2  -2   5 1665.87 384.768  17
   2  -2   6 5024.90 1313.49  50
  -2  -2  -6 3545.13 752.999  47
  -2  -2  -6 3089.52 882.900  49
   2  -2   6 3701.48 625.393  17
   2  -2   6 2409.16 1183.93  53
  -2  -2  -6 3178.77 838.040  52
   2  -2   7 5485.50 1388.94  50
  -2  -2  -7 2432.22 668.993  47
  -2  -2  -7 3162.77 937.166  49
   2  -2   7 3481.97 648.863  22
   2  -2   7 3162.04 610.105  17
  -2  -2  -7 3430.14 870.219  52
   2  -2   7 3288.96 1331.46  53
  -2  -2  -8 6885.72 1275.50  52
   2  -2   8 7181.96 2043.61  53
   2  -2   8 7475.24 1079.52  21
   2  -2   8 4906.52 917.693  22
   2  -2   8 7651.56 1712.49  50
  -2  -2  -8 6179.19 1122.83  47
  -2  -2  -8 5926.96 1343.16  49
   2  -2   9 7137.79 1843.11  50
  -2  -2  -9 13534.1 2039.41  49
  -2  -2  -9 9892.15 1528.37  47
   2  -2   9 11512.5 1473.30  21
   2  -2   9 9737.02 1364.42  22
  -2  -2  -9 9751.25 1671.76  52
   2  -2   9 6662.44 2192.82  53
  -2  -2  -9 10582.3 2117.69  56
  -2  -2 -10 13708.0 2503.75  56
  -2  -2 -10 14419.4 2151.45  59
  -2  -2 -10 11395.2 1907.53  52
   2  -2  10 13246.2 3088.93  53
   2  -2  10 12943.1 1730.95  21
   2  -2  10 14844.9 1740.70  22
   2  -2  10 9485.23 2165.00  50
  -2  -2 -10 13864.8 2246.00  49
  -2  -2 -10 12138.0 1828.03  47
  -2  -2 -10 13549.6 1882.75  42
   2  -2  10 9417.61 1948.78  33
  -2  -2 -11 6429.32 1689.25  56
  -2  -2 -11 4089.42 1105.85  59
   2  -2  11 6012.39 2066.13  53
  -2  -2 -11 4497.68 1094.29  52
   2  -2  11 5376.32 1003.62  21
   2  -2  11 5099.16 934.980  22
  -2  -2 -11 4387.32 1214.26  49
   2  -2  11 3761.82 1306.57  50
  -2  -2 -11 3199.03 923.703  47
  -2  -2 -11 4763.72 1042.29  42
   2  -2  11 2547.93 1097.72  33
   2  -2  12 1713.24 594.397  13
  -2  -2 -12 3281.76 1310.59  56
  -2  -2 -12 2745.29 977.795  59
   2  -2  12 1982.78 1344.31  53
   2  -2  12 1981.63 645.556  21
   2  -2  12 1733.66 591.959  22
   2  -2  12 1358.65 807.311  50
  -2  -2 -12 1146.30 687.031  49
  -2  -2 -12 1389.98 611.086  47
  -2  -2 -12 3261.79 862.703  42
   2  -2  12 3190.50 1058.28  33
   2  -2  12 2412.38 642.659  26
   2  -2  13 9016.96 1442.22  13
  -2  -2 -13 11290.3 2420.94  56
  -2  -2 -13 8916.53 1723.68  59
   2  -2  13 7850.91 2538.46  53
   2  -2  13 9079.90 1449.91  21
   2  -2  13 5352.32 1575.11  50
  -2  -2 -13 8847.67 1558.64  47
  -2  -2 -13 7752.92 1719.79  49
  -2  -2 -13 7527.54 1464.58  42
   2  -2  13 10393.8 1423.93  26
   2  -2  13 5198.12 1570.24  33
   2  -2  14 1906.50 633.799  13
  -2  -2 -14 2402.48 1140.45  56
  -2  -2 -14 1221.13 648.956  59
   2  -2  14 1083.68 1041.24  53
  -2  -2 -14 1634.55 687.491  47
  -2  -2 -14 938.429 647.909  49
  -2  -2 -14 2169.12 716.755  42
   2  -2  14 1825.47 618.507  26
   2  -2  14 1869.87 863.986  33
   2  -2  14 2314.34 684.524  21
  -2  -2 -15 1769.59 779.398  59
  -2  -2 -15 1970.46 1043.49  56
   2  -2  15 4231.88 925.866  21
  -2  -2 -15 3021.93 841.928  42
   2  -2  15 1636.09 1080.90  33
  -2  -2 -16 5252.35 1666.81  54
  -2  -2 -16 4161.49 1388.37  56
  -2  -2 -16 3243.92 1027.40  59
   2  -2  16 3683.30 919.663  21
  -2  -2 -16 3537.48 916.379  42
   2  -2  16 6079.32 1395.88  25
  -2  -2 -17 2746.02 1241.67  54
  -2  -2 -17 3263.28 1172.16  56
   2  -2  17 4955.54 963.054  21
  -2  -2 -17 2653.59 800.028  42
   2  -2  17 3112.99 964.897  25
   2  -2  18 524.922 328.181  21
   2  -2  18 156.506 299.955  25
  -2  -2 -18 195.045 430.040  56
  -2  -2 -18 745.338 406.790  42
  -2  -2 -18 1236.29 815.666  54
   2  -2  19 2241.60 755.982  25
   2  -2  19 3899.84 736.123  21
  -2  -2 -19 1347.07 613.141  56
  -2  -2 -19 3402.77 680.510  42
  -2  -2 -19 2201.10 834.930  54
  -2  -2 -20 783.257 284.987  42
   2  -2  20 878.705 416.407  25
   2  -2  20 1026.76 346.597  21
  -2  -1  21 753.361 570.096  28
  -2  -1  21 2639.49 583.622  12
  -2  -1  20 166.401 317.328  28
  -2  -1  20 310.768 279.553  12
  -2  -1  19 1825.05 842.700  28
  -2  -1  19 1271.03 588.917  12
  -2  -1  18 1390.45 806.000  28
  -2  -1  18 671.020 651.280  46
   2  -1 -18 719.595 646.634  54
  -2  -1  18 242.008 299.804   5
  -2  -1  18 439.032 456.397  12
  -2  -1  17 1612.33 805.771  33
  -2  -1  17 1759.85 880.221  46
   2  -1 -17 3982.13 1330.22  54
  -2  -1  17 426.461 427.467   5
  -2  -1  17 3031.54 865.658  12
  -2  -1  16 1063.71 635.109  33
   2  -1 -16 2798.04 1191.96  54
  -2  -1  16 2138.76 939.988  46
   2  -1 -16 2818.83 794.967  47
  -2  -1  16 2479.96 775.167  13
  -2  -1  16 774.828 582.941   5
  -2  -1  15 6564.44 1417.80   5
  -2  -1  15 7356.48 1490.87  25
  -2  -1  15 9700.25 1695.47  21
  -2  -1  15 5365.72 1507.72  33
   2  -1 -15 10817.8 1639.03  47
  -2  -1  15 10063.8 2103.01  46
  -2  -1  15 10292.6 1647.94  13
  -2  -1  14 4126.62 1106.98   5
  -2  -1  14 4391.15 1295.09  33
   2  -1 -14 7441.93 1311.29  47
  -2  -1  14 5670.15 1283.04  25
  -2  -1  14 7963.52 1406.81  21
  -2  -1  14 7219.45 1710.94  46
  -2  -1  14 6187.15 1249.81  13
  -2  -1  13 1276.69 645.281  30
  -2  -1  13 1191.63 700.690  33
  -2  -1  13 789.977 505.923  25
  -2  -1  13 1579.28 680.232  21
   2  -1 -13 2071.92 663.275  47
  -2  -1  13 1794.03 853.449  46
  -2  -1  13 2063.40 719.273  13
  -2  -1  12 2182.87 762.902  30
  -2  -1  12 741.615 607.845  33
  -2  -1  12 3468.46 833.552  55
  -2  -1  12 2551.48 780.056  25
  -2  -1  12 2768.89 803.764  21
   2  -1 -12 2491.39 692.268  47
  -2  -1  12 2655.78 1011.16  46
  -2  -1  12 2642.62 731.080  13
  -2  -1  11 152.760 291.151  30
  -2  -1  11 124.365 305.958  55
  -2  -1  11 139.967 307.983  25
  -2  -1  11 238.524 293.443  21
   2  -1 -11 108.894 239.843  47
  -2  -1  11 675.145 553.072  46
  -2  -1  11 566.800 352.632  13
  -2  -1  10 8169.41 1308.14  55
  -2  -1  10 4514.18 1055.13  25
  -2  -1  10 7043.33 1161.24  21
  -2  -1  10 5543.43 1221.49   8
  -2  -1  10 5352.47 1020.30  13
   2  -1 -10 8654.65 1198.63  47
   2  -1  -9 11404.7 1401.88  48
  -2  -1   9 13036.0 1592.50  13
  -2  -1   9 11188.0 1568.06  21
   2  -1  -8 17425.8 1962.87  48
  -2  -1   8 18466.6 2063.11  13
   2  -1  -7 3342.03 641.722  48
  -2  -1   7 3521.34 643.534  13
   2  -1  -6 9895.81 1276.38  50
   2  -1  -6 12076.7 1292.17  48
  -2  -1   6 8917.50 1822.10  23
  -2  -1   6 12154.2 1229.38  13
   2  -1  -5 17021.0 1980.42  50
  -2  -1   5 12100.4 2176.59  23
  -2  -1   5 14623.0 1718.07  13
   2  -1  -4 6623.51 907.956  48
   2  -1  -4 5801.04 1002.34  50
  -2  -1   4 4097.98 1075.35  49
  -2  -1   4 4249.56 1178.24  23
  -2  -1   4 4119.06 1068.63  52
  -2  -1   4 5009.43 719.204  13
  -2  -1   3 5885.15 785.818  53
  -2  -1   3 7988.00 1333.71  52
  -2  -1   3 7215.73 1370.06  23
   2  -1  -3 8232.54 1247.23  50
  -2  -1   3 7531.90 1339.32  49
  -2  -1   3 5393.24 884.615   6
  -2  -1   3 7381.44 872.595  13
   2  -1  -2 10521.0 1286.69  53
  -2  -1   2 14578.4 1906.97  52
  -2  -1   2 15235.7 1968.57  23
   2  -1  -2 16127.0 1878.67  50
  -2  -1   2 13277.1 1819.54  49
  -2  -1   2 9754.26 1350.78   6
  -2  -1   2 13709.0 1345.32  13
   2  -1  -1 19406.0 2192.65  50
  -2  -1   1 15691.0 2021.90  49
  -2  -1   1 15531.8 2047.65  23
  -2  -1   1 14711.9 1656.04   6
  -2  -1   1 15300.8 1433.77  51
   2  -1  -1 12466.0 1688.90  53
  -2  -1   1 18739.5 2177.71  52
   2  -1   0 2176.27 658.465  53
  -2  -1   0 2993.22 395.690  51
  -2  -1   0 2986.43 812.071  52
  -2  -1   0 4315.46 858.116  23
   2  -1   0 5418.39 1072.75  50
  -2  -1   0 4409.96 904.453  49
  -2  -1   0 4129.30 616.867   6
   2  -1   0 4294.22 552.291  17
   2  -1   1 48418.9 4202.35  53
  -2  -1  -1 35039.2 3357.23  51
  -2  -1  -1 35532.3 3917.12  52
  -2  -1  -1 36265.2 3825.28  23
   2  -1   1 53009.6 4466.36  50
  -2  -1  -1 34589.6 3857.91  49
  -2  -1  -1 40805.2 3657.87   6
   2  -1   1 41417.9 3541.16  17
   2  -1   2 18360.4 2283.62  50
  -2  -1  -2 14278.4 1877.03  49
  -2  -1  -2 16176.9 1856.50  23
   2  -1   2 16768.9 1602.20  17
   2  -1   2 16881.5 2206.13  53
  -2  -1  -2 14377.5 1440.16  51
  -2  -1  -2 15502.2 1928.31  52
   2  -1   3 5105.12 1219.24  50
  -2  -1  -3 6098.33 1036.04  49
  -2  -1  -3 6842.78 1034.00  23
   2  -1   3 5475.75 1272.59  53
  -2  -1  -3 5739.44 1014.13  52
   2  -1   3 6418.99 788.391  17
   2  -1   4 9450.88 1612.18  50
  -2  -1  -4 8168.25 1237.89  49
  -2  -1  -4 6504.45 1048.89  47
   2  -1   4 7816.41 1591.40  53
  -2  -1  -4 8059.80 1190.69  52
   2  -1   4 7996.12 954.260  17
  -2  -1  -5 7628.21 1276.75  49
  -2  -1  -5 7986.46 1161.61  47
   2  -1   5 9371.27 1834.65  53
  -2  -1  -5 8703.12 1243.07  52
   2  -1   5 8777.15 1043.59  17
  -2  -1  -6 4244.55 848.858  47
  -2  -1  -6 5202.23 1026.45  49
  -2  -1  -6 4755.65 886.052  52
   2  -1   6 5571.06 1495.32  53
   2  -1   6 5502.22 762.172  17
   2  -1   7 8647.68 1872.90  50
  -2  -1  -7 13219.5 1642.07  47
  -2  -1  -7 13973.8 1831.80  49
   2  -1   7 11478.3 1388.47  17
   2  -1   7 12087.7 2360.60  53
  -2  -1  -7 11448.0 1562.13  52
   2  -1   8 19435.1 3143.03  50
  -2  -1  -8 24136.0 2772.58  47
  -2  -1  -8 26682.3 3027.88  49
   2  -1   8 26882.7 2673.71  21
   2  -1   8 26702.8 2625.50  22
   2  -1   8 23969.6 2539.10  17
   2  -1   8 23559.0 3755.60  53
  -2  -1  -8 21654.6 2672.89  52
   2  -1   9 2763.95 991.614  50
  -2  -1  -9 2295.93 729.291  49
  -2  -1  -9 2040.62 608.871  47
   2  -1   9 2525.47 605.448  21
   2  -1   9 1494.31 462.866  22
  -2  -1  -9 1343.68 478.784  52
  -2  -1  -9 755.831 637.154  56
  -2  -1 -10 13781.6 2407.64  56
  -2  -1 -10 10134.6 1780.81  59
   2  -1  10 11694.2 2657.02  53
   2  -1  10 7217.63 1279.09  21
   2  -1  10 10285.3 1372.97  22
  -2  -1 -10 8553.05 1479.16  47
   2  -1  10 9785.29 2044.62  50
  -2  -1 -10 12154.4 1839.82  49
  -2  -1 -10 9750.01 1529.25  42
   2  -1  10 8919.38 1296.56  26
   2  -1  10 8270.92 1653.63  33
  -2  -1 -11 8977.89 2011.88  56
  -2  -1 -11 5452.31 1353.67  59
   2  -1  11 6060.09 2018.64  53
   2  -1  11 5093.93 1014.88  21
   2  -1  11 4102.30 923.479  22
  -2  -1 -11 6271.08 1377.23  49
   2  -1  11 8290.07 1796.56  50
  -2  -1 -11 5429.63 1135.91  47
  -2  -1 -11 7420.90 1315.33  42
   2  -1  11 5764.83 975.848  26
   2  -1  11 5074.99 1304.68  33
  -2  -1 -12 206.940 405.298  59
  -2  -1 -12 1000.16 824.549  56
   2  -1  12 3332.23 1571.77  53
   2  -1  12 2055.68 616.275  21
   2  -1  12 1463.54 533.427  22
  -2  -1 -12 1329.62 666.811  49
   2  -1  12 1884.51 940.150  50
  -2  -1 -12 919.079 540.732  47
  -2  -1 -12 915.205 538.525  42
   2  -1  12 854.077 747.940  33
   2  -1  12 1732.39 547.600  26
   2  -1  13 5529.80 1098.52  13
  -2  -1 -13 4754.27 1301.58  59
  -2  -1 -13 4536.54 1559.87  56
   2  -1  13 6177.00 2241.71  53
   2  -1  13 5961.71 1108.69  22
   2  -1  13 7154.31 1222.63  21
  -2  -1 -13 4538.67 1223.78  49
   2  -1  13 6593.31 1667.04  50
  -2  -1 -13 5971.98 1244.69  47
  -2  -1 -13 6564.03 1320.79  42
   2  -1  13 5502.05 1523.76  33
   2  -1  13 4842.07 966.063  26
   2  -1  14 5573.79 1081.12  13
  -2  -1 -14 5632.84 1770.40  56
  -2  -1 -14 3083.56 1093.92  59
   2  -1  14 7080.97 2423.13  53
  -2  -1 -14 4027.66 1698.13  54
   2  -1  14 4788.96 1034.02  21
   2  -1  14 4065.37 1318.51  50
  -2  -1 -14 4192.00 1159.77  49
  -2  -1 -14 4655.01 1084.84  47
  -2  -1 -14 3116.44 1009.69  42
   2  -1  14 4322.94 1372.24  33
   2  -1  14 4968.22 950.287  26
  -2  -1 -15 4130.87 1153.99  59
  -2  -1 -15 2717.64 1268.31  56
  -2  -1 -15 5170.52 1769.52  54
   2  -1  15 4048.04 960.846  21
  -2  -1 -15 2680.95 828.609  47
  -2  -1 -15 3258.46 953.717  42
   2  -1  15 2654.04 801.156  13
   2  -1  16 2336.63 707.758  21
  -2  -1 -16 1029.93 657.096  59
  -2  -1 -16 1857.91 973.572  56
  -2  -1 -16 1869.71 700.636  42
  -2  -1 -16 1862.68 1167.05  54
  -2  -1 -17 5913.69 1885.89  54
  -2  -1 -17 7225.41 1541.82  59
  -2  -1 -17 7932.71 1839.47  56
   2  -1  17 9197.11 1424.82  21
  -2  -1 -17 8550.24 1456.49  42
   2  -1  17 6393.97 1437.82  25
  -2  -1 -18 270.839 612.990  54
  -2  -1 -18 1866.32 699.083  59
  -2  -1 -18 1046.51 705.311  56
   2  -1  18 1974.23 642.087  21
  -2  -1 -18 3343.65 783.521  42
   2  -1  18 3049.68 866.729  25
   2  -1  19 588.571 362.686  21
   2  -1  19 850.351 503.117  25
  -2  -1 -19 826.205 603.495  54
  -2  -1 -19 809.426 434.872  42
  -2  -1 -19 820.079 502.249  59
  -2  -1 -19 595.646 437.178  56
   2  -1  20 1072.18 369.598  21
  -2  -1 -20 141.954 384.745  54
  -2  -1 -20 1139.67 385.244  42
  -2  -1 -20 259.674 237.421  56
   2  -1  21 308.923 196.719  21
  -2  -1 -21 144.452 150.640  42
  -2   0  22-55.6172 136.702  12
  -2   0  21 82.4018 221.845  12
  -2   0  20-323.224 237.282  12
  -2   0  20-82.1163 202.374   5
  -2   0  20-173.711 382.010  28
  -2   0  19 113.447 249.263   5
  -2   0  19-130.521 286.775  12
  -2   0  19 211.160 401.788  28
   2   0 -19 143.740 315.818  59
   2   0 -18-175.574 385.972  59
  -2   0  18 744.105 462.594  12
  -2   0  18 554.474 481.724   5
   2   0 -17 6759.08 1647.98  54
  -2   0  17 3445.77 1310.31  46
   2   0 -17 3512.29 1078.34  59
  -2   0  17 3297.03 937.767   5
  -2   0  16 2513.73 863.198   5
   2   0 -16 4271.88 1203.96  59
   2   0 -16 3718.62 1296.57  54
  -2   0  16 4944.68 1152.96  21
  -2   0  16 4470.81 1375.30  46
   2   0 -16 4223.81 972.621  47
  -2   0  16 2368.93 973.508  33
  -2   0  16 4807.48 1070.52  13
  -2   0  15 341.516 499.283   5
  -2   0  15 260.389 574.684  28
  -2   0  15 592.239 487.978  33
   2   0 -15 2067.47 974.901  54
  -2   0  15 790.386 494.180  21
  -2   0  15 281.895 539.130  46
   2   0 -15 702.897 412.204  47
  -2   0  15 667.859 521.636  43
  -2   0  15 1376.60 584.612  13
  -2   0  14 2685.62 896.217   5
  -2   0  14 2472.90 1075.35  28
  -2   0  14 2275.77 927.935  33
   2   0 -14 7525.82 1747.97  54
   2   0 -14 5645.25 1091.57  47
  -2   0  14 6576.90 1230.94  13
  -2   0  14 5260.84 1208.51  43
  -2   0  14 4942.20 1488.51  46
  -2   0  14 4701.38 1135.33  21
  -2   0  13-160.387 249.498   5
  -2   0  13-176.801 434.485  33
  -2   0  13-141.830 381.860  21
  -2   0  13 260.333 495.509  46
  -2   0  13-313.816 385.642  43
  -2   0  13-136.176 395.997  13
   2   0 -13 125.960 240.006  47
  -2   0  12-130.098 319.628  21
  -2   0  12 242.042 531.820  46
  -2   0  12 1121.85 556.773  40
  -2   0  12 438.896 454.609  43
  -2   0  12 248.914 305.773  13
   2   0 -12 230.266 309.862  47
  -2   0  11 588.290 400.304  21
  -2   0  11 1554.06 738.388  46
  -2   0  11 1345.60 517.542  13
   2   0 -11 2003.68 599.028  47
   2   0 -10 7210.49 1117.38  47
  -2   0  10 5799.81 1047.31  13
  -2   0  10 6320.78 1118.63  21
   2   0  -9-71.5592 222.391  48
  -2   0   9-88.5405 217.540  13
  -2   0   9 93.6912 230.189  21
  -2   0   8 26456.3 2693.94  13
   2   0  -8 23999.4 2615.79  48
  -2   0   7 12973.1 1440.60  13
   2   0  -7 9873.72 1361.80  48
  -2   0   6 60.4001 209.895  13
   2   0  -6 71.1797 206.954  48
  -2   0   5 106.617 175.866  13
   2   0  -5 68.2697 237.296  48
  -2   0   4 47.5103 156.681  13
   2   0  -4 43.5334 151.339  50
  -2   0   4 44.3213 154.074  51
   2   0  -4 199.224 218.932  48
  -2   0   3 4933.99 655.796  51
   2   0  -3 5747.90 815.032  48
   2   0  -3 3657.92 689.313  50
  -2   0   3 4434.97 727.228   6
  -2   0   3 5334.67 685.366  13
  -2   0   2 18121.2 1707.63  51
  -2   0   2 16571.1 2000.69  52
  -2   0   2 15154.5 1883.52  23
   2   0  -2 18390.7 1890.59  48
  -2   0   2 19215.9 2123.17  49
   2   0  -2 16631.9 1911.61  50
  -2   0   2 15374.2 1791.30   6
  -2   0   2 17068.9 1725.37  13
   2   0  -1 56370.0 5488.08  50
   2   0  -1 67362.8 5430.73  48
  -2   0   1 60454.2 5573.05  49
  -2   0   1 49334.1 5278.59  23
  -2   0   1 53917.7 5274.46   6
  -2   0   1 59772.6 5497.15  52
  -2   0   1 59681.8 5145.90  51
  -2   0   0 19001.3 1991.75  49
   2   0   0 15480.3 1946.87  50
  -2   0   0 15082.4 1685.86  23
  -2   0   0 15341.3 1701.19   6
  -2   0   0 16005.2 1559.51  51
  -2   0   0 17569.9 1874.59  52
   2   0   1 11693.5 1588.47  53
  -2   0  -1 13272.7 1252.76  51
  -2   0  -1 11895.9 1464.54  52
  -2   0  -1 13374.4 1376.54  23
   2   0   1 11338.2 1658.69  50
   2   0   1 13938.9 1482.39  48
  -2   0  -1 11898.6 1537.07  49
  -2   0  -1 12659.3 1408.53   6
   2   0   1 10914.4 1279.41  17
   2   0   2 7918.37 1277.75  50
   2   0   2 8315.76 1059.83  48
  -2   0  -2 8375.73 1111.86  49
  -2   0  -2 6257.17 895.683  23
   2   0   2 7661.58 908.482  17
   2   0   2 6685.96 1248.74  53
  -2   0  -2 9378.11 898.493  51
  -2   0  -2 8868.16 1076.25  52
   2   0   3 376.430 478.146  50
  -2   0  -3 186.434 206.310  47
  -2   0  -3 270.538 247.676  49
  -2   0  -3 247.648 193.971  23
   2   0   3 137.348 427.485  53
  -2   0  -3 434.217 305.049  52
   2   0   3 404.684 200.365  17
   2   0   4 1105.99 611.215  50
  -2   0  -4 898.447 346.152  47
  -2   0  -4 414.269 301.387  49
   2   0   4 716.369 300.922  48
   2   0   4 489.274 511.209  53
  -2   0  -4 761.198 292.131  52
   2   0   4 1140.67 276.667  17
   2   0   5 37148.2 4253.89  50
   2   0   5 39769.5 3708.35  48
  -2   0  -5 35447.2 3759.47  49
  -2   0  -5 37998.6 3802.68  47
   2   0   5 37708.3 3606.37  17
   2   0   5 43932.4 4620.61  53
  -2   0  -5 39022.9 3627.32  52
  -2   0  -6 25732.5 2817.06  47
   2   0   6 31743.6 2735.90  48
  -2   0  -6 26459.2 2808.52  49
  -2   0  -6 25139.2 2447.20  19
   2   0   6 29737.0 3692.22  53
  -2   0  -6 24725.0 2571.77  52
   2   0   6 26168.7 2615.35  17
   2   0   7 184.505 405.379  50
  -2   0  -7 559.992 324.233  49
  -2   0  -7-191.382 348.653  47
   2   0   7 176.480 170.989  48
   2   0   7 238.452 173.274  17
   2   0   7 255.842 688.443  53
   2   0   8 16430.5 2839.35  53
   2   0   8 15344.0 1779.78  21
   2   0   8 14695.2 1715.28  22
  -2   0  -8 13516.3 1861.78  47
   2   0   8 15371.9 1671.38  48
   2   0   8 12230.6 2220.47  50
  -2   0  -8 14526.0 1904.36  49
  -2   0  -8 17925.2 2623.14  56
   2   0   8 15212.5 1702.80  17
   2   0   9 6360.31 1792.63  53
   2   0   9 4649.93 812.692  21
   2   0   9 2825.31 658.329  22
  -2   0  -9 4359.98 916.752  49
   2   0   9 4242.89 1243.96  50
  -2   0  -9 4477.23 925.740  47
  -2   0  -9 4459.95 1344.31  56
   2   0   9 3201.61 592.046  18
   2   0  10 397.938 207.927  18
  -2   0 -10-274.851 302.487  56
  -2   0 -10 184.020 286.470  59
   2   0  10 379.602 932.643  53
  -2   0 -10-294.409 457.751  54
   2   0  10 390.448 263.295  21
   2   0  10 541.227 313.893  22
   2   0  10-243.176 463.060  50
  -2   0 -10 130.419 248.823  49
  -2   0 -10 129.618 285.367  47
  -2   0 -10 266.818 328.217  42
   2   0  10 179.359 394.491  33
   2   0  10 740.841 294.004  26
   2   0  11 60.3636 115.306  18
  -2   0 -11 198.155 308.018  59
  -2   0 -11 902.056 809.173  56
   2   0  11 853.810 812.352  53
  -2   0 -11-327.759 623.724  54
   2   0  11 324.095 265.567  21
   2   0  11 100.014 190.573  22
   2   0  11 788.794 707.590  50
  -2   0 -11 568.895 382.842  49
  -2   0 -11 141.362 269.168  47
  -2   0 -11 145.007 356.344  42
   2   0  11-198.272 487.147  33
   2   0  11 491.000 298.331  26
  -2   0 -12 5482.23 1349.99  59
  -2   0 -12 5491.66 1652.74  56
   2   0  12 6168.35 2198.12  53
  -2   0 -12 5010.95 1685.56  54
   2   0  12 7214.91 1180.94  21
   2   0  12 5723.07 1043.99  22
  -2   0 -12 3348.53 983.711  49
   2   0  12 3907.69 1345.80  50
  -2   0 -12 4874.15 1104.89  47
  -2   0 -12 7473.93 1349.83  42
   2   0  12 6092.62 998.773  26
   2   0  13 126.224 340.032  13
  -2   0 -13 674.861 741.541  56
  -2   0 -13-220.656 485.068  59
  -2   0 -13 761.947 837.188  54
   2   0  13 638.378 421.078  21
   2   0  13 596.649 371.123  22
   2   0  13-289.606 450.211  50
  -2   0 -13 161.417 434.649  47
  -2   0 -13 493.055 477.955  42
   2   0  13 96.6106 260.462  26
  -2   0 -14 225.718 496.857  59
  -2   0 -14 680.858 748.573  56
  -2   0 -14 784.614 747.078  54
   2   0  14 539.561 445.589  21
   2   0  14 581.678 639.724  50
  -2   0 -14 501.924 412.104  47
  -2   0 -14-169.485 323.917  42
   2   0  14 669.954 417.441  13
  -2   0 -15 19272.7 2970.07  59
  -2   0 -15 25315.8 3779.18  56
  -2   0 -15 21322.1 3877.39  54
   2   0  15 23657.0 2700.08  21
  -2   0 -15 18373.2 2666.40  47
  -2   0 -15 21536.4 2820.79  42
   2   0  15 17984.8 2536.89  13
   2   0  16 274.108 368.994  21
  -2   0 -16 364.673 981.365  54
  -2   0 -16 817.264 508.018  42
  -2   0 -16 214.276 576.718  59
  -2   0 -16-301.773 468.984  56
   2   0  17 650.538 406.709  21
  -2   0 -17 972.371 943.112  54
  -2   0 -17 753.750 498.809  42
  -2   0 -17 259.542 495.845  56
  -2   0 -17 195.712 528.517  59
  -2   0 -18 338.087 415.313  59
  -2   0 -18-207.000 557.064  56
   2   0  18 117.553 288.862  21
  -2   0 -18 270.229 593.767  54
  -2   0 -18 396.672 355.881  42
   2   0  18 136.663 300.359  25
  -2   0 -19 135.799 258.620  59
  -2   0 -19-149.627 284.910  56
   2   0  19 100.358 291.893  21
  -2   0 -19 418.735 514.412  54
  -2   0 -19 218.647 317.934  42
   2   0  19 236.211 259.718  35
   2   0  20 478.489 277.653  21
  -2   0 -20 96.9679 185.426  59
  -2   0 -20 357.917 295.469  56
  -2   0 -20 147.577 324.766  54
  -2   0 -20 167.649 226.316  42
  -2   0 -21 3391.46 628.335  42
   2   0  21 4094.69 651.542  21
  -2   1  21 1361.04 421.676   5
   2   1 -21 1875.02 513.099  59
  -2   1  20 92.9659 204.714   5
  -2   1  20 404.546 351.606  12
   2   1 -20 118.698 345.266  59
  -2   1  19 1710.96 622.289   5
  -2   1  19 2226.98 685.632  12
   2   1 -19 1838.86 713.094  59
  -2   1  18 146.654 324.835   5
  -2   1  18 611.563 319.371  37
  -2   1  18 1137.06 495.473  12
   2   1 -18 1615.37 684.268  59
  -2   1  17 1813.38 720.390   5
   2   1 -17 1967.50 853.086  59
  -2   1  17 1461.58 543.651  37
  -2   1  17 3404.76 898.573  12
   2   1 -16 1637.74 794.894  59
  -2   1  16 1407.07 739.996   5
   2   1 -16 1731.45 633.881  47
  -2   1  16 2287.61 695.589  37
  -2   1  16 2104.21 736.832  13
  -2   1  15 6741.73 1890.44  28
  -2   1  15 9057.74 1591.89  21
  -2   1  15 8252.58 1597.66   5
  -2   1  15 12351.5 2397.77  46
   2   1 -15 10409.4 1622.59  47
  -2   1  15 10077.0 1823.82  43
  -2   1  15 7305.53 1440.07  13
  -2   1  14 5428.64 1567.44  28
  -2   1  14 7259.56 1383.93  21
  -2   1  14 5473.71 1325.02   5
  -2   1  14 9512.79 1978.84  46
   2   1 -14 7544.75 1322.79  47
  -2   1  14 4844.38 1356.85  43
  -2   1  14 8022.93 1382.46  13
  -2   1  13 2970.68 1039.09  28
  -2   1  13 2090.02 723.781  21
  -2   1  13 676.316 499.917   5
   2   1 -13 1014.30 491.134  47
  -2   1  13 2383.27 1052.87  46
  -2   1  13 1366.59 756.221  43
  -2   1  13 513.146 357.190  11
  -2   1  13 1476.48 559.295  13
  -2   1  12 1244.31 765.265  28
  -2   1  12 2441.61 729.963  21
  -2   1  12 1584.16 639.068   5
   2   1 -12 2906.18 721.280  47
  -2   1  12 1961.81 941.045  46
  -2   1  12 1273.91 642.265  43
  -2   1  12 488.376 374.996  11
  -2   1  12 2590.22 701.465  13
  -2   1  11 111.735 274.815  13
  -2   1  11 313.206 324.686  58
  -2   1  11 467.356 314.701  21
  -2   1  11 185.536 407.873  28
   2   1 -11 213.396 262.457  47
  -2   1  11 446.992 491.234  46
  -2   1  11 165.540 315.279  40
  -2   1  11 146.178 359.338  43
  -2   1  11-146.151 227.475   5
  -2   1  10 8623.58 1263.75  21
  -2   1  10 4356.27 1121.84   8
  -2   1  10 8215.29 1181.65  13
   2   1 -10 6492.14 1070.99  48
   2   1 -10 7303.74 1146.85  47
   2   1  -9 7747.20 1310.02  48
  -2   1   9 12397.8 1473.26  13
  -2   1   9 11657.9 1504.41  21
  -2   1   8 21181.3 2210.41  13
   2   1  -8 17588.1 2174.50  48
  -2   1   7 3981.68 696.240  13
   2   1  -7 3458.63 723.037  48
  -2   1   6 10894.8 1377.70  51
  -2   1   6 12158.4 1374.38  13
   2   1  -6 10360.1 1427.83  48
  -2   1   5 16326.0 1810.05  51
  -2   1   5 17860.7 1799.85  13
   2   1  -5 15115.9 1868.88  48
  -2   1   4 5109.53 696.315  51
  -2   1   4 4628.75 656.340  13
   2   1  -4 4089.92 730.788  48
   2   1  -4 2987.48 551.342  50
  -2   1   3 9375.35 1019.32  51
  -2   1   3 9020.86 992.771  13
   2   1  -3 5937.09 984.920  50
   2   1  -3 8102.39 1107.91  48
  -2   1   2 14423.9 1373.61  51
  -2   1   2 10474.1 1374.90   6
  -2   1   2 12912.7 1341.15  13
   2   1  -2 10545.3 1445.72  50
   2   1  -2 13528.0 1510.68  48
  -2   1   1 14065.2 1658.74   6
  -2   1   1 18280.7 1632.98  51
   2   1  -1 13878.8 1800.08  50
  -2   1   0 4713.22 598.605  51
  -2   1   0 4576.62 667.169   6
   2   1   0 3992.06 565.293  17
   2   1   0 3988.40 683.210  48
   2   1   0 3039.78 754.807  50
  -2   1  -1 43659.1 3586.15  51
  -2   1  -1 49230.0 3774.92   6
   2   1   1 31896.8 3864.72  50
   2   1   1 38140.8 3713.72  48
   2   1   1 32508.1 3518.80  17
   2   1   2 14310.0 1986.08  50
   2   1   2 15466.9 1749.72  48
  -2   1  -2 18956.7 1677.21  51
   2   1   2 14703.0 1610.81  17
   2   1   3 6401.98 785.823  17
   2   1   3 5806.29 854.466  48
   2   1   3 5677.76 1123.92  50
  -2   1  -3 5672.94 689.123  49
  -2   1  -3 6921.29 818.872  51
   2   1   4 7441.36 909.257  17
  -2   1  -4 7435.31 957.878  19
   2   1   4 8100.87 1013.27  48
  -2   1  -4 6480.87 853.142  49
   2   1   4 8245.06 1390.02  50
  -2   1  -4 8641.64 1096.02  47
   2   1   5 7348.89 917.509  17
  -2   1  -5 6796.05 949.376  19
   2   1   5 8727.52 1473.98  50
  -2   1  -5 6947.54 888.607  49
   2   1   5 9523.78 1063.00  48
  -2   1  -5 6012.61 1010.56  47
   2   1   6 5560.21 759.405  17
  -2   1  -6 4694.91 749.414  19
   2   1   6 4313.93 727.237  48
  -2   1  -6 5337.05 899.494  47
  -2   1  -6 4319.19 680.171  49
   2   1   7 9999.55 1259.59  17
  -2   1  -7 10253.6 1300.94  19
  -2   1  -7 9250.48 1403.74  47
   2   1   7 11726.1 1274.07  48
  -2   1  -7 10852.9 1286.73  49
   2   1   8 26927.2 2604.06  21
   2   1   8 25971.6 2537.25  22
  -2   1  -8 20023.5 2438.45  19
  -2   1  -8 23874.2 2692.26  47
   2   1   8 21440.2 3168.16  50
  -2   1  -8 29618.4 3496.73  56
   2   1   8 23217.5 2415.81  18
   2   1   8 22097.1 2442.71  17
  -2   1  -9 3514.85 1247.46  54
   2   1   9 2387.73 580.373  21
   2   1   9 2361.33 561.123  22
   2   1   9 2117.39 950.356  50
  -2   1  -9 1998.48 633.822  47
  -2   1  -9 2131.51 882.844  56
  -2   1  -9 1580.37 472.438  19
   2   1   9 2579.88 525.151  18
   2   1  10 9973.58 1240.62  18
  -2   1 -10 8069.35 1679.54  59
  -2   1 -10 7266.38 1803.94  56
  -2   1 -10 10335.7 2168.58  54
   2   1  10 10805.4 1432.06  21
  -2   1 -10 8132.35 1264.78  19
   2   1  10 10354.5 1374.03  22
  -2   1 -10 9060.37 1493.45  47
   2   1  10 9579.13 1992.44  50
  -2   1 -10 12453.0 1954.96  38
   2   1  10 9126.91 1235.63  26
   2   1  11 5243.80 877.213  18
  -2   1 -11 3833.94 1192.56  59
  -2   1 -11 5621.91 1620.73  56
  -2   1 -11 4604.16 1513.09  54
   2   1  11 6832.00 1124.60  21
   2   1  11 5625.99 1017.15  22
   2   1  11 7322.34 1791.68  50
  -2   1 -11 5508.36 1141.11  47
  -2   1 -11 6711.83 1457.40  38
   2   1  11 6796.21 964.899  26
   2   1  12 1166.93 373.527  18
  -2   1 -12 897.764 663.589  56
  -2   1 -12 857.043 583.495  59
  -2   1 -12 994.741 819.433  54
   2   1  12 1301.68 543.451  21
   2   1  12 771.410 393.211  22
   2   1  12 903.048 879.489  50
  -2   1 -12 1521.88 609.442  47
  -2   1 -12 1242.16 688.165  38
   2   1  12 991.496 384.855  26
  -2   1 -13 4900.53 1719.50  54
   2   1  13 6741.16 1227.00  21
   2   1  13 6663.79 1178.45  22
   2   1  13 4392.75 1521.46  50
  -2   1 -13 7090.86 1376.06  47
   2   1  13 6175.81 1186.16  13
  -2   1 -13 7600.51 1626.97  59
  -2   1 -13 6544.00 1762.84  56
  -2   1 -14 4302.31 1767.14  54
   2   1  14 4143.62 997.385  21
   2   1  14 4421.63 1449.65  50
  -2   1 -14 4502.24 1102.58  47
   2   1  14 5591.11 1125.23  13
  -2   1 -14 6835.38 1518.40  59
  -2   1 -14 5328.99 1558.38  56
  -2   1 -15 1060.22 903.885  54
   2   1  15 3950.28 944.402  21
  -2   1 -15 2530.71 825.650  47
   2   1  15 3005.59 819.474  13
  -2   1 -15 4235.38 1393.21  56
  -2   1 -15 4957.61 1333.90  59
  -2   1 -16 2496.88 1150.48  56
  -2   1 -16 2576.94 926.281  59
   2   1  16 1473.19 589.825  21
  -2   1 -16 1330.33 907.815  54
  -2   1 -17 6951.02 1636.79  56
  -2   1 -17 6657.16 1542.90  59
   2   1  17 9449.24 1414.29  21
  -2   1 -17 5337.70 1650.99  54
   2   1  18 3493.68 758.603  21
  -2   1 -18 497.245 629.810  54
  -2   1 -18 1864.87 760.688  59
  -2   1 -18 1341.71 715.104  56
   2   1  18 2591.70 817.798  35
   2   1  19 949.292 391.131  21
  -2   1 -19 194.006 427.106  54
  -2   1 -19 551.021 401.295  59
  -2   1 -19 552.378 372.578  56
   2   1  19-117.050 316.125  35
  -2   1 -20-137.601 263.326  54
   2   1  20 1033.98 354.774  21
  -2   1 -20 510.668 389.685  59
  -2   1 -21 370.689 216.529  59
  -2   1 -21 159.421 177.462  42
   2   1  21 593.673 232.354  21
   2   2 -21 789.571 316.860  59
  -2   2  21 482.310 244.169   5
   2   2 -20 116.535 286.262  59
   2   2 -20-93.7795 252.350  38
  -2   2  20 250.213 224.433  12
  -2   2  20 276.343 267.730   5
  -2   2  19 1489.63 522.915  12
   2   2 -19 1786.28 703.693  59
   2   2 -19 1958.10 667.615  38
  -2   2  19 812.342 548.216  35
  -2   2  19 1206.92 509.857   5
   2   2 -18 350.936 432.447  59
  -2   2  18 771.386 403.030  37
  -2   2  18 251.588 392.431  12
  -2   2  18 291.433 359.654   5
   2   2 -17 975.485 577.496  59
  -2   2  17 1821.68 599.428  37
  -2   2  17 826.430 525.085   5
  -2   2  17 1682.44 625.712  12
  -2   2  16 3383.70 1062.99   5
  -2   2  16 3598.58 960.034  37
  -2   2  16 3865.78 974.799  12
  -2   2  15 1969.21 708.002  37
  -2   2  15 1761.06 933.124  28
   2   2 -15 2401.85 732.398  47
  -2   2  15 1838.29 748.791   5
  -2   2  15 1536.94 780.753  43
  -2   2  15 2114.62 679.879  13
  -2   2  15 2569.54 815.264  12
  -2   2  14 1215.64 932.596  28
   2   2 -14 1219.17 528.635  47
  -2   2  14 2010.33 786.336   5
   2   2 -14 1623.52 653.630   3
  -2   2  14 2284.67 870.266  43
  -2   2  14 623.212 435.293  11
  -2   2  14 2475.43 733.939  13
  -2   2  13 5256.75 1444.34  28
   2   2 -13 4230.71 1074.83   3
  -2   2  13 2469.41 884.428   5
   2   2 -13 5289.29 1006.39  47
  -2   2  13 4035.68 1098.13  43
  -2   2  13 1227.21 617.430  11
  -2   2  13 4309.27 976.585  13
  -2   2  12 7579.81 1657.17  28
  -2   2  12 10702.4 1495.56  21
   2   2 -12 6056.16 1348.27   3
  -2   2  12 9481.35 1577.66   5
   2   2 -12 9655.23 1372.91  47
  -2   2  12 6227.51 1408.02  43
  -2   2  12 10199.4 1386.39  13
  -2   2  11-138.705 215.686  11
  -2   2  11 666.851 386.207  13
  -2   2  11 235.252 316.652  58
  -2   2  11-115.695 254.359  21
   2   2 -11 330.942 320.758  47
   2   2 -11 471.227 366.160  48
  -2   2  11 191.318 420.445  28
  -2   2  11 321.146 432.181  43
   2   2 -11 153.892 239.261   3
  -2   2  10 1290.64 581.767  11
  -2   2  10 4023.15 799.186  13
   2   2 -10 3095.01 885.938   3
  -2   2  10 5204.12 933.553  58
  -2   2  10 3980.06 970.821  43
  -2   2  10 3103.25 1090.45  28
   2   2 -10 4855.61 883.761  47
   2   2 -10 3492.29 805.918  48
  -2   2  10 3932.14 1125.14  46
  -2   2   9 511.290 377.263   5
  -2   2   9 632.012 335.439  13
  -2   2   9 1297.03 482.237  12
   2   2  -9 575.605 405.266  48
   2   2  -9 1108.80 423.632  47
  -2   2   8 2821.11 614.191  13
  -2   2   8 2686.20 629.481  12
   2   2  -8 2129.57 641.705  48
  -2   2   7 21680.4 2324.58  51
  -2   2   7 21155.1 2240.74  13
   2   2  -7 18108.7 2349.91  48
  -2   2   6 17720.3 2016.78  51
  -2   2   6 18335.1 1952.93  13
   2   2  -6 17005.6 2118.34  48
  -2   2   5 10452.5 1326.31  51
  -2   2   5 11162.6 1276.05  13
   2   2  -5 9673.37 1412.53  48
  -2   2   4 8437.30 1088.14  51
  -2   2   4 8108.68 1011.25  13
   2   2  -4 7830.15 1198.66  48
  -2   2   3 6382.35 847.346  51
  -2   2   3 5385.52 769.146  13
   2   2  -3 5921.77 973.921  48
  -2   2   2 465.755 246.451  51
   2   2  -2 1001.70 482.324  50
   2   2  -2 1050.51 409.941  48
  -2   2   2 458.260 240.833   6
   2   2  -1 6184.82 1184.71  50
  -2   2   1 7437.53 971.981   6
  -2   2   1 8382.85 967.379  51
  -2   2   0 9055.09 950.763  51
   2   2   0 5581.07 727.294  19
  -2   2   0 7524.55 943.874   6
   2   2   0 7517.19 858.824  17
   2   2   0 9038.22 1340.77  50
   2   2   0 8767.57 1106.62  48
  -2   2  -1 12346.3 1304.91  51
  -2   2  -1 12877.0 1359.76   6
   2   2   1 9826.23 1199.02  17
   2   2   1 12758.5 1748.00  50
   2   2   1 11143.0 1428.91  48
  -2   2  -2 8119.30 991.925  51
  -2   2  -2 8444.40 1048.27   6
   2   2   2 7969.41 1095.93  48
   2   2   2 8108.86 1408.16  50
   2   2   2 7298.90 912.966  17
   2   2   3 16244.6 2414.90  50
   2   2   3 17705.0 2051.26  48
   2   2   3 19182.9 1917.54  17
  -2   2  -3 21240.8 2032.66  51
   2   2   4 6940.01 923.208  17
  -2   2  -4 8888.95 1181.85  19
   2   2   4 7082.27 1043.16  48
   2   2   4 8620.93 1555.19  50
  -2   2  -4 8650.20 1059.57  51
  -2   2  -5 1743.40 498.846  19
   2   2   5 1782.70 402.528  17
   2   2   5 3035.48 912.292  50
   2   2   5 1904.74 465.724  48
  -2   2  -5 1566.85 465.673  47
  -2   2  -6 2730.72 655.244  19
   2   2   6 3674.36 592.589  17
   2   2   6 4724.33 1234.15  50
   2   2   6 3138.04 598.930  48
  -2   2  -6 2615.98 656.794  47
   2   2   7 3579.76 677.263  21
   2   2   7 3741.02 659.206  22
   2   2   7 2962.78 557.163  48
  -2   2  -7 4365.43 834.317  47
   2   2   7 3796.61 681.186  57
  -2   2  -7 3587.34 759.961  19
   2   2   7 3243.07 616.674  18
   2   2   7 2708.41 567.618  17
   2   2   8 5521.65 912.829  57
  -2   2  -8 4371.68 1257.12  56
  -2   2  -8 5588.42 1396.03  54
   2   2   8 5961.64 952.513  21
   2   2   8 6305.39 931.814  22
   2   2   8 6494.20 1653.47  50
  -2   2  -8 5705.21 1042.86  47
  -2   2  -8 4358.35 923.496  19
   2   2   8 6143.06 909.538  18
  -2   2  -8 4380.94 1093.38   2
  -2   2  -9 8277.44 1615.16   2
   2   2   9 11351.5 1444.93  57
  -2   2  -9 9316.10 1745.73  59
  -2   2  -9 6337.68 1662.47  56
  -2   2  -9 11915.9 2167.69  54
   2   2   9 10748.6 1438.04  21
  -2   2  -9 8034.59 1390.24  19
   2   2   9 10163.0 1375.53  22
   2   2   9 9278.16 2090.49  50
  -2   2  -9 9392.99 1497.30  47
  -2   2  -9 11567.4 1648.35  42
  -2   2  -9 11570.2 1917.25  38
   2   2   9 11524.6 1385.31  18
  -2   2 -10 13395.9 2078.32   2
  -2   2 -10 10667.6 1998.22  59
  -2   2 -10 10274.9 2171.92  56
   2   2  10 14564.2 1742.03  57
  -2   2 -10 13336.4 2425.27  54
  -2   2 -10 10616.9 1673.73  19
   2   2  10 12382.6 1682.74  21
   2   2  10 14443.1 1714.71  22
   2   2  10 14504.8 2620.22  50
  -2   2 -10 12388.3 1814.36  47
  -2   2 -10 12152.2 1879.55  42
  -2   2 -10 13562.4 2221.78  38
   2   2  10 13118.0 1616.49  18
  -2   2 -11 3258.44 970.111   2
   2   2  11 3907.79 831.995  57
  -2   2 -11 4360.33 1209.69  59
  -2   2 -11 3925.32 1296.48  56
  -2   2 -11 3966.73 1396.93  54
   2   2  11 4777.19 924.874  21
   2   2  11 5161.34 932.383  22
   2   2  11 3762.67 1374.91  50
  -2   2 -11 2406.49 786.429  47
  -2   2 -11 4060.96 1005.76  42
  -2   2 -11 5987.11 1369.78  38
  -2   2 -11 3023.38 811.036  19
   2   2  11 4225.62 798.371  18
  -2   2 -12 2189.77 988.451  59
  -2   2 -12 2479.16 1072.39  56
   2   2  12 2916.84 704.575  57
  -2   2 -12 905.811 843.370  54
   2   2  12 2883.27 768.829  21
   2   2  12 3252.60 763.212  22
   2   2  12 6317.49 1766.30  50
  -2   2 -12 2423.43 777.734  47
  -2   2 -12 2893.99 1033.37  38
  -2   2 -12 2395.96 797.603  42
   2   2  12 2732.45 714.870  13
   2   2  12 2717.28 633.084  18
  -2   2 -13 6800.24 1849.59  56
   2   2  13 8127.88 1308.10  57
  -2   2 -13 12901.5 2570.72  54
   2   2  13 10962.0 1541.78  21
   2   2  13 9261.09 2184.91  50
  -2   2 -13 6515.82 1384.35  47
  -2   2 -13 7951.84 1751.68  38
  -2   2 -13 9315.93 1638.66  42
   2   2  13 7730.91 1360.83  13
   2   2  14 1054.85 533.374  13
  -2   2 -14 1698.08 886.010  56
   2   2  14 1861.75 543.833  57
  -2   2 -14 955.561 789.881  54
   2   2  14 2370.26 745.523  21
   2   2  14 1363.49 844.304  50
  -2   2 -14 650.220 516.564  47
  -2   2 -14 903.264 709.956  38
  -2   2 -14 2194.27 749.559  42
   2   2  14 626.392 572.191  35
  -2   2 -15 1864.78 1057.91  54
  -2   2 -15 2672.93 983.957  59
  -2   2 -15 2167.97 1022.22  56
   2   2  15 3779.94 769.098  57
   2   2  15 4611.36 963.814  21
  -2   2 -15 3480.01 965.242  42
   2   2  15 2249.72 963.418  35
  -2   2 -16 3771.56 1427.79  54
  -2   2 -16 2714.74 1066.62  56
  -2   2 -16 4185.48 1217.70  59
   2   2  16 5191.65 1037.36  21
  -2   2 -16 6559.46 1245.38  42
   2   2  16 2300.47 879.716  35
  -2   2 -17 2828.30 1116.99  54
  -2   2 -17 2257.15 905.254  59
  -2   2 -17 2324.57 955.637  56
   2   2  17 4174.76 865.330  21
  -2   2 -17 3648.14 900.688  42
   2   2  17 1361.85 711.039  35
  -2   2 -18 429.117 527.979  54
  -2   2 -18 1124.54 586.157  59
  -2   2 -18 334.688 319.952  56
   2   2  18 802.468 398.544  21
  -2   2 -18 714.770 393.854  42
   2   2  18-141.041 270.190  35
  -2   2 -19 1496.79 663.960  54
  -2   2 -19 2834.79 788.270  59
  -2   2 -19 1992.86 649.406  56
   2   2  19 3143.03 645.382  21
  -2   2 -19 3576.28 743.883  42
   2   2  19 1683.63 578.163  35
  -2   2 -20 347.057 338.315  54
  -2   2 -20 847.866 402.563  59
   2   2  20 80.3203 200.819  11
  -2   2 -21 55.3896 121.703  59
   2   2  21-68.5103 106.444   7
   2   3 -21 264.715 193.677  59
   2   3 -20 1254.78 438.805  38
   2   3 -20 823.578 417.883  59
  -2   3  20 1131.40 387.589   5
   2   3 -19 1513.66 585.032  38
   2   3 -19 1492.46 627.299  59
  -2   3  19 1415.88 549.676   5
  -2   3  18-107.889 205.321  37
   2   3 -18 493.942 478.560  59
  -2   3  18 268.343 361.061   5
  -2   3  17 401.220 369.050  16
  -2   3  17 1684.89 571.349  12
  -2   3  17 1034.26 478.080  37
  -2   3  17 1115.53 618.164  35
  -2   3  17 621.121 571.636   5
  -2   3  16 4099.67 930.023  12
   2   3 -16 4327.75 1224.39  59
  -2   3  16 3494.66 911.957  37
   2   3 -16 2193.71 772.915   3
  -2   3  16 1879.45 792.291   5
  -2   3  16 3250.79 1077.04  35
  -2   3  15 539.105 524.286   5
   2   3 -15-176.135 338.225   3
  -2   3  15 1267.75 658.096  35
  -2   3  15 937.148 516.765  37
  -2   3  15 581.195 478.066  43
  -2   3  15 1308.00 520.085  12
   2   3 -14-187.758 292.676   3
  -2   3  14 633.520 568.746  35
  -2   3  14 160.944 307.167  37
   2   3 -14 391.969 352.393  47
  -2   3  14 589.850 571.964  43
  -2   3  14 493.871 384.379  13
  -2   3  14 661.425 411.726  12
   2   3 -13 1735.72 787.213   3
  -2   3  13 1925.94 730.450  37
  -2   3  13 4092.09 1139.82  35
   2   3 -13 2797.20 812.700  47
  -2   3  13 3292.28 1059.47  43
  -2   3  13 697.639 506.402  11
  -2   3  13 4439.64 885.053  13
  -2   3  13 3367.18 802.124  12
   2   3 -12 7847.67 1246.99  47
  -2   3  12 2899.29 979.950  11
  -2   3  12 6827.75 1142.51  13
  -2   3  12 7538.61 1244.38  12
  -2   3  12 6519.72 1463.79  43
   2   3 -12 5783.87 1352.14   3
  -2   3  12 6832.07 1408.33   5
   2   3 -11 4783.09 913.470  47
   2   3 -11 3231.71 887.354  48
  -2   3  11 5486.16 1078.99  58
  -2   3  11 981.448 575.514  11
  -2   3  11 5717.97 954.896  13
  -2   3  11 6244.96 1028.32  12
   2   3 -11 2459.61 898.497   3
  -2   3  11 2401.48 812.781   5
   2   3 -10 7693.45 1541.73   3
  -2   3  10 6948.53 1338.19   5
  -2   3  10 10784.7 1497.18  58
   2   3 -10 5497.11 1254.82  48
   2   3 -10 11209.6 1400.95  47
  -2   3  10 8304.76 1535.26  35
  -2   3  10 8643.79 1246.54  13
  -2   3  10 2940.65 1014.26  11
  -2   3  10 11412.3 1428.34  12
   2   3  -9 8619.52 1519.31   3
  -2   3   9 7697.14 1309.01   5
   2   3  -9 4502.56 1080.98  48
   2   3  -9 8588.12 1135.66  47
  -2   3   9 7179.24 1146.34  58
  -2   3   9 6510.50 1318.58  43
  -2   3   9 8548.67 1121.39  13
  -2   3   9 8662.43 1161.41  12
  -2   3   8 3578.50 774.237  58
  -2   3   8 2447.65 715.453   5
   2   3  -8 2688.35 871.476   3
  -2   3   8 3412.01 682.342  13
  -2   3   8 4584.32 788.724  12
   2   3  -8 3266.53 871.578  48
   2   3  -8 2987.36 675.367  47
  -2   3   7 2558.16 566.354  13
   2   3  -7 2449.59 748.725  48
  -2   3   6 4886.92 758.184  13
   2   3  -6 3629.47 911.941  48
  -2   3   5 793.341 287.527  13
   2   3  -5 985.239 493.067  48
  -2   3   4 25322.0 2491.23  13
   2   3  -4 24111.9 2856.98  48
   2   3  -3 21529.4 2310.19  19
   2   3  -3 20456.7 2475.41  48
   2   3  -2 11617.7 1389.59  19
   2   3  -2 11529.0 1246.58  17
   2   3  -1 7025.56 925.137  19
   2   3  -1 7201.31 854.995  17
   2   3  -1 7216.08 1164.21  48
   2   3   0 2037.42 609.648  48
   2   3   0 2874.57 436.180  17
  -2   3   0 2044.72 460.195   6
  -2   3  -1 3144.97 587.035  51
   2   3   1 2927.14 701.491  48
   2   3   1 3359.28 504.168  17
  -2   3  -1 2974.46 575.266   6
   2   3   2 2390.88 899.049  50
   2   3   2 3873.49 772.683  48
  -2   3  -2 2941.09 601.848  51
  -2   3  -2 3698.05 632.329   6
   2   3   2 2976.88 492.054  17
   2   3   3 9548.91 1891.93  50
   2   3   3 12609.7 1602.00  48
  -2   3  -3 13757.2 1506.62  51
  -2   3  -3 12756.0 1470.81   6
   2   3   3 11099.1 1301.96  17
   2   3   3 11986.2 1412.84  18
  -2   3  -4 8605.16 1130.59  51
   2   3   4 6236.86 1531.82  50
   2   3   4 7880.22 1206.57  48
   2   3   4 8176.85 1149.57  57
  -2   3  -4 6044.96 1401.84  56
   2   3   4 8144.57 1071.78  18
   2   3   4 8778.10 1013.35  17
  -2   3  -4 7802.44 1279.94  19
  -2   3  -5 7602.80 1669.27  54
  -2   3  -5 13650.2 1543.38  51
  -2   3  -5 12147.3 1687.48  19
   2   3   5 10650.0 1491.29  48
   2   3   5 11390.7 2120.82  50
  -2   3  -5 8536.74 1785.32  56
   2   3   5 13833.4 1573.30  57
   2   3   5 13346.1 1384.49  17
  -2   3  -6 20057.1 2815.40  54
   2   3   6 18446.4 2181.24  20
  -2   3  -6 20214.1 2499.90  19
   2   3   6 20918.6 2182.54  22
   2   3   6 18005.0 2205.26  48
   2   3   6 20758.3 3093.61  50
  -2   3  -6 23202.7 2354.73  51
   2   3   6 21246.3 2325.52  57
   2   3   6 21743.0 2266.88  18
  -2   3  -7 5714.59 1352.51   2
   2   3   7 7749.29 1181.93  57
  -2   3  -7 7810.29 1659.73  54
  -2   3  -7 8399.10 1384.51  19
   2   3   7 7560.72 1086.64  20
   2   3   7 6899.42 1072.15  21
   2   3   7 7861.82 1090.07  22
  -2   3  -7 8936.50 1256.68  47
  -2   3  -7 8379.55 1206.96  51
  -2   3  -7 6907.51 1491.96  38
   2   3   7 8131.12 1152.72  18
  -2   3  -8 133.965 254.908  19
   2   3   8 89.8112 170.899  18
  -2   3  -8 354.912 389.892   2
  -2   3  -8-111.939 245.948   9
   2   3   8-98.5882 265.296  57
  -2   3  -8 171.209 325.772  59
  -2   3  -8-210.396 326.873  56
  -2   3  -8-218.547 480.173  54
   2   3   8 257.307 249.294  21
   2   3   8 78.8270 173.201  22
  -2   3  -8-211.802 367.897  47
  -2   3  -8 195.696 372.364  38
  -2   3  -8 119.849 263.327  42
   2   3   8 164.940 362.394  35
  -2   3  -9 1408.13 592.608  19
   2   3   9 1450.27 468.228  18
  -2   3  -9 1303.06 659.065   2
  -2   3  -9 1348.16 751.356  56
  -2   3  -9 1304.69 659.859  59
   2   3   9 2197.59 599.824  57
  -2   3  -9 1656.79 832.001  54
   2   3   9 1795.91 534.537  21
   2   3   9 2179.04 539.654  22
   2   3   9 924.235 767.387  50
  -2   3  -9 1275.53 525.175  47
  -2   3  -9 2713.72 734.943  42
   2   3   9 354.214 493.255  35
   2   3  10 1232.73 476.807  18
  -2   3 -10 1613.70 652.983  19
  -2   3 -10 580.387 486.502   2
  -2   3 -10 1203.25 592.102  59
  -2   3 -10 1192.33 700.878  56
   2   3  10 1983.49 577.261  57
  -2   3 -10 761.681 632.305  54
   2   3  10 1651.84 530.059  21
   2   3  10 1149.80 458.559  22
   2   3  10 1655.82 968.139  50
  -2   3 -10 1257.73 508.938  47
  -2   3 -10 829.647 514.448  42
   2   3  10 1320.14 630.193  35
  -2   3 -11 150.794 287.324  19
   2   3  11 537.273 334.224  18
   2   3  11 438.773 319.182  13
  -2   3 -11 198.414 308.625   2
  -2   3 -11 637.911 572.382  59
  -2   3 -11-250.376 476.643  56
   2   3  11 915.376 435.695  57
  -2   3 -11 268.944 591.090  54
   2   3  11 111.461 300.313  21
  -2   3 -11 134.628 256.610  47
  -2   3 -11 694.391 568.776  38
  -2   3 -11-146.231 321.642  42
   2   3  11 198.490 377.980  35
   2   3  12 9015.63 1343.99  13
  -2   3 -12 5762.66 1264.64  19
  -2   3 -12 4793.67 1303.26   2
  -2   3 -12 5753.68 1477.33  59
  -2   3 -12 2844.29 1281.17  56
   2   3  12 8394.99 1302.21  57
  -2   3 -12 6161.93 1732.41  54
   2   3  12 11096.4 1448.92  21
  -2   3 -12 6511.41 1258.43  47
  -2   3 -12 8316.85 1792.32  38
  -2   3 -12 9579.58 1545.10  42
   2   3  12 7193.72 1610.46  35
   2   3  13 5231.14 1027.31  13
  -2   3 -13 2608.35 1116.94  56
  -2   3 -13 5174.34 1374.92  59
   2   3  13 5212.05 1010.96  57
  -2   3 -13 3422.21 1323.10  54
   2   3  13 6595.64 1138.61  21
  -2   3 -13 4507.59 1048.21  47
  -2   3 -13 5871.80 1203.35  42
  -2   3 -13 6912.78 1584.82  38
   2   3  13 4788.11 1361.55  35
  -2   3 -14 1295.63 1010.62  10
  -2   3 -14 1110.69 696.302  59
  -2   3 -14 1274.82 797.522  56
   2   3  14 1336.62 497.991  57
   2   3  14 2080.52 637.254  21
  -2   3 -14 282.069 447.739  54
  -2   3 -14 1981.21 696.372  42
  -2   3 -14 1857.99 812.022  38
   2   3  14 409.707 459.359  35
   2   3  15 2981.82 695.676  57
  -2   3 -15 2330.51 978.925  59
  -2   3 -15 1437.58 812.968  56
   2   3  15 2591.98 699.790  21
  -2   3 -15 1884.14 999.577  54
  -2   3 -15 2751.15 802.912  42
   2   3  15 1555.02 702.405  35
  -2   3 -16 213.863 417.270  56
  -2   3 -16 1358.75 744.417  59
   2   3  16 1728.31 564.192  21
  -2   3 -16 2103.03 713.376  42
  -2   3 -16 984.308 816.221  54
   2   3  16 1410.77 704.562  35
  -2   3 -17 427.987 471.547  54
  -2   3 -17 563.797 412.418  42
   2   3  17 907.522 499.783  35
  -2   3 -17 178.962 280.365  56
  -2   3 -17 509.512 528.945  59
  -2   3 -18 819.432 481.471  56
   2   3  18 1800.74 580.667  35
  -2   3 -18 524.767 477.781  54
  -2   3 -19 919.455 484.554  54
  -2   3 -19 866.959 388.446  56
   2   3  20 635.305 258.714  11
   2   3  20 836.556 360.965   7
   2   4 -20 625.943 309.011  38
   2   4 -20 457.541 281.574  59
   2   4 -19 538.281 378.174  38
   2   4 -19 663.207 424.363  59
  -2   4  19 778.017 395.552   5
   2   4 -18 6377.20 1235.77  38
   2   4 -18 5957.90 1226.99  59
  -2   4  18 3558.84 892.623   5
  -2   4  17 820.679 428.935  37
  -2   4  17 126.618 280.910  16
   2   4 -17 903.226 448.891   2
  -2   4  16 271.974 395.584  37
  -2   4  16 150.209 286.280  16
  -2   4  15-150.062 285.580  37
  -2   4  15 551.414 494.627  35
   2   4 -15 185.900 456.681   3
  -2   4  14 476.585 464.825  37
  -2   4  14 577.667 562.217  35
  -2   4  14 677.562 495.236   5
   2   4 -14 821.275 555.079   3
  -2   4  13 3119.20 981.549  35
  -2   4  13 1786.86 723.740  37
  -2   4  13 3884.97 1109.08  43
   2   4 -13 2358.40 835.895  19
  -2   4  13 2558.56 885.139   5
   2   4 -13 2395.38 888.868   3
  -2   4  12 4229.71 1196.92  35
   2   4 -12 5244.28 1240.46  34
  -2   4  12 8065.15 1580.42  43
   2   4 -12 5746.67 1316.74  19
   2   4 -12 6713.68 1530.87   3
  -2   4  12 5173.93 1213.27   5
   2   4 -11 3849.97 1069.43  19
   2   4 -11 4710.12 1352.60   3
  -2   4  11 2714.75 915.133   5
  -2   4  11 6683.42 1213.17  58
  -2   4  11 4829.17 1226.18  43
  -2   4  11 4090.53 1101.99  35
   2   4 -11 4196.77 1103.59  34
   2   4 -10 173.098 268.940  19
   2   4 -10 220.684 419.917   3
  -2   4  10 150.160 329.930   5
   2   4 -10 80.4428 197.627  57
  -2   4  10 410.550 397.764  58
   2   4 -10-192.247 365.809  48
  -2   4  10-176.609 433.839  43
  -2   4  10 354.602 515.332  35
  -2   4  10 298.717 434.119  37
   2   4  -9 4693.40 1114.72  19
   2   4  -9 6422.37 1431.20   3
  -2   4   9 3902.27 970.252   5
   2   4  -9 4537.09 831.085  57
   2   4  -9 6392.40 1369.02  48
  -2   4   9 4972.96 1152.61  43
  -2   4   9 4519.61 1162.50  35
   2   4  -8 3755.59 953.639  19
   2   4  -8 4108.69 1168.63   3
  -2   4   8 2818.61 804.397   5
   2   4  -8 3638.37 703.383  57
   2   4  -8 2379.33 882.973  48
  -2   4   8 4077.58 1206.17  39
  -2   4   8 4931.52 1086.99  43
  -2   4   8 3922.49 976.704  35
   2   4  -7 692.912 437.201  19
   2   4  -7 783.209 574.109   3
  -2   4   7 584.754 392.791   5
  -2   4   7 1386.30 513.251  58
   2   4  -7 1928.73 481.409  57
  -2   4   7 1787.73 554.124  51
   2   4  -7 881.007 552.695  48
  -2   4   7 1210.35 553.422  45
  -2   4   7 226.415 503.181  39
  -2   4   7 142.306 357.666  43
   2   4  -7 1651.78 702.512  29
   2   4  -6 2928.74 770.216  19
  -2   4   6 4150.41 826.501  15
  -2   4   6 4011.34 818.198  58
   2   4  -6 3832.50 678.805  57
  -2   4   6 3184.62 740.607   5
  -2   4   6 4424.14 837.536  51
   2   4  -6 3876.97 1002.72  48
  -2   4   6 2557.18 696.821  45
   2   4  -6 4699.82 1125.94  29
   2   4  -5 5971.28 1301.30   3
  -2   4   5 6515.13 1039.31  58
   2   4  -5 5723.29 898.752  57
   2   4  -5 4021.52 1050.73  48
  -2   4   5 6049.08 987.018  51
   2   4  -5 4048.83 910.686  19
  -2   4   5 2492.89 822.471  16
   2   4  -5 5669.32 1252.50  29
   2   4  -4 5080.42 839.718  57
  -2   4   4 6493.78 982.565  51
   2   4  -4 5683.08 1181.15  48
   2   4  -4 5090.49 933.682  19
  -2   4   4 1970.88 733.644  16
   2   4  -4 5188.24 1215.67  29
  -2   4   3 11608.6 1361.70  51
   2   4  -3 9040.27 1271.69  19
   2   4  -3 10045.8 1234.11  57
   2   4  -3 8805.48 965.820  18
  -2   4   2 13386.3 2125.67  54
  -2   4   2 15504.1 1773.52  51
   2   4  -2 14447.7 1717.79  19
   2   4  -2 12727.7 1662.72  57
   2   4  -2 13998.3 1501.57  18
   2   4  -2 12860.7 1940.06  48
  -2   4   1 1811.21 754.440  54
   2   4  -1 3195.29 646.784  57
   2   4  -1 2188.90 449.500  18
  -2   4   1 3103.39 647.495  51
   2   4  -1 2406.61 750.623  48
  -2   4   0 10350.3 1785.49  54
  -2   4   0 11920.3 1451.51  51
   2   4   0 10803.8 1435.83  57
  -2   4   0 8228.40 1620.35  56
   2   4   0 13085.6 1334.88  18
   2   4   0 8706.03 1526.22  15
   2   4   0 9875.42 1604.58  48
  -2   4  -1 1998.77 699.562  54
  -2   4  -1 2572.32 594.155  51
   2   4   1 1648.50 608.234  48
   2   4   1 1814.22 504.808  57
  -2   4  -1 820.233 529.587  56
   2   4   1 1822.84 420.226  18
   2   4   1 1341.90 521.612  15
  -2   4  -2 1886.88 726.527  54
   2   4   2 1557.44 479.038  20
  -2   4  -2 3058.20 636.551  51
   2   4   2 2535.96 718.179  48
   2   4   2 1973.76 541.277  57
  -2   4  -2 1195.03 646.223  56
   2   4   2 2253.21 508.544  18
   2   4   2 2408.50 704.359  15
  -2   4  -3 7122.19 1079.30  51
  -2   4  -3 6443.01 1410.49  54
   2   4   3 6319.11 1030.37  20
   2   4   3 5808.22 1173.81  48
  -2   4  -3 4096.02 1149.97  56
   2   4   3 8413.43 1184.49  57
   2   4   3 7300.50 1016.61  18
   2   4   3 8313.93 1348.89  15
  -2   4  -4 8559.98 1756.05  56
  -2   4  -4 15613.7 1626.95  51
  -2   4  -4 12248.6 2062.84  54
   2   4   4 15017.9 1606.93  20
   2   4   4 13223.3 1727.73  48
   2   4   4 14422.5 1510.38  18
   2   4   4 14981.9 1887.58  15
   2   4   4 9946.94 1759.16   7
  -2   4  -4 4503.05 1265.40   9
  -2   4  -4 7467.10 1595.08   2
  -2   4  -5 5027.94 1355.70   9
   2   4   5 10937.9 1852.33   7
  -2   4  -5 8817.42 1768.40   2
  -2   4  -5 11487.5 2015.98  56
   2   4   5 15376.6 1755.29  57
  -2   4  -5 13156.6 2132.52  54
  -2   4  -5 16413.1 1734.92  51
   2   4   5 13341.3 1603.42  20
   2   4   5 11645.6 1668.69  48
  -2   4  -5 13248.4 2026.60  38
   2   4   5 16337.7 1665.73  18
  -2   4  -5 12077.7 1875.16  19
   2   4   5 14202.4 1937.99  15
  -2   4  -6 638.809 466.755  19
   2   4   6 840.254 343.676  18
   2   4   6 1200.86 573.330  15
  -2   4  -6 549.589 452.673   2
  -2   4  -6 630.185 394.676   9
   2   4   6 1517.87 521.472  57
  -2   4  -6 246.825 289.993  58
  -2   4  -6 211.249 658.215  54
   2   4   6 373.226 275.592  20
  -2   4  -6 804.830 385.974  51
  -2   4  -6 186.534 412.756  38
   2   4   6 346.987 384.324  35
   2   4   6 1008.65 502.961  29
  -2   4  -7 6432.28 1264.19  19
  -2   4  -7 2013.30 754.155   9
  -2   4  -7 5017.44 1274.65   2
  -2   4  -7 3944.89 1028.59  59
  -2   4  -7 6119.01 943.590  58
   2   4   7 8768.99 1250.57  57
  -2   4  -7 7166.61 1110.01  51
  -2   4  -7 5589.00 1412.81  54
   2   4   7 5506.33 951.033  20
  -2   4  -7 5824.11 1374.84  38
   2   4   7 6208.25 1340.16  35
   2   4   8 2379.03 641.105  18
  -2   4  -8 1870.66 710.279  19
  -2   4  -8 373.953 358.306   9
  -2   4  -8 1211.33 722.366  59
  -2   4  -8 1116.78 705.349  56
  -2   4  -8 2298.56 559.686  58
   2   4   8 1547.26 553.622  57
  -2   4  -8 707.055 646.595  54
   2   4   8 2489.66 626.182  20
  -2   4  -8 2661.42 656.814  51
  -2   4  -8 2487.00 657.474  42
  -2   4  -8 1501.27 755.619  38
   2   4   8 956.800 643.117  35
   2   4   9 1375.87 497.562  18
  -2   4  -9 1395.52 613.857  19
  -2   4  -9 835.595 570.595   2
  -2   4  -9 730.935 390.996   9
  -2   4  -9 934.963 624.000  59
  -2   4  -9 465.260 520.415  56
   2   4   9 1354.86 497.598  57
  -2   4  -9 1201.46 411.802  58
  -2   4  -9 1481.34 773.356  54
   2   4   9 1142.99 429.858  20
  -2   4  -9 1625.20 549.844  51
  -2   4  -9 1904.90 607.306  42
  -2   4  -9 1813.58 903.246  38
   2   4   9 796.822 587.218  35
  -2   4 -10 4784.42 1154.38  19
  -2   4 -10 3628.45 1169.36   2
  -2   4 -10 6359.18 1403.18  59
   2   4  10 5548.36 1066.09  57
  -2   4 -10 3125.47 1159.20  56
  -2   4 -10 4610.39 838.627  58
  -2   4 -10 4867.73 1462.24  54
   2   4  10 3626.93 805.260  20
  -2   4 -10 6386.25 1123.28  51
  -2   4 -10 5439.04 1430.93  38
  -2   4 -10 5575.92 1050.17  42
   2   4  10 3696.21 1130.22  35
  -2   4 -11 8686.62 1661.59  19
  -2   4 -11 9318.40 1838.38  59
  -2   4 -11 5398.66 1612.18  56
   2   4  11 11939.9 1625.56  57
  -2   4 -11 10746.2 1562.50  51
  -2   4 -11 8132.69 1926.17  54
  -2   4 -11 8786.64 1815.89   2
  -2   4 -11 9700.50 2010.92  38
  -2   4 -11 11159.8 1599.50  42
   2   4  11 8559.65 1807.47  35
  -2   4 -12 3817.32 1039.66  19
  -2   4 -12 5900.55 1360.58  59
  -2   4 -12 2705.39 1076.19  56
   2   4  12 5508.28 1049.18  57
  -2   4 -12 2902.46 1216.77  54
  -2   4 -12 4837.65 1277.14   2
  -2   4 -12 5103.51 1016.73  51
  -2   4 -12 5202.06 1014.83  42
   2   4  12 2916.54 1111.79  35
  -2   4 -13 518.553 497.606  54
  -2   4 -13 1876.33 828.326  59
  -2   4 -13 240.432 462.081  56
   2   4  13 1080.98 480.163  57
  -2   4 -13 200.693 387.367   2
  -2   4 -13 1971.50 638.227  42
   2   4  13 1217.21 633.695  35
  -2   4 -14 989.934 717.416  54
  -2   4 -14 2317.74 1287.96  10
   2   4  14 4980.79 1238.03  35
  -2   4 -14 3412.88 1093.49  56
  -2   4 -14 5187.48 1305.59  59
   2   4  14 5127.99 938.647  57
  -2   4 -15 456.148 561.725  54
  -2   4 -15 271.053 423.067  10
   2   4  15 696.521 507.742  35
  -2   4 -15 551.246 639.624  59
   2   4  15 397.507 291.693  57
  -2   4 -15 826.250 557.324  56
  -2   4 -16-201.508 384.254  54
  -2   4 -16 809.328 562.877  59
  -2   4 -16 355.349 437.179  56
   2   4  16 150.173 330.916  11
   2   4  16 1357.74 620.609  35
   2   4  17 612.628 508.090   7
  -2   4 -17 810.747 517.491  59
  -2   4 -17 565.705 384.978  56
  -2   4 -17 1013.53 618.205  54
   2   4  17 629.878 395.723  11
   2   4  18 483.243 377.283   7
  -2   4 -18 732.694 431.900  59
  -2   4 -18 263.082 384.193  54
   2   4  18 391.670 287.103  11
   2   4  19 334.317 212.077  11
   2   4  19 419.760 294.736   7
   2   5 -19 69.9713 108.865  38
   2   5 -19 65.1970 175.536  59
   2   5 -18 742.440 370.637  38
   2   5 -18 597.545 365.073  59
   2   5 -18 337.818 217.993   2
   2   5 -17 780.626 429.265  59
  -2   5  17 103.737 198.442  16
   2   5 -17 95.3748 235.173   2
  -2   5  17 690.091 375.719   5
   2   5 -16 157.406 457.631  59
   2   5 -16 127.951 314.495   2
  -2   5  16 116.752 314.360   5
   2   5 -15 723.370 525.668  59
  -2   5  15 516.438 401.233  37
  -2   5  15-151.424 288.217  16
  -2   5  15 525.088 432.690   5
   2   5 -15 526.498 578.432   3
   2   5 -14 2790.58 977.978  59
   2   5 -14 2858.94 789.597  34
  -2   5  14 1521.16 677.590  16
  -2   5  14 2975.64 836.453   5
   2   5 -14 3033.93 966.487   3
   2   5 -13 2429.43 772.854  34
  -2   5  13 1454.90 672.359  16
  -2   5  13 1033.39 525.380   5
   2   5 -13 892.026 658.129   3
  -2   5  12-153.179 291.509  37
   2   5 -12 173.678 381.624  34
  -2   5  12 149.316 328.106   5
   2   5 -12-237.102 451.176   3
   2   5 -11 4184.20 1224.43  34
  -2   5  11 4589.02 1105.27  37
  -2   5  11 6574.89 1422.79  43
   2   5 -11 6357.05 1346.76  19
   2   5 -11 5138.64 1428.20   3
  -2   5  11 8250.05 1400.71   5
   2   5 -10 863.617 512.209  19
  -2   5  10 1878.72 699.442  58
  -2   5  10 1196.58 554.364  37
  -2   5  10 1387.76 640.159  43
   2   5 -10 1210.75 672.760  34
   2   5 -10 739.075 670.672   3
  -2   5  10 1281.84 551.455   5
   2   5  -9 243.354 378.083   3
  -2   5   9 170.954 265.611   7
  -2   5   9-135.457 297.629   5
  -2   5   9 424.578 347.663  58
  -2   5   9 143.867 223.532  37
  -2   5   9 332.789 316.621  43
   2   5  -9-166.847 317.483  19
  -2   5   9-382.746 420.477  16
  -2   5   8 171.657 377.901   7
  -2   5   8 889.964 442.309   5
  -2   5   8 548.211 426.512  58
   2   5  -8 222.981 347.239  48
  -2   5   8 314.736 424.131  43
  -2   5   8 136.632 301.140  37
   2   5  -8 159.566 304.548  19
  -2   5   8 186.924 356.468  16
   2   5  -7 3033.42 896.663  19
  -2   5   7 2900.59 944.088  16
   2   5  -7 6148.52 1441.45   3
  -2   5   7 3415.99 991.292   7
  -2   5   7 4483.96 927.509   5
   2   5  -7 4712.21 808.395  57
  -2   5   7 5923.23 1106.79  58
   2   5  -7 4574.35 1252.70  48
  -2   5   7 5314.04 1022.61  51
  -2   5   7 3679.03 973.611  43
  -2   5   7 4562.77 1318.50  39
  -2   5   7 5398.10 1055.72  37
   2   5  -6 2140.70 691.760  19
  -2   5   6 350.053 443.142  16
  -2   5   6 1888.58 637.828  15
  -2   5   6 384.591 332.706   9
  -2   5   6 845.306 536.159   7
   2   5  -6 1520.51 762.190   3
  -2   5   6 2166.55 616.223   5
   2   5  -6 1490.15 439.871  57
  -2   5   6 2636.97 684.263  58
  -2   5   6 1716.46 581.424  51
   2   5  -6 1477.17 740.899  48
  -2   5   6 1356.08 517.976  45
  -2   5   6 1363.69 608.773  43
   2   5  -6 1777.94 816.821  29
  -2   5   6 1560.31 538.225  37
   2   5  -5 4529.69 1053.71  19
  -2   5   5 3371.49 999.718  16
  -2   5   5 5574.59 1128.57  15
  -2   5   5 2713.51 862.450   9
  -2   5   5 4341.46 1119.72   7
   2   5  -5 4530.15 1220.63   3
   2   5  -5 7269.34 1015.65  57
  -2   5   5 9085.11 1294.80  58
  -2   5   5 7365.50 1191.60  51
   2   5  -5 6635.89 1437.02  48
  -2   5   5 6387.14 1133.53  45
  -2   5   5 5894.19 1111.56  43
   2   5  -5 8725.30 1688.81  29
  -2   5   5 5904.42 1067.37  37
  -2   5   5 4587.78 1191.13  36
  -2   5   4 4543.27 1311.73  16
  -2   5   4 8133.79 1458.10  15
   2   5  -4 11091.8 1944.11   3
  -2   5   4 15229.1 1716.95  58
   2   5  -4 11368.4 1421.89  57
  -2   5   4 12642.9 1607.85  51
   2   5  -4 8017.59 1425.08  19
  -2   5   4 11885.8 1632.58  45
  -2   5   4 11096.5 1487.83  37
  -2   5   4 5327.51 1576.42  41
   2   5  -4 14895.5 2209.03  29
  -2   5   4 9608.09 1725.24  36
  -2   5   3 312.681 344.729  16
  -2   5   3 130.170 287.477  15
   2   5  -3 734.059 494.676   3
   2   5  -3 728.870 333.229  57
  -2   5   3 648.482 376.591  58
  -2   5   3 672.066 370.297  51
   2   5  -3-187.194 412.314  48
  -2   5   3 245.162 302.519  45
  -2   5   3 240.669 458.857  41
  -2   5   3 502.959 452.075  36
  -2   5   2 302.987 678.095  10
  -2   5   2 1685.89 618.058  15
  -2   5   2 453.076 426.404  16
   2   5  -2 1728.91 670.478   3
   2   5  -2 1321.60 446.642  57
  -2   5   2 2471.09 622.641  58
  -2   5   2 1865.97 554.488  51
   2   5  -2 2357.04 807.106  48
  -2   5   2 2590.71 676.368  45
  -2   5   2 1735.20 912.345  41
  -2   5   2 2590.23 858.127  36
   2   5  -2 1404.29 673.637  29
   2   5  -1 1606.79 395.340  18
  -2   5   1 439.425 416.382  16
  -2   5   1 2077.50 651.877  15
   2   5  -1 1276.44 596.635   7
   2   5  -1 1953.35 705.459   3
   2   5  -1 1863.22 544.564  57
  -2   5   1 1377.13 477.713  58
  -2   5   1 1790.56 826.456  54
   2   5  -1 1749.28 553.644  20
  -2   5   1 1493.59 541.046  51
   2   5  -1 2291.34 809.552  48
  -2   5   1 1873.31 597.347  45
  -2   5   1 1269.92 847.740  41
  -2   5   1 2490.99 905.723  36
   2   5  -1 3890.87 1033.70  29
   2   5   0 4697.90 768.878  18
  -2   5   0 3392.90 878.263  15
   2   5   0 4748.07 1096.50  15
   2   5   0 4439.62 1043.15   3
   2   5   0 4448.17 1081.76   7
  -2   5   0 6602.82 1006.88  58
   2   5   0 4493.58 892.605  57
  -2   5   0 4261.50 1245.44  54
   2   5   0 4316.26 921.713  20
  -2   5   0 6046.81 1011.94  51
   2   5   0 4297.48 1122.62  48
  -2   5   0 4968.20 1017.89  45
  -2   5   0 4669.83 1393.48  41
   2   5   0 3210.89 1049.74  29
   2   5   1 2968.29 606.096  18
   2   5   1 2968.67 876.775  15
   2   5   1 2566.24 856.027   7
  -2   5  -1 2346.22 744.787   2
   2   5   1 3014.90 826.746   3
   2   5   1 5103.04 916.043  57
  -2   5  -1 2179.53 600.199  58
  -2   5  -1 1808.00 860.052  54
   2   5   1 3588.10 808.332  20
  -2   5  -1 3083.50 752.643  51
   2   5   1 3022.35 900.101  48
  -2   5  -1 2909.91 1188.65  41
   2   5   1 3674.76 1039.32  29
   2   5   2 9086.90 1845.82   7
  -2   5  -2 7688.37 1728.62   2
  -2   5  -2 14316.5 1699.92  58
   2   5   2 15885.8 1879.29  57
  -2   5  -2 15350.2 1821.99  51
  -2   5  -2 14194.4 2363.86  54
   2   5   2 15905.4 1899.09  20
   2   5   2 10608.1 1900.13  48
   2   5   2 15054.1 1674.26  18
   2   5   2 11962.0 1957.73  15
   2   5   2 12897.0 2106.46  29
  -2   5  -3 3974.44 1133.17   2
   2   5   3 3527.17 1095.97   7
  -2   5  -3 2859.28 1066.34  56
   2   5   3 6385.70 1115.41  57
  -2   5  -3 5543.10 923.284  58
  -2   5  -3 5358.66 1450.08  54
   2   5   3 4711.21 975.662  20
   2   5   3 5130.63 1175.53  48
  -2   5  -3 6238.06 1047.11  51
   2   5   3 7753.83 1040.36  18
   2   5   3 6684.28 1320.09  15
   2   5   3 5246.11 1222.55  29
  -2   5  -4 151.372 343.221   9
   2   5   4 965.239 605.796   7
  -2   5  -4 1292.50 614.397   2
   2   5   4 2177.46 642.941  57
  -2   5  -4 447.924 434.498  56
  -2   5  -4 1245.56 416.673  58
  -2   5  -4 475.701 529.417  54
   2   5   4 1276.43 500.936  20
  -2   5  -4 1097.61 442.943  51
   2   5   4 1066.10 535.831  48
   2   5   4 1693.45 481.152  18
   2   5   4 1332.75 612.877  15
   2   5   4 1535.44 706.359  29
   2   5   5 5402.19 1330.53   7
  -2   5  -5 2550.95 876.249   9
  -2   5  -5 4499.56 1231.90   2
  -2   5  -5 3651.49 1242.70  56
   2   5   5 8059.18 1280.79  57
  -2   5  -5 7980.10 1193.80  51
  -2   5  -5 4620.22 1365.88  54
   2   5   5 7468.43 1179.47  20
   2   5   5 7292.10 1096.48  18
   2   5   5 7151.88 1417.39  15
   2   5   5 5798.49 1283.99  29
  -2   5  -6 1242.41 777.382  54
   2   5   6 1980.77 579.568  20
  -2   5  -6 2382.29 629.676  51
  -2   5  -6 147.728 337.010   9
   2   5   6 1033.19 607.400   7
  -2   5  -6 1233.19 645.030   2
   2   5   6 1913.69 695.023  15
  -2   5  -7 506.494 556.408  54
   2   5   7 230.726 310.429  20
  -2   5  -7 1622.43 524.906  51
   2   5   7 636.593 616.748   7
  -2   5  -7-144.025 274.042   9
  -2   5  -7 427.792 621.686   2
   2   5   7-132.130 145.151  11
  -2   5  -8 2568.20 1035.48  54
   2   5   8 5187.34 905.610  20
  -2   5  -8 2592.79 675.651  51
  -2   5  -8 1919.58 933.400  56
   2   5   8 4366.70 920.028  57
  -2   5  -8 969.254 518.487   9
   2   5   8 1299.30 700.135   7
  -2   5  -8 3081.12 1071.47   2
  -2   5  -9 5093.01 1154.35  59
  -2   5  -9 2900.73 1073.54  56
   2   5   9 5350.22 1056.77  57
  -2   5  -9 4134.82 1275.17  54
   2   5   9 5532.69 958.380  20
  -2   5  -9 4401.66 910.572  51
  -2   5  -9 4797.74 1363.25  38
  -2   5  -9 1434.64 618.163   9
   2   5   9 4821.95 1265.73   7
  -2   5 -10 342.625 380.097  59
  -2   5 -10 241.018 594.406  56
   2   5  10 949.594 497.088  57
  -2   5 -10 257.177 633.951  54
   2   5  10 715.470 392.547  20
  -2   5 -10 1425.55 508.201  51
  -2   5 -10 476.240 324.724   9
   2   5  10 621.930 385.585  11
   2   5  10 658.165 541.507   7
  -2   5 -11 6303.64 1595.07  54
   2   5  11 3678.16 1186.86   7
  -2   5 -11 5206.93 1367.44   2
   2   5  11 8135.57 1114.53  20
  -2   5 -11 1893.91 953.813  56
  -2   5 -11 9731.08 1580.49  59
   2   5  11 11833.5 1500.69  57
   2   5  11 2216.92 824.742  11
   2   5  12 5651.36 1369.26   7
  -2   5 -12 5357.49 1386.92   2
  -2   5 -12 6151.94 1268.97  59
  -2   5 -12 4556.82 1278.15  56
   2   5  12 7209.73 1166.56  57
  -2   5 -12 3880.23 1327.62  54
   2   5  12 1886.30 759.885  11
   2   5  13 592.936 485.645   7
   2   5  13 456.518 376.315  57
  -2   5 -13-213.483 331.873  56
  -2   5 -13 227.746 354.019  54
   2   5  13 302.489 332.508  11
   2   5  14 181.143 344.670   7
  -2   5 -14-193.172 424.418  56
   2   5  14 202.483 248.694  57
  -2   5 -14-207.720 395.239  54
  -2   5 -14 306.926 584.001  10
   2   5  14 560.682 407.404  11
   2   5  15-159.982 304.408   7
  -2   5 -15-166.725 259.024  56
   2   5  15 86.0426 163.722  57
   2   5  15-124.154 192.888  11
  -2   5 -15 238.901 371.154  10
  -2   5 -15 182.726 448.855  54
   2   5  16 269.204 258.172   7
   2   5  16 519.020 324.173  11
  -2   5 -16 459.700 477.232  54
   2   5  17 736.458 365.808   7
   2   5  17 79.7641 175.924  11
  -2   5 -17 119.318 262.605  54
   2   5  18 991.438 332.979   7
   2   5  18 360.667 192.813  11
   2   6 -17 234.255 226.955  38
   2   6 -17 57.7820 126.955   2
  -2   6  17-64.7334 142.228  16
   2   6 -16 1188.71 491.703  38
   2   6 -16 1117.16 424.265   2
  -2   6  16 184.179 252.182  16
   2   6 -15 1204.83 536.240  38
   2   6 -15 740.102 456.484   2
  -2   6  14 395.757 345.371   5
  -2   6  13 1081.65 489.788   5
   2   6 -13 1554.75 748.965   3
   2   6 -13 1862.65 670.915  59
   2   6 -13 1350.56 605.127  34
  -2   6  12 1713.51 572.888   5
   2   6 -12 1719.76 791.641   3
   2   6 -12 1686.12 749.795  59
   2   6 -12 2446.71 809.574  34
  -2   6  12 501.338 464.168  16
   2   6 -11 7470.15 1545.32  34
  -2   6  11 6331.22 1096.53   5
   2   6 -11 5747.61 1461.04   3
  -2   6  11 5992.86 1142.05  37
  -2   6  11 2132.12 831.034  16
   2   6 -10-93.9613 178.917  20
   2   6 -10 205.553 391.174  34
  -2   6  10-117.439 258.116   5
  -2   6  10-131.672 354.381  37
  -2   6  10 184.991 352.057  16
   2   6  -9 5041.19 936.975  20
   2   6  -9 5045.65 1360.39  34
  -2   6   9 4836.19 991.183   5
   2   6  -9 5335.97 1418.53   3
  -2   6   9 7307.11 1225.55  37
  -2   6   9 2651.26 949.818  16
  -2   6   8 191.275 367.875  16
   2   6  -8 1594.40 511.798  20
  -2   6   8 2027.35 666.166  58
  -2   6   8 1080.10 561.906   7
   2   6  -8 241.484 652.013   3
  -2   6   8 221.413 277.178   5
  -2   6   8 1399.08 543.794  37
   2   6  -8 228.368 563.526  34
  -2   6   7 7048.28 1171.61  58
   2   6  -7 5915.72 1448.42   3
   2   6  -7 6980.21 1052.51  20
   2   6  -7 5009.44 1362.43  41
  -2   6   7 7578.99 1162.38  37
  -2   6   7 1529.37 715.396  16
  -2   6   6 3886.59 858.072  58
   2   6  -6 2178.76 638.919  20
  -2   6   6 834.620 487.366   9
   2   6  -6 3437.73 1109.83   3
  -2   6   6 2435.93 670.481  37
  -2   6   6 4021.41 1214.84  39
  -2   6   6 1137.14 646.134  16
  -2   6   5 1680.57 783.274  16
  -2   6   5 3451.77 894.638  15
   2   6  -5 3958.71 727.193  57
  -2   6   5 5884.67 1052.14  58
   2   6  -5 4135.89 860.552  20
  -2   6   5 1053.44 558.990   9
   2   6  -5 4398.42 1186.99   3
  -2   6   5 4155.73 905.293  51
  -2   6   5 1727.16 973.717  41
  -2   6   5 4345.22 857.798  37
  -2   6   5 3168.44 951.570  36
  -2   6   4 1281.84 664.790  16
  -2   6   4 2434.81 790.027  15
  -2   6   4 4324.64 886.638  58
   2   6  -4 3705.99 707.593  57
   2   6  -4 2672.04 694.498  20
  -2   6   4 954.164 530.495   9
   2   6  -4 2095.44 852.133   3
  -2   6   4 3225.21 774.370  51
  -2   6   4 1059.21 738.242  41
  -2   6   4 3718.36 1047.22  36
  -2   6   3 536.859 478.513  16
  -2   6   3 2315.97 799.927  15
   2   6  -3 3375.06 1017.17   3
   2   6  -3 3850.79 734.196  57
  -2   6   3 5628.36 954.711  58
   2   6  -3 3489.46 831.712  20
  -2   6   3 1920.60 656.836  51
  -2   6   3 836.078 886.339  41
  -2   6   3 2795.86 957.179  36
  -2   6   2 5756.23 1517.60  16
   2   6  -2 10796.4 1917.64  15
  -2   6   2 12214.4 1916.82  15
   2   6  -2 10479.4 1919.86   3
  -2   6   2 15651.8 1803.07  58
   2   6  -2 13776.3 1685.57  57
  -2   6   2 13804.7 1833.62  51
   2   6  -2 14683.3 1849.54  20
  -2   6   2 14226.3 1873.44  45
  -2   6   2 7527.83 2029.12  41
  -2   6   2 10332.0 2024.81  36
   2   6  -2 12548.2 2222.32  29
   2   6  -1 2177.99 818.045  15
  -2   6   1 1269.93 654.563  15
   2   6  -1 2279.29 791.639   3
   2   6  -1 3665.47 770.826  57
  -2   6   1 2808.48 681.187  58
  -2   6   1 2012.95 701.110  51
  -2   6   1 2291.58 718.022  45
  -2   6   1 1490.41 943.904  41
  -2   6   1 3244.33 1012.67  36
   2   6  -1 884.543 668.000  29
   2   6   0 1097.55 681.213  15
  -2   6   0 965.213 602.821  15
   2   6   0 2279.34 771.787   3
  -2   6   0 1282.11 468.407  58
   2   6   0 1930.61 588.818  57
  -2   6   0 1402.92 883.135  54
   2   6   0 1995.91 684.511  20
  -2   6   0 1126.11 533.258  51
  -2   6   0 2777.63 760.595  45
  -2   6   0 2438.64 1168.55  41
  -2   6   0 2098.60 903.932  36
   2   6   0 2995.97 979.478  29
  -2   6  -1 1788.63 684.537  15
   2   6   1 1287.70 655.951  15
   2   6   1 1443.41 765.714   7
   2   6   1 1904.42 603.180  57
  -2   6  -1 2052.11 562.039  58
  -2   6  -1 1407.42 831.396  54
   2   6   1 2027.92 680.465  20
  -2   6  -1 2454.65 676.880  51
  -2   6  -1 2573.46 751.379  45
  -2   6  -1 1296.93 868.850  36
   2   6   1 620.426 619.022  29
   2   6   2 6838.05 1504.55  15
   2   6   2 5051.23 1330.31   7
   2   6   2 6848.27 1234.42  57
  -2   6  -2 7828.95 1275.38  51
  -2   6  -2 6762.82 1762.17  54
   2   6   2 7652.70 1321.43  20
  -2   6  -2 5435.07 1202.54  45
   2   6   2 7578.15 1591.90  29
  -2   6  -3-174.441 278.623   9
   2   6   3 1711.79 746.136   7
  -2   6  -3 1439.80 658.916   2
   2   6   3 907.382 454.933  57
  -2   6  -3 562.845 621.687  54
   2   6   3 1234.87 547.297  20
  -2   6  -3 1585.42 556.165  51
   2   6   3 2778.74 889.413  15
   2   6   3 1914.49 761.058  29
  -2   6  -4 2232.73 833.712   9
   2   6   4 4113.05 1194.25   7
  -2   6  -4 3834.54 1070.43   2
   2   6   4 6302.29 1129.40  57
  -2   6  -4 5044.00 1486.71  54
   2   6   4 5596.67 1076.99  20
  -2   6  -4 4792.06 969.316  51
   2   6   4 3146.97 1037.63  15
   2   6   4 4371.61 1219.38  29
  -2   6  -5 3348.80 1070.13   9
  -2   6  -5 7249.49 1572.05   2
   2   6   5 8055.59 1681.30   7
   2   6   5 10732.2 1534.50  57
  -2   6  -5 8456.40 1317.79  51
  -2   6  -5 5559.80 1614.07  54
   2   6   5 10088.4 1461.39  20
   2   6   5 9776.20 1730.57  15
   2   6   5 6131.66 1406.22  29
   2   6   6 1116.49 556.066  57
  -2   6  -6 548.883 605.983  54
   2   6   6 916.416 480.788  20
  -2   6  -6 707.870 393.464  51
   2   6   6 1281.27 606.236  15
  -2   6  -6 322.408 359.278   9
   2   6   6 652.641 588.492   7
  -2   6  -6 626.133 564.845   2
  -2   6  -7 2423.00 1030.43  54
   2   6   7 3513.96 787.633  20
  -2   6  -7 2556.74 672.472  51
  -2   6  -7 152.696 310.733   9
   2   6   7 2372.45 861.345   7
  -2   6  -7 2558.26 943.247   2
   2   6   7 3220.38 835.615  57
   2   6   8 118.246 225.000  20
  -2   6  -8-141.550 219.918   9
   2   6   8 211.807 465.364   7
  -2   6  -8-214.244 470.718   2
  -2   6  -8-261.923 498.375  54
   2   6   8 138.387 263.321  57
   2   6   9 3380.91 744.220  20
  -2   6  -9 1400.96 531.459   9
   2   6   9 2467.15 962.600   7
  -2   6  -9 2536.87 989.559   2
  -2   6  -9 4790.25 1359.93  54
   2   6  10 686.111 373.154  20
   2   6  10 590.110 432.310   7
  -2   6 -10 612.398 593.406   2
  -2   6 -10-109.573 240.983   9
   2   6  10 116.405 255.980  11
  -2   6 -10 239.424 455.689  54
  -2   6 -11 2012.25 855.267  54
   2   6  11 1663.74 737.344   7
   2   6  11 1359.84 426.486  20
   2   6  11 339.173 316.387  11
   2   6  11 2136.43 631.321  57
   2   6  12 849.628 619.190   7
  -2   6 -12 204.490 673.992  54
   2   6  12-106.275 233.684  11
   2   6  13 1966.87 527.242  57
   2   6  13 759.498 530.274   7
  -2   6 -13 546.528 403.663  54
  -2   6 -13 913.697 886.760  10
   2   6  13 191.884 241.413  11
  -2   6 -13 1429.79 608.063  36
   2   6  14 2906.11 571.145  57
  -2   6 -14 1253.61 692.971  54
  -2   6 -14 1644.73 577.638  36
   2   6  14 328.145 266.553  11
  -2   6 -14 1206.10 882.330  10
   2   6  14 785.141 504.037   7
   2   6  15 257.420 188.774  11
  -2   6 -15 838.620 583.215  10
  -2   6 -15 255.595 244.497  54
   2   6  15 320.126 288.268   7
   2   6  16 628.308 327.271   7
   2   7 -15 532.392 257.317   2
  -2   7  14 84.1847 185.354  16
   2   7 -14 281.988 292.309   2
  -2   7  13-102.819 252.569  16
   2   7 -13 117.213 223.027   2
  -2   7  12 118.922 261.287  16
   2   7 -12-121.299 297.966  34
  -2   7  11 1327.55 534.874  16
   2   7 -11 885.063 635.206  34
   2   7 -10 679.614 560.632  34
  -2   7  10 288.751 355.738  16
   2   7 -10 185.399 408.287   3
   2   7  -9 3951.95 1090.65  34
   2   7  -9 4086.96 1106.34   3
  -2   7   9 1230.49 591.284  16
   2   7  -8 1451.82 472.547  20
   2   7  -8 1818.39 896.023  34
  -2   7   8 1127.85 544.610  16
   2   7  -8 1597.23 769.352   3
   2   7  -7 602.435 495.404   3
   2   7  -7 1057.75 698.697  34
   2   7  -7 297.390 291.744  20
   2   7  -7 1075.45 785.010  41
  -2   7   7 665.620 450.116  16
   2   7  -6 397.310 382.222   3
   2   7  -6 651.077 676.715  34
   2   7  -6 638.958 374.271  20
   2   7  -6 1238.07 862.056  41
  -2   7   6 1018.72 530.595  16
  -2   7   5 281.909 309.714   9
   2   7  -5-193.707 368.594   3
  -2   7   5 619.520 300.129  58
   2   7  -5 226.136 277.770  20
   2   7  -5-274.310 426.180  41
  -2   7   5-171.396 376.592  16
   2   7  -5-172.629 424.069  15
   2   7  -4 951.958 491.156  20
  -2   7   4 153.122 339.385   9
   2   7  -4 186.392 357.466   3
   2   7  -4 709.522 552.963  15
  -2   7   4 1198.80 441.252  58
   2   7  -3 1989.19 628.491  20
  -2   7   3 974.237 555.242   9
   2   7  -3 1769.37 689.429   3
   2   7  -3 2172.13 809.070  15
  -2   7   3 2622.57 892.542  36
   2   7  -2 4773.98 1020.26  20
  -2   7   2 1522.30 700.634   9
   2   7  -2 3966.17 999.693   3
   2   7  -2 3670.77 1083.61  15
  -2   7   2 4052.87 1021.88  15
  -2   7   2 3747.44 1104.78  36
   2   7  -1 1329.88 551.200  20
   2   7  -1 1108.81 645.878  15
  -2   7   1 1436.40 636.108  15
  -2   7   1 197.740 536.785  36
  -2   7   1 521.258 432.643   9
   2   7   0 4584.04 832.863  57
  -2   7   0 2102.69 1167.84  10
  -2   7   0 3082.37 890.066  15
   2   7   0 2961.63 925.696  15
  -2   7   0 2060.09 975.622  36
  -2   7   0 529.196 505.224   9
   2   7   1 1833.42 560.268  57
  -2   7  -1-381.062 596.297  10
  -2   7  -1 818.123 543.950  15
   2   7   1 921.360 576.993  15
  -2   7  -1 848.661 663.083  36
   2   7   2 1466.17 497.995  57
  -2   7  -2 2052.77 1069.58  54
  -2   7  -2-176.048 277.848   9
   2   7   2 1382.80 570.487  20
  -2   7  -2 491.205 478.402  15
   2   7   2 1093.84 602.808  15
  -2   7  -2 1513.27 824.129  36
   2   7   3 1401.62 509.954  57
  -2   7  -3 2880.49 1146.65  54
  -2   7  -3 864.652 549.371   9
   2   7   3 840.441 576.845   7
   2   7   3 2056.26 699.527  20
  -2   7  -3 1961.97 1022.45  36
  -2   7  -3 1134.94 601.712  15
   2   7   3 1433.09 662.631  15
   2   7   4 2623.40 873.557  15
   2   7   4 2031.61 635.622  57
  -2   7  -4 1682.86 987.017  54
  -2   7  -4 1173.58 603.362   9
   2   7   4 1864.01 835.346   7
   2   7   4 2144.30 708.307  20
  -2   7  -4 1661.76 632.060  45
  -2   7  -4 2175.10 938.754  36
   2   7   5 1085.66 460.726  57
  -2   7  -5 270.628 516.429  54
  -2   7  -5-160.028 353.782   9
   2   7   5 808.661 667.420   7
   2   7   5 1418.00 531.318  20
  -2   7  -5 636.903 397.735  45
   2   7   5 1355.82 618.733  15
  -2   7  -6 2585.91 1044.17  54
   2   7   6 1952.74 770.348   7
  -2   7  -6 1049.05 533.998   9
   2   7   6 3289.49 772.347  20
  -2   7  -6 3255.40 792.282  45
   2   7   6 4556.52 906.662  57
  -2   7  -7 4888.89 1441.79  54
  -2   7  -7 1780.96 702.973   9
   2   7   7 3728.86 1086.52   7
   2   7   7 6881.99 1084.57  20
  -2   7  -7 5699.05 1060.86  45
   2   7   7 8202.41 1214.07  57
   2   7   8 204.076 226.082  20
  -2   7  -8 485.054 327.610   9
   2   7   8 175.672 274.479   7
  -2   7  -8 228.273 435.324  54
   2   7   8 1234.58 462.251  57
  -2   7  -9 2941.58 1010.55  54
   2   7   9 1303.72 627.332   7
   2   7   9 1705.38 492.221  20
  -2   7  -9 409.482 312.210   9
   2   7   9 2207.51 607.455  57
   2   7  10 671.582 350.269  57
  -2   7 -10-190.038 362.283  54
   2   7  10 148.328 461.422   7
   2   7  10 228.058 222.076  20
  -2   7 -10 238.190 231.845   9
  -2   7 -10 624.416 454.264  36
  -2   7 -11 504.167 452.543  54
   2   7  11 594.692 310.010  57
   2   7  11 263.491 354.926   7
  -2   7 -11-134.499 362.328  36
  -2   7 -11-301.971 469.450  10
   2   7  12 113.100 215.975   7
  -2   7 -12 287.978 387.889  54
  -2   7 -12 327.612 379.806  36
  -2   7 -12 758.145 785.439  10
   2   7  13 643.629 371.798   7
  -2   7 -13 703.193 433.517  54
  -2   7 -13 1345.90 482.211  36
  -2   7 -13 1173.85 716.730  10
   2   7  14 1134.63 357.349   7
   2   8 -11-73.6943 214.284   2
   2   8 -10 611.593 354.495  34
   2   8 -10 145.359 179.309  15
   2   8 -10 86.5470 252.099   2
   2   8  -9 721.046 459.231  34
   2   8  -9 262.882 275.467  15
   2   8  -9 864.025 436.845   2
   2   8  -8 1103.88 429.134  15
   2   8  -8 134.851 334.041  34
   2   8  -7 920.182 531.329  41
   2   8  -7 1558.62 529.571  15
   2   8  -6 1342.32 752.320  41
   2   8  -6 2052.35 653.392  15
   2   8  -5 793.103 628.660  34
   2   8  -5 650.312 334.852  20
   2   8  -5-196.676 432.674  41
   2   8  -5 256.947 316.350  15
   2   8  -4 1603.99 734.682  34
   2   8  -4 1415.70 458.627  20
  -2   8   4 904.918 426.358   9
   2   8  -4 1754.33 841.628  41
   2   8  -4 1347.69 620.123  15
   2   8  -3 478.620 429.343  34
   2   8  -3 756.918 360.102  20
  -2   8   3-248.310 272.843   9
   2   8  -3 236.113 518.795  41
   2   8  -3-139.475 306.496  15
   2   8  -2 625.015 454.414  34
   2   8  -2 99.6795 245.346  20
  -2   8   2 132.211 252.040   9
   2   8  -2 247.567 471.311  41
   2   8  -2 142.557 350.523  15
   2   8  -1 903.760 577.505  34
   2   8  -1 1450.11 474.396  20
  -2   8   1 275.212 345.258   9
   2   8  -1 1016.69 969.799  41
   2   8  -1 1295.95 574.662  15
   2   8   0 7537.37 1130.01  20
   2   8   0 8049.36 1354.43  15
  -2   8   0 5727.83 1215.54  36
   2   8   0 6129.33 1249.80  34
   2   8   1 425.816 412.659  15
  -2   8  -1-156.984 385.744  36
  -2   8  -2 835.702 471.268   9
   2   8   2 1247.38 559.241  15
   2   8   3 5417.14 912.823  20
  -2   8  -3 1486.12 607.377   9
  -2   8  -3 3685.99 1084.59  36
   2   8   3 3210.96 879.418  15
  -2   8  -4 472.777 519.370  36
   2   8   4 299.591 290.255  20
  -2   8  -4-128.475 244.458   9
   2   8   5-93.6796 230.177  20
  -2   8  -5 357.964 321.122   9
  -2   8  -5 304.446 409.648  36
  -2   8  -5 290.376 638.005  10
   2   8   6 1629.89 473.842  20
  -2   8  -6 215.064 268.854   9
  -2   8  -6 576.984 615.759  36
  -2   8  -6 1133.72 935.424  10
  -2   8  -7 1347.42 889.401  10
  -2   8  -7 185.792 233.124   9
   2   8   7 1981.90 483.402  20
  -2   8  -8-248.749 473.312  10
  -2   8  -8-74.8120 183.792   9
   2   8   8 195.651 214.950  20
  -2   8  -9 611.620 242.347   9
  -2   8  -9 1327.58 809.532  10
  -2   8 -10 1291.49 521.204  36
  -2   8 -11 125.664 182.937  36
   2   9  -5 703.232 342.075  34
   2   9  -4-95.3112 256.601  41
   2   9  -3 114.445 251.870  41
   2   9  -3 198.378 178.536  15
   2   9  -2 1144.31 596.937  41
   2   9  -2 765.747 304.784  15
  -2   9   1 221.806 215.088   9
   2   9  -1 71.3583 175.526  15
   2   9  -1 52.0278 128.131  20
   2   9   0 689.548 547.542  41
  -2   9   0 77.1934 193.334   9
   2   9   1 1783.03 697.910  41
  -2   9  -1 545.002 301.330   9
   2   9   1 2525.90 458.763  20
   2   9   2 1991.15 756.560  41
   2   9   2 2490.03 481.365  20
  -2   9  -3-143.500 176.675   9
   2   9   4 338.489 372.558  41
  -2   9  -4 64.7809 160.786   9
   2   9   4 621.237 217.671  20
  -2   9  -5 109.260 147.497   9
   2   9   5 288.531 317.195  41
  -3  -8   9 472.936 314.342  33
  -3  -8   8-95.8693 149.166  46
  -3  -8   7 496.725 411.458  46
  -3  -8   6 148.991 327.897  46
  -3  -8   6 378.907 340.395  44
  -3  -8   5 1542.21 665.318  46
  -3  -8   4 191.401 516.330  46
  -3  -8   4 517.880 323.893   4
  -3  -8   3 2088.36 929.257  46
  -3  -8   3 1589.30 540.708   4
  -3  -8   2 3347.57 1115.32  46
  -3  -8   2 2131.43 608.923   4
  -3  -8   1 467.678 575.604  46
  -3  -8   1 422.307 330.134   4
  -3  -8   0 240.286 457.598  46
  -3  -8   0 206.195 253.965   4
  -3  -8  -1 726.145 703.871  46
  -3  -8  -1 198.449 267.954   4
  -3  -8  -2 469.885 312.314   4
  -3  -8  -3 87.2559 191.855   4
  -3  -8  -4 4765.09 1311.50  46
  -3  -8  -4 1417.22 440.061   4
  -3  -8  -5 394.957 574.026  46
  -3  -8  -5 67.5667 182.001   4
  -3  -8  -6 863.657 574.039  46
  -3  -8  -7 990.315 498.720  46
  -3  -7  13-60.7392 149.316  30
  -3  -7  13-81.7085 237.556  33
  -3  -7  13-78.2831 172.095  55
  -3  -7  12-87.6948 192.715  46
  -3  -7  12 159.294 195.688  30
  -3  -7  12 223.735 301.048  33
  -3  -7  12 200.542 246.341  55
  -3  -7  11-126.115 309.817  46
  -3  -7  11-96.1137 211.208  30
  -3  -7  11 556.382 404.298  33
  -3  -7  11 474.117 431.876  55
  -3  -7  10 474.991 389.022  46
  -3  -7  10-222.383 273.269  30
  -3  -7  10 164.603 404.427  33
  -3  -7  10 133.420 293.263  55
  -3  -7   9 152.156 374.021  44
  -3  -7   9 187.878 413.021  46
  -3  -7   9 125.235 238.697  30
  -3  -7   9 376.934 507.333  33
  -3  -7   9 144.983 276.217  55
  -3  -7   8 215.940 338.448  46
  -3  -7   8 699.363 510.136  44
  -3  -7   8 1047.52 571.225  27
  -3  -7   8 553.374 404.572  30
  -3  -7   8 210.355 694.694  33
  -3  -7   8 766.281 534.273  55
  -3  -7   7 166.244 366.310  27
  -3  -7   7 229.779 505.610  33
  -3  -7   7 1457.45 844.302  46
  -3  -7   7 328.991 405.025   4
  -3  -7   7 316.727 389.999  55
  -3  -7   6 738.695 718.398  33
  -3  -7   6 893.444 558.729  27
  -3  -7   6 268.780 422.233  46
  -3  -7   6 1027.09 535.558   4
  -3  -7   6 1123.61 614.034  55
  -3  -7   5 1124.18 657.166  27
  -3  -7   5 879.856 726.116  46
  -3  -7   5 701.847 517.972   4
  -3  -7   5 1919.66 751.078  55
  -3  -7   4 1579.77 1099.89  46
  -3  -7   4 710.173 520.891   4
  -3  -7   4 784.893 522.198  55
  -3  -7   3 194.994 479.011  27
  -3  -7   3-336.152 522.262  46
  -3  -7   3-177.695 390.441   4
  -3  -7   3 151.710 288.705  55
  -3  -7   2-194.729 370.523  27
  -3  -7   2-353.145 671.945  46
  -3  -7   2 352.419 432.849   4
  -3  -7   2 288.244 354.030  55
  -3  -7   1-192.189 365.687  27
  -3  -7   1 520.125 425.884   4
  -3  -7   1 366.155 568.852  46
  -3  -7   0 562.823 464.491  27
  -3  -7   0 847.219 495.900   4
  -3  -7   0 374.457 1426.17  46
  -3  -7  -1 329.234 404.906   4
  -3  -7  -1 181.116 345.245  27
  -3  -7  -2 636.126 465.417   4
  -3  -7  -3 152.755 336.021   4
  -3  -7  -3 366.065 696.722  46
  -3  -7  -4 342.907 533.051  32
  -3  -7  -4 351.466 772.424  46
  -3  -7  -4 145.785 320.833   4
  -3  -7  -5 170.111 417.926  32
  -3  -7  -5 331.061 363.757  46
  -3  -7  -5-138.054 303.402   4
   3  -7   5 331.858 321.593  55
  -3  -7  -6 165.396 480.731  32
  -3  -7  -6-305.074 580.485  46
  -3  -7  -6 129.421 246.272   4
   3  -7   6 108.875 292.984  55
  -3  -7  -7 119.654 264.699   4
  -3  -7  -7 1049.67 729.944  56
  -3  -7  -7 1642.34 951.391  46
  -3  -7  -7 1573.63 734.079  32
   3  -7   7 209.694 327.236  55
  -3  -7  -8 325.105 319.247   4
  -3  -7  -8 1404.97 733.135  56
  -3  -7  -8 237.082 640.080  46
   3  -7   8 888.416 436.878  55
  -3  -7  -8 876.844 581.182  32
   3  -7   9 271.418 243.531  55
  -3  -7  -9-94.8445 233.062   4
  -3  -7  -9 131.881 324.015  32
  -3  -7  -9 187.579 356.969  56
   3  -7  10 1359.51 437.540  55
  -3  -7 -10 619.463 305.023   4
  -3  -7 -10 1605.15 568.761  32
  -3  -7 -10 679.715 500.142  56
  -3  -7 -11 1026.42 538.148  56
   3  -7  11 934.784 334.345  55
  -3  -7 -11 471.074 333.620  32
  -3  -6  16 534.695 268.658  28
  -3  -6  15 97.3536 239.170  25
  -3  -6  15-86.4840 232.747  55
  -3  -6  14 674.184 347.583  30
  -3  -6  14 599.167 465.647  33
  -3  -6  13-227.643 306.350  30
  -3  -6  13 148.951 400.861  33
  -3  -6  13 304.884 334.993  46
  -3  -6  12 2401.34 803.506  25
  -3  -6  12 1104.69 644.690  46
  -3  -6  12 778.751 458.075  30
  -3  -6  12 528.683 481.049  33
  -3  -6  11 944.356 587.117  25
  -3  -6  11 356.766 480.330  55
  -3  -6  11 212.903 468.099  46
  -3  -6  11 161.437 355.129  44
  -3  -6  11 144.401 275.321  30
  -3  -6  11-201.731 495.850  33
  -3  -6  10 1213.97 748.809  25
  -3  -6  10 2672.55 923.504  55
  -3  -6  10 1917.82 843.103  46
  -3  -6  10 1468.60 681.647  44
  -3  -6  10 1419.39 614.393  30
  -3  -6  10 1125.72 711.802  33
  -3  -6   9 1358.17 635.384  30
  -3  -6   9 1722.25 947.482  33
  -3  -6   9 1869.58 760.841  27
  -3  -6   9 3816.39 1150.26  25
  -3  -6   9 2787.74 939.366  55
  -3  -6   9 1841.70 792.161  44
  -3  -6   9 1855.29 932.117  46
  -3  -6   9 788.009 590.722   4
  -3  -6   8 1847.90 969.894  33
  -3  -6   8 2064.44 808.201  27
  -3  -6   8 1746.34 905.912  25
  -3  -6   8 2234.05 873.073  55
  -3  -6   8 1445.48 1012.03  46
  -3  -6   8 615.744 566.234   4
  -3  -6   7 3065.28 1357.31  33
  -3  -6   7 5215.70 1251.90  27
  -3  -6   7 5319.41 1334.55  25
  -3  -6   7 5905.44 1327.87  55
  -3  -6   7 1872.14 1057.92  46
  -3  -6   7 1263.52 699.933   4
  -3  -6   6 209.340 399.145  27
  -3  -6   6 445.302 547.527  25
  -3  -6   6 201.293 443.004  55
  -3  -6   6 333.833 519.270  46
  -3  -6   6 426.665 524.663   4
  -3  -6   5 5577.63 1387.81  27
  -3  -6   5 7100.88 1570.46  25
  -3  -6   5 3189.64 1455.78  46
  -3  -6   5 2566.74 988.428   4
  -3  -6   5 7081.99 1468.68  55
  -3  -6   4 718.757 447.785  31
  -3  -6   4 2168.02 894.322  27
  -3  -6   4 2476.63 866.188  55
  -3  -6   4-373.461 585.079  46
  -3  -6   4 1276.32 705.090   4
  -3  -6   3 4212.05 1130.41  55
  -3  -6   3 6264.92 1962.89  52
  -3  -6   3 4191.28 1925.44  23
   3  -6  -3 2696.74 1294.45  50
  -3  -6   3 2394.79 1265.56  49
  -3  -6   3 2734.05 1311.69  46
  -3  -6   3 1892.21 838.905   4
  -3  -6   2 1504.46 760.175  27
  -3  -6   2 1749.25 757.843  55
  -3  -6   2 3748.58 1865.80  23
   3  -6  -2 2824.06 1408.77  50
  -3  -6   2 2462.54 1360.14  49
  -3  -6   2 2026.08 1267.15  46
  -3  -6   2 1034.35 618.016   4
  -3  -6   1 5978.87 1219.41  55
  -3  -6   1 4342.55 1900.40  23
   3  -6  -1 5456.64 1970.47  50
  -3  -6   1 5037.27 1801.50  49
  -3  -6   1 3598.00 1066.21  27
  -3  -6   1 1014.65 635.232   4
  -3  -6   0 10177.5 1578.45  55
  -3  -6   0 8603.57 2442.11  52
  -3  -6   0 8136.15 2715.44  23
   3  -6   0 6504.18 2140.95  50
  -3  -6   0 8957.43 2400.35  49
  -3  -6   0 6837.26 1514.25  27
  -3  -6   0 2980.16 1063.00   4
  -3  -6  -1 201.662 384.024  27
  -3  -6  -1 1067.77 620.887  32
  -3  -6  -1 457.057 869.799  52
   3  -6   1 2665.16 1380.27  50
  -3  -6  -1-431.121 669.961  49
  -3  -6  -1 1284.93 1052.22  46
  -3  -6  -1 540.566 1028.67  23
  -3  -6  -1-194.280 427.134   4
  -3  -6  -2 9401.99 2516.80  46
  -3  -6  -2 5851.26 1330.26  27
  -3  -6  -2 10654.6 1884.68  32
  -3  -6  -3 1264.51 926.575  46
  -3  -6  -3 185.274 353.813   4
  -3  -6  -3 455.846 614.052  32
  -3  -6  -4 3791.62 1045.33   4
  -3  -6  -4 6006.18 1464.56  32
  -3  -6  -5 1052.87 553.142   4
   3  -6   5 1087.39 400.825  26
  -3  -6  -5 1154.47 723.449  32
  -3  -6  -6 849.037 516.823   4
   3  -6   6 2780.99 619.261  26
  -3  -6  -6 2727.48 946.754  32
  -3  -6  -7-163.247 254.908   4
   3  -6   7 1341.44 422.841  26
  -3  -6  -7 880.591 684.514  32
  -3  -6  -8 5025.12 1286.12  32
   3  -6   8 3614.00 661.350  26
  -3  -6  -8 4336.45 1349.11  56
   3  -6   9 5842.21 878.370  26
  -3  -6  -9 7998.10 1558.33  32
  -3  -6  -9 6188.33 1533.13  56
  -3  -6 -10 404.877 344.943   4
   3  -6  10 1926.94 477.315  26
  -3  -6 -10 1597.09 709.304  32
  -3  -6 -11 850.131 431.511   4
  -3  -6 -11 1725.14 756.422  32
  -3  -6 -12-104.965 230.793   4
  -3  -6 -13 504.169 288.407   4
  -3  -6 -13 1656.09 660.885  56
   3  -6  13 2371.49 594.968  55
  -3  -6 -14 1160.37 506.266  56
   3  -6  14 1543.15 445.015  55
  -3  -6 -14 1642.47 501.808  32
  -3  -5  17-96.3686 211.891  28
  -3  -5  16 813.993 406.426  46
  -3  -5  16 347.082 314.509  25
  -3  -5  15 1178.10 586.728  25
  -3  -5  15 2171.50 661.224  55
  -3  -5  15 1243.06 594.699  46
  -3  -5  15 235.094 295.630  30
  -3  -5  14-348.935 469.520  25
  -3  -5  14 155.844 342.471  55
  -3  -5  14 375.734 357.526  46
  -3  -5  14 134.564 295.728  30
  -3  -5  14-163.415 359.102  33
  -3  -5  13 196.659 432.439  25
  -3  -5  13 358.763 440.992  55
  -3  -5  13 215.923 411.224  46
  -3  -5  13 149.313 284.651  30
  -3  -5  13 188.888 464.325  33
  -3  -5  12 213.494 469.333  25
  -3  -5  12 197.581 434.393  55
  -3  -5  12 240.371 457.637  46
  -3  -5  12 171.536 326.772  44
  -3  -5  12 485.235 435.523  30
  -3  -5  12-211.459 519.673  33
  -3  -5  11 523.408 501.023  46
  -3  -5  11 567.823 512.315  44
  -3  -5  11 687.648 465.896  30
  -3  -5  11 923.349 673.205  33
  -3  -5  10 2803.81 1166.05  46
  -3  -5  10 1640.14 767.755  44
  -3  -5  10 1440.10 679.442  30
  -3  -5  10 2714.97 1098.97  33
  -3  -5  10 3099.56 964.748  27
  -3  -5   9 931.922 732.113  25
  -3  -5   9 1758.51 843.608  55
  -3  -5   9 1313.33 688.848  44
  -3  -5   9 593.799 806.363  46
  -3  -5   9 777.970 761.603  33
  -3  -5   9 2715.18 895.976  27
  -3  -5   8 694.807 624.131  25
  -3  -5   8-432.812 824.223  23
  -3  -5   8 999.047 818.727  52
  -3  -5   8 654.722 588.233  55
  -3  -5   8 311.759 485.523  46
  -3  -5   8 268.431 780.922  33
  -3  -5   8 1161.01 638.608  27
  -3  -5   7 1594.33 830.047  25
  -3  -5   7 444.945 846.815  23
  -3  -5   7 692.749 761.241  52
  -3  -5   7 641.029 525.204  55
  -3  -5   7 650.786 619.413  46
  -3  -5   7-168.501 262.429  31
  -3  -5   7 201.572 443.257  27
  -3  -5   6 895.265 596.751  31
  -3  -5   6 824.539 605.685  27
  -3  -5   6 1863.47 759.608  55
  -3  -5   6 1792.19 1045.58  52
  -3  -5   6 1334.76 777.902  25
  -3  -5   6 911.964 1123.61  23
  -3  -5   6 1014.32 835.280  46
  -3  -5   6 635.219 527.663   4
  -3  -5   5 832.123 605.524  27
  -3  -5   5 1195.02 692.673  55
  -3  -5   5 370.288 705.322  52
  -3  -5   5 1298.77 714.134  25
  -3  -5   5 465.394 723.768  23
   3  -5  -5-341.893 651.358  50
  -3  -5   5 350.042 544.803  46
  -3  -5   5 208.486 459.232   4
  -3  -5   4 1871.97 859.203  27
  -3  -5   4 2096.20 815.268  55
  -3  -5   4 1051.81 659.186  25
  -3  -5   4 1879.36 1368.25  23
   3  -5  -4 1441.39 889.280  50
  -3  -5   4 746.551 920.892  49
  -3  -5   4-361.155 567.545  46
  -3  -5   4 1227.64 641.456   4
   3  -5  -3 1510.15 1189.36  50
  -3  -5   3 2657.89 1266.63  49
  -3  -5   3 2864.36 999.149  25
  -3  -5   3 950.868 1184.23  23
  -3  -5   3 3091.95 978.094  55
  -3  -5   3 2205.91 847.307   4
   3  -5  -2 393.806 749.579  50
  -3  -5   2 385.435 847.075  49
  -3  -5   2-478.803 911.257  23
  -3  -5   2 346.632 330.383  55
  -3  -5   2 399.959 878.976  52
  -3  -5   2 393.237 432.454   4
  -3  -5   1 2185.95 826.159  32
  -3  -5   1 1815.06 866.938  27
  -3  -5   1 2310.53 779.104  55
  -3  -5   1 1629.16 1102.94  52
  -3  -5   1 2385.43 1392.16  23
   3  -5  -1 818.186 907.306  50
  -3  -5   1 3127.83 1429.89  49
  -3  -5   1 1548.61 1209.30  46
  -3  -5   1 579.300 490.234   4
  -3  -5   0 6258.97 1456.46  32
  -3  -5   0 4567.20 1189.51  27
  -3  -5   0 6284.22 1232.11  55
  -3  -5   0 7840.80 2260.56  52
  -3  -5   0 7139.21 2257.96  23
   3  -5   0 4229.97 1727.65  50
  -3  -5   0 8314.31 2215.16  49
  -3  -5   0 3530.37 1490.07  46
  -3  -5   0 3042.28 1003.33   4
  -3  -5  -1 390.371 431.297  27
  -3  -5  -1 1525.01 758.218  32
  -3  -5  -1 1494.50 616.013  55
  -3  -5  -1 415.201 646.684  52
  -3  -5  -1 1418.69 1375.24  23
   3  -5   1-434.853 677.140  50
  -3  -5  -1 1200.39 1077.69  49
  -3  -5  -1 395.066 1302.81  46
  -3  -5  -1 187.824 415.219   4
  -3  -5  -2 1277.18 517.045  55
  -3  -5  -2 415.833 646.034  52
  -3  -5  -2 466.881 725.340  23
   3  -5   2-443.824 844.485  50
  -3  -5  -2-372.292 408.987   4
  -3  -5  -2 765.761 515.148  27
  -3  -5  -2 226.018 496.588  32
  -3  -5  -3 2068.67 1288.54  52
  -3  -5  -3 1843.77 1342.61  23
   3  -5   3 900.474 993.117  50
  -3  -5  -3 370.056 415.935   4
  -3  -5  -3 1871.45 746.459  27
  -3  -5  -3 2559.49 1026.22  32
   3  -5   4 450.794 860.499  50
  -3  -5  -4 2029.02 1262.78  49
  -3  -5  -4 907.477 999.278  23
  -3  -5  -4 475.175 587.658  32
   3  -5   4 943.086 1038.31  53
  -3  -5  -4 1225.88 1006.12  52
  -3  -5  -5 3236.48 1502.37  49
  -3  -5  -5 1780.43 1131.32  23
  -3  -5  -5 4566.08 1351.62  32
   3  -5   5 3863.77 1783.52  53
  -3  -5  -5 5202.59 1727.32  52
   3  -5   6 4353.56 1857.06  50
  -3  -5  -6 5210.68 1776.14  49
  -3  -5  -6 6519.98 2139.75  23
  -3  -5  -6 6012.48 1506.87  32
   3  -5   6 5408.56 2150.05  53
  -3  -5  -6 7760.65 2103.74  52
   3  -5   7 2110.40 1317.95  50
  -3  -5  -7 1181.82 976.446  49
  -3  -5  -7 2377.25 1019.82  32
   3  -5   7 495.748 952.264  53
  -3  -5  -7 1858.20 1088.02  52
  -3  -5  -7 1687.24 1232.91  23
   3  -5   8 974.167 434.305  26
  -3  -5  -8 463.213 627.075  32
  -3  -5  -9 1148.31 774.115  56
   3  -5   9 751.539 411.624  26
   3  -5   9 292.451 396.650  25
  -3  -5 -10 565.426 622.894  56
   3  -5  10 838.546 417.780  26
   3  -5  10 287.261 389.293  25
   3  -5  11-100.368 246.561  26
  -3  -5 -11 571.780 553.962  32
   3  -5  11 275.947 371.278  25
   3  -5  12 1877.05 569.012  26
  -3  -5 -12 2371.76 907.060  32
   3  -5  12 1677.73 638.780  25
  -3  -5 -13 456.401 507.178  56
  -3  -5 -13 724.946 557.029  32
   3  -5  13 1632.48 577.949  25
  -3  -5 -14 391.321 480.627  56
  -3  -5 -14 353.026 428.748  32
   3  -5  14-100.579 270.648  25
   3  -5  15 473.276 330.028  55
   3  -5  15 80.5362 251.819  25
  -3  -5 -15 523.561 333.259  32
  -3  -5 -15 469.946 385.825  56
  -3  -4  19 76.0516 186.928  28
  -3  -4  18 220.744 297.042  28
  -3  -4  18-92.9269 228.327  46
  -3  -4  17 418.778 464.153  28
  -3  -4  17 1115.31 534.099  46
  -3  -4  16 2119.02 817.579  46
  -3  -4  16 1876.54 711.673  25
  -3  -4  15-348.101 427.688  25
  -3  -4  15 148.633 283.031  55
  -3  -4  15-207.621 456.301  46
  -3  -4  15 589.460 428.460  30
  -3  -4  14 4547.24 1199.49  25
  -3  -4  14 4354.35 1076.36  55
  -3  -4  14 1165.92 694.957  46
  -3  -4  14 965.287 552.037  30
  -3  -4  14 1861.55 780.457  33
  -3  -4  13 643.883 577.862  25
  -3  -4  13 1161.87 638.480  55
  -3  -4  13-169.021 371.859  44
  -3  -4  13 253.557 394.397  46
  -3  -4  13 853.993 531.052  30
  -3  -4  13 205.333 451.551  33
  -3  -4  12 899.144 604.970  25
  -3  -4  12 413.289 556.161  55
  -3  -4  12-269.183 418.339  46
  -3  -4  12 363.638 446.757  44
  -3  -4  12-177.270 275.617  30
  -3  -4  12 1541.05 837.846  33
  -3  -4  11 1372.94 714.447  25
  -3  -4  11 2349.32 911.392  55
  -3  -4  11 280.776 693.265  46
  -3  -4  11 1149.93 599.621  44
  -3  -4  11 361.486 403.260  30
  -3  -4  11 923.090 804.748  33
  -3  -4  10 780.051 485.742  27
  -3  -4  10 909.280 529.472  30
  -3  -4  10 475.123 584.378  33
  -3  -4  10 647.636 436.783  31
  -3  -4  10 1595.08 751.617  25
  -3  -4  10 1291.49 669.531  55
  -3  -4  10 1393.80 656.944  44
  -3  -4  10 289.235 319.252  46
  -3  -4  10-200.044 381.895   4
  -3  -4   9 999.391 549.111  31
  -3  -4   9 543.934 488.080  30
  -3  -4   9 240.982 529.637  33
  -3  -4   9 168.890 371.322  27
  -3  -4   9 669.784 548.597  25
  -3  -4   9 591.001 726.005  46
  -3  -4   9 204.728 450.016  44
  -3  -4   9-198.359 377.676   4
  -3  -4   8 2383.91 791.908  31
  -3  -4   8 724.566 771.646  33
  -3  -4   8 2123.16 821.277  27
  -3  -4   8 2793.47 1529.23  23
  -3  -4   8 3808.87 1316.97  52
  -3  -4   8 2403.28 1058.94  46
  -3  -4   8 2335.42 847.292   4
  -3  -4   7 9978.45 1777.41  27
  -3  -4   7 13746.8 1956.89  31
  -3  -4   7 6776.22 2233.21  23
  -3  -4   7 10911.8 2302.30  52
  -3  -4   7 14194.1 2094.64  55
  -3  -4   7 7310.66 1926.80  46
  -3  -4   7 5119.30 1386.40   4
  -3  -4   6 535.084 554.874  31
  -3  -4   6 1283.90 668.824  27
  -3  -4   6 766.056 516.069  55
  -3  -4   6 323.822 711.994  52
  -3  -4   6 795.997 874.869  23
  -3  -4   6-308.519 340.027  46
  -3  -4   6 367.998 405.190   4
  -3  -4   5 4020.86 1094.83  55
  -3  -4   5 3639.51 1021.82  25
  -3  -4   5 5555.29 1868.22  23
   3  -4  -5 6073.78 1721.55  50
  -3  -4   5 6157.24 1727.68  49
  -3  -4   5 3674.46 1023.51  27
  -3  -4   5 1248.58 673.706   4
  -3  -4   4 870.761 541.626  55
  -3  -4   4 736.545 535.702  25
  -3  -4   4-392.209 746.640  23
   3  -4  -4-318.572 606.612  50
  -3  -4   4 1295.81 941.857  49
  -3  -4   4 549.012 450.146  27
  -3  -4   4 173.155 330.301   4
  -3  -4   3 4811.12 1120.48  55
  -3  -4   3 2664.37 1182.51  52
  -3  -4   3 2488.70 863.816  25
  -3  -4   3 2725.51 1374.51  23
   3  -4  -3 3987.21 1434.66  50
  -3  -4   3 1597.23 1022.22  46
  -3  -4   3 2726.21 903.962  27
   3  -4  -2 2761.89 1269.28  50
  -3  -4   2 1898.69 729.542  25
  -3  -4   2 1532.99 1126.78  23
  -3  -4   2 1289.69 1016.12  46
  -3  -4   2 2375.35 757.359  55
  -3  -4   2 2014.72 1119.60  52
  -3  -4   1 8181.97 1471.92  55
  -3  -4   1 9800.70 2296.30  52
  -3  -4   1 9084.12 2410.09  23
   3  -4  -1 8939.29 2253.39  50
  -3  -4   1 5845.19 1802.36  46
  -3  -4   1 7871.80 1604.13  32
  -3  -4   1 7156.48 1465.78  27
  -3  -4   0 8869.15 1479.00  55
  -3  -4   0 7794.88 2063.31  52
  -3  -4   0 8959.43 2292.02  23
   3  -4   0 8120.46 2194.41  50
  -3  -4   0 7503.12 1993.02  46
  -3  -4   0 7072.30 1502.39  32
  -3  -4   0 4975.30 1278.09  27
   3  -4   1 759.057 724.828  50
  -3  -4  -1 1320.84 890.741  49
  -3  -4  -1 367.165 809.100  23
  -3  -4  -1 706.643 479.440  27
  -3  -4  -1 772.976 603.665  32
  -3  -4  -1 559.833 411.531  55
  -3  -4  -1 1358.25 915.841  52
   3  -4   2 14759.4 3220.15  50
  -3  -4  -2 16666.5 3074.99  49
  -3  -4  -2 19593.7 3507.00  23
  -3  -4  -2 12829.6 2215.06  27
  -3  -4  -2 16202.9 2510.69  32
  -3  -4  -2 16752.4 2197.79  55
   3  -4   2 16751.0 3189.63  53
  -3  -4  -2 15611.9 3029.85  52
   3  -4   3 1981.88 1159.73  50
  -3  -4  -3 2021.79 1055.43  49
  -3  -4  -3 3236.17 1430.44  23
  -3  -4  -3 1031.83 693.013  32
  -3  -4  -3 1176.11 534.447  55
   3  -4   3 1967.31 1303.53  53
  -3  -4  -3 2706.43 1239.77  52
   3  -4   4 3206.87 1615.16  50
  -3  -4  -4 3747.78 1431.45  49
  -3  -4  -4 3929.55 1497.96  23
  -3  -4  -4 3179.45 1057.35  32
   3  -4   4 2899.31 1537.89  53
  -3  -4  -4 4032.98 1506.24  52
  -3  -4  -5 3087.35 1273.14  49
  -3  -4  -5 4257.86 1528.98  23
  -3  -4  -5 3032.17 1010.50  32
   3  -4   5 3040.15 1451.70  53
  -3  -4  -5 1662.39 1061.12  52
  -3  -4  -6 11064.9 2494.16  49
  -3  -4  -6 13080.1 2768.11  23
   3  -4   6 8626.23 2691.71  53
  -3  -4  -6 15028.9 2779.39  52
   3  -4   7 3189.12 1491.21  50
  -3  -4  -7 3817.27 1465.87  49
  -3  -4  -7 3867.91 1484.29  23
   3  -4   7 5186.03 1897.70  53
  -3  -4  -7 4145.18 1441.29  52
   3  -4   8 4860.91 2060.05  53
  -3  -4  -8 7690.40 1857.21  52
  -3  -4  -8 4523.71 1740.17  23
   3  -4   8 6999.03 2020.74  50
  -3  -4  -8 6224.36 1811.66  49
  -3  -4  -8 6891.24 1782.36  56
  -3  -4  -8 4854.94 1377.42  32
   3  -4   9 9929.12 2897.39  53
   3  -4   9 7483.18 2239.10  50
  -3  -4  -9 10910.9 2479.92  49
  -3  -4  -9 14592.6 2669.19  56
  -3  -4  -9 10919.3 2509.68  23
   3  -4   9 12956.0 1745.53  26
  -3  -4  -9 12151.3 2156.90  32
   3  -4  10 711.957 782.702  50
   3  -4  10 233.687 315.861  26
  -3  -4 -10 209.722 461.769  32
  -3  -4 -10 1579.43 981.974  56
   3  -4  11 3356.52 984.295  25
   3  -4  11 4030.96 880.288  26
  -3  -4 -11 3768.48 1135.55  32
   3  -4  12 519.493 507.444  25
  -3  -4 -12 1460.20 668.169  32
   3  -4  12 667.962 372.560  26
   3  -4  13 2310.59 837.400  25
   3  -4  13 2626.52 704.762  26
  -3  -4 -13 2434.02 843.264  32
  -3  -4 -13 2258.44 1049.64  56
   3  -4  14 3757.06 816.309  26
   3  -4  14 3498.10 980.081  25
  -3  -4 -14 3032.19 897.689  32
  -3  -4 -14 4782.96 1361.66  56
  -3  -4 -15 1490.33 802.590  56
   3  -4  15 3631.25 921.997  25
  -3  -4 -16 4035.19 1034.14  56
   3  -4  16 1914.01 666.142  25
  -3  -4 -17 946.463 431.828  56
   3  -4  17 86.0245 251.365  25
  -3  -3  20 75.3850 165.754  28
  -3  -3  19 112.563 247.499  28
  -3  -3  18 144.916 356.194  28
  -3  -3  18 146.844 322.871  46
  -3  -3  17-173.103 269.519  28
  -3  -3  17 556.674 408.078  46
  -3  -3  17 538.853 327.701  12
  -3  -3  16 435.786 544.740  46
  -3  -3  16 2036.29 585.607  12
  -3  -3  15 3871.95 960.108   5
  -3  -3  15 3882.62 1015.85  30
  -3  -3  15 5309.01 1269.55  25
  -3  -3  15 2922.27 1132.64  46
  -3  -3  15 6128.49 1103.73  12
  -3  -3  14 177.526 394.208  30
  -3  -3  14 383.108 424.726  33
  -3  -3  14 1567.43 747.791  25
  -3  -3  14 1035.30 602.141  55
  -3  -3  14 786.679 646.670  46
  -3  -3  14 1156.32 512.093  12
  -3  -3  13 725.914 492.936  30
  -3  -3  13 611.061 595.813  33
  -3  -3  13 2063.09 800.799  55
  -3  -3  13 1451.34 758.396  25
  -3  -3  13 274.367 526.353  46
  -3  -3  13 1361.81 623.842  44
  -3  -3  13 1190.36 507.786  12
  -3  -3  12 906.777 570.505  30
  -3  -3  12 632.567 619.295  33
  -3  -3  12 1958.60 809.979  55
  -3  -3  12 2118.93 905.925  25
   3  -3 -12 2194.46 735.975  47
  -3  -3  12 561.801 623.567  46
  -3  -3  12 350.963 395.717  44
  -3  -3  12 1717.91 622.317  12
  -3  -3  12 1230.55 513.595  13
  -3  -3  11 534.370 449.210  30
  -3  -3  11 1069.43 672.314  33
  -3  -3  11 3176.79 1004.69  55
  -3  -3  11 1265.33 739.634  25
   3  -3 -11 1677.14 634.896  47
  -3  -3  11 1415.76 768.684  46
  -3  -3  11 710.764 526.373  44
  -3  -3  11 1419.90 540.234  12
  -3  -3  11 1433.72 534.763  13
  -3  -3  10 360.399 398.799   4
  -3  -3  10 679.322 495.925  31
  -3  -3  10 864.042 504.541  30
  -3  -3  10 427.277 471.818  33
  -3  -3  10 1378.13 685.604  55
  -3  -3  10 1029.29 641.424  25
   3  -3 -10 742.019 433.981  47
  -3  -3  10 1412.62 879.150  46
  -3  -3  10 177.933 393.855  44
  -3  -3  10 744.697 388.609  12
  -3  -3  10 342.929 255.671  13
  -3  -3   9 9194.00 1607.48   8
  -3  -3   9 3652.61 1120.84   4
  -3  -3   9 10603.5 1735.63  31
  -3  -3   9 5488.83 1270.96  30
  -3  -3   9 8661.19 1483.42  27
  -3  -3   9 5271.26 1410.53  33
  -3  -3   9 9798.46 1721.55  55
  -3  -3   9 9518.11 1715.36  25
   3  -3  -9 14079.8 1773.44  47
  -3  -3   9 9529.23 2088.43  46
  -3  -3   9 2833.44 1066.29  44
  -3  -3   9 10733.1 1403.11  13
  -3  -3   9 11704.4 1517.57  12
  -3  -3   8 6074.66 1303.24   8
  -3  -3   8 5662.49 1258.02   4
  -3  -3   8 9008.82 1546.96  31
  -3  -3   8 4463.50 1136.65  30
  -3  -3   8 2678.97 1155.69  33
  -3  -3   8 7629.11 1402.96  27
  -3  -3   8 10199.8 1685.94  55
  -3  -3   8 10041.6 1705.83  25
  -3  -3   8 8423.40 2217.89  23
  -3  -3   8 6934.39 1732.98  46
  -3  -3   8 3866.02 1131.18  44
  -3  -3   8 8918.35 1256.49  13
  -3  -3   8 11110.0 1450.52  12
  -3  -3   7 1244.44 619.370  55
   3  -3  -7 483.534 328.665  48
  -3  -3   7 1262.41 687.907  25
  -3  -3   7 683.333 840.596  23
  -3  -3   7 332.118 410.614  31
  -3  -3   7 466.564 421.124  27
  -3  -3   7 317.550 352.000   4
  -3  -3   7 747.315 494.817   8
  -3  -3   6 9649.64 1633.47  31
  -3  -3   6 8461.53 1526.53  27
  -3  -3   6 8753.03 1566.59  25
  -3  -3   6 10001.3 2414.23  23
   3  -3  -6 10821.6 1542.88  48
  -3  -3   6 9793.11 2074.52  46
  -3  -3   6 4234.38 1160.48   4
  -3  -3   6 8662.53 1461.56   8
  -3  -3   5 3294.18 928.422  27
  -3  -3   5 5994.87 1205.05  55
  -3  -3   5 5329.34 1539.02  52
  -3  -3   5 4749.42 1134.69  25
  -3  -3   5 3255.73 1371.40  23
   3  -3  -5 4685.13 1387.21  50
  -3  -3   5 3781.10 1259.50  46
  -3  -3   5 1876.90 701.689   4
  -3  -3   4 939.459 488.071  27
  -3  -3   4 1237.98 565.168  55
  -3  -3   4 834.749 684.613  52
  -3  -3   4-315.764 602.082  23
   3  -3  -4 520.210 640.119  50
  -3  -3   4 1074.32 723.771  46
  -3  -3   4 415.760 374.956   4
  -3  -3   3 536.499 423.983   4
  -3  -3   3 624.845 491.600  27
  -3  -3   3 1332.84 591.740  55
  -3  -3   3 1931.70 961.817  52
  -3  -3   3 615.735 832.098  23
   3  -3  -3 543.532 672.114  50
  -3  -3   3 1076.53 786.105  49
  -3  -3   3 1336.74 780.944  46
   3  -3  -3 1062.81 343.373  17
  -3  -3   2 918.178 536.625   4
  -3  -3   2 6085.26 1184.26  27
  -3  -3   2 5834.35 1119.52  55
  -3  -3   2 5209.50 1532.46  52
  -3  -3   2 3545.00 946.866  25
  -3  -3   2 4191.64 1461.43  23
   3  -3  -2 4517.31 1482.11  50
  -3  -3   2 5313.98 1486.68  49
  -3  -3   2 4790.63 1400.34  46
   3  -3  -2 5078.68 755.971  17
  -3  -3   1 1080.31 545.579  32
  -3  -3   1 1647.92 592.965  55
  -3  -3   1 1361.72 852.236  52
  -3  -3   1 2021.65 1057.11  23
   3  -3  -1 1168.76 855.247  50
  -3  -3   1 1316.65 772.013  49
   3  -3  -1 1226.68 413.757  17
  -3  -3   1 778.862 415.824   4
  -3  -3   0 9409.42 1554.89  27
  -3  -3   0 9063.07 1562.67  32
  -3  -3   0 11318.6 1598.71  55
  -3  -3   0 8380.61 1883.03  52
  -3  -3   0 7842.00 2060.41  23
   3  -3   0 9949.79 2201.62  50
  -3  -3   0 8644.89 1920.61  49
   3  -3   0 6462.22 1031.29  17
  -3  -3   0 6570.98 1191.97   6
  -3  -3  -1 20841.7 2944.90  27
  -3  -3  -1 23762.8 3111.43  32
  -3  -3  -1 26862.3 3000.51  55
  -3  -3  -1 26244.8 3700.18  52
  -3  -3  -1 26069.4 3817.80  23
   3  -3   1 34539.9 4336.26  50
  -3  -3  -1 24577.7 3607.02  49
   3  -3   1 26417.5 2581.75  17
  -3  -3  -1 20999.1 2693.36   6
  -3  -3  -2 1270.79 555.114  55
   3  -3   2 1978.28 1037.34  53
  -3  -3  -2 1593.65 884.338  52
  -3  -3  -2 1328.84 884.859  23
   3  -3   2 1916.89 1060.38  50
  -3  -3  -2 2101.49 921.173  49
   3  -3   2 1342.51 403.278  17
  -3  -3  -2 1456.69 513.864   6
  -3  -3  -3 3875.03 907.453  55
   3  -3   3 2775.08 1225.81  53
  -3  -3  -3 2897.87 1175.63  52
  -3  -3  -3 5249.67 1484.73  23
   3  -3   3 3271.98 1390.88  50
  -3  -3  -3 5041.55 1471.40  49
   3  -3   3 5279.25 791.556  17
  -3  -3  -3 3915.16 851.624   6
  -3  -3  -4 1968.94 733.234  32
   3  -3   4 669.801 843.655  53
  -3  -3  -4 2097.18 689.760  55
  -3  -3  -4 1829.24 926.871  52
  -3  -3  -4 2090.36 1011.79  23
   3  -3   4 1671.07 1055.17  50
  -3  -3  -4 1879.34 1038.66  49
   3  -3   4 2979.85 589.360  17
  -3  -3  -4 2938.12 705.206   6
  -3  -3  -5 551.750 495.164  32
   3  -3   5 361.670 688.354  53
  -3  -3  -5 518.198 569.496  52
   3  -3   5 89.7332 171.509  21
  -3  -3  -5 789.337 708.190  23
   3  -3   5-340.361 647.822  50
  -3  -3  -5 273.525 601.181  49
   3  -3   5 153.396 189.101  17
  -3  -3  -5 754.117 414.535   1
  -3  -3  -5 240.212 295.478   6
  -3  -3  -6 639.395 400.882   6
  -3  -3  -6 400.069 362.763   1
  -3  -3  -6 179.225 443.452  59
   3  -3   6 388.970 856.255  53
  -3  -3  -6 768.305 631.338  52
   3  -3   6 1517.28 480.343  21
  -3  -3  -6 266.733 510.301  23
  -3  -3  -6 837.483 813.117  49
   3  -3   6 569.303 287.489  17
  -3  -3  -6 1319.30 656.889  32
   3  -3   7 9160.65 2483.70  53
  -3  -3  -7 11857.3 2190.76  52
   3  -3   7 10241.2 1462.80  21
  -3  -3  -7 8136.94 2003.35  23
   3  -3   7 9240.97 1376.84  22
   3  -3   7 14416.9 2835.51  50
  -3  -3  -7 9394.88 2131.48  49
  -3  -3  -7 9914.03 1598.04   6
  -3  -3  -7 11287.9 1755.88   1
  -3  -3  -7 9618.38 1813.41  59
  -3  -3  -7 9370.41 2126.82  56
   3  -3   8 3994.24 1733.83  53
   3  -3   8 4667.90 920.070  21
  -3  -3  -8 4957.50 1503.09  23
   3  -3   8 4161.22 870.625  22
   3  -3   8 2116.71 1286.77  50
  -3  -3  -8 4048.67 1403.75  49
  -3  -3  -8 4891.92 1077.76   1
  -3  -3  -8 5444.23 1104.07   6
  -3  -3  -8 5519.79 1263.57  59
  -3  -3  -8 6719.52 1722.90  56
   3  -3   9-468.440 894.662  53
   3  -3   9 1560.07 552.882  21
  -3  -3  -9 1660.71 915.449  23
   3  -3   9 836.627 405.400  22
   3  -3   9 705.176 778.512  50
  -3  -3  -9 1166.12 788.265  49
  -3  -3  -9 2155.85 741.406   1
  -3  -3  -9 324.462 622.182  56
  -3  -3  -9 1749.91 743.939  59
   3  -3  10 6846.35 2312.93  53
   3  -3  10 7285.82 1254.29  21
   3  -3  10 7741.01 1261.38  22
   3  -3  10 7617.91 2085.73  50
  -3  -3 -10 6679.25 1814.69  49
  -3  -3 -10 8433.64 1676.60  59
  -3  -3 -10 9148.52 2176.82  56
   3  -3  10 8486.67 1338.88  26
   3  -3  11-503.150 959.397  53
   3  -3  11 2245.14 638.996  21
  -3  -3 -11 776.403 606.327  59
   3  -3  11 809.426 425.907  26
   3  -3  11 334.485 523.388  50
  -3  -3 -11 1707.00 886.191  49
   3  -3  12 118.016 224.576  21
  -3  -3 -12 186.911 355.658  59
  -3  -3 -12-178.222 391.584  32
  -3  -3 -13 145.715 320.180   1
   3  -3  13-114.264 251.089  21
  -3  -3 -13 327.948 805.591  56
  -3  -3 -13-163.133 474.164  32
  -3  -3 -14 2786.42 826.968   1
   3  -3  14 3839.83 832.506  21
  -3  -3 -14 3603.14 1311.87  56
   3  -3  14 3354.86 1123.74  25
  -3  -3 -14 3992.52 947.986  32
  -3  -3 -15 1382.02 545.133   1
   3  -3  15 1042.59 439.716  21
  -3  -3 -15 785.222 649.945  56
   3  -3  15 1194.36 628.897  25
  -3  -3 -16 4582.53 845.551   1
   3  -3  16 4472.55 761.235  21
   3  -3  16 3135.64 956.946  25
  -3  -3 -17 4065.22 1073.52  56
  -3  -3 -17 3498.58 670.102   1
   3  -3  17 3821.34 912.649  25
  -3  -3 -18 434.803 316.857  56
   3  -3  18 185.693 251.001  25
  -3  -2  20-101.894 250.447  28
  -3  -2  19 277.126 408.333  28
  -3  -2  19 1381.06 442.374  12
  -3  -2  18 2375.14 822.740  46
  -3  -2  18 2398.17 900.785  28
  -3  -2  18 1205.01 523.219   5
  -3  -2  18 3944.20 802.140  12
  -3  -2  17-219.205 418.632  46
  -3  -2  17 460.764 421.227   5
  -3  -2  17 1106.73 558.141  12
  -3  -2  17 993.965 691.521  28
  -3  -2  16 412.217 400.520   5
  -3  -2  16 248.453 274.622  46
  -3  -2  16 963.652 524.759  12
  -3  -2  16 219.446 342.276  28
  -3  -2  15 294.110 361.234  12
  -3  -2  15-269.372 295.922  46
  -3  -2  15 152.941 336.030   5
  -3  -2  14 182.603 401.947  33
  -3  -2  14 156.206 384.493  55
  -3  -2  14 525.804 472.264  25
   3  -2 -14 462.193 415.294  47
  -3  -2  14 281.807 536.767  46
  -3  -2  14 452.735 406.827  12
  -3  -2  14 141.345 311.517  13
  -3  -2  13-185.817 288.693  30
  -3  -2  13 188.990 359.607  33
  -3  -2  13-168.737 414.498  55
  -3  -2  13 367.163 403.354  25
   3  -2 -13 153.888 338.117  47
  -3  -2  13 286.630 545.387  46
  -3  -2  13 149.954 285.335  12
  -3  -2  13 139.555 265.549  13
  -3  -2  12 2339.58 872.237  30
  -3  -2  12 1523.38 914.094  33
  -3  -2  12 5417.71 1239.38  55
  -3  -2  12 7424.49 1459.83  25
   3  -2 -12 9705.68 1485.68  47
  -3  -2  12 3462.01 994.072  40
  -3  -2  12 3139.64 1188.90  46
  -3  -2  12 7694.00 1298.77  12
  -3  -2  12 6721.11 1183.29  13
  -3  -2  11 684.884 467.466  30
  -3  -2  11 1130.08 690.773  33
  -3  -2  11 703.536 552.186  55
  -3  -2  11 731.794 537.579  25
   3  -2 -11 1012.45 483.175  47
  -3  -2  11 280.029 538.653  46
  -3  -2  11 830.530 489.212  40
  -3  -2  11 1929.41 647.165  12
  -3  -2  11 1524.86 563.942  13
  -3  -2  10 1435.10 617.800   4
  -3  -2  10 2048.93 826.675   8
  -3  -2  10 1907.19 746.747  55
  -3  -2  10 1199.71 576.625  31
  -3  -2  10 482.443 448.018  30
  -3  -2  10 919.940 617.361  33
  -3  -2  10 1240.28 684.176  25
  -3  -2  10 1905.30 952.640  46
  -3  -2  10 1937.26 629.223  12
  -3  -2  10 2371.53 674.266  13
  -3  -2   9 2844.70 895.144  30
  -3  -2   9 5151.11 1190.89  31
  -3  -2   9 6913.40 1366.62  55
  -3  -2   9 6278.89 1283.14  25
  -3  -2   9 5370.39 1221.51   8
  -3  -2   9 2262.51 803.889   4
  -3  -2   9 5811.65 1011.27  13
  -3  -2   9 7441.37 1177.42  12
  -3  -2   8 3228.68 883.766  31
  -3  -2   8 831.749 508.073  30
  -3  -2   8 3252.44 907.803  55
  -3  -2   8 3070.14 884.570  25
   3  -2  -8 2532.45 660.216  48
  -3  -2   8 3114.61 730.704  12
  -3  -2   8 1519.57 523.383  13
  -3  -2   8 1133.01 540.827   4
  -3  -2   8 1922.95 743.669   8
  -3  -2   7 444.101 432.682   8
  -3  -2   7 529.845 359.361   4
  -3  -2   7 473.167 426.870  31
  -3  -2   7 468.453 422.666  55
  -3  -2   7 307.252 415.913  25
   3  -2  -7 694.556 384.234  48
  -3  -2   7 738.274 606.234  46
  -3  -2   7 516.509 303.710  12
  -3  -2   7 656.598 329.047  13
  -3  -2   6 1507.00 617.739   8
  -3  -2   6 2541.64 747.713  27
  -3  -2   6 1708.33 696.351  31
  -3  -2   6 2224.73 1025.46  52
  -3  -2   6 748.701 512.568  55
  -3  -2   6 2048.87 732.212  25
  -3  -2   6 1632.83 955.480  23
   3  -2  -6 1298.54 552.351  48
  -3  -2   6 1193.87 707.683  46
  -3  -2   6 1931.07 548.140  12
  -3  -2   6 2010.91 544.007  13
   3  -2  -5 2642.15 907.504  50
   3  -2  -5 6041.57 1064.93  48
  -3  -2   5 4624.58 1018.07  25
  -3  -2   5 3636.85 1288.21  23
  -3  -2   5 1918.49 972.100  52
  -3  -2   5 6034.23 1165.19  55
  -3  -2   5 3765.66 912.389  27
   3  -2  -4 576.893 560.140  50
  -3  -2   4-233.551 514.473  49
  -3  -2   4 405.257 470.740  25
  -3  -2   4 1246.18 908.842  23
  -3  -2   4 233.193 445.255  52
  -3  -2   4 810.120 421.166  27
   3  -2  -3 12106.0 2043.28  50
  -3  -2   3 7256.48 1795.78  49
  -3  -2   3 7618.43 1418.97  25
  -3  -2   3 8090.06 1885.85  23
  -3  -2   3 11161.3 2030.98  52
  -3  -2   3 11497.3 1652.94  55
  -3  -2   3 8821.02 1496.96  27
  -3  -2   2 14447.2 1938.42  25
  -3  -2   2 12583.4 1911.97  27
  -3  -2   2 17533.3 2083.45  55
  -3  -2   2 13379.5 2321.26  52
  -3  -2   2 12565.8 2364.57  23
   3  -2  -2 13617.3 2364.89  50
  -3  -2   2 12134.4 2237.95  49
   3  -2  -2 13537.8 1579.76  17
  -3  -2   2 11451.4 1696.63   6
  -3  -2   1 2030.02 671.793  55
  -3  -2   1 1091.22 797.982  52
  -3  -2   1 218.575 541.080  23
   3  -2  -1 226.019 559.228  50
  -3  -2   1 646.385 583.642  49
   3  -2  -1 1400.75 419.892  17
  -3  -2   1 492.822 331.674   6
  -3  -2   0 1122.15 499.532  55
  -3  -2   0 213.984 530.972  52
  -3  -2   0 1864.10 913.228  23
   3  -2   0 1882.72 935.171  50
  -3  -2   0 1056.39 737.790  49
   3  -2   0 796.031 334.438  17
  -3  -2   0 1069.71 433.865   6
  -3  -2  -1 2711.50 721.464  55
  -3  -2  -1 1888.35 857.047  52
  -3  -2  -1 2172.24 968.527  23
   3  -2   1 2444.74 1026.48  50
  -3  -2  -1 2913.69 1043.70  49
   3  -2   1 3346.61 620.065  17
  -3  -2  -1 1786.71 552.693   6
   3  -2   2 204.334 594.817  53
  -3  -2  -2 1225.32 486.464  55
  -3  -2  -2 410.963 452.676  52
  -3  -2  -2 945.591 657.814  23
   3  -2   2 507.339 624.001  50
  -3  -2  -2 206.861 455.698  49
   3  -2   2 410.806 251.649  17
  -3  -2  -2 206.254 228.988   6
   3  -2   3 1879.72 912.488  53
  -3  -2  -3 2449.09 696.799  55
  -3  -2  -3 3831.28 1077.84  52
  -3  -2  -3 2211.59 878.040  23
   3  -2   3 2367.81 1057.84  50
  -3  -2  -3 1658.73 809.753  49
   3  -2   3 2120.82 500.246  17
  -3  -2  -3 1710.81 555.947   6
  -3  -2  -4 26596.2 3276.28  56
  -3  -2  -4 22360.3 2615.68  55
   3  -2   4 16214.6 3095.38  53
  -3  -2  -4 22576.3 3046.69  52
  -3  -2  -4 18078.1 2824.84  23
   3  -2   4 15679.0 3004.01  50
  -3  -2  -4 17972.4 2877.23  49
   3  -2   4 23815.0 2341.44  17
  -3  -2  -4 22658.9 2560.70   6
  -3  -2  -5 6317.17 1174.83   1
  -3  -2  -5 4513.27 993.414   6
  -3  -2  -5 6505.99 1510.55  56
  -3  -2  -5 6261.21 1301.34  59
   3  -2   5 5065.34 1598.09  53
  -3  -2  -5 4476.03 1196.18  52
  -3  -2  -5 4807.24 1248.29  23
   3  -2   5 4277.59 1502.59  50
  -3  -2  -5 4048.84 1229.65  49
  -3  -2  -5 6210.60 1238.97  32
   3  -2   5 5128.13 862.099  17
   3  -2   6 1072.88 380.450  17
  -3  -2  -6 1542.43 801.890  56
  -3  -2  -6 1644.95 754.591  59
   3  -2   6 661.617 892.974  53
  -3  -2  -6 191.102 370.439  52
   3  -2   6 675.528 358.659  21
  -3  -2  -6 190.145 472.406  23
   3  -2   6 1772.48 976.145  50
  -3  -2  -6 1312.06 724.143  49
  -3  -2  -6 1283.81 517.703  42
  -3  -2  -6 1277.10 611.606  32
   3  -2   7 2024.66 561.790  17
  -3  -2  -7 2828.75 1096.91  56
  -3  -2  -7 2690.23 967.287  59
   3  -2   7 2188.52 1220.43  53
   3  -2   7 3590.27 751.701  21
  -3  -2  -7 2359.25 862.621  23
  -3  -2  -7 1800.81 846.792  49
  -3  -2  -7 2890.89 760.422  42
  -3  -2  -7 2131.42 750.639  32
  -3  -2  -8 2779.38 1193.25  56
  -3  -2  -8 2216.32 824.388  59
   3  -2   8 2795.27 1332.17  53
   3  -2   8 2184.74 645.867  21
   3  -2   8 1929.58 573.591  22
   3  -2   8 2530.46 1221.32  50
  -3  -2  -8 3242.01 1098.91  49
  -3  -2  -8 2823.09 780.885  42
   3  -2   8 2633.23 628.453  17
   3  -2   9 433.478 673.545  53
   3  -2   9 232.061 255.202  21
  -3  -2  -9-222.868 346.444  24
   3  -2   9 216.589 266.278  22
   3  -2   9 323.841 503.251  50
  -3  -2  -9-237.102 451.297  49
  -3  -2  -9 142.284 312.834  42
  -3  -2  -9 333.229 634.157  56
  -3  -2  -9 209.932 399.620  59
   3  -2  10 1396.34 1161.04  53
   3  -2  10 2571.36 727.543  21
   3  -2  10 1721.32 571.706  22
   3  -2  10 2298.43 1158.39  50
  -3  -2 -10 1923.24 936.884  49
  -3  -2 -10 3858.58 915.520  42
  -3  -2 -10 2813.82 1000.97  59
  -3  -2 -10 3890.55 1415.39  56
  -3  -2 -11 4174.93 1275.47  59
   3  -2  11 4439.35 1921.88  53
  -3  -2 -11 5870.68 1632.69  54
   3  -2  11 5235.78 1074.31  21
   3  -2  11 5879.63 1069.19  22
   3  -2  11 3959.28 1417.51  50
  -3  -2 -11 4081.10 1303.92  49
  -3  -2 -11 6228.48 1227.58  42
   3  -2  11 4559.90 946.357  26
  -3  -2 -11 3727.09 1067.68  32
  -3  -2 -12 436.701 591.176  59
   3  -2  12 512.613 977.554  53
  -3  -2 -12 887.108 798.378  54
   3  -2  12 323.372 506.615  50
  -3  -2 -12 911.230 504.760  42
   3  -2  12 1568.97 595.803  21
   3  -2  12 742.252 389.895  22
   3  -2  12 1098.17 471.777  26
  -3  -2 -12 489.605 443.990  32
   3  -2  13 3795.41 872.301  21
  -3  -2 -13 2359.69 763.594  42
   3  -2  13 3701.66 811.719  26
  -3  -2 -13 2274.08 800.366  32
  -3  -2 -13 1687.39 838.078  59
  -3  -2 -13 4686.59 1602.37  56
   3  -2  14 10413.1 1493.85  21
  -3  -2 -14 7328.60 1343.94  42
   3  -2  14 6938.51 1209.16  26
  -3  -2 -14 6056.23 1851.28  56
  -3  -2 -14 7070.76 1601.01  59
   3  -2  15 1070.07 462.775  21
  -3  -2 -15 1368.13 571.669  42
   3  -2  15 1080.63 455.452  26
  -3  -2 -15 596.473 739.012  56
  -3  -2 -15 1568.48 722.902  59
  -3  -2 -16 144.317 274.788  59
  -3  -2 -16-249.573 474.983  56
  -3  -2 -16 106.340 261.415  42
   3  -2  16 425.886 370.013  21
  -3  -2 -17 1126.58 484.112   1
  -3  -2 -17 390.898 436.943  56
  -3  -2 -17 1274.11 425.036  42
   3  -2  17 989.474 426.945  21
  -3  -2 -18-76.7904 223.194   1
  -3  -2 -18 241.174 209.458  42
  -3  -2 -18-139.158 264.784  56
   3  -2  18 208.792 202.287  21
   3  -2  18 112.322 326.466  25
   3  -2  19 541.083 309.647  25
  -3  -1  20 2702.86 597.451  12
  -3  -1  20 1643.93 685.459  28
  -3  -1  19 1551.31 705.178  28
  -3  -1  19 330.179 278.495   5
  -3  -1  19 1487.25 490.743  12
  -3  -1  18 622.372 516.320  46
  -3  -1  18 565.800 554.412  28
  -3  -1  18 900.520 470.073   5
  -3  -1  18 2294.84 668.591  12
  -3  -1  17 2433.30 978.374  46
  -3  -1  17 1509.39 643.883   5
  -3  -1  17 3325.67 836.845  12
  -3  -1  17 1293.78 730.286  28
  -3  -1  16 1092.94 543.031   5
  -3  -1  16 270.689 515.718  46
  -3  -1  16 605.372 440.659  12
  -3  -1  16-234.238 515.312  28
  -3  -1  15 2360.42 798.375   5
  -3  -1  15 1947.93 1111.86  28
  -3  -1  15 1440.95 906.500  46
  -3  -1  15 1266.61 593.859  12
  -3  -1  14 243.797 599.888  28
   3  -1 -14 443.477 364.800  47
  -3  -1  14 594.984 433.738  13
  -3  -1  14 319.277 430.988  12
  -3  -1  14 295.880 564.066  46
   3  -1 -13 8800.31 1487.98  47
  -3  -1  13 6995.96 1505.76  40
  -3  -1  13 8556.92 2013.29  46
  -3  -1  13 8395.07 1466.18  13
  -3  -1  13 7962.88 1508.51  12
  -3  -1  12 4893.51 1101.69  55
  -3  -1  12 4864.59 1088.18  25
   3  -1 -12 4899.41 1102.90  47
  -3  -1  12 4604.75 1466.76  46
  -3  -1  12 4139.01 1133.85  40
  -3  -1  12 3853.46 952.122  13
  -3  -1  12 4919.76 1094.68  12
  -3  -1  11 5818.29 1373.06   8
  -3  -1  11 3618.22 1054.80  30
  -3  -1  11 7365.04 1370.36  55
  -3  -1  11 7536.66 1383.58  25
  -3  -1  11 4963.36 1244.15  40
  -3  -1  11 6558.86 1230.48  13
  -3  -1  11 7271.05 1317.52  12
  -3  -1  10 11710.8 1903.08   8
  -3  -1  10 10125.2 1704.75  25
  -3  -1  10 7226.13 1509.37  30
  -3  -1  10 10433.0 1724.15  55
  -3  -1  10 10546.1 1882.20  40
  -3  -1  10 11281.6 1598.19  13
  -3  -1  10 13991.3 1786.39  12
  -3  -1   9 1328.49 666.605   8
  -3  -1   9 1165.28 588.354  31
  -3  -1   9 953.992 508.227  30
  -3  -1   9 1749.81 649.843  55
  -3  -1   9 847.931 502.749  25
   3  -1  -9 1061.54 449.578  48
  -3  -1   9 1239.22 777.673  46
  -3  -1   9 2264.06 637.071  12
  -3  -1   9 1415.60 490.603  13
  -3  -1   8 3813.41 1010.76   8
  -3  -1   8 4937.42 1158.69  31
  -3  -1   8 7221.79 1286.61  55
  -3  -1   8 5146.28 1084.10  25
   3  -1  -8 5566.01 1015.72  48
  -3  -1   8 4202.63 1249.31  46
  -3  -1   8 4918.98 978.740  12
  -3  -1   8 4581.48 915.241  13
  -3  -1   7 1225.29 564.426  31
  -3  -1   7 1507.95 608.304  55
  -3  -1   7 518.951 458.581  25
   3  -1  -7 1570.77 543.885  48
  -3  -1   7 700.482 469.407   8
  -3  -1   7 904.257 406.867  12
  -3  -1   7 1002.14 409.182  13
   3  -1  -6 11484.6 1534.79  48
  -3  -1   6 7609.68 1430.99  25
  -3  -1   6 9064.03 1284.80  13
  -3  -1   6 8908.84 1327.26  12
  -3  -1   6 10750.9 1643.59  55
   3  -1  -5 3658.05 836.891  48
  -3  -1   5 4637.75 970.729  55
  -3  -1   5 2854.65 693.112  12
  -3  -1   5 4292.55 736.327  13
   3  -1  -4 21503.8 2852.42  50
   3  -1  -4 31485.0 3008.65  48
  -3  -1   4 21348.2 3147.08  23
  -3  -1   4 24987.3 2916.48  55
  -3  -1   4 24581.2 3276.93  52
   3  -1  -3 13951.2 2027.69  50
   3  -1  -3 18604.9 2027.24  48
  -3  -1   3 15641.5 2333.02  49
  -3  -1   3 12099.0 2058.45  23
  -3  -1   3 10300.3 1652.23   6
  -3  -1   3 15022.2 2223.79  52
   3  -1  -2 10927.6 1466.49  48
   3  -1  -2 8748.30 1609.68  50
  -3  -1   2 10781.7 1816.31  49
  -3  -1   2 8563.68 1570.96  23
  -3  -1   2 7485.78 1228.57   6
  -3  -1   2 8960.50 1665.60  52
  -3  -1   1 14172.4 2021.29  52
  -3  -1   1 8766.03 1722.15  23
   3  -1  -1 14646.5 1738.58  48
   3  -1  -1 8257.87 1730.86  50
  -3  -1   1 15079.2 2125.37  49
  -3  -1   1 10676.0 1495.84   6
   3  -1  -1 11076.7 1381.19  17
  -3  -1   0 3000.91 928.835  52
  -3  -1   0 2535.41 838.574  23
   3  -1   0 4322.08 1119.89  50
  -3  -1   0 2605.37 919.006  49
  -3  -1   0 4258.96 799.148   6
   3  -1   0 3310.87 612.374  17
  -3  -1  -1 7727.98 1442.10  52
  -3  -1  -1 7731.64 1363.85  23
   3  -1   1 7275.74 1602.61  50
  -3  -1  -1 8778.59 1583.80  49
  -3  -1  -1 7126.45 1166.21   6
   3  -1   1 8201.94 1074.98  17
   3  -1   2 5295.14 1194.68  53
  -3  -1  -2 5659.73 1152.43  52
  -3  -1  -2 3516.82 936.240  23
   3  -1   2 6701.84 1474.90  50
  -3  -1  -2 5441.52 1210.00  49
  -3  -1  -2 5076.74 935.174   6
   3  -1   2 5106.76 813.710  17
  -3  -1  -3 17884.2 2336.26  55
   3  -1   3 13947.3 2479.48  53
  -3  -1  -3 18613.4 2443.88  52
  -3  -1  -3 16431.8 2309.02  23
   3  -1   3 20663.9 2899.42  50
  -3  -1  -3 16606.0 2462.17  49
  -3  -1  -3 22542.5 2334.03   6
   3  -1   3 19810.7 2053.05  17
  -3  -1  -4 205.859 391.806  56
   3  -1   4 456.320 560.536  50
  -3  -1  -4 162.672 357.527  49
   3  -1   4-226.868 498.538  53
  -3  -1  -4 264.692 356.248  52
  -3  -1  -4 221.218 297.780   6
   3  -1   4 71.5019 175.884  17
   3  -1   5 26876.5 3755.94  53
  -3  -1  -5 30456.2 3703.21  56
   3  -1   5 26120.7 2619.02  17
   3  -1   5 19940.3 3302.30  50
  -3  -1  -5 20840.9 2982.61  49
   3  -1   6 12170.3 2412.68  53
   3  -1   6 11203.1 1615.61  48
   3  -1   6 9539.10 2067.00  50
  -3  -1  -6 9066.90 1712.52  49
  -3  -1  -6 9793.25 1823.16  59
  -3  -1  -6 14226.4 2377.42  56
   3  -1   6 10557.0 1379.85  17
  -3  -1  -7 6365.75 1449.59  59
  -3  -1  -7 8985.33 1943.02  56
   3  -1   7 6682.59 1893.01  53
   3  -1   7 7388.27 1156.03  21
  -3  -1  -7 8244.27 1720.86  24
   3  -1   7 7431.80 1231.82  48
  -3  -1  -7 4501.19 1212.94  49
  -3  -1  -7 7577.87 1315.37  42
   3  -1   7 6926.98 1086.09  17
   3  -1   8 6875.25 1118.26  17
  -3  -1  -8 7972.25 1630.26  59
  -3  -1  -8 11082.9 2253.43  56
   3  -1   8 7830.79 2140.95  53
   3  -1   8 6613.25 1161.74  21
  -3  -1  -8 5911.88 1531.53  24
   3  -1   8 7675.76 1270.08  48
  -3  -1  -8 6801.70 1445.59  49
  -3  -1  -8 7710.46 1380.74  42
  -3  -1  -8 7750.60 1398.13  32
  -3  -1  -9 2003.31 1118.71  56
  -3  -1  -9 3873.12 1151.45  59
   3  -1   9 2473.95 1373.77  53
   3  -1   9 2506.72 692.393  21
  -3  -1  -9 1158.61 747.738  24
   3  -1   9 2333.99 638.319  22
   3  -1   9 2739.66 1175.85  50
  -3  -1  -9 2030.70 785.183  49
  -3  -1  -9 2685.41 794.760  42
  -3  -1  -9 2923.06 843.177  32
  -3  -1 -10 5704.70 1882.61  56
  -3  -1 -10 7623.44 1639.72  59
   3  -1  10 5410.04 1938.18  53
   3  -1  10 7267.54 1221.10  21
   3  -1  10 6792.42 1172.27  22
   3  -1  10 4752.76 1620.03  50
  -3  -1 -10 8787.24 1491.39  42
  -3  -1 -10 5739.25 1234.80  32
  -3  -1 -11 4145.25 1220.26  59
   3  -1  11 3401.40 1730.44  53
  -3  -1 -11 5844.56 1585.98  54
   3  -1  11 3699.75 890.607  21
   3  -1  11 4788.82 969.878  22
   3  -1  11 4880.16 1563.42  50
  -3  -1 -11 5103.96 1169.43  47
  -3  -1 -11 4386.17 1108.07  42
   3  -1  11 4475.12 874.992  26
  -3  -1 -12 17397.3 2697.19  59
   3  -1  12 15423.5 3577.07  53
  -3  -1 -12 14930.3 2880.78  54
   3  -1  12 17606.6 2216.09  21
   3  -1  12 15444.1 2133.63  22
   3  -1  12 12778.9 2766.08  50
  -3  -1 -12 17298.9 2397.90  42
   3  -1  12 17231.7 2069.75  26
  -3  -1 -13 227.839 509.065  59
  -3  -1 -13 1492.02 920.920  56
  -3  -1 -13 292.942 725.517  54
   3  -1  13 644.846 714.413  50
  -3  -1 -13 1139.57 573.058  42
   3  -1  13 1209.41 560.049  21
   3  -1  13 1782.49 600.581  22
   3  -1  13 1844.73 536.116  26
   3  -1  14 3322.04 880.726  21
  -3  -1 -14 3584.25 982.348  42
   3  -1  14 4811.13 884.261  26
  -3  -1 -14 5202.81 1305.02  59
  -3  -1 -14 2811.01 1379.52  56
  -3  -1 -15 4097.51 1390.47  56
  -3  -1 -15 3768.42 1170.18  59
   3  -1  15 5077.65 1033.66  21
  -3  -1 -15 4022.84 1015.78  42
  -3  -1 -16 1382.73 667.022  59
  -3  -1 -16 1607.56 839.839  56
   3  -1  16 1166.94 492.301  21
  -3  -1 -16 1267.62 550.602  42
  -3  -1 -17 1694.01 653.147  59
  -3  -1 -17 1703.95 868.064  56
  -3  -1 -17 2548.22 660.562  42
   3  -1  17 3683.67 764.940  21
   3  -1  18 5147.64 835.496  21
  -3  -1 -18 2962.99 873.444  56
  -3  -1 -18 3007.83 779.211  59
  -3  -1 -18 3693.93 779.456   1
  -3  -1 -18 4068.58 760.770  42
   3  -1  18 2200.00 735.471  25
  -3  -1 -19 2794.49 578.701   1
  -3  -1 -19 2944.03 544.719  42
  -3  -1 -19 1696.69 554.828  56
   3  -1  19 1133.60 506.953  25
  -3   0  21 383.531 219.485  12
  -3   0  20 67.0658 165.981   5
  -3   0  20 1119.77 373.333  12
  -3   0  19 960.858 712.666  28
  -3   0  19 888.553 434.909   5
  -3   0  19 2586.38 642.735  12
  -3   0  18 970.864 647.189  28
  -3   0  18 1618.33 572.087  12
  -3   0  18 887.050 471.723   5
  -3   0  17 150.351 412.063   5
   3   0 -17 801.218 533.863  59
  -3   0  17 1797.11 895.280  46
  -3   0  17 1329.25 469.688  37
  -3   0  17 884.709 772.319  28
  -3   0  17 1557.39 566.209  12
  -3   0  16 614.380 446.899  12
  -3   0  16 168.408 321.102   5
   3   0 -16 546.741 448.152  59
  -3   0  16 146.075 454.349  43
  -3   0  16 850.460 696.671  46
  -3   0  16-238.989 525.488  28
  -3   0  15 180.137 484.743   5
   3   0 -15 142.367 270.914  47
  -3   0  15-299.312 465.020  46
  -3   0  15-246.717 469.455  28
  -3   0  15-159.513 350.486  43
  -3   0  15-159.836 248.347  12
  -3   0  14-185.343 353.069   5
   3   0 -14 858.135 471.658  47
  -3   0  14 244.976 466.435  28
  -3   0  14 828.248 546.187  43
  -3   0  14 1217.07 747.606  46
  -3   0  14 149.351 284.684  13
  -3   0  14 1284.12 636.007  12
   3   0 -13 1251.05 521.142  47
  -3   0  13 1648.76 904.706  28
  -3   0  13 1572.99 726.844  40
  -3   0  13 827.786 588.101  43
  -3   0  13 2319.32 722.668  13
  -3   0  13 1565.43 677.269  12
   3   0 -12 5642.50 1108.18  47
  -3   0  12 5462.73 1304.14  40
  -3   0  12 3214.82 1021.39  43
  -3   0  12 4403.09 992.161  13
  -3   0  12 4475.85 1089.33  12
  -3   0  12 3310.33 1221.00  28
  -3   0  11 374.943 463.003   8
  -3   0  11 405.306 500.109  28
  -3   0  11 760.771 554.871  40
  -3   0  11 272.341 425.816  46
  -3   0  11 642.274 402.004  13
  -3   0  11 978.451 463.153  12
  -3   0  10 829.843 392.504  13
  -3   0  10 647.098 403.885  12
   3   0 -10 221.060 274.106  48
  -3   0  10 183.460 495.102  40
  -3   0  10 253.822 558.940  46
  -3   0  10 694.639 540.900   8
  -3   0   9 2700.06 704.435  55
  -3   0   9 2141.54 658.470  12
  -3   0   9 1521.10 529.185  13
   3   0  -9 1849.97 602.006  48
  -3   0   9 3520.38 978.958  40
  -3   0   9 468.929 596.088  46
  -3   0   9 1916.85 739.654   8
  -3   0   8 1758.48 678.593   8
  -3   0   8 1818.82 640.538  55
  -3   0   8 2089.42 741.556  31
   3   0  -8 2007.85 611.116  48
  -3   0   8 1076.85 641.695  46
  -3   0   8 1526.58 540.893  12
  -3   0   8 1489.35 530.732  13
  -3   0   7 2982.64 792.389  55
  -3   0   7 3093.81 856.315   8
  -3   0   7 2601.54 681.789  12
  -3   0   7 4261.72 777.227  13
   3   0  -7 3701.36 841.360  48
  -3   0   6 7163.74 1137.93  13
  -3   0   6 8847.31 1247.04  12
   3   0  -6 9424.18 1402.10  48
  -3   0   5 1881.94 518.620  12
  -3   0   5 1619.86 479.517  13
   3   0  -5 1669.51 552.946  48
  -3   0   4 13213.0 1431.12  51
  -3   0   4 11778.1 1438.78  13
  -3   0   4 11161.1 1462.65  12
   3   0  -4 9633.35 1538.95  48
  -3   0   3 946.013 434.339   6
  -3   0   3 1837.86 418.421  51
   3   0  -3 1782.60 589.560  50
   3   0  -3 1398.62 530.328  48
  -3   0   2 1099.01 452.392   6
  -3   0   2 1919.95 420.618  51
   3   0  -2 1799.99 593.830  50
   3   0  -2 2752.14 674.649  48
  -3   0   1-178.314 339.360   6
   3   0  -1-63.2525 196.667  17
  -3   0   1-49.4583 224.133  51
   3   0  -1-133.594 293.605  50
   3   0  -1 313.175 380.416  48
  -3   0   0 2606.45 643.351   6
   3   0   0 2832.20 544.808  17
  -3   0   0 2371.43 457.222  51
   3   0   0 1759.10 714.321  50
  -3   0   0 2346.77 772.859  49
  -3   0  -1 454.453 282.865   6
   3   0   1 63.0911 184.072  17
  -3   0  -1 276.885 168.899  51
   3   0   1-159.613 392.405  50
  -3   0  -1 502.725 414.510  49
   3   0   1 101.093 294.261  48
  -3   0  -2 3516.67 727.039   6
   3   0   2 2893.72 574.635  17
  -3   0  -2 3206.50 526.621  51
   3   0   2 3289.09 987.330  50
  -3   0  -2 3050.18 792.214  49
   3   0   2 2818.41 714.767  48
  -3   0  -3 9690.46 1118.66  51
  -3   0  -3 11284.1 1444.70   6
   3   0   3 10549.1 1424.87  48
   3   0   3 5997.71 1468.20  50
  -3   0  -3 7883.13 1410.50  49
   3   0   3 9444.84 1198.16  17
   3   0   4 10439.8 1492.39  48
   3   0   4 8518.67 1822.97  50
  -3   0  -4 11312.5 1643.47  49
   3   0   4 12082.2 1384.70  17
  -3   0  -4 10354.7 1246.03  51
  -3   0  -5 175.390 204.227  51
   3   0   5-219.460 590.929  50
  -3   0  -5 353.185 317.519  49
   3   0   5 507.776 316.277  48
  -3   0  -5 894.741 650.492  24
  -3   0  -5 225.040 428.730  56
   3   0   5 292.681 228.362  17
  -3   0  -6-247.861 544.880  56
  -3   0  -6 178.460 340.055  59
  -3   0  -6 259.567 202.456  51
   3   0   6 238.604 454.369  50
   3   0   6 100.765 248.197  48
  -3   0  -6 465.890 443.611  24
  -3   0  -6 618.773 408.261  42
   3   0   6 155.633 210.191  17
  -3   0  -7 191.213 420.117  59
  -3   0  -7-544.062 597.680  56
  -3   0  -7 71.9668 193.661  51
   3   0   7 257.692 633.003  50
   3   0   7 98.6867 187.782  48
   3   0   7 291.884 261.814  21
  -3   0  -7 240.075 456.802  24
  -3   0  -7-133.370 293.031  42
  -3   0  -7-346.280 658.884  10
   3   0   7-83.3001 183.026  17
  -3   0  -8 611.542 555.042  59
  -3   0  -8 890.397 803.138  56
  -3   0  -8 951.726 379.244  51
   3   0   8 1034.37 395.704  48
   3   0   8 1040.94 436.186  21
  -3   0  -8 487.049 541.723  24
  -3   0  -8 1574.86 615.009  42
   3   0   8 1251.77 447.374  17
  -3   0  -9 3882.26 1149.64  59
  -3   0  -9 3855.59 1461.54  56
   3   0   9 5792.55 998.175  21
  -3   0  -9 4830.20 1327.30  24
   3   0   9 4454.98 889.074  22
   3   0   9 4156.73 1396.90  50
  -3   0  -9 3691.20 970.601  47
  -3   0  -9 4426.89 1048.29  42
   3   0   9 4318.62 848.963  17
   3   0  10 7376.86 1082.57  18
  -3   0 -10 8806.23 1789.50  59
  -3   0 -10 7878.72 2063.23  56
  -3   0 -10 7992.86 1822.53  54
   3   0  10 8545.57 1339.21  21
   3   0  10 7538.03 1249.21  22
   3   0  10 6295.23 1817.42  50
  -3   0 -10 7312.81 1423.71  47
  -3   0 -10 9827.52 1610.82  42
   3   0  10 6995.42 1115.15  26
   3   0  11 1213.43 382.082  18
  -3   0 -11 1864.21 890.809  59
  -3   0 -11 274.625 609.287  54
   3   0  11 877.581 443.670  21
   3   0  11 822.813 455.254  22
   3   0  11 659.783 729.730  50
  -3   0 -11 1356.91 595.273  47
  -3   0 -11 670.435 494.453  42
   3   0  11 1264.26 429.315  26
  -3   0 -12 707.891 523.654  59
  -3   0 -12 730.391 698.775  56
  -3   0 -12 1699.32 986.642  54
   3   0  12 1697.09 612.892  21
   3   0  12 1226.81 491.488  22
   3   0  12 337.847 530.029  50
  -3   0 -12 521.549 389.019  47
  -3   0 -12 855.261 502.600  42
   3   0  12 930.472 389.506  26
  -3   0 -13 1080.89 885.580  56
  -3   0 -13 699.567 628.240  59
  -3   0 -13 281.177 535.894  54
   3   0  13 133.072 255.070  21
   3   0  13 881.176 416.006  22
   3   0  13 673.362 740.362  50
  -3   0 -13 174.344 333.161  47
  -3   0 -13 340.594 419.456  42
   3   0  13 374.908 292.852  26
  -3   0 -14 447.154 550.691  59
  -3   0 -14 342.255 533.260  56
   3   0  14 1190.06 525.306  21
  -3   0 -14 266.890 416.608  54
  -3   0 -14 164.432 363.535  42
   3   0  14 640.121 335.632  26
  -3   0 -15 2143.18 769.769  42
   3   0  15 1778.38 630.006  21
  -3   0 -15 1653.42 803.440  59
  -3   0 -15 2475.62 1188.99  56
  -3   0 -16 3005.64 781.453  42
   3   0  16 3408.61 804.827  21
  -3   0 -16 1829.31 832.881  59
  -3   0 -16 1589.84 945.968  56
  -3   0 -17 696.408 405.598  42
   3   0  17 935.407 429.464  21
  -3   0 -17 425.984 574.818  56
  -3   0 -17 153.589 340.298  59
   3   0  18 1649.99 474.141  21
  -3   0 -18 792.140 556.134  56
  -3   0 -18 840.186 424.548  59
  -3   0 -18 1020.94 427.914  42
   3   0  18 528.655 393.427  25
  -3   0 -19 521.329 296.237   1
  -3   0 -19 82.4902 204.445  59
  -3   0 -19 103.592 280.075  56
   3   0  19 1135.80 345.327  21
  -3   0 -19 271.255 259.491  42
  -3   0 -20 280.927 168.838  42
  -3   0 -20 727.731 247.410   1
  -3   1  20 3455.59 656.282  12
  -3   1  20 1917.11 531.056   5
   3   1 -19 752.938 445.758  59
  -3   1  19 1353.45 454.144  12
  -3   1  19 311.733 307.312   5
   3   1 -18 849.966 546.707  59
  -3   1  18 1000.03 421.705  37
  -3   1  18 1409.83 555.075  12
  -3   1  18 1052.20 548.215   5
   3   1 -17 5539.99 1207.15  59
  -3   1  17 3579.89 971.902   5
  -3   1  17 4040.57 940.661  12
  -3   1  17 2755.07 757.517  37
  -3   1  16 872.023 544.239   5
  -3   1  16 971.014 564.455  43
  -3   1  16 441.630 430.819  12
  -3   1  16 231.739 511.638  28
  -3   1  15 1494.13 755.148   5
  -3   1  15 1682.53 964.047  28
  -3   1  15 1564.28 754.894  43
  -3   1  15 2315.08 754.451  12
  -3   1  14 577.743 519.693   5
  -3   1  14 239.632 589.942  28
   3   1 -14 421.378 347.249  47
  -3   1  14 716.310 557.802  43
  -3   1  14 624.659 516.154  12
  -3   1  14 290.997 424.703  13
  -3   1  13 7113.52 1526.51   5
  -3   1  13 6936.83 1797.56  28
   3   1 -13 9597.50 1529.60  47
  -3   1  13 9849.15 2205.50  46
  -3   1  13 5355.39 1398.77  43
  -3   1  13 8249.49 1463.31  13
  -3   1  13 9820.68 1608.70  12
  -3   1  12 2807.10 984.476   5
  -3   1  12 3260.86 1289.87  28
   3   1 -12 3988.74 977.716  47
  -3   1  12 7423.16 1781.41  46
  -3   1  12 3166.79 1045.04  40
  -3   1  12 5204.17 1269.99  43
  -3   1  12 4623.25 1019.21  13
  -3   1  12 5009.21 1082.46  12
  -3   1  11 6135.99 1195.26  13
  -3   1  11 7229.21 1356.61  12
  -3   1  11 5520.32 1324.57   8
   3   1 -11 4988.25 1200.53   3
  -3   1  11 7453.67 1218.31  58
   3   1 -11 8151.68 1346.19  47
  -3   1  11 7592.82 1568.04  40
  -3   1  11 7222.98 1781.68  46
  -3   1  11 6811.38 1627.61  28
  -3   1  10 12470.4 1646.87  13
  -3   1  10 13996.8 1779.53  12
  -3   1  10 8044.44 1632.09   8
  -3   1  10 12930.7 1589.41  58
   3   1 -10 10530.2 1607.97  48
  -3   1  10 11352.2 2156.40  46
  -3   1  10 8002.73 1786.01  28
  -3   1   9 2158.15 619.741  12
  -3   1   9 1971.51 569.026  13
  -3   1   9 948.149 566.681   8
  -3   1   9 2248.24 604.728  58
  -3   1   9 2619.36 906.870  40
  -3   1   9 1575.56 754.989  46
   3   1  -9 1179.12 537.634  48
  -3   1   9 1143.22 637.202  28
  -3   1   8 5636.03 1007.67  12
  -3   1   8 4730.68 904.592  13
  -3   1   8 3257.68 1047.08  46
  -3   1   8 5664.19 1227.61  40
  -3   1   8 3782.08 981.326   8
   3   1  -8 4095.03 936.526  48
  -3   1   7 1120.82 454.368  12
  -3   1   7 831.185 359.860  13
   3   1  -7 884.034 445.487  48
  -3   1   7 1504.65 640.895  40
  -3   1   7 535.790 448.167   8
  -3   1   6 9281.39 1330.79  13
  -3   1   6 9404.79 1425.36  14
  -3   1   6 11303.3 1467.60  12
  -3   1   6 10565.4 1397.68  51
   3   1  -6 9508.45 1514.58  48
  -3   1   5 4732.57 840.140  12
  -3   1   5 3793.71 732.454  13
  -3   1   5 4141.80 834.825  14
  -3   1   5 5322.14 852.126  51
   3   1  -5 2809.42 775.523  48
  -3   1   4 28941.7 2935.49  14
  -3   1   4 25060.4 2747.74  51
   3   1  -4 26007.4 2974.14  48
  -3   1   3 17348.6 1854.72  51
  -3   1   3 15127.6 1943.81   6
   3   1  -3 14200.0 1954.44  50
   3   1  -3 17412.7 2086.79  48
  -3   1   2 10151.0 1187.88  51
  -3   1   2 9033.63 1293.41   6
   3   1  -2 9109.63 1368.21  48
   3   1  -2 6272.59 1279.46  50
  -3   1   1 10999.9 1281.27  51
   3   1  -1 11221.8 1307.54  17
  -3   1   1 11650.7 1469.72   6
   3   1  -1 7090.43 1449.53  50
   3   1   0 2856.61 572.047  17
  -3   1   0 2529.66 622.542   6
  -3   1   0 2681.32 527.419  51
   3   1   0 2006.02 756.948  50
   3   1   0 3280.28 765.024  48
  -3   1  -1 9311.27 1097.89  51
   3   1   1 7049.24 1048.54  17
   3   1   1 7772.13 1232.40  48
   3   1   1 6396.63 1381.40  50
  -3   1  -2 4830.08 759.480  51
   3   1   2 4071.71 1103.13  50
   3   1   2 4391.92 887.726  48
   3   1   2 5099.49 775.534  17
  -3   1  -2 5800.54 957.538   6
  -3   1  -3 21095.0 2124.71  51
   3   1   3 16611.1 2608.25  50
   3   1   3 19606.9 2316.28  48
  -3   1  -3 17117.4 2715.38  24
   3   1   3 19696.0 2119.12  17
  -3   1  -3 21606.5 2373.86   6
  -3   1  -4-197.317 484.735  56
  -3   1  -4 217.237 413.391  24
  -3   1  -4 132.328 178.147  51
   3   1   4-201.011 441.684  50
   3   1   4 196.675 285.884  48
   3   1   4 276.567 201.054  17
  -3   1  -4 321.727 333.277   6
  -3   1  -5 26317.3 2670.11  51
  -3   1  -5 23078.2 3477.65  24
   3   1   5 21913.9 3314.51  50
   3   1   5 28332.2 2886.40  48
   3   1   5 24661.9 2665.40  17
   3   1   5 25807.3 2652.38  57
  -3   1  -5 26198.9 3484.23  56
  -3   1  -6 10761.1 1311.50  51
  -3   1  -6 10998.3 2089.89  24
   3   1   6 9241.33 1254.55  17
  -3   1  -6 7892.82 2199.14  10
  -3   1  -6 9512.07 1710.70  59
  -3   1  -6 10640.6 2004.01  56
   3   1   6 8563.86 1213.90  57
   3   1   6 9636.37 1364.44  48
   3   1   6 7189.49 1731.71  50
   3   1   7 8638.58 1182.32  21
  -3   1  -7 6938.79 1632.98  24
   3   1   7 6567.74 1006.16  17
  -3   1  -7 4421.55 1707.78  10
  -3   1  -7 4929.56 1297.40  59
  -3   1  -7 8485.93 1802.13  56
   3   1   7 4698.62 1450.56  50
   3   1   7 5383.98 999.250  48
  -3   1  -7 6913.68 1041.29  51
   3   1   8 8301.42 1176.45  21
  -3   1  -8 5568.70 1504.61  24
  -3   1  -8 6403.24 1020.37  51
   3   1   8 4547.83 894.705  17
  -3   1  -8 7154.78 2088.20  10
  -3   1  -8 6082.92 1410.69  59
  -3   1  -8 4727.97 1423.75  56
  -3   1  -9 3281.42 1236.38  56
  -3   1  -9 1311.05 775.464  54
   3   1   9 2660.89 706.996  21
   3   1   9 1548.76 519.218  22
  -3   1  -9 1378.64 497.488  51
   3   1   9 2022.95 523.250  18
  -3   1  -9 1144.35 1038.62  10
   3   1   9 2239.77 508.167  26
  -3   1 -10 5725.95 1507.52  54
   3   1  10 6952.38 1191.65  21
   3   1  10 6499.22 1123.24  22
  -3   1 -10 5761.50 1055.86  51
   3   1  10 7834.48 2002.47  50
   3   1  10 5551.42 961.880  18
  -3   1 -10 4186.94 1803.57  10
   3   1  10 6914.62 1006.05  26
  -3   1 -11 2536.33 1014.77  54
   3   1  11 4465.51 937.028  21
   3   1  11 4074.97 886.125  22
  -3   1 -11 3946.11 823.501  51
   3   1  11 4118.07 1493.31  50
  -3   1 -11 4359.30 1056.37  47
   3   1  11 2735.96 660.722  18
   3   1  11 4104.35 751.188  26
  -3   1 -12 10461.7 2292.56  54
   3   1  12 21474.6 2233.95  21
   3   1  12 14400.1 1947.08  22
   3   1  12 14470.6 2893.73  50
  -3   1 -12 12459.4 1832.79  51
  -3   1 -12 13407.4 2749.50  56
  -3   1 -12 15986.6 2554.95  59
   3   1  12 13149.9 1745.57  18
  -3   1 -13 1230.51 498.362  51
   3   1  13 1763.08 1028.15  50
   3   1  13 1173.27 522.839  21
   3   1  13 1111.86 457.540  22
  -3   1 -13 991.261 892.904  56
  -3   1 -13 695.923 629.592  59
  -3   1 -13 260.183 501.822  54
   3   1  14 5405.27 1034.10  21
  -3   1 -14 4703.32 1537.62  56
  -3   1 -14 3774.55 1165.89  59
  -3   1 -14 2232.43 1000.48  54
  -3   1 -15 3127.64 1234.95  56
  -3   1 -15 1844.94 849.074  59
   3   1  15 3926.46 877.647  21
  -3   1 -16 907.466 573.718  59
  -3   1 -16 1959.66 857.481  56
   3   1  16 1237.74 505.579  21
  -3   1 -17 1987.78 751.499  59
  -3   1 -17 1186.71 673.453  56
   3   1  17 2754.64 670.185  21
  -3   1 -18 3746.75 815.683   1
  -3   1 -18 4108.48 949.417  59
  -3   1 -18 2354.16 810.597  56
   3   1  18 5500.26 864.853  21
  -3   1 -19 4075.82 690.012   1
  -3   1 -19 4044.32 791.827  59
  -3   1 -19 1715.47 560.464  56
   3   1  19 3865.40 631.453  21
   3   2 -20-71.3821 192.099  59
  -3   2  20 277.782 215.795   5
   3   2 -19 1624.27 553.049  59
  -3   2  19 940.620 326.741  37
  -3   2  19 1259.60 433.827  12
  -3   2  19 889.467 416.801   5
   3   2 -18 3200.78 850.160  59
  -3   2  18 1703.72 580.433  37
  -3   2  18 3393.52 749.627  12
  -3   2  18 2401.28 698.811   5
   3   2 -17 1319.50 706.620  59
  -3   2  17 603.643 504.193   5
  -3   2  17 1649.14 555.224  12
  -3   2  17 710.834 419.808  37
  -3   2  16 170.855 325.686   5
  -3   2  16 165.972 365.187  43
  -3   2  16 527.103 383.509  12
  -3   2  16 138.277 304.444  37
  -3   2  15 282.104 346.922  12
  -3   2  15 179.827 342.608  43
  -3   2  15 185.002 352.442   5
   3   2 -14-136.599 212.462  47
  -3   2  14 581.607 422.730  12
  -3   2  14 134.771 256.636  16
  -3   2  14 272.343 334.650  13
  -3   2  14 562.360 582.537  43
   3   2 -14 157.532 346.263   3
   3   2 -13 273.275 260.478  47
  -3   2  13 145.423 452.137  12
  -3   2  13 285.260 350.726  16
  -3   2  13-135.314 257.964  13
  -3   2  13 340.007 329.797  14
  -3   2  13 946.462 657.780  43
   3   2 -13 167.819 369.062   3
  -3   2  12 3596.81 1131.07   5
   3   2 -12 5542.19 1254.47   3
  -3   2  12 8199.19 1316.93  58
  -3   2  12 8310.00 1879.26  46
   3   2 -12 6893.02 1212.62  47
  -3   2  12 5404.66 1338.25  43
  -3   2  12 6811.86 1258.36  12
  -3   2  12 2759.10 885.119  16
  -3   2  12 4335.17 994.754  13
  -3   2  12 6260.96 1097.24  14
  -3   2  11 2172.68 777.886   5
   3   2 -11 701.120 443.932   3
  -3   2  11 1473.74 550.382  58
  -3   2  11 1303.28 817.085  46
   3   2 -11 2222.51 679.768  48
   3   2 -11 3204.10 803.760  47
  -3   2  11 397.613 664.057  28
  -3   2  11 2038.70 642.621  12
  -3   2  11 431.859 402.169  16
  -3   2  11 1503.21 560.971  13
  -3   2  11 1388.79 519.919  14
  -3   2  10 1670.32 591.777  12
  -3   2  10 280.348 326.133  16
  -3   2  10 1296.97 512.999  13
  -3   2  10 2160.67 621.346  14
  -3   2  10 1872.29 707.802   5
  -3   2  10 1198.37 632.909   8
   3   2 -10 1576.34 675.107   3
  -3   2  10 1882.30 615.599  58
   3   2 -10 1984.43 679.296  48
  -3   2  10 2653.02 1031.75  46
  -3   2  10 1262.66 701.799  40
  -3   2  10 1283.27 676.499  28
  -3   2   9 8376.41 1724.91  46
   3   2  -9 7336.15 1306.56  48
  -3   2   9 7344.35 1176.81  58
  -3   2   9 6377.12 1148.92  12
  -3   2   9 2295.21 811.942  16
  -3   2   9 6372.07 1093.26  13
  -3   2   9 5978.98 1073.01  14
  -3   2   9 6476.02 1278.43   5
  -3   2   9 6063.38 1253.48   8
  -3   2   8 2664.24 795.329   8
  -3   2   8 199.709 891.386  46
   3   2  -8 2514.13 760.753  48
  -3   2   8 3035.41 678.797  58
  -3   2   8 3511.71 1254.88  39
  -3   2   8 2242.54 635.433  12
  -3   2   8 646.816 407.223  16
  -3   2   8 2142.99 592.629  13
  -3   2   8 2791.09 695.268  14
  -3   2   7 274.448 370.125   8
  -3   2   7 105.829 202.957  51
   3   2  -7-144.299 225.612  48
  -3   2   7 1079.00 559.346  46
  -3   2   7 589.454 324.764  58
  -3   2   7 524.075 429.866  40
  -3   2   7 282.245 439.224  39
  -3   2   7 834.798 414.094  12
  -3   2   7 123.898 273.396  16
  -3   2   7 757.443 375.874  13
  -3   2   7 624.171 343.778  14
  -3   2   6 1148.00 558.467   8
  -3   2   6 2866.19 639.824  58
  -3   2   6 1480.35 502.427  51
   3   2  -6 1396.94 589.114  48
  -3   2   6 1654.22 529.312  12
  -3   2   6 1848.87 528.465  13
  -3   2   6 1111.45 435.709  14
  -3   2   6 1138.14 606.868  40
  -3   2   6 2179.23 1001.20  39
  -3   2   5 3945.00 830.177  14
  -3   2   5 3317.63 729.888  51
   3   2  -5 4206.04 934.710  48
  -3   2   4 580.655 324.226  14
  -3   2   4 688.596 332.705  51
   3   2  -4 885.826 464.741  48
  -3   2   3 7798.41 1155.85  51
  -3   2   3 9179.58 1284.70  14
   3   2  -3 7684.90 1315.63  48
  -3   2   2 13436.5 1541.37  51
   3   2  -2 10570.9 1755.83  50
  -3   2   2 10829.5 1525.55   6
   3   2  -2 12744.5 1426.70  17
  -3   2   2 10186.2 1526.93  14
   3   2  -1 734.725 342.055  57
  -3   2   1 1330.79 442.381  51
   3   2  -1 309.970 422.293  50
   3   2  -1 572.633 339.421  48
  -3   2   1 910.401 533.358  24
  -3   2   1 755.688 379.987   6
   3   2  -1 938.985 322.046  17
   3   2   0 1822.57 469.102  57
  -3   2   0 1509.74 441.584  51
   3   2   0 166.877 377.230  50
   3   2   0 782.363 416.774  48
  -3   2   0 1133.35 662.167  24
  -3   2   0 841.006 380.613   6
   3   2   0 1433.62 379.271  17
   3   2   1 2799.45 602.680  57
  -3   2  -1 2964.38 604.038  51
   3   2   1 1607.82 741.702  50
   3   2   1 3069.35 726.620  48
  -3   2  -1 2558.68 918.791  24
  -3   2  -1 3053.40 691.336   6
   3   2   1 2209.88 510.992  17
   3   2   2 464.635 295.693  57
  -3   2  -2 222.328 200.894  51
   3   2   2 191.377 364.950  50
   3   2   2 431.875 314.749  48
  -3   2  -2 411.982 453.234  24
  -3   2  -2 296.854 288.625   6
   3   2   2 194.746 203.161  17
   3   2   3 2500.59 571.527  57
  -3   2  -3 2114.15 770.550  56
  -3   2  -3 2210.33 519.840  51
   3   2   3 2262.53 864.087  50
   3   2   3 2877.92 705.722  48
  -3   2  -3 1226.80 483.408   6
   3   2   3 1953.46 466.960  17
   3   2   4 19327.7 2058.10  57
  -3   2  -4 18540.3 2681.56  56
  -3   2  -4 23007.0 2126.42  51
   3   2   4 20632.3 2872.80  50
   3   2   4 21333.0 2252.37  48
   3   2   4 22293.7 2042.20  17
  -3   2  -4 21530.0 3651.85  10
  -3   2  -4 23846.3 2350.83   6
  -3   2  -4 18890.2 2840.86  24
  -3   2  -5 6467.75 1113.96   1
  -3   2  -5 5203.56 970.131   6
  -3   2  -5 3362.01 1080.61  56
   3   2   5 4251.96 772.632  57
  -3   2  -5 2415.32 834.598  59
  -3   2  -5 4495.34 964.370  42
  -3   2  -5 1910.73 695.839   9
   3   2   5 3579.89 691.344  17
  -3   2  -5 3437.24 1488.06  10
  -3   2  -5 4453.03 790.061  51
   3   2   5 3120.54 1070.09  50
   3   2   5 4420.43 874.774  48
  -3   2  -6 524.314 510.120  59
   3   2   6 785.232 348.731  57
  -3   2  -6 908.676 707.399  56
  -3   2  -6 545.754 334.693  51
   3   2   6 1040.67 757.619  50
   3   2   6 492.859 345.611  48
  -3   2  -6 663.991 415.269  42
   3   2   6 396.919 292.992  17
  -3   2  -6 281.366 312.614   9
  -3   2  -6 1175.70 862.314  10
  -3   2  -7 3175.87 1065.24  56
   3   2   7 2940.58 672.175  57
  -3   2  -7 3205.02 977.327  59
   3   2   7 3852.73 772.100  21
  -3   2  -7 1946.33 583.187  51
   3   2   7 2537.65 1140.90  50
  -3   2  -7 2964.95 809.811  42
   3   2   7 2627.86 605.454  17
  -3   2  -7 1601.85 1187.07  10
  -3   2  -8 3133.69 1088.40  56
   3   2   8 2698.19 643.015  57
  -3   2  -8 2622.14 876.881  59
  -3   2  -8 778.843 554.047  54
   3   2   8 2525.83 637.746  21
   3   2   8 1956.46 586.733  22
  -3   2  -8 2698.62 649.984  51
   3   2   8 1828.06 1073.64  50
  -3   2  -8 1645.87 661.600  42
   3   2   8 1951.42 541.268  18
   3   2   8 2717.76 631.590  17
  -3   2  -8 2032.64 1195.22  10
  -3   2  -9 276.834 608.230  56
  -3   2  -9 427.016 469.098  59
   3   2   9 200.616 220.388  57
  -3   2  -9-212.867 330.707  54
   3   2   9-111.755 245.539  21
   3   2   9 104.342 198.538  22
  -3   2  -9-109.939 241.548  51
  -3   2  -9 157.535 299.749  42
   3   2   9 290.551 237.907  18
  -3   2  -9-408.564 634.738  10
  -3   2 -10 445.872 572.162  59
   3   2  10 3690.78 756.904  57
  -3   2 -10 684.101 584.158  54
   3   2  10 2474.34 680.498  21
   3   2  10 1988.37 617.172  22
  -3   2 -10 2879.28 712.531  51
   3   2  10 2777.20 1217.31  50
  -3   2 -10 2133.86 761.726  42
   3   2  10 2197.65 593.814  18
  -3   2 -10 3235.73 1414.82  10
  -3   2 -11 5947.95 1481.11  59
   3   2  11 6243.51 1034.54  57
  -3   2 -11 4771.22 1349.44  54
   3   2  11 5276.11 1022.14  21
   3   2  11 5420.64 1011.65  22
  -3   2 -11 3325.72 876.664  51
   3   2  11 3985.33 1493.98  50
  -3   2 -11 5728.29 1242.12  42
   3   2  11 4663.45 911.059  18
  -3   2 -11 3523.70 1662.08  10
  -3   2 -12 2067.20 912.552  59
  -3   2 -12 602.320 665.499  56
  -3   2 -12 485.225 467.091  54
   3   2  12 1002.95 482.376  21
   3   2  12 830.584 438.144  22
  -3   2 -12 959.787 442.884  51
   3   2  12 738.616 814.524  50
  -3   2 -12 1016.74 562.993  42
  -3   2 -12 366.388 700.771  10
   3   2  12 806.351 374.083  18
  -3   2 -13 715.441 762.215  54
  -3   2 -13 2158.77 751.234  42
  -3   2 -13 1571.79 872.952  59
  -3   2 -13 3237.55 1222.89  56
   3   2  13 3754.94 866.212  21
  -3   2 -14 4275.96 1280.72  54
  -3   2 -14 4714.24 1508.68  56
   3   2  14 7635.68 1221.93  21
  -3   2 -14 5516.02 1209.71  42
  -3   2 -15 1250.20 784.612  56
   3   2  15 1807.21 565.633  21
  -3   2 -15 863.823 512.012  42
  -3   2 -16 213.945 332.411  56
  -3   2 -16-125.715 276.244  42
   3   2  16 402.746 331.857  21
  -3   2 -17 413.698 323.822   1
  -3   2 -17 171.698 423.645  56
  -3   2 -17 415.395 325.130  42
   3   2  17 762.062 337.744  21
  -3   2 -18 158.741 231.001  42
  -3   2 -18 109.744 269.846  59
  -3   2 -18 250.920 308.417  56
  -3   2 -18 77.5127 241.144   1
  -3   2 -19 574.226 254.447  42
  -3   2 -19 1135.61 410.201  59
   3   2  19 353.342 237.697   7
   3   3 -20 240.615 198.928  59
  -3   3  20 162.103 157.912   5
   3   3 -19-87.3991 235.183  38
   3   3 -19 191.987 279.005  59
  -3   3  19 166.096 223.475   5
  -3   3  18 441.531 274.992  37
   3   3 -18 126.904 369.298  59
  -3   3  18 109.669 209.474   5
  -3   3  17 562.036 350.363  37
   3   3 -17 154.369 295.026  59
  -3   3  16 3189.50 896.236  43
   3   3 -16 2268.75 676.554   3
  -3   3  16 1734.58 616.203  37
  -3   3  15 5446.30 1282.45   5
   3   3 -15 4163.78 1076.35   3
  -3   3  15 6362.58 1421.56  43
  -3   3  15 6694.94 1135.23  12
  -3   3  15 4811.25 1117.17  37
  -3   3  14 1603.43 582.167  12
  -3   3  14 903.996 504.982  16
  -3   3  14 565.614 628.120  43
   3   3 -14 1051.57 552.271   3
  -3   3  14 1259.26 631.667   5
   3   3 -13 1389.31 539.400  47
  -3   3  13 1145.11 525.071  12
  -3   3  13 482.898 435.659  16
  -3   3  13 194.733 430.397  43
   3   3 -13 190.056 469.197   3
  -3   3  13 734.889 607.287   5
   3   3 -12 1596.18 774.265   3
  -3   3  12 909.573 618.396   5
  -3   3  12 2974.37 814.057  58
   3   3 -12 3035.21 763.367  47
  -3   3  12 2349.65 846.763  43
  -3   3  12 2296.86 689.154  12
  -3   3  12 830.241 537.751  16
  -3   3  12 1781.80 630.563  13
   3   3 -11 2460.60 686.579  47
   3   3 -11 1412.95 654.844  48
  -3   3  11 1880.64 671.012  58
   3   3 -11 817.456 563.148   3
  -3   3  11 1229.98 622.349   5
  -3   3  11 1752.69 595.972  12
  -3   3  11 667.647 465.242  16
  -3   3  11 2084.93 622.188  13
   3   3 -10 1075.13 478.700  47
   3   3 -10 1633.37 694.445  48
  -3   3  10 1312.67 524.977  58
  -3   3  10 1208.28 465.506  12
  -3   3  10 988.071 547.558  16
  -3   3  10 333.666 282.694  13
  -3   3  10 998.234 553.091   5
   3   3 -10 822.938 558.349   3
  -3   3   9 10565.1 1454.40  13
  -3   3   9 4331.49 1240.30  16
  -3   3   9 12566.3 1601.08  12
  -3   3   9 7134.30 1484.30   5
  -3   3   9 6903.72 1456.63   8
   3   3  -9 15742.6 2200.89   3
  -3   3   9 11139.7 1575.56  58
   3   3  -9 10134.4 1767.61  48
   3   3  -9 13806.0 1657.43  47
  -3   3   9 12561.7 2383.36  39
   3   3  -9 7542.24 1546.27  29
  -3   3   8 10268.7 1388.13  13
  -3   3   8 3876.98 1155.93  16
  -3   3   8 8050.99 1255.67  14
  -3   3   8 12124.0 1514.73  12
  -3   3   8 8719.39 1524.32   5
  -3   3   8 7523.78 1439.84   8
  -3   3   8 13341.3 1623.59  58
   3   3  -8 7525.77 1540.08  48
  -3   3   8 10956.7 2205.09  39
   3   3  -8 10152.1 1705.13  29
  -3   3   7 576.010 299.694  14
  -3   3   7 347.332 285.868  58
  -3   3   7 521.838 352.242   5
  -3   3   7 138.206 340.725   8
  -3   3   7 354.922 345.075  51
   3   3  -7 170.196 265.994  48
  -3   3   7 592.787 431.703  45
  -3   3   7 1279.16 635.473  40
  -3   3   7 583.621 641.789  39
   3   3  -7 172.767 330.003  29
  -3   3   6 5323.75 1135.30  16
  -3   3   6 10480.3 1279.38  14
  -3   3   6 13153.1 1491.79  58
  -3   3   6 10890.0 1386.55  51
  -3   3   6 6028.60 1122.26   5
  -3   3   6 8938.99 1358.08   8
   3   3  -6 8814.13 1478.56  48
  -3   3   6 10544.9 1540.13  45
  -3   3   6 10629.1 2085.15  39
  -3   3   6 12865.2 1799.60  40
   3   3  -6 11370.8 1752.51  29
  -3   3   5 1946.18 709.064  16
  -3   3   5 1694.29 637.798   9
  -3   3   5 6141.53 1019.79  58
  -3   3   5 6699.37 1043.49  51
   3   3  -5 4777.39 1093.36  48
   3   3  -5 5453.15 1219.84  29
  -3   3   5 4842.31 1079.98  40
  -3   3   5 4259.78 974.389  45
  -3   3   5 4815.35 1429.28  39
  -3   3   5 5002.69 919.037   5
  -3   3   5 4388.29 927.065   8
  -3   3   4 626.370 396.673   9
  -3   3   4 675.290 426.545  16
  -3   3   4 1319.29 479.119  51
   3   3  -4 888.629 494.043  48
  -3   3   4 1224.94 468.625  58
   3   3  -4 585.713 330.663  57
  -3   3   4 718.882 453.222  40
  -3   3   4 1463.50 552.180  45
   3   3  -4 1581.71 673.147  29
  -3   3   3 256.798 285.647   9
  -3   3   3 317.107 698.156  10
   3   3  -3 385.499 216.441  17
  -3   3   3 396.676 358.617  16
  -3   3   3 974.952 417.225  51
   3   3  -3 668.003 350.573  57
  -3   3   3 1291.03 477.651  58
  -3   3   3 648.749 405.640  45
   3   3  -3 524.202 431.557  29
  -3   3   2 4469.88 873.870  51
   3   3  -2 5922.70 1131.58  48
   3   3  -2 4915.20 759.352  17
  -3   3   2 3644.79 1457.10  10
  -3   3   2 2092.29 726.523   9
  -3   3   2 7225.66 1049.88  58
   3   3  -1 1944.51 530.193  57
  -3   3   1 530.697 400.972   9
  -3   3   1 2283.59 586.824  51
   3   3  -1 1069.26 520.372  48
   3   3  -1 1494.79 419.438  17
  -3   3   1 2073.17 1144.03  10
  -3   3   1 856.577 575.192  36
   3   3   0 7743.29 1095.45  57
  -3   3   0 5157.53 1147.78  56
  -3   3   0 8414.03 1145.28  51
  -3   3   0 5622.10 1023.78   6
  -3   3   0 3493.01 964.636   9
   3   3   0 6386.21 1185.12  48
  -3   3   0 5333.31 1292.34  36
   3   3   0 7322.61 956.679  17
  -3   3   0 8271.66 2191.71  10
   3   3   1 26034.4 2702.91  17
  -3   3  -1 25401.9 4508.28  10
  -3   3  -1 32883.4 3055.42  58
   3   3   1 24611.1 2864.53  57
  -3   3  -1 19413.7 3106.08  56
  -3   3  -1 29843.8 2942.92  51
   3   3   1 27180.4 3596.95  50
   3   3   1 25274.6 3065.30  48
  -3   3  -1 23900.8 3370.22  36
  -3   3  -1 31387.0 3224.46  45
  -3   3  -1 26184.8 2915.67   6
   3   3   2 1378.80 392.256  17
  -3   3  -2 412.864 387.994   9
  -3   3  -2 774.285 858.429  10
  -3   3  -2 1725.11 718.473  56
   3   3   2 1121.93 439.012  57
  -3   3  -2 2736.85 650.070  58
  -3   3  -2 2498.52 612.383   6
  -3   3  -2 1563.68 518.321  51
   3   3   2 925.952 728.526  50
   3   3   2 1379.25 545.891  48
  -3   3  -2 1733.26 565.288  42
  -3   3  -2 1396.79 701.182  36
   3   3   3 4910.62 741.736  17
  -3   3  -3 1672.71 668.726   9
   3   3   3 3915.08 789.721  57
  -3   3  -3 3757.38 828.884  58
  -3   3  -3 3364.06 1011.34  56
   3   3   3 3424.41 689.620  20
  -3   3  -3 3540.27 794.938   6
  -3   3  -3 3089.86 705.342  51
   3   3   3 3917.78 1242.01  50
   3   3   3 3694.77 879.063  48
  -3   3  -3 7055.60 1118.83  42
  -3   3  -3 4401.65 1153.26  36
  -3   3  -4 2062.51 1291.21  10
   3   3   4 2360.76 532.766  17
  -3   3  -4 706.249 465.901   9
  -3   3  -4 2188.13 632.470   6
  -3   3  -4 1635.69 580.895   1
   3   3   4 1376.02 471.838  57
  -3   3  -4 1605.52 747.733  56
  -3   3  -4 2696.60 678.016  58
   3   3   4 2408.15 542.122  20
  -3   3  -4 2434.75 606.493  51
   3   3   4 2339.38 959.869  50
   3   3   4 1082.82 483.809  48
  -3   3  -4 2989.84 740.844  42
  -3   3  -4 2305.60 818.384  36
  -3   3  -5-423.628 658.308  10
   3   3   5 75.5887 203.943  17
  -3   3  -5 572.311 385.292   9
  -3   3  -5 245.655 270.273   1
  -3   3  -5 682.057 395.181   6
  -3   3  -5-157.685 387.626  59
   3   3   5 101.510 223.522  57
  -3   3  -5 857.286 576.905  56
  -3   3  -5 334.918 300.776  58
  -3   3  -5 164.749 404.968  54
   3   3   5 176.915 238.492  21
  -3   3  -5 203.731 274.511  51
   3   3   5 553.670 608.415  50
   3   3   5 231.553 284.786  48
  -3   3  -5 521.342 379.110  42
  -3   3  -5 534.428 553.717  36
  -3   3  -6 432.976 674.042  10
  -3   3  -6 144.628 278.544   9
   3   3   6 721.542 308.120  17
  -3   3  -6 360.902 352.299   6
  -3   3  -6 258.690 320.636   1
  -3   3  -6 514.636 500.453  59
   3   3   6 843.339 368.738  57
  -3   3  -6 227.650 356.290  56
  -3   3  -6 1428.96 681.100  54
   3   3   6 841.297 386.638  21
  -3   3  -6 1281.82 471.354  51
   3   3   6 1772.76 919.053  50
  -3   3  -6 683.342 426.833  42
  -3   3  -6-178.005 393.462  36
   3   3   7 9890.69 1308.71  18
  -3   3  -7 8353.28 2488.39  10
  -3   3  -7 10425.6 1468.09   6
  -3   3  -7 12376.2 1637.68   1
  -3   3  -7 8693.05 1622.09  59
  -3   3  -7 5772.59 1566.86  56
   3   3   7 12120.3 1449.68  57
  -3   3  -7 7519.30 1571.30  54
  -3   3  -7 9067.67 1323.61  51
   3   3   7 9992.04 1302.01  21
   3   3   7 12883.8 1398.19  22
   3   3   7 8511.50 2019.49  50
  -3   3  -7 14015.5 1753.77  42
  -3   3  -7 8289.52 1593.08  36
   3   3   8 6154.42 1021.56  18
  -3   3  -8 1769.54 1346.70  10
  -3   3  -8 2753.34 847.288   9
  -3   3  -8 4837.93 1089.31   1
  -3   3  -8 5215.48 1073.85   6
  -3   3  -8 4733.30 1252.42  59
  -3   3  -8 3282.28 1179.51  56
   3   3   8 6988.85 1131.27  57
  -3   3  -8 3299.42 1112.67  54
   3   3   8 5847.74 994.688  21
   3   3   8 5171.40 934.189  22
  -3   3  -8 4674.65 983.863  51
   3   3   8 5028.68 1694.99  50
  -3   3  -8 5512.33 1145.49  42
  -3   3  -8 5002.69 1263.67  36
   3   3   9 2095.68 586.401  18
  -3   3  -9 439.557 1082.60  10
  -3   3  -9 1475.57 589.721   1
   3   3   9 1036.44 479.842  57
  -3   3  -9-207.447 402.475  59
  -3   3  -9 262.680 582.467  56
  -3   3  -9 217.697 421.620  54
   3   3   9 985.652 440.852  21
   3   3   9 2262.17 592.198  22
  -3   3  -9 1202.85 482.880  51
  -3   3  -9 1539.37 659.653  42
  -3   3  -9 1323.87 634.634  36
  -3   3 -10 4720.59 1389.10  59
   3   3  10 7512.94 1235.90  57
  -3   3 -10 7004.13 1668.08  54
   3   3  10 7380.68 1218.71  21
   3   3  10 7381.53 1192.96  22
  -3   3 -10 4804.86 1068.91  51
  -3   3 -10 9583.06 1540.58  42
   3   3  10 6898.37 1176.09  18
  -3   3 -10 4292.09 1852.22  10
  -3   3 -11 1739.44 798.320  59
   3   3  11 794.951 406.659  57
  -3   3 -11 459.002 572.319  54
   3   3  11 1040.66 468.496  21
   3   3  11 988.343 446.012  22
  -3   3 -11 1738.59 571.070  51
   3   3  11 1131.87 834.788  50
  -3   3 -11 1733.43 655.203  42
   3   3  11 1586.62 522.714  18
  -3   3 -11 1227.63 904.471  10
  -3   3 -12 214.932 472.240  59
   3   3  12 216.594 266.049  57
  -3   3 -12-268.996 295.528  56
  -3   3 -12-226.973 352.641  54
   3   3  12 115.164 282.915  21
  -3   3 -12 154.524 449.137  42
  -3   3 -12 754.972 829.381  10
  -3   3 -13 412.635 392.777  59
   3   3  13 99.2273 218.387  57
  -3   3 -13 257.940 490.960  56
  -3   3 -13-217.251 337.759  54
  -3   3 -13 141.297 347.321   1
   3   3  13 333.555 273.417  21
  -3   3 -13 441.737 428.158  42
  -3   3 -13-332.119 516.132  10
  -3   3 -14 2398.07 936.345  54
  -3   3 -14 4392.45 1015.94   1
  -3   3 -14 2871.22 1016.95  59
   3   3  14 3788.38 773.092  57
  -3   3 -14 3344.79 1129.89  56
  -3   3 -14 3720.01 781.475  58
   3   3  14 4964.45 910.241  21
  -3   3 -14 4876.54 1039.21  42
  -3   3 -15 1074.16 510.184  42
  -3   3 -15 211.732 467.802  56
  -3   3 -15 512.245 498.721  59
  -3   3 -16 4078.19 830.471  42
  -3   3 -16 3198.90 940.021  59
  -3   3 -16 3200.44 965.410  56
  -3   3 -17 3731.10 839.075  59
  -3   3 -17 2079.62 682.151  56
   3   3  17 2290.47 677.732   7
  -3   3 -18 339.653 295.062  59
  -3   3 -18-94.7608 180.437  56
   3   3  18 76.9555 169.219  11
   3   3  18 238.510 247.126   7
   3   4 -19 262.326 205.306  38
   3   4 -19 348.971 277.578  59
   3   4 -18 716.998 406.893  59
  -3   4  18 243.653 238.094   5
  -3   4  17 1047.95 408.082  37
   3   4 -17 222.862 262.364   2
  -3   4  17 417.170 327.485   5
  -3   4  16 1631.75 598.164  37
   3   4 -16 3004.46 868.416  59
   3   4 -16 1708.93 609.567   3
  -3   4  16 2362.50 691.174   5
  -3   4  15 134.684 362.571  37
  -3   4  15-131.791 250.982  16
  -3   4  15-140.615 309.121   5
   3   4 -15-153.838 292.901   3
  -3   4  14 3423.18 861.662  37
  -3   4  14 2591.46 797.699   5
   3   4 -14 2522.18 867.433   3
  -3   4  14 1969.35 700.377  16
  -3   4  13 1677.66 745.719  43
   3   4 -13 2410.44 888.849   3
  -3   4  13 954.921 562.712   5
  -3   4  13 831.223 527.054  16
   3   4 -12 216.005 339.471   3
  -3   4  12 1448.91 614.785   5
  -3   4  12 1384.24 550.667  58
   3   4 -12 634.331 303.012  57
  -3   4  12 192.571 520.714  43
  -3   4  12 528.555 435.809  16
   3   4 -11 225.663 610.152   3
  -3   4  11 792.695 496.202   5
   3   4 -11 965.582 387.075  57
  -3   4  11 2266.72 715.680  58
   3   4 -11 199.468 384.191  48
  -3   4  11 1747.12 800.153  43
  -3   4  11 363.523 403.775  16
   3   4 -10 1381.67 716.998   3
  -3   4  10 763.417 532.414   5
   3   4 -10 802.427 368.357  57
  -3   4  10 1280.88 565.597  58
   3   4 -10 1432.92 676.207  48
  -3   4  10 575.356 597.693  43
  -3   4  10-183.699 289.101  16
   3   4  -9 230.868 360.789   3
  -3   4   9 288.783 421.482   5
   3   4  -9 1229.16 437.548  57
  -3   4   9 1127.29 559.495  58
   3   4  -9 620.982 558.362  48
  -3   4   9 581.668 640.180  39
  -3   4   9 186.454 356.913  43
  -3   4   9 182.851 350.099  16
  -3   4   8 1440.57 714.439  16
  -3   4   8 4826.21 1021.63  58
   3   4  -8 4448.72 859.511  57
   3   4  -8 4107.92 1209.45   3
  -3   4   8 3097.33 819.076   5
   3   4  -8 3488.94 1047.18  48
  -3   4   8 5352.34 1558.03  39
   3   4  -8 3041.81 1011.38  29
  -3   4   7 5283.68 1443.28  16
  -3   4   7 18647.0 2020.84  58
   3   4  -7 11732.6 1577.01  57
  -3   4   7 12451.5 1746.41  51
   3   4  -7 10640.3 1928.08  48
   3   4  -7 12837.5 2114.11  29
  -3   4   7 11171.1 1797.21  45
  -3   4   7 12348.1 2402.84  39
  -3   4   7 8923.08 1538.72   5
   3   4  -7 14284.5 2248.57   3
  -3   4   6 171.637 328.389  16
  -3   4   6 128.538 284.501   9
  -3   4   6 676.564 412.280   5
  -3   4   6 128.525 347.555  51
   3   4  -6 571.119 468.902  48
   3   4  -6 623.308 344.093  57
  -3   4   6 915.404 475.299  45
  -3   4   6 1517.95 943.928  39
   3   4  -6 417.798 460.260  29
  -3   4   5 1228.00 568.868   9
  -3   4   5 1169.78 597.761  16
   3   4  -5 4986.52 885.076  57
  -3   4   5 3616.85 865.192  51
   3   4  -5 3677.40 1055.84  48
  -3   4   5 5193.55 1518.78  39
  -3   4   5 5553.79 1130.30  45
   3   4  -5 6677.36 1432.06  29
  -3   4   4 625.228 596.902  10
  -3   4   4 142.186 316.338   9
   3   4  -4 1143.39 445.040  57
  -3   4   4 483.484 354.818  51
  -3   4   4 1035.55 516.323  45
  -3   4   4 569.002 553.507  36
   3   4  -4 827.574 603.389  29
   3   4  -3 2669.02 495.481  18
  -3   4   3 1677.89 1181.34  10
  -3   4   3 731.647 493.227   9
   3   4  -3 3130.15 722.947  57
  -3   4   3 3674.29 814.758  58
  -3   4   3 2478.73 712.268  51
  -3   4   3 4248.37 957.664  45
  -3   4   3 1529.06 752.054  36
   3   4  -3 2245.32 917.089  29
   3   4  -2 2546.40 491.957  18
  -3   4   2 1070.40 892.897  10
   3   4  -2 3888.25 767.359  57
  -3   4   2 2661.66 705.537  58
  -3   4   2 746.533 466.274   9
  -3   4   2 2398.23 673.831  51
   3   4  -2 1494.00 654.332  48
  -3   4   2 2333.58 770.619  45
   3   4  -2 3010.27 950.765  29
  -3   4   2 1350.36 811.069  36
  -3   4   1 9086.76 1329.12  58
   3   4  -1 11263.3 1372.44  57
  -3   4   1 8811.15 1311.41  51
   3   4  -1 8393.23 1479.67  48
   3   4  -1 7144.18 961.834  18
  -3   4   1 6780.83 2100.78  10
  -3   4   1 8759.04 1441.39  45
   3   4   0 6918.62 964.452  18
  -3   4   0 7908.91 2238.42  10
  -3   4   0 8744.14 1281.56  58
  -3   4   0 2907.28 956.146   9
  -3   4   0 7094.66 1167.87  51
   3   4   0 5355.84 1233.03  48
  -3   4   0 9711.36 1526.63  45
  -3   4   0 7299.95 1536.08  36
   3   4   0 6969.79 1495.89  29
   3   4   1 607.494 292.935  18
  -3   4  -1 412.981 1015.59  10
  -3   4  -1 570.458 513.924  56
  -3   4  -1 778.045 407.803  58
  -3   4  -1 529.898 436.532  54
  -3   4  -1 781.015 409.339  51
   3   4   1 1079.04 537.645  48
  -3   4  -1 711.736 453.961  42
  -3   4  -1 895.098 520.466  45
  -3   4  -1 199.705 383.006  36
   3   4   1 190.532 299.873  29
   3   4   2 15591.0 1735.98  18
  -3   4  -2 12017.7 3063.42  10
  -3   4  -2 5424.17 1584.82   9
  -3   4  -2 7824.40 1901.50  56
  -3   4  -2 17394.9 1989.71  58
   3   4   2 20561.9 2097.12  57
  -3   4  -2 18067.3 2006.99  51
  -3   4  -2 13383.4 2167.27  54
   3   4   2 15732.7 1864.87  20
   3   4   2 13429.5 2052.18  48
  -3   4  -2 21125.5 2188.41  42
  -3   4  -2 15558.2 2391.02  36
   3   4   2 15224.9 2293.72  29
   3   4   3 1753.51 486.666  18
  -3   4  -3 887.797 852.990  10
  -3   4  -3 466.419 400.071   9
   3   4   3 2191.28 619.191  57
  -3   4  -3 1994.97 608.259  58
  -3   4  -3 1264.06 704.467  56
  -3   4  -3 1866.07 748.674  54
   3   4   3 1596.82 504.585  20
  -3   4  -3 1724.57 563.285  51
   3   4   3 882.676 472.383  48
  -3   4  -3 1590.14 566.707  42
  -3   4  -3 1837.15 847.466  36
   3   4   3 1487.04 745.827  29
   3   4   4 2443.82 596.861  18
  -3   4  -4-311.138 387.865   9
   3   4   4 3311.59 760.496  57
  -3   4  -4 1321.23 728.747  56
  -3   4  -4 2888.57 704.244  58
  -3   4  -4 2130.08 826.555  54
   3   4   4 2383.69 620.767  20
  -3   4  -4 3056.58 722.111  51
   3   4   4 1984.72 664.059  48
  -3   4  -4 4257.37 872.511  42
  -3   4  -4 3495.79 1085.41  36
   3   4   4 2209.57 836.643  29
   3   4   5 2309.50 592.758  18
  -3   4  -5 1868.00 1270.49  10
  -3   4  -5 620.330 488.023   9
   3   4   5 2795.45 706.049  57
  -3   4  -5 3207.93 1084.21  56
  -3   4  -5 3675.57 767.420  58
  -3   4  -5 1611.74 724.450  54
   3   4   5 2267.55 602.855  20
  -3   4  -5 2259.14 666.686  51
  -3   4  -5 3726.39 844.082  42
  -3   4  -5 2268.08 867.918  36
   3   4   5 2917.48 915.147  29
   3   4   6 15255.3 1650.58  18
  -3   4  -6 2305.63 1033.26   9
  -3   4  -6 9005.69 2657.32  10
   3   4   6 7367.25 1594.26   7
  -3   4  -6 5221.07 1567.66  56
  -3   4  -6 14714.5 1660.98  58
   3   4   6 13175.8 1637.08  57
  -3   4  -6 14009.8 1671.29  51
  -3   4  -6 6910.62 1601.71  54
   3   4   6 11148.1 1416.35  20
  -3   4  -6 14618.1 1780.64  42
  -3   4  -6 11290.5 1990.42  36
   3   4   6 10792.0 1791.46  29
  -3   4  -7 2382.49 1521.74  10
  -3   4  -7 2264.94 786.706   9
  -3   4  -7 4242.90 1080.02  59
  -3   4  -7 3910.94 1251.29  56
  -3   4  -7 5774.79 1015.64  58
   3   4   7 7848.74 1215.50  57
  -3   4  -7 2599.98 986.618  54
   3   4   7 2263.32 946.776   7
  -3   4  -7 4480.73 972.740  51
  -3   4  -7 6318.45 1140.79  42
  -3   4  -7 5865.78 1360.77  36
   3   4   7 5096.25 1195.00  29
  -3   4  -8 1755.84 751.627   9
  -3   4  -8 4731.31 2184.01  10
  -3   4  -8 6469.00 1361.25  59
  -3   4  -8 5748.09 1512.58  56
   3   4   8 7277.17 1206.63  57
  -3   4  -8 6475.38 1086.47  58
  -3   4  -8 4890.62 1359.13  54
   3   4   8 5079.64 1302.87   7
  -3   4  -8 6953.25 1180.06  51
  -3   4  -8 7082.47 1214.84  42
  -3   4  -8 5302.04 1343.94  36
   3   4   8 4718.07 1173.31  29
   3   4   9 12630.0 1610.07  18
  -3   4  -9 13406.4 3222.55  10
  -3   4  -9 3610.01 1122.07   9
  -3   4  -9 10456.6 1821.91  59
  -3   4  -9 6324.07 1748.00  56
  -3   4  -9 14034.5 1601.59  58
   3   4   9 14959.1 1762.29  57
  -3   4  -9 9797.45 1491.83  51
  -3   4  -9 7435.12 1724.40  54
   3   4   9 7177.55 1699.12   7
  -3   4  -9 15003.4 1823.01  42
  -3   4  -9 8402.82 1690.15  36
  -3   4 -10-442.398 687.651  10
  -3   4 -10 189.880 361.960  59
   3   4  10 494.852 333.620  57
  -3   4 -10 616.329 357.520  58
  -3   4 -10-224.625 349.664  54
   3   4  10 199.941 381.068   7
  -3   4 -10 252.862 278.647  51
  -3   4 -10 671.867 443.390  42
  -3   4 -10 344.928 536.323  36
  -3   4 -11 1648.64 1306.70  10
  -3   4 -11 1315.58 804.733  54
  -3   4 -11 3577.72 1046.12  59
   3   4  11 4242.69 878.291  57
  -3   4 -11 3745.60 768.496  58
   3   4  11 2748.94 998.980   7
  -3   4 -11 3497.13 857.622  42
  -3   4 -11 2902.32 878.286  36
  -3   4 -12 208.441 398.187  54
  -3   4 -12 544.109 400.057  59
  -3   4 -12 711.931 584.010  56
   3   4  12 653.819 380.204  57
   3   4  12 188.020 294.243   7
  -3   4 -12 1092.24 481.996  42
  -3   4 -12-370.794 577.146  10
   3   4  13 873.162 515.002   7
  -3   4 -13 1182.20 674.592  59
  -3   4 -13 2872.43 1004.60  56
   3   4  13 1357.54 495.876  57
  -3   4 -13 958.745 602.142  54
  -3   4 -13 318.026 501.714  10
  -3   4 -14 3476.05 890.354  59
  -3   4 -14 595.596 553.455  56
   3   4  14 3608.20 671.592  57
  -3   4 -14 760.046 800.369  10
   3   4  14 1250.09 561.773   7
  -3   4 -15 3605.16 888.308  59
   3   4  15 3779.12 636.822  57
  -3   4 -15 1874.78 748.086  56
   3   4  15 2799.20 777.760   7
  -3   4 -16 1646.21 644.038  56
   3   4  16 466.527 300.050  11
   3   4  16 2228.08 632.411   7
  -3   4 -17 295.276 305.948  56
   3   4  17 67.9603 167.167  11
   3   4  17 73.9056 181.753   7
   3   5 -18-60.5619 148.856  38
   3   5 -17-89.9396 171.135  59
  -3   5  17 124.457 180.869   5
   3   5 -16 709.983 453.441  59
  -3   5  16 573.537 340.964   5
  -3   5  15 336.270 311.520  16
  -3   5  15 1764.81 544.142   5
   3   5 -15 1070.48 535.698   3
  -3   5  14-120.108 228.816  37
  -3   5  14-134.533 256.233  16
  -3   5  14-110.742 243.574   5
   3   5 -14-163.772 402.455   3
  -3   5  13 394.588 353.936  37
  -3   5  13-155.037 295.003  43
  -3   5  13 153.350 291.792  16
  -3   5  13 239.419 294.065   5
   3   5 -13-189.280 360.156   3
   3   5 -12 142.909 314.006  34
  -3   5  12-139.180 264.850  37
  -3   5  12 165.401 406.314  43
  -3   5  12-168.443 370.104  16
   3   5 -12-209.784 399.182   3
  -3   5  12 124.926 274.499   5
  -3   5  11 179.810 344.117  16
  -3   5  11 137.582 264.371  58
  -3   5  11 1287.85 567.978  37
  -3   5  11 686.370 500.095  43
   3   5 -11 669.242 487.684  34
   3   5 -11 224.763 495.204   3
  -3   5  11 1012.33 482.965   5
  -3   5  10 3732.64 944.711  37
  -3   5  10 4345.27 1129.07  43
  -3   5  10 1876.60 790.044  16
   3   5 -10 4922.06 1339.92   3
  -3   5  10 2873.40 749.265   5
  -3   5   9 192.405 448.753  16
   3   5  -9 2389.44 993.630   3
  -3   5   9 2170.61 639.343   5
   3   5  -9 2385.21 577.472  57
  -3   5   9 3177.74 1136.70  39
  -3   5   9 3105.51 921.347  43
  -3   5   9 3104.63 804.698  37
  -3   5   8 570.073 357.775   5
   3   5  -8 1129.07 658.229  48
   3   5  -8 561.967 329.192  57
  -3   5   8 283.990 542.668  39
  -3   5   8 505.153 416.636  43
  -3   5   8 681.989 426.751  37
  -3   5   7 121.683 191.460   9
   3   5  -7 587.977 341.777  57
  -3   5   7 290.205 320.241  58
   3   5  -7 221.598 422.732  48
  -3   5   7 857.065 497.153  51
  -3   5   7 307.999 379.501  45
  -3   5   7 486.200 437.154  43
   3   5  -7 1155.24 718.541  29
  -3   5   7 390.055 320.816  37
  -3   5   6 681.548 409.866   9
   3   5  -6 1379.60 722.118   3
   3   5  -6 915.226 400.985  57
  -3   5   6 2001.73 674.622  58
  -3   5   6 1137.52 528.601  51
   3   5  -6 1525.10 764.119  48
  -3   5   6 1406.93 628.028  45
  -3   5   6 1242.42 908.859  39
  -3   5   6 1542.21 642.551  43
  -3   5   6 1469.96 548.423  37
   3   5  -6 2342.32 933.686  29
  -3   5   5 191.340 302.232  16
   3   5  -5 1111.75 693.027   3
  -3   5   5 147.330 285.596   9
   3   5  -5 1470.35 505.862  57
  -3   5   5 1260.34 535.700  58
  -3   5   5 564.477 413.777  51
   3   5  -5 1490.02 741.471  48
  -3   5   5 631.685 523.306  45
  -3   5   5 581.575 455.048  43
   3   5  -5 1406.51 816.176  29
  -3   5   5 799.263 380.237  37
  -3   5   4 565.852 476.800  16
  -3   5   4 1555.74 602.637   9
   3   5  -4 1068.53 673.489   3
   3   5  -4 1619.86 515.748  57
  -3   5   4 1365.97 572.638  58
  -3   5   4 2369.74 727.026  51
  -3   5   4 1114.76 564.560  45
  -3   5   4 1262.43 475.783  37
   3   5  -4 1859.16 815.126  29
  -3   5   3 1023.90 774.124  10
  -3   5   3 969.849 537.793   9
   3   5  -3 818.105 663.947   3
   3   5  -3 3890.82 795.936  57
  -3   5   3 3456.06 848.124  58
  -3   5   3 4836.93 1002.50  51
   3   5  -3 4440.19 1146.77  48
  -3   5   3 3208.68 884.567  45
   3   5  -3 3202.23 1083.26  29
  -3   5   3 2077.66 932.988  36
  -3   5   2 371.290 579.693  10
   3   5  -2 1144.36 490.276  57
  -3   5   2 1292.10 552.746  58
  -3   5   2 331.993 369.222   9
  -3   5   2 823.097 480.023  51
   3   5  -2 196.630 378.535  48
  -3   5   2 1294.89 592.536  45
  -3   5   2 848.659 661.737  36
  -3   5   1 795.617 992.566  10
   3   5  -1 3063.94 730.113  57
  -3   5   1 1758.04 594.814  58
   3   5  -1 2535.48 698.348  20
  -3   5   1 1013.93 553.169   9
  -3   5   1 2728.99 769.426  51
   3   5  -1 2110.22 779.524  48
  -3   5   1 3107.28 932.466  45
  -3   5   1 1945.86 873.872  36
   3   5  -1 2190.22 916.935  29
   3   5   0 5825.00 856.071  18
  -3   5   0 5898.69 2051.30  10
  -3   5   0 1025.19 674.131   9
   3   5   0 6069.05 1089.22  57
  -3   5   0 6224.97 1086.35  58
   3   5   0 5573.30 1020.21  20
  -3   5   0 4556.40 991.269  51
   3   5   0 5620.22 1272.70  48
  -3   5   0 5953.98 1234.42  45
   3   5   0 4704.14 1275.58  29
   3   5   1 1323.39 397.431  18
  -3   5  -1 884.051 975.969  10
   3   5   1 1496.14 556.319  57
  -3   5  -1 1780.95 576.689  58
  -3   5  -1 223.745 500.999  54
   3   5   1 849.152 471.642  20
  -3   5  -1 803.562 475.184  51
   3   5   1 2193.56 783.719  48
  -3   5  -1 1676.01 670.845  45
   3   5   1 834.833 655.653  29
  -3   5  -2 459.820 875.292  10
   3   5   2 976.884 378.712  18
  -3   5  -2 171.766 327.827   9
   3   5   2 384.684 345.995  57
  -3   5  -2 346.569 311.911  58
  -3   5  -2-226.781 557.659  54
   3   5   2 847.273 441.744  20
  -3   5  -2 268.187 390.580  51
   3   5   2 532.725 436.951  48
  -3   5  -2 1189.67 590.958  45
  -3   5  -2 450.778 554.243  36
   3   5   2-203.699 388.430  29
   3   5   3 1899.07 520.539  18
  -3   5  -3 1897.84 1280.56  10
  -3   5  -3 170.798 339.763   9
  -3   5  -3 1685.29 547.050  58
  -3   5  -3 2756.17 949.265  54
   3   5   3 840.410 448.518  20
  -3   5  -3 1722.79 625.556  51
   3   5   3 682.571 505.777  48
  -3   5  -3 2067.31 739.643  45
  -3   5  -3 2268.68 1032.35  36
   3   5   3 2383.67 850.934  29
   3   5   4 176.537 388.335   7
  -3   5  -4 168.735 321.621   9
  -3   5  -4 436.355 317.634  58
  -3   5  -4-242.280 376.881  56
  -3   5  -4 232.213 361.263  54
   3   5   4 236.596 291.211  20
  -3   5  -4 265.586 326.750  51
   3   5   4 303.126 272.556  18
  -3   5  -4 485.470 923.918  10
  -3   5  -4 227.073 499.262  36
   3   5   4 193.162 424.821  29
   3   5   5 2194.24 771.600   7
  -3   5  -5 1469.72 780.869  56
   3   5   5 3268.20 824.283  57
  -3   5  -5 2214.91 605.051  58
  -3   5  -5 1637.78 790.584  54
   3   5   5 3690.69 790.202  20
  -3   5  -5 2125.24 691.082  51
   3   5   5 2671.08 676.408  18
  -3   5  -5 661.395 511.298   9
  -3   5  -5 2706.87 975.477  36
   3   5   5 1866.37 786.758  29
   3   5   6 2997.21 939.905   7
   3   5   6 7263.38 1180.42  57
  -3   5  -6 3753.08 790.664  58
  -3   5  -6 1969.65 900.191  56
  -3   5  -6 3985.80 1240.27  54
   3   5   6 5424.77 960.164  20
  -3   5  -6 5559.81 1045.89  51
   3   5   6 4592.25 889.034  18
  -3   5  -6 801.620 571.808   9
  -3   5  -6 3549.40 1151.51  36
   3   5   6 4096.30 1072.68  29
   3   5   7 1705.35 703.226   7
   3   5   7 2181.29 699.238  57
  -3   5  -7 1965.73 864.023  56
  -3   5  -7 1642.50 515.510  58
  -3   5  -7 1631.68 820.744  54
   3   5   7 1667.21 516.594  20
  -3   5  -7 1967.37 608.958  51
   3   5   7 2321.45 638.848  18
  -3   5  -7 1465.14 1207.11  10
  -3   5  -7 459.786 399.554   9
  -3   5  -7 1722.04 795.610  36
   3   5   7 2491.73 826.998  29
  -3   5  -8 729.069 535.439  56
   3   5   8 533.735 389.878  57
  -3   5  -8 544.174 301.561  58
  -3   5  -8 687.756 564.558  54
   3   5   8 944.441 550.454   7
   3   5   8 381.231 298.822  20
  -3   5  -8 951.271 1045.78  10
  -3   5  -8 143.687 276.305   9
  -3   5  -8 615.531 638.770  36
  -3   5  -9 444.595 488.607  54
  -3   5  -9-237.567 452.244  56
   3   5   9 1284.13 508.819  57
   3   5   9 185.140 352.549   7
  -3   5  -9-454.172 499.124  10
  -3   5  -9 524.136 381.103   9
  -3   5  -9 190.998 514.142  36
  -3   5 -10 423.403 465.137  54
   3   5  10 1571.26 563.335  57
   3   5  10 711.615 517.083   7
   3   5  10-233.392 256.409  11
  -3   5 -10 423.275 657.598  10
  -3   5 -10 344.470 535.171  36
  -3   5 -11-197.072 484.106  54
   3   5  11-166.962 259.413   7
   3   5  11 110.811 272.223  57
  -3   5 -11 382.756 594.653  10
   3   5  11 113.582 216.145  11
  -3   5 -11-148.557 364.935  36
   3   5  12 1065.84 534.325   7
  -3   5 -12 1795.13 823.332  56
   3   5  12 1671.77 500.801  57
  -3   5 -12 332.966 899.156  10
   3   5  12 533.086 318.974  11
  -3   5 -12 717.548 461.342  36
   3   5  13 1071.22 468.508   7
  -3   5 -13 1249.59 652.799  56
   3   5  13 2010.32 507.090  57
  -3   5 -13 548.788 676.339  10
   3   5  13 191.387 241.609  11
   3   5  14-111.985 213.081   7
  -3   5 -14-153.311 238.184  56
   3   5  14 403.866 233.835  57
  -3   5 -14 206.339 453.348  10
   3   5  14 80.8342 153.810  11
   3   5  15-61.8460 117.677  11
   3   5  15 258.475 250.418   7
  -3   5 -16 343.505 210.653  45
   3   6 -15-87.4372 214.802  38
   3   6 -15 243.246 218.201   2
   3   6 -14 3173.70 794.476   3
   3   6 -13 429.082 341.977  34
  -3   6  13 360.501 351.278  16
   3   6 -13 595.730 464.279   3
   3   6 -12 1783.60 637.673  34
   3   6 -12 1030.75 690.787   3
  -3   6  12 1882.79 567.709  37
  -3   6  12 967.200 494.550  16
   3   6 -11 760.765 553.699   3
  -3   6  11 526.301 328.597  37
   3   6 -11 1468.95 646.266  34
   3   6 -11 161.334 200.680  20
  -3   6  10 1956.30 602.499  37
   3   6 -10 2557.33 909.764  34
   3   6 -10 1345.60 453.221  20
  -3   6   9 1411.43 712.188  16
   3   6  -9 2529.89 640.816  20
  -3   6   9 4267.08 929.270  58
  -3   6   9 3176.53 769.528  37
   3   6  -9 4171.48 1146.60  34
   3   6  -8 2800.87 664.491  20
  -3   6   8 4002.73 881.989  58
   3   6  -8 3911.10 1105.65   3
  -3   6   8 3133.70 730.254  37
   3   6  -7 4150.70 869.951  20
  -3   6   7 6780.32 1187.61  58
   3   6  -7 3486.98 1126.79   3
  -3   6   7 7094.41 1645.04  39
  -3   6   7 2274.83 879.665  16
   3   6  -6 227.940 307.702  20
   3   6  -6 430.765 410.583   3
   3   6  -6 442.904 276.373  57
  -3   6   6 136.042 299.946  58
  -3   6   6 286.027 544.811  39
  -3   6   6 256.418 315.931   9
   3   6  -5 5468.31 1296.63   3
  -3   6   5 7685.88 1209.18  58
   3   6  -5 6094.33 937.338  57
  -3   6   5 4883.99 1060.97  45
  -3   6   5 9470.88 2033.43  39
   3   6  -4 2223.61 588.611  57
  -3   6   4 1723.70 611.780  58
   3   6  -4 1626.97 750.097   3
  -3   6   4 308.780 396.768   9
  -3   6   4 2576.00 1124.66  39
  -3   6   4 1946.65 688.197  45
   3   6  -4 2109.67 861.979  29
   3   6  -3 3630.19 759.826  57
  -3   6   3 3752.42 876.461  58
   3   6  -3 2997.06 778.060  20
  -3   6   3 815.009 515.020   9
   3   6  -3 4290.59 1090.11   3
  -3   6   3 3065.51 826.860  51
   3   6  -3 2810.05 971.074  48
  -3   6   3 2323.23 787.262  45
  -3   6   3 1243.36 814.052  36
  -3   6   2 685.666 938.081  10
   3   6  -2 2355.32 650.885  57
  -3   6   2 2885.68 773.853  58
   3   6  -2 2167.78 678.717  20
  -3   6   2 1692.59 691.665   9
   3   6  -2 2040.51 807.372   3
  -3   6   2 1457.63 681.795  51
   3   6  -2 2544.98 918.235  48
  -3   6   2 2865.18 855.700  45
   3   6  -2 2499.06 981.461  29
  -3   6   2 857.696 764.074  36
  -3   6   1 2641.76 1488.11  10
   3   6  -1 4807.00 973.731  57
  -3   6   1 6532.56 1108.70  58
   3   6  -1 5181.96 1040.94  20
  -3   6   1 2255.26 856.156   9
   3   6  -1 4901.89 1187.20   3
  -3   6   1 5240.46 1141.33  51
   3   6  -1 3734.92 1137.97  48
  -3   6   1 6829.87 1309.81  45
   3   6  -1 6205.08 1472.07  29
  -3   6   1 3964.62 1293.86  36
  -3   6   0 4057.43 1757.81  10
  -3   6   0 10908.6 1430.90  58
   3   6   0 8293.66 1307.17  57
   3   6   0 9542.03 1406.63  20
  -3   6   0 2462.40 971.145   9
   3   6   0 4576.63 1198.71   3
  -3   6   0 9564.20 1486.31  51
   3   6   0 7480.63 1542.82  48
  -3   6   0 8933.25 1534.97  45
  -3   6   0 6291.45 1638.50  36
   3   6   0 6456.62 1559.69  29
  -3   6  -1 428.588 671.381  10
   3   6   1 1304.01 601.733  15
   3   6   1 1766.69 578.015  57
  -3   6  -1 1218.29 479.008  58
   3   6   1 1703.10 599.592  20
  -3   6  -1 1294.13 576.002  51
   3   6   1 586.782 488.103  48
  -3   6  -1 669.949 527.473  45
  -3   6  -1 227.643 755.146  36
   3   6   1 624.467 566.690  29
   3   6   2 6750.89 1353.81  15
  -3   6  -2 8476.93 2500.71  10
  -3   6  -2 10615.1 1407.59  58
   3   6   2 10616.9 1539.40  57
  -3   6  -2 10681.0 2033.94  54
  -3   6  -2 3512.36 1143.31   9
   3   6   2 10276.8 1505.00  20
  -3   6  -2 11463.4 1778.61  45
   3   6   2 9816.86 1815.97  29
  -3   6  -3 458.357 1233.85  10
   3   6   3 660.272 385.307  57
  -3   6  -3 990.396 408.499  58
  -3   6  -3 990.040 720.181  54
  -3   6  -3-172.912 270.761   9
   3   6   3 1209.24 570.324   7
   3   6   3 127.691 245.315  20
  -3   6  -3 675.303 491.858  45
  -3   6  -3 1142.02 794.179  36
   3   6   3 574.447 471.582  29
  -3   6  -4 4183.82 1902.17  10
  -3   6  -4 5547.99 969.475  58
   3   6   4 9604.53 1410.26  57
  -3   6  -4 6358.82 1593.06  54
  -3   6  -4 2356.81 899.627   9
   3   6   4 4902.43 1203.65   7
   3   6   4 7532.86 1223.83  20
  -3   6  -4 8061.13 1460.81  45
  -3   6  -4 7900.42 1730.59  36
   3   6   4 5972.73 1374.15  29
  -3   6  -5 2325.88 1446.02  10
  -3   6  -5-161.737 254.926   9
   3   6   5 1465.00 586.804  57
  -3   6  -5 1197.04 790.177  54
   3   6   5 875.945 546.037   7
   3   6   5 352.399 291.735  20
  -3   6  -5 2154.52 751.905  45
  -3   6  -5 1544.17 804.886  36
   3   6   5 1175.48 640.485  29
  -3   6  -6 3189.88 1103.16  36
  -3   6  -6 2086.65 927.155  54
   3   6   6 2938.16 919.464   7
   3   6   6 3828.74 779.998  20
  -3   6  -6 2915.99 844.428  45
  -3   6  -6-458.647 723.887  10
  -3   6  -6 458.651 430.738   9
  -3   6  -7 604.674 667.318  36
  -3   6  -7 886.935 647.613  54
   3   6   7 1007.13 556.853   7
   3   6   7 991.710 412.590  20
  -3   6  -7 1252.33 599.120  45
  -3   6  -7 283.121 353.532   9
   3   6   8 4936.27 944.013  57
  -3   6  -8 1462.16 748.692  54
   3   6   8 4691.03 779.585  20
  -3   6  -8 3552.73 1063.51  36
  -3   6  -8 637.593 437.022   9
  -3   6  -8 2958.96 1619.14  10
   3   6   8 3683.48 965.206   7
   3   6   9 4041.28 1008.28   7
   3   6   9 4271.94 730.719  20
  -3   6  -9 1766.36 637.393   9
  -3   6  -9 4711.13 1805.41  10
  -3   6  -9 4386.77 1213.08  36
   3   6  10 1517.57 499.694  57
  -3   6 -10 354.447 676.380  10
  -3   6 -10 439.876 485.954  36
   3   6  10 272.872 370.719   7
  -3   6 -11 1927.95 640.646  36
  -3   6 -11 926.065 1020.96  10
   3   6  11 240.873 335.324   7
  -3   6 -12-255.672 486.506  10
   3   6  12-74.6483 183.445  57
  -3   6 -12 99.7003 219.115  45
   3   6  12-101.557 223.194   7
  -3   6 -12-89.5201 240.946  36
  -3   6 -13 1556.89 788.135  10
   3   6  13 1108.12 430.990   7
   3   7 -13 73.3686 197.526   2
   3   7 -12 205.578 213.646  34
   3   7 -11 868.884 432.139   3
   3   7 -11 98.3778 287.343  34
   3   7 -10 277.805 342.601   3
   3   7 -10 491.094 427.623  34
   3   7  -9-149.940 368.386   3
   3   7  -9-143.016 314.300  34
   3   7  -9 70.8170 205.951  20
   3   7  -8 314.587 389.257   3
   3   7  -8 1114.36 607.653  34
   3   7  -8 557.491 293.993  20
   3   7  -7 161.206 396.187   3
   3   7  -7 514.151 498.279  34
   3   7  -7 87.3703 192.364  20
   3   7  -6 1224.72 428.262  20
  -3   7   6 1095.70 437.771  58
   3   7  -6 2105.53 783.275   3
   3   7  -5 1503.84 498.389  20
   3   7  -5 786.897 546.027  41
   3   7  -5 1918.44 693.241   3
  -3   7   5 2400.54 616.544  58
   3   7  -4 1086.25 515.841   3
  -3   7   4 2276.32 589.366  58
  -3   7   4 255.554 288.728   9
  -3   7   4 1810.55 901.057  39
  -3   7   3 965.785 396.982  58
  -3   7   3 556.810 683.886  39
  -3   7   3-138.443 263.431   9
   3   7  -2 454.145 330.822  20
  -3   7   2 146.240 279.240   9
  -3   7   1 151.457 289.457   9
   3   7  -1 371.495 289.845  57
   3   7  -1 231.994 286.226  20
   3   7  -1 365.490 328.949  15
  -3   7   1 1130.88 655.325  36
  -3   7   0 462.838 423.671   9
   3   7   0 1054.52 488.976  20
   3   7   0 1661.21 510.558  57
   3   7   0 1092.11 450.131  15
  -3   7   0 772.838 676.498  36
   3   7   1 933.867 429.682  20
   3   7   1 913.829 406.789  57
  -3   7  -1 977.549 681.927  36
   3   7   1 359.061 353.195  15
  -3   7  -2 2119.95 1247.88  10
   3   7   2 2292.82 668.702  20
   3   7   2 3645.77 766.495  57
  -3   7  -2 2187.79 700.264  45
  -3   7  -2 2930.10 1008.80  36
   3   7   3 110.624 243.111  20
   3   7   3 421.007 283.271  57
  -3   7  -3 255.697 344.067  45
  -3   7  -3-149.076 283.703   9
  -3   7  -3 363.327 564.484  10
   3   7   4 522.897 347.153  20
   3   7   4 734.334 384.470  57
  -3   7  -4 751.496 414.864  45
  -3   7  -4 366.046 985.862  10
  -3   7  -4 142.757 316.391   9
  -3   7  -5 134.057 255.898   9
  -3   7  -5-361.639 562.210  10
   3   7   5 289.387 260.378  20
   3   7   5 205.596 226.787  57
  -3   7  -5 604.601 376.278  45
  -3   7  -5 538.123 591.510  36
   3   7   6-86.4340 164.695  20
   3   7   6-98.8185 217.291  57
  -3   7  -6-168.650 414.370  36
  -3   7  -6-122.894 234.000   9
  -3   7  -6 700.334 860.204  10
  -3   7  -7-218.269 294.333   9
  -3   7  -7 663.385 729.028  10
   3   7   7 820.226 317.868  20
   3   7   7 1022.64 396.038  57
  -3   7  -7 642.804 390.840  45
  -3   7  -7 465.318 451.247  36
  -3   7  -8 306.322 675.029  10
  -3   7  -8 184.895 254.153   9
   3   7   8 1035.11 318.027  20
  -3   7  -8 1076.24 446.204  45
  -3   7  -8 277.331 433.988  36
   3   7   8 937.658 366.390  57
  -3   7  -9 86.9297 234.078  45
  -3   7  -9 119.180 320.815  36
  -3   7 -10 445.779 261.616  45
  -3   7 -10 470.650 518.796  10
  -3   7 -10 673.454 437.858  36
  -3   7 -11 1133.93 658.679  10
   3   7  11 1150.74 308.674  57
  -3   7 -11 535.979 241.806  45
  -3   7 -11 204.450 285.128  36
   3   8  -9 1069.32 378.548  34
   3   8  -8-87.8205 272.976  34
   3   8  -7 902.066 433.374  34
   3   8  -6 568.832 246.866  20
   3   8  -5 2032.91 464.055  20
   3   8  -4 125.640 276.524  41
   3   8  -4 353.942 343.296  34
   3   8  -4 207.015 215.029  20
   3   8  -3 2981.36 957.695  41
   3   8  -3 2958.14 828.947  34
   3   8  -3 5576.42 831.216  20
   3   8  -2 4183.35 891.360  34
   3   8  -2 2973.32 974.823  41
  -3   8   2 2311.32 612.043   9
   3   8  -1 446.619 369.671  34
   3   8  -1 701.401 578.973  41
  -3   8   1 204.171 253.248   9
   3   8  -1 628.219 313.042  20
  -3   8   0 986.696 685.793  39
  -3   8   0-105.176 200.991   9
   3   8   0 1185.78 388.820  20
  -3   8  -1 317.274 287.344   9
   3   8   1 624.087 299.518  20
   3   8   2 1504.95 440.738  20
  -3   8  -3 121.487 353.175  36
  -3   8  -3-99.6703 189.788   9
   3   8   3 353.713 245.863  20
  -3   8  -4 3015.35 867.846  36
  -3   8  -4 1673.63 533.590   9
  -3   8  -5 251.090 229.440   9
   3   8   5 901.588 280.282  20
  -3   8  -6 71.4303 179.447   9
   3   8   6 1990.41 365.084  20
  -3   8  -7-158.778 427.767  10
  -3   8  -7 585.213 390.210  36
   3   8   8-81.9323 201.383  41
  -4  -8   4-86.2170 189.570  46
  -4  -8   2 164.551 221.841  33
  -4  -8   1 690.283 417.565  33
  -4  -8   1 719.730 395.908  46
  -4  -8   0-86.8901 233.811  33
  -4  -8   0 99.7974 219.265  46
  -4  -8  -1 420.342 322.146  33
  -4  -8  -1 458.618 287.495  46
  -4  -7  10 266.501 259.199  46
  -4  -7   9 167.818 206.778  55
  -4  -7   9 232.134 255.544  46
  -4  -7   8 94.2527 253.707  55
  -4  -7   8-139.363 306.264  46
  -4  -7   7 101.451 272.995  55
  -4  -7   7-160.167 304.758  46
  -4  -7   6 120.510 266.136   4
  -4  -7   6 536.574 440.176  46
  -4  -7   6 528.752 368.352  55
  -4  -7   5 638.666 424.181   4
  -4  -7   5 630.159 549.758  33
  -4  -7   5 195.370 432.403  46
  -4  -7   5 1072.65 488.638  55
  -4  -7   4 398.521 359.319   4
  -4  -7   4 512.237 594.278  33
  -4  -7   4 423.969 351.217  55
  -4  -7   3 101.706 295.735  55
  -4  -7   2 137.051 336.657   4
  -4  -7   2 101.626 249.637  31
  -4  -7   2-227.960 433.750  46
  -4  -7   1 136.399 299.780   4
  -4  -7   1-113.845 279.757  31
  -4  -7   1-231.370 440.303  46
  -4  -7   0 134.094 296.277   4
  -4  -7   0 739.688 407.497  31
  -4  -7   0 460.213 506.535  46
  -4  -7  -1 781.596 429.950   4
  -4  -7  -1-223.707 426.303  46
  -4  -7  -2 375.066 336.745   4
  -4  -7  -2-211.838 465.663  46
  -4  -7  -3 194.293 427.203  46
  -4  -7  -4 220.986 297.925   4
  -4  -7  -5 303.406 273.379   4
  -4  -7  -6 270.342 262.935   4
  -4  -7  -7 153.692 207.201   4
  -4  -6  13-93.7598 206.155  46
  -4  -6  12 1009.27 467.702  46
  -4  -6  11-120.628 296.577  55
  -4  -6  11-153.980 293.250  46
  -4  -6  10 3545.85 898.809  55
  -4  -6  10 2510.58 896.950  46
  -4  -6   9 148.647 326.684  55
  -4  -6   9-202.933 445.931  46
  -4  -6   8 1575.62 661.525  55
  -4  -6   8 1575.22 830.909  46
  -4  -6   7 568.370 725.708  33
  -4  -6   7 245.626 609.012  46
  -4  -6   6 3158.45 983.397  55
  -4  -6   6 2338.04 693.718  31
  -4  -6   6 1243.98 777.133  33
  -4  -6   5 2832.62 850.077  55
  -4  -6   5 2946.50 804.770  31
  -4  -6   4 1632.92 704.668  31
  -4  -6   4 2142.98 777.278  55
  -4  -6   4 592.679 661.658  46
  -4  -6   3 5341.25 1250.19  31
  -4  -6   3 2774.85 1280.19  46
  -4  -6   3 5158.33 1184.02  55
  -4  -6   2 375.878 464.948   4
  -4  -6   2 957.528 667.560  31
  -4  -6   2 623.600 487.543  55
  -4  -6   2 1267.82 986.376  46
  -4  -6   1 1307.69 629.682   4
  -4  -6   1 1788.18 687.758  55
  -4  -6   1 1608.09 944.066  46
  -4  -6   0 184.307 408.106   4
  -4  -6   0 1544.27 637.901  55
  -4  -6   0 643.309 867.020  46
  -4  -6  -1 1263.80 638.861   4
  -4  -6  -1 1898.77 1106.06  46
  -4  -6  -2 351.194 388.553   4
  -4  -6  -2 1527.76 889.282  46
  -4  -6  -3 1186.50 571.961   4
  -4  -6  -3 2308.83 1058.67  46
  -4  -6  -4 1622.43 696.500   4
   4  -6   4 4803.96 736.042  26
  -4  -6  -4 3185.68 1197.07  46
   4  -6   5 463.386 273.681  26
  -4  -6  -5 153.782 339.150   4
   4  -6   6 2739.00 542.093  26
  -4  -6  -6 1152.43 574.433   4
   4  -6   7-60.0567 174.556  26
  -4  -6  -7 132.970 292.149   4
   4  -6   8 2040.89 422.513  26
  -4  -6  -8 481.613 363.430   4
   4  -6   9 927.515 297.674  26
  -4  -6  -9 212.273 289.655   4
  -4  -6 -10 1614.90 492.456   4
  -4  -6 -11 559.894 259.457   4
  -4  -5  15 101.132 248.575  46
  -4  -5  14-63.0108 138.480  14
  -4  -5  14-96.7337 260.320  55
  -4  -5  14 135.570 210.645  46
  -4  -5  13 306.829 254.357  14
  -4  -5  13 617.941 430.254  55
  -4  -5  13 165.303 364.272  46
  -4  -5  12 87.2527 191.790  14
  -4  -5  12-146.247 393.575  55
  -4  -5  12-192.140 211.154  46
  -4  -5  11 1042.75 414.341  14
  -4  -5  11 1153.92 634.458  55
  -4  -5  11 1300.03 795.124  46
  -4  -5  10 956.427 754.000  46
  -4  -5  10 1790.00 561.169  14
  -4  -5   9 349.848 430.398   4
  -4  -5   9 202.803 194.516  14
  -4  -5   9 259.543 494.460  46
  -4  -5   9 948.365 551.835  55
  -4  -5   8 184.967 351.995   4
  -4  -5   8 981.131 609.736  55
  -4  -5   8 470.035 421.646  31
  -4  -5   8-201.285 383.041  33
  -4  -5   7 192.623 367.122   4
  -4  -5   7 199.399 379.995  55
  -4  -5   7 343.206 327.200  31
  -4  -5   7 217.688 414.743  33
  -4  -5   6 594.378 488.030   4
  -4  -5   6 399.513 492.025  55
  -4  -5   6 309.617 590.235  46
  -4  -5   6 742.112 577.604  31
  -4  -5   6 231.472 569.750  33
  -4  -5   5 403.550 443.915   4
  -4  -5   5 197.855 486.560  55
  -4  -5   5 322.711 709.399  46
  -4  -5   5 198.900 379.153  31
  -4  -5   4 203.893 389.051   4
  -4  -5   4 194.242 427.765  55
  -4  -5   4 333.913 820.753  46
  -4  -5   4 1271.61 736.824  31
  -4  -5   3 343.002 655.967  46
  -4  -5   3 819.150 554.992   4
  -4  -5   3 1136.23 661.161  55
  -4  -5   2 349.623 543.361  46
  -4  -5   2-409.442 503.092   4
  -4  -5   2 550.751 494.215  55
  -4  -5   1 1770.91 705.584  55
  -4  -5   1 353.305 554.180  46
  -4  -5   0 1699.82 733.620  55
  -4  -5   0 1060.46 876.998  46
  -4  -5  -1 1297.46 568.688  55
  -4  -5  -1 349.553 669.586  46
  -4  -5  -2 1534.49 616.383  55
  -4  -5  -2 681.793 755.972  46
  -4  -5  -3-326.947 359.177  46
  -4  -5  -3 1148.82 713.917  32
  -4  -5  -4 307.226 338.408  46
  -4  -5  -4 228.409 615.119  32
  -4  -5  -5 1104.69 619.766   4
  -4  -5  -5 1688.32 935.904  46
  -4  -5  -5 3351.52 1077.33  32
  -4  -5  -5 1008.63 743.684  56
  -4  -5  -6 3051.23 1086.28  56
  -4  -5  -6 708.616 524.179   4
   4  -5   7 1045.66 422.817  26
  -4  -5  -7 337.168 376.144   4
  -4  -5  -8 486.942 598.182  56
   4  -5   8 90.7784 223.295  26
  -4  -5  -8-185.620 456.111  32
  -4  -5  -8-316.422 347.800   4
  -4  -5  -9 919.625 566.443  56
   4  -5   9 596.094 327.006  26
  -4  -5  -9 995.449 578.012  32
  -4  -5  -9 145.907 323.549   4
  -4  -5 -10 631.043 653.955  56
  -4  -5 -10 716.478 445.787  32
   4  -5  10 1328.61 421.180  26
  -4  -5 -10-131.606 289.987   4
   4  -5  11 697.140 321.965  26
  -4  -5 -11 709.296 435.283  32
  -4  -5 -11 925.944 613.547  56
  -4  -5 -12 775.096 511.267  56
   4  -5  12 238.875 186.599  26
  -4  -5 -12 96.7318 238.430   4
  -4  -5 -13 835.748 457.952  56
  -4  -5 -13 603.315 292.663   4
  -4  -4  17 168.345 185.495  46
  -4  -4  16 124.353 237.083  46
  -4  -4  16 222.062 230.480  14
  -4  -4  15 158.038 245.961  46
  -4  -4  15 184.522 248.695  14
  -4  -4  14 90.0773 221.783   5
  -4  -4  14 563.604 461.731  46
  -4  -4  13 1351.49 625.917  55
  -4  -4  13 1071.89 631.685  46
  -4  -4  12 4292.42 1098.29  55
  -4  -4  12 2138.51 940.965  46
  -4  -4  11-191.566 420.888  25
  -4  -4  11 188.390 506.936  55
  -4  -4  11 257.566 400.150  46
  -4  -4  10 3205.26 1010.07  55
  -4  -4  10 2232.66 892.956  25
  -4  -4   9 2312.37 936.797  25
  -4  -4   9 1954.29 771.813  31
  -4  -4   9 1090.68 619.047   4
  -4  -4   9 3117.59 1032.92  55
  -4  -4   8 187.189 359.271   4
  -4  -4   8 1503.98 716.970  31
  -4  -4   8 402.270 543.274  33
  -4  -4   8 898.988 807.729  46
  -4  -4   8 796.920 507.631  14
  -4  -4   7 190.459 362.417   4
  -4  -4   7-197.418 306.733  31
  -4  -4   7 211.827 465.423  33
  -4  -4   7-212.045 465.902  55
  -4  -4   7 308.980 480.044  46
  -4  -4   7 128.214 199.234  14
  -4  -4   6 768.410 564.879   4
  -4  -4   6 2477.40 911.218  31
  -4  -4   6 1013.34 834.148  52
  -4  -4   6 1471.50 735.276  55
  -4  -4   6 360.609 796.912  23
   4  -4  -6 938.438 493.476  48
  -4  -4   6 316.606 608.482  46
  -4  -4   6 1348.33 528.508  14
  -4  -4   5 1348.43 682.576   4
  -4  -4   5 1723.70 796.472  31
  -4  -4   5 2405.78 1140.61  52
  -4  -4   5 2273.90 860.275  55
  -4  -4   5 2190.56 1210.71  23
   4  -4  -5 1497.53 620.992  48
  -4  -4   5 322.831 947.898  46
  -4  -4   5 1513.52 559.050  14
  -4  -4   4 1739.68 1014.37  52
  -4  -4   4 1414.82 706.595  55
  -4  -4   4 1105.02 813.149  23
   4  -4  -4 697.592 475.930  48
  -4  -4   4 655.632 724.591  46
  -4  -4   4 770.042 565.114   4
   4  -4  -3 10668.7 1853.19  48
  -4  -4   3 15354.2 2965.81  49
  -4  -4   3 6339.77 1523.20   4
  -4  -4   3 7957.53 2062.57  46
  -4  -4   3 13781.1 2112.07  55
  -4  -4   3 10544.7 2427.04  52
   4  -4  -2 2607.61 1141.00  50
  -4  -4   2 3417.92 1452.01  49
  -4  -4   2 766.897 534.677   4
  -4  -4   2 1335.71 909.469  46
  -4  -4   2 3891.06 1460.74  52
  -4  -4   2 2295.61 852.260  55
   4  -4  -1 2744.38 1194.41  50
  -4  -4   1 3844.08 1582.10  49
  -4  -4   1 766.059 562.373   4
  -4  -4   1 1338.49 1042.81  46
  -4  -4   1 2834.97 1233.66  52
  -4  -4   1 185.590 462.878  55
   4  -4   0 714.517 785.316  50
  -4  -4   0 776.254 853.107  49
  -4  -4   0 766.207 557.284   4
  -4  -4   0 333.235 518.291  46
  -4  -4   0-352.998 775.960  52
  -4  -4   0 179.817 343.027  55
   4  -4   1 1858.86 1087.94  50
  -4  -4  -1 1170.74 866.707  49
  -4  -4  -1 1150.79 609.246   4
  -4  -4  -1 2304.80 1150.80  46
  -4  -4  -1 1396.41 947.887  52
  -4  -4  -1 1739.35 750.784  55
  -4  -4  -2 1366.45 993.551  52
  -4  -4  -2 2349.24 825.189  55
  -4  -4  -2 924.176 672.505  32
   4  -4   2-761.018 836.801  50
  -4  -4  -2 390.924 744.711  49
  -4  -4  -2 1932.60 1062.15  46
  -4  -4  -2 576.362 473.323   4
  -4  -4  -3 11580.9 2402.73  52
   4  -4   3 8496.12 2244.01  50
  -4  -4  -3 11290.5 2528.34  49
  -4  -4  -3 3653.55 1156.59   4
  -4  -4  -3 8399.86 2080.21  46
  -4  -4  -3 10647.8 2000.36  56
  -4  -4  -4 8570.82 2031.15  46
  -4  -4  -4 9962.39 2074.53  56
   4  -4   4 6603.73 2174.85  50
  -4  -4  -4 9237.25 2392.91  49
  -4  -4  -5 845.988 759.236  56
  -4  -4  -5 274.604 523.107  46
   4  -4   5-386.876 601.571  50
  -4  -4  -5 376.990 717.756  49
  -4  -4  -5 700.164 678.806  32
  -4  -4  -6 9809.01 1925.19  32
  -4  -4  -6 6111.40 1760.17  56
  -4  -4  -7 1534.05 775.694  32
  -4  -4  -7 2067.42 984.647  56
  -4  -4  -8 1110.30 663.443  24
  -4  -4  -8 2475.21 919.302  32
  -4  -4  -8 2939.04 1174.21  56
   4  -4   9 513.145 402.471  25
   4  -4   9 750.142 428.090  26
  -4  -4  -9 378.859 512.759  32
  -4  -4  -9 2001.87 995.029  56
   4  -4  10 5854.43 1000.40  26
   4  -4  10 2855.73 853.900  25
  -4  -4 -10 5401.53 1222.06  32
  -4  -4 -10 7032.41 1725.57  56
   4  -4  11 1752.90 645.210  25
   4  -4  11 2049.49 583.929  26
  -4  -4 -11 3328.07 891.784  32
  -4  -4 -11 2971.26 1105.01  56
   4  -4  12 2012.32 532.991  26
   4  -4  12 1380.29 541.447  25
  -4  -4 -12 1996.97 608.912  32
  -4  -4 -12 1089.95 842.164  56
   4  -4  13 2665.18 688.104  25
   4  -4  13 3941.89 714.553  26
  -4  -4 -13 4577.35 1225.61  56
   4  -4  14 440.892 258.006  25
  -4  -4 -14 430.968 388.373  56
  -4  -3  18 273.691 225.321  46
  -4  -3  17 644.723 323.366  14
  -4  -3  17 527.993 438.079  46
  -4  -3  16 167.543 319.080  46
  -4  -3  16 80.3355 216.600   5
  -4  -3  16 303.412 314.543  14
  -4  -3  15-106.052 233.080   5
  -4  -3  15 199.155 437.602  46
  -4  -3  14 1133.20 753.191  46
  -4  -3  13 637.329 464.429  55
  -4  -3  13 249.573 389.322  46
  -4  -3  12 1066.72 590.775  25
  -4  -3  12 883.554 463.758  40
  -4  -3  12 716.231 561.471  55
  -4  -3  11 7068.50 1421.59  25
  -4  -3  11 2264.43 765.692  30
  -4  -3  11 4782.69 1158.23  40
  -4  -3  11 9667.39 1628.93  55
  -4  -3  10 1994.40 822.028  25
  -4  -3  10 280.781 350.176  30
  -4  -3  10 714.472 484.469  40
  -4  -3  10 581.183 716.400  46
  -4  -3  10 2432.27 920.075  55
  -4  -3   9-207.773 510.438  55
  -4  -3   9-193.938 369.096  31
  -4  -3   9-136.399 212.050  30
  -4  -3   9 203.842 387.937  25
  -4  -3   9 296.459 564.137  46
  -4  -3   9 688.774 500.538   4
  -4  -3   9-184.176 452.481   8
  -4  -3   8 363.178 490.383   8
  -4  -3   8 866.212 505.223   4
  -4  -3   8 597.338 490.852  31
  -4  -3   8 1256.67 652.094  55
  -4  -3   8 205.217 392.660  25
  -4  -3   8 299.638 467.346  46
   4  -3  -8 443.014 260.824  17
  -4  -3   7 203.695 388.464  31
  -4  -3   7 208.576 561.865  55
   4  -3  -7 1382.35 585.088  48
  -4  -3   7-172.586 269.403   4
  -4  -3   7 177.513 436.835   8
  -4  -3   7 300.877 468.170  46
   4  -3  -7 1071.43 393.212  17
  -4  -3   6 416.411 511.838  31
  -4  -3   6-172.782 465.373   8
  -4  -3   6 170.897 325.796   4
   4  -3  -6 653.983 440.409  48
  -4  -3   6 601.596 809.662  46
   4  -3  -6 358.773 279.418  17
  -4  -3   6 132.884 253.645  14
  -4  -3   5 7881.14 1612.72  31
  -4  -3   5 6011.59 1773.68  52
  -4  -3   5 8733.88 1501.69   8
  -4  -3   5 2362.98 911.548   4
   4  -3  -5 7433.10 1403.03  48
  -4  -3   5 6896.66 1751.47  46
   4  -3  -5 6655.08 1023.15  17
  -4  -3   5 7043.47 1203.83  14
  -4  -3   4 11684.0 1936.65  55
  -4  -3   4 11310.3 2337.42  52
  -4  -3   4 10632.8 1723.17   8
  -4  -3   4 4169.00 1232.61   4
   4  -3  -4 11549.8 1830.69  48
  -4  -3   4 8651.33 2108.57  46
   4  -3  -4 10227.0 1364.43  17
  -4  -3   4 10587.7 1518.10  14
  -4  -3   3-311.110 591.987  52
  -4  -3   3 193.594 425.380  55
  -4  -3   3 480.014 497.191   8
  -4  -3   3 165.224 363.055   4
  -4  -3   3 335.621 638.623  49
   4  -3  -3-179.814 395.107  48
  -4  -3   3-296.299 325.546  46
   4  -3  -3 89.8551 220.792  17
  -4  -3   3 112.748 214.602  14
  -4  -3   2 8624.09 1994.68  52
  -4  -3   2 8135.82 1513.13  55
  -4  -3   2 4881.39 1092.42   8
  -4  -3   2 822.290 589.380   4
   4  -3  -2 3525.56 1284.04  50
  -4  -3   2 6724.03 1869.87  49
   4  -3  -2 5877.88 1293.92  48
  -4  -3   2 3231.07 1242.57  46
   4  -3  -2 4322.80 808.667  17
  -4  -3   2 4189.14 852.493  14
  -4  -3   1 3042.39 1213.41  52
  -4  -3   1 1664.96 718.208  55
  -4  -3   1 493.870 465.238   4
   4  -3  -1 2176.22 1141.60  50
  -4  -3   1 3032.96 1236.04  49
   4  -3  -1 1681.39 780.957  48
  -4  -3   1 2613.90 1067.69  46
   4  -3  -1 2174.45 597.520  17
  -4  -3   1 2059.58 594.102  14
  -4  -3   0-299.503 658.167  52
  -4  -3   0 180.998 281.500  55
  -4  -3   0 663.059 481.971   4
   4  -3   0 325.538 715.357  50
  -4  -3   0 675.688 742.391  49
  -4  -3   0 858.246 702.862  46
   4  -3   0 91.1364 316.871  17
  -4  -3  -1 880.092 799.733  52
  -4  -3  -1 1948.62 788.888  55
  -4  -3  -1 1919.90 661.476   6
  -4  -3  -1 671.268 504.298   4
   4  -3   1 1690.92 1058.57  50
  -4  -3  -1 2029.59 1058.82  49
  -4  -3  -1 1401.24 824.550  46
   4  -3   1 2114.33 549.510  17
  -4  -3  -2 3424.19 1081.58  32
  -4  -3  -2 2852.65 1158.03  52
  -4  -3  -2 3466.15 966.584  55
   4  -3   2 2792.22 1352.23  50
  -4  -3  -2 2031.01 1144.06  49
   4  -3   2 3623.92 751.342  17
  -4  -3  -2 2179.04 979.644  46
  -4  -3  -2 2694.55 795.157   6
   4  -3   3 5184.77 936.367  17
  -4  -3  -3 4420.56 1064.47   6
  -4  -3  -3 4402.14 1099.36   1
  -4  -3  -3 6142.96 1521.31  56
   4  -3   3 3938.67 1581.31  50
  -4  -3  -3 4054.58 1498.77  49
  -4  -3  -3 4188.66 1354.20  46
  -4  -3  -3 9359.76 1726.68  32
  -4  -3  -4 2211.75 992.379  56
  -4  -3  -4 2606.15 811.169   6
  -4  -3  -4 3861.49 991.830   1
   4  -3   4 2920.68 1353.43  50
  -4  -3  -4 3693.62 1353.25  49
   4  -3   4 2876.11 679.485  17
  -4  -3  -4 2858.56 1026.82  32
  -4  -3  -5 5604.27 1570.67  56
   4  -3   5 7038.39 1141.00  21
  -4  -3  -5 2499.66 846.614   6
  -4  -3  -5 4080.51 1080.63   1
   4  -3   5 4066.88 1672.26  50
  -4  -3  -5 4642.61 1553.44  49
   4  -3   5 5166.93 919.397  17
  -4  -3  -5 7926.33 1616.86  32
  -4  -3  -6 1552.85 904.874  56
   4  -3   6 1017.16 484.976  21
  -4  -3  -6 1744.28 654.837   1
  -4  -3  -6 316.953 353.864   6
   4  -3   6 373.323 822.652  50
  -4  -3  -6 324.382 507.891  49
   4  -3   6 1110.15 613.033  48
   4  -3   6 791.746 366.072  17
  -4  -3  -6 654.017 590.014  32
   4  -3   7 2160.42 605.444  21
  -4  -3  -7 476.174 399.643   1
  -4  -3  -7 478.277 437.873   6
   4  -3   7 371.348 712.004  50
  -4  -3  -7 2513.46 1148.07  49
   4  -3   7 1417.97 621.957  48
  -4  -3  -7 2256.25 1123.15  56
  -4  -3  -7 2553.99 967.994  32
  -4  -3  -8-257.186 399.597  24
   4  -3   8 113.332 176.156  21
  -4  -3  -8 328.160 721.018  56
  -4  -3  -8-204.117 388.420  32
  -4  -3  -8-156.730 385.035   1
  -4  -3  -9 683.786 566.949  24
   4  -3   9 1560.43 554.798  21
  -4  -3  -9 980.322 807.636  56
  -4  -3  -9 574.169 670.826  32
  -4  -3  -9 1215.79 560.847   1
   4  -3  10 429.873 335.582  21
  -4  -3 -10-316.854 493.386  56
  -4  -3 -10 871.629 575.483  32
  -4  -3 -10 575.971 419.839   1
   4  -3  11 8698.60 1263.07  21
  -4  -3 -11 8931.84 2055.26  56
  -4  -3 -11 7180.95 1406.70  32
  -4  -3 -11 5302.16 1188.30   1
   4  -3  12 4417.55 849.441  21
  -4  -3 -12 4321.35 1349.72  56
   4  -3  12 5719.80 957.522  26
  -4  -3 -12 3647.72 913.358   1
   4  -3  13 79.7213 175.170  21
  -4  -3 -13 234.382 445.974  56
   4  -3  13 170.851 248.299  26
   4  -3  13-137.309 337.297  25
  -4  -3 -13-99.4874 267.718   1
   4  -3  14 2623.62 522.608  21
  -4  -3 -14 2704.68 920.146  56
   4  -3  14 1561.66 605.645  25
   4  -3  14 2066.32 540.591  26
  -4  -3 -14 2259.88 554.142   1
   4  -3  15 98.8991 287.573  25
  -4  -2  18-53.5820 155.738   5
  -4  -2  18 71.4286 207.608  14
  -4  -2  18 125.601 238.987  46
  -4  -2  17 255.461 266.829   5
  -4  -2  17 850.070 416.474  14
  -4  -2  17 328.985 405.536  46
  -4  -2  16 110.819 243.533   5
  -4  -2  16-199.619 379.858  46
  -4  -2  15 529.548 461.243   5
  -4  -2  15 230.209 566.583  46
  -4  -2  14 972.987 535.468  40
  -4  -2  13 321.573 307.170  40
  -4  -2  12 530.372 477.326  40
  -4  -2  12 286.532 546.595  46
  -4  -2  12 516.171 501.606  55
   4  -2 -11 959.641 535.054  47
  -4  -2  11 1172.92 857.207  46
  -4  -2  11 942.102 627.727  40
  -4  -2  11 1479.69 738.349  55
  -4  -2  11 1016.23 676.098   8
  -4  -2  10 984.054 623.588  40
  -4  -2  10 1770.42 980.079  46
  -4  -2  10 1543.70 744.391  55
  -4  -2  10 1813.56 807.425   8
  -4  -2   9 2364.86 840.548  55
  -4  -2   9 2758.31 945.277   8
  -4  -2   9 154.760 300.330   4
  -4  -2   9 293.181 791.122  46
  -4  -2   9 2013.45 768.486  31
  -4  -2   8 4164.10 1153.33  55
  -4  -2   8 3244.80 1031.36   8
  -4  -2   8 2604.63 814.265   4
   4  -2  -8 3888.60 951.990  48
  -4  -2   8 4330.04 1380.79  46
  -4  -2   8 5262.79 1256.90  31
  -4  -2   7 4147.98 1103.28  55
  -4  -2   7 4048.93 1069.48   8
  -4  -2   7 751.053 534.041   4
   4  -2  -7 3906.97 945.981  48
  -4  -2   7 2542.41 1093.52  46
  -4  -2   7 4467.44 1197.29  31
  -4  -2   6-203.817 387.850  31
  -4  -2   6 391.048 429.620  55
  -4  -2   6-146.465 227.611   4
   4  -2  -6 653.861 475.140  48
  -4  -2   6 275.378 427.857  46
  -4  -2   6 136.527 300.012  14
  -4  -2   5 1640.16 771.576  31
  -4  -2   5 2121.70 816.031  55
   4  -2  -5 5740.29 1174.27  48
  -4  -2   5 3590.74 958.864   8
  -4  -2   5 1140.92 554.383   4
  -4  -2   5 267.839 854.358  46
   4  -2  -5 3830.59 756.894  17
  -4  -2   5 3104.77 802.018  14
  -4  -2   4 206.863 393.661  31
  -4  -2   4 165.790 407.304   8
  -4  -2   4-139.208 264.957   4
   4  -2  -4-170.441 324.370  48
  -4  -2   4-260.165 571.644  46
   4  -2  -4 196.023 215.438  17
  -4  -2   4-122.630 233.424  14
  -4  -2   3 263.077 500.614  52
  -4  -2   3-323.784 435.685   8
  -4  -2   3-136.685 300.385   4
   4  -2  -3 346.731 380.961  48
  -4  -2   3 757.398 679.390  46
   4  -2  -3 587.358 322.692  17
  -4  -2   3 233.139 256.204  14
  -4  -2   2 1780.14 847.644  52
  -4  -2   2 2031.68 821.451  55
  -4  -2   2 1082.92 509.246   4
   4  -2  -2 1465.70 769.549  50
  -4  -2   2 2022.47 1060.30  49
   4  -2  -2 2282.25 850.163  48
  -4  -2   2 1223.47 770.813  46
   4  -2  -2 1852.51 570.822  17
  -4  -2   2 1114.33 459.233  14
  -4  -2   1 9567.75 1881.64  52
  -4  -2   1 7664.07 1497.05  55
  -4  -2   1 5945.30 1224.13   6
  -4  -2   1 2844.35 896.363   4
   4  -2  -1 6292.61 1636.46  50
  -4  -2   1 9153.88 2006.17  49
   4  -2  -1 8506.03 1559.57  48
  -4  -2   1 5679.99 1494.11  46
   4  -2  -1 8892.17 1207.89  17
  -4  -2   1 6433.40 1115.05  14
   4  -2   0 277.928 305.814  50
  -4  -2   0 1135.06 881.876  49
  -4  -2   0 298.559 402.071   6
  -4  -2   0 136.994 261.246   4
  -4  -2   0 470.988 517.696  52
  -4  -2   0 361.119 397.089  55
  -4  -2   0 208.199 229.379  14
   4  -2   0-98.1948 324.083  17
  -4  -2  -1 4724.72 1313.51  52
  -4  -2  -1 6081.43 1342.97  55
  -4  -2  -1 6205.56 1259.45   6
   4  -2   1 5258.68 1589.10  50
  -4  -2  -1 5637.33 1569.85  49
  -4  -2  -1 4894.20 1082.34  42
   4  -2   1 8534.14 1193.24  17
  -4  -2  -2 4253.80 1143.07  55
   4  -2   2 4273.58 1518.50  50
  -4  -2  -2 4758.71 1499.88  49
   4  -2   2 4849.68 1189.62  48
   4  -2   2 5121.81 942.018  17
  -4  -2  -2 5874.78 1110.04  42
  -4  -2  -2 3202.19 948.076   6
  -4  -2  -2 7194.97 1350.05   1
   4  -2   3 1732.86 578.808  17
  -4  -2  -3 3050.41 883.532   1
  -4  -2  -3 1410.85 624.462   6
  -4  -2  -3 1505.18 847.118  56
   4  -2   3 4147.95 1414.17  50
  -4  -2  -3 2780.91 1074.25  49
   4  -2   3 3049.01 921.577  48
  -4  -2  -3 2488.59 742.739  42
  -4  -2  -3 2136.18 819.298  32
   4  -2   4 1974.11 593.664  17
  -4  -2  -4 3139.25 911.281   1
  -4  -2  -4 2424.97 799.397   6
  -4  -2  -4 2746.13 1063.89  56
   4  -2   4 1651.60 980.562  50
  -4  -2  -4 2206.17 1068.22  49
   4  -2   4 3385.42 979.437  48
  -4  -2  -4 2428.50 723.214  42
  -4  -2  -4 1766.32 802.522  32
   4  -2   5 2229.10 625.133  17
  -4  -2  -5 1780.97 1003.90  56
  -4  -2  -5 5099.73 1142.93   1
  -4  -2  -5 2000.77 766.568   6
   4  -2   5 3403.14 1465.37  50
  -4  -2  -5 1362.38 876.144  49
   4  -2   5 4216.14 1063.44  48
  -4  -2  -5 3478.49 880.413  42
  -4  -2  -5 2759.70 994.337  32
   4  -2   6 542.801 363.177  17
  -4  -2  -6 950.570 698.956  56
   4  -2   6 1373.59 552.249  21
  -4  -2  -6 1199.70 598.640   6
  -4  -2  -6 871.236 510.277   1
   4  -2   6-348.542 666.114  50
   4  -2   6 1198.70 627.033  48
  -4  -2  -6 1429.68 590.957  42
  -4  -2  -6 1177.70 649.880  32
   4  -2   7 2215.26 624.961  17
  -4  -2  -7 4668.67 1560.81  56
  -4  -2  -7 2148.61 881.491  59
   4  -2   7 1397.38 609.088  21
  -4  -2  -7 2391.54 1048.29  24
  -4  -2  -7 1376.91 643.179   6
  -4  -2  -7 1772.91 689.655   1
   4  -2   7 708.489 791.327  50
   4  -2   7 1148.82 614.805  48
  -4  -2  -7 2478.64 747.785  42
  -4  -2  -7 1158.77 685.973  32
  -4  -2  -8 10695.3 2385.94  56
  -4  -2  -8 6667.51 1747.37  59
   4  -2   8 9381.57 1475.03  21
  -4  -2  -8 4516.70 1532.52  24
   4  -2   8 9238.69 1433.55  22
  -4  -2  -8 9387.96 1646.17   6
  -4  -2  -8 9809.80 1669.27   1
   4  -2   8 6415.97 1973.47  50
  -4  -2  -8 8962.44 1514.23  42
  -4  -2  -8 9908.21 1770.98  32
   4  -2   9 4506.94 997.010  21
  -4  -2  -9 1803.26 976.950  24
   4  -2   9 4775.68 974.572  22
  -4  -2  -9 3510.93 1214.85  59
  -4  -2  -9 7689.32 2033.23  56
  -4  -2  -9 6360.88 1345.86   1
  -4  -2  -9 4846.80 1144.86   6
  -4  -2  -9 6407.25 1218.31  42
  -4  -2  -9 5485.78 1245.73  32
   4  -2  10 127.290 312.684  21
  -4  -2 -10-224.139 426.482  24
  -4  -2 -10 225.699 607.331  59
  -4  -2 -10-345.129 656.694  56
  -4  -2 -10-171.627 377.086   1
  -4  -2 -10 141.260 268.788  42
  -4  -2 -10 324.777 398.900  32
   4  -2  11 864.586 430.554  21
  -4  -2 -11 212.403 405.723  59
  -4  -2 -11 331.030 630.875  56
  -4  -2 -11 162.733 359.319   1
  -4  -2 -11 933.950 487.427  42
   4  -2  11 310.318 302.758  26
   4  -2  12 350.700 385.305  21
  -4  -2 -12 305.887 475.256  56
  -4  -2 -12-193.883 368.955  59
  -4  -2 -12-149.907 329.411   1
  -4  -2 -12 121.967 299.660  42
   4  -2  12 96.7561 281.280  26
   4  -2  13 1182.09 475.766  21
  -4  -2 -13 813.728 790.497  56
  -4  -2 -13 1067.37 531.643   1
  -4  -2 -13 749.468 394.391  42
   4  -2  13 352.353 279.793  26
   4  -2  14 3416.47 743.976  21
  -4  -2 -14 2293.57 937.453  56
   4  -2  14 2940.14 621.172  26
  -4  -2 -14 1870.41 567.087  42
  -4  -2 -14 3642.86 824.079   1
  -4  -2 -15 2927.12 627.776  42
  -4  -2 -15 4404.54 819.346   1
   4  -2  15 3813.96 730.779  21
  -4  -2 -16 201.725 222.005   1
   4  -2  16 60.5093 199.862  21
   4  -2  16 307.305 318.561  25
  -4  -1  18 393.213 301.437   5
  -4  -1  18 441.786 258.317  14
  -4  -1  17 371.790 410.451  46
  -4  -1  17 486.501 305.052  14
  -4  -1  17 528.824 331.137   5
  -4  -1  16 3069.68 767.279  14
  -4  -1  16 2984.90 810.354   5
  -4  -1  15 2402.92 800.694   5
  -4  -1  14 837.421 522.452  40
  -4  -1  14 568.927 471.021  12
  -4  -1  14 332.882 411.458   5
  -4  -1  13 748.445 715.298  28
  -4  -1  13 3756.30 1326.55  46
  -4  -1  13 3888.84 1059.67  40
  -4  -1  13 4450.75 1014.73  12
  -4  -1  12 1307.08 663.728  28
   4  -1 -12 1956.57 696.051  47
  -4  -1  12 2370.68 1088.80  46
  -4  -1  12 2767.72 957.033  40
  -4  -1  12 1729.87 704.457  43
  -4  -1  12 1054.17 566.419  12
  -4  -1  11 1264.83 764.765  28
  -4  -1  11 3849.19 989.779  55
  -4  -1  11 2677.10 923.090  40
  -4  -1  11 2376.08 1144.88  46
  -4  -1  11 1530.51 638.013  13
  -4  -1  11 2676.59 1002.63   8
  -4  -1  10 2217.22 850.626   8
  -4  -1  10 2923.11 1173.73  46
  -4  -1  10 2319.19 917.497  40
  -4  -1  10 1935.97 797.011  55
   4  -1  -9 9177.29 1579.74  48
  -4  -1   9 7801.69 1652.28   8
  -4  -1   9 9362.16 2144.91  46
  -4  -1   9 10851.1 1828.05  55
  -4  -1   8 2929.32 937.576  55
  -4  -1   8 2061.93 815.858   8
   4  -1  -8 1999.51 697.402  48
  -4  -1   8 1907.65 962.209  46
  -4  -1   8 1432.95 765.414  31
  -4  -1   7 5253.83 1308.15  31
  -4  -1   7 6059.81 1364.07  55
  -4  -1   7 4309.95 1166.87   8
   4  -1  -7 6424.22 1290.29  48
  -4  -1   7 5197.13 1479.43  46
  -4  -1   7 6821.37 1267.14  14
  -4  -1   6 10077.7 1789.64  55
  -4  -1   6 7747.55 1608.32   8
   4  -1  -6 9913.10 1692.63  48
  -4  -1   6 10599.3 2069.72  46
  -4  -1   6 10807.3 1638.05  14
  -4  -1   5 2962.26 968.442  31
  -4  -1   5 3283.62 962.895  55
  -4  -1   5 2651.13 859.901   8
   4  -1  -5 2475.39 797.007  48
  -4  -1   5 1397.68 753.344  46
  -4  -1   5 2510.14 726.701  14
  -4  -1   4 2549.27 917.304  31
  -4  -1   4 5447.52 1218.62  55
  -4  -1   4 1765.48 741.567   8
   4  -1  -4 2501.03 830.651  48
  -4  -1   4 1975.26 866.076  46
   4  -1  -4 2497.73 661.822  17
  -4  -1   4 4034.74 884.065  14
  -4  -1   3 586.377 434.778  31
   4  -1  -3 1676.21 692.325  48
   4  -1  -3 992.728 467.642  17
  -4  -1   3 965.422 424.689  14
  -4  -1   3 206.136 398.059  46
  -4  -1   3 1447.66 691.970  55
   4  -1  -2 4812.26 1340.49  50
   4  -1  -2 8565.88 1521.81  48
  -4  -1   2 5648.57 1247.60   6
   4  -1  -2 6723.20 1138.82  17
  -4  -1   2 9172.69 1343.73  14
   4  -1  -1 1098.06 644.640  50
   4  -1  -1 2015.29 766.005  48
   4  -1  -1 1180.07 479.451  17
  -4  -1   1 1011.23 436.986  14
  -4  -1   1 577.550 484.321   6
  -4  -1   0 16666.2 2275.28  55
   4  -1   0 18433.3 1876.74  17
  -4  -1   0 16655.0 1896.47  14
   4  -1   0 11600.1 2212.87  50
  -4  -1   0 18064.1 2614.90  49
  -4  -1   0 21527.9 2217.16  42
  -4  -1   0 12806.8 1925.43   6
  -4  -1   0 5742.32 1435.23   4
  -4  -1  -1 12906.3 2018.68  55
   4  -1   1 11379.0 1866.76  48
   4  -1   1 9601.99 2077.29  50
  -4  -1  -1 9711.81 1965.82  49
  -4  -1  -1 9640.46 1697.53   6
  -4  -1  -1 10273.4 1753.09   1
  -4  -1  -1 12819.3 1818.39  42
   4  -1   1 13028.3 1636.89  17
   4  -1   2 4555.45 1464.89  50
  -4  -1  -2 4969.94 1368.78  49
   4  -1   2 7553.04 1389.72  48
  -4  -1  -2 6509.71 1299.61   1
  -4  -1  -2 5550.42 1208.94   6
  -4  -1  -2 7300.31 1267.65  42
   4  -1   2 4626.17 960.714  17
  -4  -1  -3 3339.44 1109.71  56
   4  -1   3 3111.56 1257.49  50
   4  -1   3 4240.05 1061.97  48
  -4  -1  -3 4798.43 1115.49   1
  -4  -1  -3 3721.33 972.237   6
  -4  -1  -3 5295.31 1067.95  42
   4  -1   3 4802.37 894.772  17
  -4  -1  -4 4468.85 1300.99  59
  -4  -1  -4 4219.73 1311.82  56
  -4  -1  -4 5631.90 1204.37   1
  -4  -1  -4 4021.97 1015.79   6
   4  -1   4 2082.14 1092.59  50
   4  -1   4 4839.01 1120.88  48
  -4  -1  -4 5342.05 1121.63  42
   4  -1   4 3646.00 797.973  17
  -4  -1  -5 7158.27 1643.84  59
  -4  -1  -5 8913.97 1952.89  56
  -4  -1  -5 8277.24 1966.81  24
  -4  -1  -5 5916.31 1312.59   6
  -4  -1  -5 7552.06 1485.13   1
   4  -1   5 4361.46 1520.68  50
   4  -1   5 6426.53 1347.81  48
  -4  -1  -5 6139.03 1272.82  42
   4  -1   5 6932.80 1156.41  17
   4  -1   6 1531.61 531.296  17
  -4  -1  -6 950.606 667.593  59
  -4  -1  -6 4640.76 1454.64  56
  -4  -1  -6 1272.60 877.295  24
  -4  -1  -6 2837.95 933.812   1
  -4  -1  -6 2724.01 858.092   6
   4  -1   6 2611.09 1204.52  50
   4  -1   6 2809.52 826.768  48
  -4  -1  -6 4338.27 996.371  42
  -4  -1  -6 3357.12 923.468  32
   4  -1   7 11222.4 1694.94  17
  -4  -1  -7 10928.4 2233.48  59
  -4  -1  -7 15782.5 2919.32  56
   4  -1   7 14980.1 1931.81  21
  -4  -1  -7 12190.6 2507.26  24
  -4  -1  -7 11748.9 1999.84   6
  -4  -1  -7 13298.6 2140.18   1
   4  -1   7 14001.0 2020.12  48
   4  -1   7 13516.6 2773.60  50
  -4  -1  -7 15458.0 2127.47  42
  -4  -1  -7 11494.8 1954.36  32
   4  -1   8 458.697 357.905  17
  -4  -1  -8 491.192 468.522  59
  -4  -1  -8 1029.95 755.053  56
   4  -1   8 263.143 291.037  21
  -4  -1  -8 300.018 571.852  24
  -4  -1  -8 926.364 611.524   1
  -4  -1  -8 715.745 482.676   6
   4  -1   8-346.700 382.358  50
  -4  -1  -8 486.815 472.846  42
  -4  -1  -8 788.369 491.078  32
   4  -1   9 7583.63 1374.61  21
  -4  -1  -9 5583.15 1654.31  24
   4  -1   9 9938.38 1469.82  22
  -4  -1  -9 7929.41 1549.23   6
  -4  -1  -9 9292.48 1665.00   1
  -4  -1  -9 8307.83 1539.17  42
  -4  -1  -9 10192.0 2323.50  56
  -4  -1  -9 6612.05 1693.51  59
   4  -1  10 6381.35 1146.55  21
  -4  -1 -10 3488.74 1157.81  24
  -4  -1 -10 6409.04 1341.85   1
  -4  -1 -10 5353.60 1234.90   6
   4  -1  10 1402.19 1086.06  50
  -4  -1 -10 4979.01 1123.47  42
  -4  -1 -10 4556.00 1318.12  59
  -4  -1 -10 3511.47 1388.20  56
   4  -1  11 2483.73 744.343  21
  -4  -1 -11 1836.35 930.117  59
  -4  -1 -11 2384.95 1139.86  56
  -4  -1 -11 1940.91 822.929   1
  -4  -1 -11 2009.76 727.198  42
   4  -1  11 2805.68 675.599  26
   4  -1  12 3143.02 793.565  21
  -4  -1 -12 2351.55 969.507  59
  -4  -1 -12 3831.99 1379.65  56
  -4  -1 -12 1986.42 787.200   1
  -4  -1 -12 3038.02 859.912  42
   4  -1  12 3008.46 713.344  26
   4  -1  13 3065.25 761.304  21
  -4  -1 -13 2118.77 871.325  59
  -4  -1 -13 2017.25 1070.17  56
  -4  -1 -13 4063.48 1026.74   1
  -4  -1 -13 2616.49 747.794  42
   4  -1  13 1833.93 534.818  26
  -4  -1 -14 2769.64 808.263   1
  -4  -1 -14 3166.53 978.786  59
  -4  -1 -14 3470.47 1192.21  56
  -4  -1 -14 4094.69 888.303  42
   4  -1  14 3746.98 825.387  21
  -4  -1 -15 663.178 407.250   1
  -4  -1 -15 820.395 501.856  59
   4  -1  15 839.192 374.269  21
  -4  -1 -15 564.079 362.866  42
  -4  -1 -16 7063.55 1090.65   1
  -4  -1 -16 6207.20 983.663  42
   4  -1  16 7531.10 1072.63  21
   4  -1  17 2349.22 461.752  21
  -4  -1 -17 956.380 442.981  56
  -4  -1 -17 1810.07 384.408  42
  -4  -1 -17 2542.59 501.129   1
   4  -1  17 755.143 414.732  25
  -4   0  19 428.106 244.994   5
  -4   0  18 90.1375 198.191   5
  -4   0  17 466.971 364.017   5
  -4   0  17 308.768 241.777  37
  -4   0  16 553.794 345.249  14
  -4   0  16 313.530 345.530  43
  -4   0  16 140.708 310.376   5
  -4   0  15 259.054 403.040  46
  -4   0  15 405.819 393.760  12
  -4   0  15 128.596 283.360  14
  -4   0  15 383.560 397.846  43
  -4   0  15 483.759 434.448   5
  -4   0  14 1681.30 875.265  46
  -4   0  14 725.588 459.696  12
  -4   0  14 1138.34 548.832  14
  -4   0  14 1063.63 558.035   5
  -4   0  14 1160.85 581.669  43
  -4   0  13 2412.76 801.079  12
  -4   0  13 4095.87 990.908  14
  -4   0  13 2925.45 1229.38  46
  -4   0  13 3056.91 1008.83  40
  -4   0  13 2662.49 880.834  43
  -4   0  13 3202.04 1003.67   5
   4   0 -12 3042.80 806.914  47
  -4   0  12 2963.38 1135.53  46
  -4   0  12 859.912 593.580  40
  -4   0  12 1831.37 662.808  12
  -4   0  12 1850.80 676.750  13
  -4   0  12 1413.33 636.069  14
  -4   0  12 722.785 610.189  28
  -4   0  11 292.741 557.015  46
  -4   0  11-221.420 421.311  40
  -4   0  11-405.121 497.580   8
  -4   0  11 151.234 332.282  12
  -4   0  11 140.443 154.300  13
  -4   0  11-158.854 349.025  14
  -4   0  10 763.262 444.136  55
  -4   0  10 590.052 429.214  12
  -4   0  10 409.482 397.225  13
  -4   0  10 789.465 491.010  14
  -4   0  10 1120.54 696.631  40
  -4   0  10-283.369 539.551  46
  -4   0  10-197.633 434.682   8
  -4   0   9 1763.29 709.773  55
  -4   0   9 774.678 489.259  14
   4   0  -9 1248.95 549.321  48
  -4   0   9 1119.94 609.011  40
  -4   0   9 1619.52 843.212  46
  -4   0   9 381.492 520.643   8
   4   0  -8 815.539 513.799  48
  -4   0   8 494.926 451.900  55
  -4   0   8 1776.52 813.488  40
  -4   0   8 2031.22 886.075  46
  -4   0   8 1280.91 672.043   8
  -4   0   7 3829.75 1101.26  31
  -4   0   7 3356.90 966.962  55
   4   0  -7 3915.08 1008.16  48
  -4   0   7 3311.10 1140.23  46
  -4   0   7 2801.77 928.535   8
  -4   0   6 1761.67 757.858  31
  -4   0   6 1018.45 634.006  55
  -4   0   6 1630.17 820.967  24
   4   0  -6 1982.28 716.554  48
  -4   0   6 1529.92 693.301  46
  -4   0   6 2181.31 794.400   8
  -4   0   5 161.479 396.689   8
  -4   0   5-190.236 362.000  31
  -4   0   5-171.249 325.876  55
  -4   0   5 243.332 378.065  24
   4   0  -5 165.745 364.186  48
  -4   0   5 200.562 311.623  46
  -4   0   5-135.493 257.849  14
  -4   0   4 2223.57 795.674  31
  -4   0   4 2591.46 855.549  55
  -4   0   4 469.405 467.311   8
   4   0  -4 826.365 492.250  48
  -4   0   4 1635.99 641.851  45
  -4   0   4 1699.52 601.827  14
  -4   0   3 905.200 603.437  31
  -4   0   3 1047.19 723.057  55
   4   0  -3 1313.34 604.918  48
  -4   0   3 1430.85 615.437  45
   4   0  -3 982.792 413.935  17
  -4   0   3 885.841 448.797  14
  -4   0   2 737.510 382.434  14
  -4   0   2 419.974 292.454  58
  -4   0   2 883.402 582.608  55
   4   0  -2 159.683 351.390  48
  -4   0   2 177.482 390.441  31
  -4   0   2 414.671 372.464  45
  -4   0   2-141.382 380.951   6
   4   0  -1 2510.49 637.701  17
  -4   0   1 2520.24 698.056  14
  -4   0   1 1551.75 628.969   6
  -4   0   1 2874.33 633.710  58
   4   0  -1 2732.32 953.277  50
  -4   0   1 1332.97 597.502  42
  -4   0   1 2147.93 701.494  45
  -4   0   1 3139.34 1188.06  39
  -4   0   1 2094.74 789.773  31
   4   0   0 1351.69 485.560  17
   4   0   0 1277.84 431.204  57
  -4   0   0 1467.74 483.935  58
  -4   0   0 711.554 505.156   6
  -4   0   0 1166.71 586.902   1
   4   0   0 1490.45 746.921  50
   4   0   0 1252.43 579.767  48
  -4   0   0 1070.91 540.284  42
  -4   0   0 917.441 529.401  45
  -4   0   0 1370.01 857.672  39
  -4   0   0 1549.38 663.300  31
   4   0   1 2409.76 560.383  57
  -4   0  -1 3031.06 692.762  58
  -4   0  -1 2588.49 1113.29  24
   4   0   1 2067.69 897.705  50
   4   0   1 2014.72 710.822  48
  -4   0  -1 1858.49 696.751   6
  -4   0  -1 2970.88 887.187   1
  -4   0  -1 2854.58 788.208  42
   4   0   1 2037.85 599.753  17
  -4   0  -2 784.701 655.860  59
  -4   0  -2 1220.17 614.097   1
  -4   0  -2 1469.58 570.015   6
   4   0   2 2708.86 1053.54  50
   4   0   2 1073.40 543.993  48
  -4   0  -2 1253.85 541.514  42
   4   0   2 1376.14 471.217  17
  -4   0  -3 9628.97 1810.00  59
  -4   0  -3 7441.79 1704.13  56
  -4   0  -3 7641.38 1993.46  24
  -4   0  -3 10873.6 1702.70   1
  -4   0  -3 8819.83 1559.91   6
   4   0   3 9694.84 1616.49  48
   4   0   3 7358.91 1828.20  50
  -4   0  -3 9063.76 1537.86  42
   4   0   3 9388.07 1353.28  17
  -4   0  -4 3640.27 1142.24  59
  -4   0  -4 3185.22 1116.46  56
  -4   0  -4 3138.63 1230.41  24
  -4   0  -4 4107.96 1010.56   6
  -4   0  -4 3268.85 962.030   1
   4   0   4 3354.30 1225.44  50
   4   0   4 3578.45 930.244  48
  -4   0  -4 2983.46 886.301  42
   4   0   4 3667.74 783.215  17
  -4   0  -5 1881.61 890.211  56
  -4   0  -5 2560.84 1169.59  24
  -4   0  -5 1617.04 646.475   6
  -4   0  -5 848.432 500.944   1
   4   0   5 296.242 570.468  50
   4   0   5 1457.32 605.416  48
  -4   0  -5 1084.32 595.980  42
   4   0   5 730.965 390.461  17
  -4   0  -6 645.800 615.927  24
  -4   0  -6 703.234 512.826   1
  -4   0  -6 671.765 490.046   6
   4   0   6-312.551 487.510  50
   4   0   6 286.666 317.896  48
  -4   0  -6 642.278 468.708  42
   4   0   6 750.850 393.219  17
  -4   0  -7 309.103 588.801  56
   4   0   7 1270.27 522.872  21
  -4   0  -7 320.554 610.567  24
  -4   0  -7 543.544 527.337   1
  -4   0  -7 347.103 331.395   6
   4   0   7-327.699 624.147  50
   4   0   7 270.632 298.604  48
  -4   0  -7 165.575 364.848  42
   4   0   7 661.405 364.358  17
  -4   0  -8 2193.43 939.001  59
  -4   0  -8 1943.37 1077.49  56
   4   0   8 2593.47 713.150  21
  -4   0  -8 311.256 916.497  24
  -4   0  -8 1422.67 634.986   6
  -4   0  -8 1850.61 774.714   1
   4   0   8 1366.17 851.724  50
  -4   0  -8 1862.65 711.339  42
   4   0   8 1693.38 546.262  17
   4   0   9 4339.57 938.143  21
  -4   0  -9 2054.78 1001.04  24
   4   0   9 3104.20 790.192  22
  -4   0  -9 2799.30 929.935   1
  -4   0  -9 2880.12 899.552   6
   4   0   9 2104.06 1119.58  50
  -4   0  -9 3416.38 936.020  42
  -4   0  -9 3673.84 1200.70  59
  -4   0  -9 2331.46 1127.43  56
  -4   0 -10 3383.94 1156.01  59
  -4   0 -10 3354.47 1302.61  56
  -4   0 -10 2330.78 829.426   6
  -4   0 -10 3330.39 987.996   1
   4   0  10 3691.51 871.481  21
   4   0  10 2001.61 652.770  22
  -4   0 -10 3217.89 929.204  42
   4   0  10 4081.24 755.473  26
  -4   0 -11 466.561 512.602  59
  -4   0 -11 327.868 720.401  56
  -4   0 -11 359.106 441.132   1
   4   0  11 390.399 319.762  21
  -4   0 -11-164.287 442.150  42
   4   0  11 170.444 209.495  26
  -4   0 -12 1188.49 655.864   1
   4   0  12 2013.28 643.397  21
  -4   0 -12 2172.60 770.688  42
  -4   0 -12 1315.30 769.830  59
  -4   0 -12 310.022 600.559  56
  -4   0 -13 2024.21 772.420   1
   4   0  13 2132.71 656.022  21
  -4   0 -13 2983.07 790.660  42
  -4   0 -13 2794.81 952.046  59
  -4   0 -13 1974.36 1000.38  56
  -4   0 -14 964.543 482.769   1
   4   0  14 649.680 381.349  21
  -4   0 -14 876.598 460.557  42
  -4   0 -14 525.573 434.891  59
  -4   0 -14 736.369 663.465  56
  -4   0 -15 1285.40 551.740   1
   4   0  15 1808.09 530.110  21
  -4   0 -15 739.718 411.720  42
  -4   0 -15 587.776 492.259  59
  -4   0 -16 281.359 254.264   1
   4   0  16 477.672 278.297  21
  -4   0 -16 756.885 334.542  42
  -4   0 -16 115.885 256.491  59
  -4   0 -17-221.713 272.477  56
  -4   0 -17-246.338 255.315  59
  -4   0 -17 69.0418 169.863   1
   4   0  17-122.808 178.724  21
  -4   0 -17-60.8260 177.046  42
   4   0  17 80.2558 216.169  25
  -4   1  19 63.2761 155.527   5
  -4   1  18 894.956 307.838  37
  -4   1  18 641.121 355.005   5
  -4   1  17 354.666 369.638   5
  -4   1  17 1037.64 405.114  37
   4   1 -17 212.728 333.048  59
  -4   1  16 3869.45 911.029  43
  -4   1  16 1995.82 720.804   5
  -4   1  15 1843.19 696.605  43
  -4   1  15 1798.63 735.231   5
  -4   1  14 270.024 420.193  46
  -4   1  14 279.024 343.545  12
  -4   1  14 253.149 368.672  14
  -4   1  14 315.704 347.649  43
  -4   1  13 3094.74 1188.60  46
  -4   1  13 4224.22 1085.37  43
  -4   1  13 2485.29 833.367  12
  -4   1  13 3444.45 886.367  14
  -4   1  12 1135.53 840.160  46
   4   1 -12 2948.01 787.170  47
  -4   1  12 1774.22 796.724   5
  -4   1  12 2280.82 983.244  40
  -4   1  12 2685.36 818.354  12
  -4   1  12 1160.67 551.818  14
  -4   1  11 3067.06 1207.68  46
  -4   1  11 1985.39 846.851   8
   4   1 -11 3530.35 926.910   3
  -4   1  11 4213.14 1253.73  40
  -4   1  11 3048.77 822.764  13
  -4   1  11 1788.32 673.210  14
   4   1 -10 1778.34 697.831  48
  -4   1  10 2946.14 1121.31  46
  -4   1  10 2529.89 906.839   8
  -4   1  10 3296.53 1056.39  40
  -4   1  10 2442.18 730.833  13
  -4   1  10 2855.51 819.956  14
  -4   1   9 10531.9 1494.53  58
   4   1  -9 10886.9 1778.66  48
  -4   1   9 6789.22 1552.12   8
  -4   1   9 12368.3 2143.03  40
  -4   1   9 9096.32 2009.84  46
  -4   1   9 8526.83 1576.62  14
  -4   1   8 2514.37 661.460  58
   4   1  -8 2903.99 870.466  48
  -4   1   8 2360.14 877.144   8
  -4   1   8 2584.28 1025.93  46
  -4   1   8 3247.14 858.457  14
  -4   1   7 5113.50 947.020  58
   4   1  -7 5011.70 1189.72  48
  -4   1   7 4007.48 1102.66   8
  -4   1   7 5395.84 1369.87  46
  -4   1   7 6228.55 1196.13  14
  -4   1   6 10557.9 1469.48  58
  -4   1   6 8869.03 1655.44   8
   4   1  -6 8810.08 1673.13  48
  -4   1   6 14322.5 2230.25  46
  -4   1   6 8502.57 1664.55  45
  -4   1   6 10546.0 1954.79  40
  -4   1   6 11206.9 1705.32  14
  -4   1   5 2914.17 810.505  14
  -4   1   5 1751.80 551.163  58
  -4   1   5 2554.96 1003.01  24
  -4   1   5 1129.18 637.404   8
   4   1  -5 1883.83 724.551  48
  -4   1   5 1657.12 548.904  51
  -4   1   5 2631.72 826.099  45
  -4   1   5 2449.82 1227.83  39
  -4   1   5 3250.43 925.124  31
   4   1  -4 2751.53 679.461  17
  -4   1   4 3804.76 919.424  14
  -4   1   4 2302.00 631.279  58
  -4   1   4 3641.58 1219.83  24
  -4   1   4 3129.25 912.993   8
  -4   1   4 2985.96 712.590  51
   4   1  -4 2963.56 867.413  48
  -4   1   4 2709.49 860.153  45
  -4   1   4 3394.48 1368.63  39
  -4   1   4 4294.64 1064.82  31
   4   1  -3 676.958 402.940  17
  -4   1   3 860.881 369.931  58
  -4   1   3 1003.96 732.470  24
  -4   1   3 767.727 385.785  51
   4   1  -3 809.596 507.412  48
  -4   1   3 465.074 386.473  45
  -4   1   3 1317.10 888.487  39
  -4   1   3 980.874 542.788  31
   4   1  -2 8793.53 1274.84  17
  -4   1   2 5942.79 1325.53   6
  -4   1   2 8115.74 1253.33  58
  -4   1   2 8800.56 1280.57  51
  -4   1   2 8012.29 1866.41  24
  -4   1   2 7875.33 1470.19  45
  -4   1   2 10865.5 2276.86  39
  -4   1   2 9965.17 1632.71  31
   4   1  -1 661.803 372.936  17
  -4   1   1 846.091 567.105   6
   4   1  -1 1379.03 469.472  57
  -4   1   1 2672.67 622.928  58
  -4   1   1 266.059 515.673  24
  -4   1   1 903.078 408.793  51
   4   1  -1 1156.79 642.935  50
   4   1  -1 1406.71 626.824  48
  -4   1   1 1634.57 618.631  45
  -4   1   1 830.999 536.123  42
  -4   1   1 3413.37 1323.89  39
  -4   1   1 2374.67 753.578  31
   4   1   0 16148.6 1940.07  17
  -4   1   0 13347.5 2094.54   6
  -4   1   0 17137.9 2042.77  58
   4   1   0 15112.1 1903.82  57
  -4   1   0 14776.1 1873.16  51
  -4   1   0 10970.3 2478.04  24
   4   1   0 17828.5 2299.99  48
   4   1   0 11804.2 2295.41  50
  -4   1   0 18478.0 2321.90  45
  -4   1   0 16269.3 2909.59  39
  -4   1   0 20041.6 2345.30  42
  -4   1   0 15987.2 2256.76  31
  -4   1  -1 9107.02 1616.36   6
  -4   1  -1 12602.5 1831.74   1
  -4   1  -1 11600.6 1553.19  58
   4   1   1 10229.8 1415.59  57
  -4   1  -1 9111.08 1361.96  51
  -4   1  -1 11045.2 2239.30  24
   4   1   1 9528.81 1639.52  48
   4   1   1 7509.89 1769.31  50
  -4   1  -1 10763.9 1717.96  45
  -4   1  -1 10519.0 2231.57  39
  -4   1  -1 13417.7 1857.89  42
   4   1   1 9298.93 1396.67  17
  -4   1  -2 7896.54 1473.59   1
  -4   1  -2 5980.16 1229.40   6
  -4   1  -2 5706.29 1368.86  59
  -4   1  -2 8145.61 1249.44  58
   4   1   2 7060.35 1061.74  57
  -4   1  -2 6004.51 1005.07  51
   4   1   2 3661.92 1254.47  50
   4   1   2 4317.11 1077.78  48
  -4   1  -2 8525.32 1420.45  42
  -4   1  -2 5796.45 1243.45  45
  -4   1  -2 7347.62 1780.57  39
   4   1   2 5960.04 1023.99  17
  -4   1  -3 4259.10 1230.97  59
   4   1   3 4768.19 872.117  57
  -4   1  -3 3628.72 1090.11  56
  -4   1  -3 5736.74 1060.06  58
  -4   1  -3 5143.87 1538.89  24
  -4   1  -3 4223.31 1078.10   1
  -4   1  -3 4062.30 1002.63   6
  -4   1  -3 5041.41 882.268  51
   4   1   3 3392.35 1213.77  50
   4   1   3 6144.95 1193.40  48
  -4   1  -3 5357.30 1131.75  42
  -4   1  -3 4342.10 1033.69  45
   4   1   3 4494.51 863.689  17
  -4   1  -4 4294.57 1213.37  56
   4   1   4 3533.18 747.254  57
  -4   1  -4 4276.80 1211.32  59
  -4   1  -4 2806.26 1281.07  24
  -4   1  -4 4689.50 1104.69   1
  -4   1  -4 3895.58 982.660   6
  -4   1  -4 3373.48 730.984  51
   4   1   4 3338.37 1231.60  50
   4   1   4 3865.95 952.666  48
  -4   1  -4 4921.08 1121.37  42
  -4   1  -4 4636.94 1026.36  45
   4   1   4 4885.34 900.899  17
  -4   1  -5 6198.74 1567.77  56
  -4   1  -5 5769.36 1457.62  59
   4   1   5 6298.18 1032.47  57
  -4   1  -5 8304.00 1999.84  24
  -4   1  -5 5882.17 1259.89   6
  -4   1  -5 8032.57 1471.42   1
  -4   1  -5 5469.35 994.076  51
   4   1   5 7984.79 1919.30  50
   4   1   5 5554.32 1173.32  48
  -4   1  -5 8432.52 1473.02  42
  -4   1  -5 7104.32 1314.12  45
   4   1   5 6948.85 1118.69  17
  -4   1  -5 5294.05 2249.07  10
  -4   1  -6 2006.66 995.887  59
  -4   1  -6 2139.22 1033.15  56
  -4   1  -6 971.562 733.617  24
  -4   1  -6 2938.52 888.322   1
  -4   1  -6 2469.37 787.793   6
  -4   1  -6 2062.47 554.683  51
   4   1   6 1878.60 989.114  50
   4   1   6 2580.23 737.426  48
  -4   1  -6 3121.91 920.024  42
  -4   1  -6 1156.51 578.410  45
   4   1   6 2832.87 695.414  17
  -4   1  -7 15051.9 2635.89  56
  -4   1  -7 12225.7 2234.22  59
   4   1   7 15247.3 1879.50  21
  -4   1  -7 7116.40 2072.10  24
  -4   1  -7 11013.1 1917.28   1
  -4   1  -7 9331.79 1778.88   6
   4   1   7 9225.35 2309.47  50
  -4   1  -7 13453.5 1931.24  45
  -4   1  -7 16714.2 2181.71  42
   4   1   7 10771.3 1605.81  17
  -4   1  -8 707.625 686.014  59
  -4   1  -8 1484.29 863.166  56
   4   1   8 379.075 368.092  21
  -4   1  -8-180.963 398.363   1
  -4   1  -8 520.314 426.757   6
   4   1   8 343.642 534.450  50
  -4   1  -8 515.935 423.177  42
  -4   1  -8 700.273 435.876  45
   4   1   8 880.942 401.974  17
  -4   1  -9 9502.88 1919.62  59
  -4   1  -9 9444.79 2135.48  56
   4   1   9 10351.0 1472.92  21
   4   1   9 6525.86 1228.11  22
  -4   1  -9 7357.62 1480.95   6
  -4   1  -9 9102.38 1617.17   1
   4   1   9 5663.72 1895.01  50
  -4   1  -9 7611.69 1502.47  42
  -4   1  -9 5926.48 1228.91  45
   4   1   9 7284.98 1177.40  18
  -4   1 -10 3061.28 954.769   1
  -4   1 -10 4179.47 1056.91   6
  -4   1 -10 5506.17 1581.25  56
  -4   1 -10 3522.18 1235.41  59
  -4   1 -10 3938.17 1091.03  42
   4   1  10 5999.99 1109.18  21
  -4   1 -11 2440.94 887.779   1
  -4   1 -11 3888.28 1334.84  56
  -4   1 -11 2652.32 847.167  42
   4   1  11 2634.31 765.617  21
  -4   1 -12 2795.85 870.898   1
  -4   1 -12 2550.23 1111.65  56
  -4   1 -12 2970.79 883.787  42
   4   1  12 4101.77 890.572  21
  -4   1 -13 2857.36 884.283   1
  -4   1 -13 2850.91 1098.72  56
  -4   1 -13 3857.80 953.931  42
   4   1  13 3047.23 751.144  21
  -4   1 -14 2651.04 786.994   1
  -4   1 -14 2562.76 898.789  59
  -4   1 -14 2039.50 900.962  56
  -4   1 -14 3527.46 859.321  42
   4   1  14 4399.65 858.870  21
  -4   1 -15 670.156 430.806   1
  -4   1 -15 862.214 504.124  59
  -4   1 -15 850.228 410.492  42
   4   1  15 889.773 385.025  21
  -4   1 -16 6730.05 1119.01   1
  -4   1 -16 5016.66 1111.26  59
  -4   1 -16 8116.51 1149.34  42
   4   1  16 8713.73 1110.26  21
  -4   1 -17 1328.78 383.902   1
  -4   1 -17 738.646 359.432  59
  -4   1 -17 539.083 251.547  58
  -4   1 -17 925.246 416.016  56
   4   1  17 1967.35 415.990  21
  -4   1 -17 1343.59 388.970  42
  -4   2  19 107.912 157.093   5
  -4   2  18 722.289 290.235  37
   4   2 -18 229.110 239.736  59
  -4   2  18 328.344 287.195   5
  -4   2  17 1204.55 432.166  37
   4   2 -17 868.803 470.732  59
  -4   2  16 123.091 271.136  43
  -4   2  16 328.653 269.800  37
  -4   2  15 1155.10 531.528  43
  -4   2  15 613.229 537.968   5
  -4   2  14 809.088 625.868  43
  -4   2  14 2041.03 755.712   5
  -4   2  13 1224.47 698.011  43
  -4   2  13 727.136 605.054   5
   4   2 -13 1055.06 530.405   3
  -4   2  12 752.883 585.381   5
   4   2 -12 168.402 370.862   3
  -4   2  12 223.463 275.627  58
  -4   2  12 550.828 451.734  43
  -4   2  12 247.982 273.595  14
   4   2 -11 958.038 482.698  47
  -4   2  11 1287.22 488.164  58
  -4   2  11 378.940 472.822   5
   4   2 -11 1456.67 668.633   3
  -4   2  11 1050.71 485.731  14
   4   2 -10 1073.32 561.875  48
  -4   2  10 977.967 663.013  46
  -4   2  10 837.156 462.475  58
  -4   2  10 951.760 502.160  14
  -4   2  10 1522.20 728.737   8
  -4   2  10 745.497 508.203   5
  -4   2   9 2050.92 832.540   8
  -4   2   9 1079.42 611.084   5
  -4   2   9 1918.18 607.286  58
   4   2  -9 1455.08 679.011  48
  -4   2   9 1617.48 775.763  46
  -4   2   9 2609.02 1019.92  40
  -4   2   9 2078.11 679.698  14
  -4   2   8 5070.48 1206.87   8
  -4   2   8 3250.03 979.006   5
  -4   2   8 4753.53 972.684  58
  -4   2   8 5155.45 1313.74  46
   4   2  -8 3152.48 970.048  48
  -4   2   8 3924.46 1235.27  40
  -4   2   8 3212.69 864.145  14
  -4   2   7 3777.80 956.835  14
  -4   2   7 2976.69 943.008   8
  -4   2   7 6198.60 1088.68  58
  -4   2   7 3935.62 1131.60  46
   4   2  -7 4650.30 1150.30  48
  -4   2   7 4889.58 1289.25  40
   4   2  -7 2544.91 898.335  29
  -4   2   6 419.007 344.186  14
  -4   2   6 338.167 455.814   8
  -4   2   6 459.291 310.196  58
  -4   2   6 122.010 269.474  51
   4   2  -6 184.449 406.183  48
  -4   2   6 636.927 467.273  40
  -4   2   6 174.747 333.633  45
   4   2  -6 539.568 442.658  29
  -4   2   5 3202.66 838.087  14
   4   2  -5 3719.49 761.144  17
  -4   2   5 2944.76 901.936   8
  -4   2   5 3500.47 818.972  58
  -4   2   5 2717.27 758.900  51
   4   2  -5 3188.79 930.572  48
  -4   2   5 4435.41 1160.16  40
  -4   2   5 2221.65 818.400  45
  -4   2   5 2532.22 1221.44  39
   4   2  -5 2823.12 984.027  29
  -4   2   4 159.002 390.621   8
  -4   2   4 114.504 177.986  51
   4   2  -4 173.525 381.295  48
  -4   2   4 111.575 245.210  58
  -4   2   4-190.682 362.864  40
  -4   2   4 167.422 367.888  45
  -4   2   4 711.975 782.160  39
   4   2  -4 95.9549 210.902  17
  -4   2   3 777.660 514.074   8
   4   2  -3 454.593 308.316  57
  -4   2   3 333.257 275.674  58
  -4   2   3 332.654 300.941  51
  -4   2   3 179.829 282.115  40
  -4   2   3 1315.76 600.523  45
  -4   2   3 1750.48 1018.30  39
   4   2  -3 660.892 330.317  17
  -4   2   2 256.422 706.706  24
   4   2  -2 2862.55 679.841  57
  -4   2   2 2452.34 676.898  58
  -4   2   2 2056.25 590.276  51
  -4   2   2 1522.79 661.750  40
  -4   2   2 2593.07 790.940  45
  -4   2   2 688.452 859.251  39
   4   2  -2 1580.00 542.555  17
  -4   2   1 5583.21 1213.39   6
  -4   2   1 6883.79 1751.11  24
  -4   2   1 8808.28 1303.17  58
   4   2  -1 8249.19 1245.20  57
  -4   2   1 6269.17 1133.96  51
   4   2  -1 5670.73 1275.35  48
  -4   2   1 5716.83 1267.71  40
  -4   2   1 7542.71 1470.39  45
  -4   2   1 9135.68 2154.62  39
   4   2  -1 8037.08 1165.48  17
  -4   2   0 143.566 318.923   6
   4   2   0 419.119 308.158  57
  -4   2   0 461.280 361.398  58
  -4   2   0 273.202 672.750  24
  -4   2   0 724.605 344.381  51
   4   2   0 226.285 354.690  50
   4   2   0 1110.21 579.776  48
  -4   2   0 1030.15 538.249  42
  -4   2   0 1188.12 567.127  40
  -4   2   0 957.719 556.500  45
  -4   2   0 996.992 895.501  39
   4   2   0 646.526 368.846  17
  -4   2   0 472.863 1039.99  10
  -4   2  -1 7113.91 1348.49   6
  -4   2  -1 6876.06 1361.30   1
  -4   2  -1 8650.94 1341.87  58
   4   2   1 6505.78 1121.07  57
  -4   2  -1 6604.33 1143.20  51
  -4   2  -1 5924.00 1656.49  24
   4   2   1 7299.30 1664.97  50
   4   2   1 5905.11 1286.27  48
  -4   2  -1 6545.74 1316.03  42
  -4   2  -1 6058.13 1301.03  45
  -4   2  -1 10753.3 2254.85  39
   4   2   1 6889.91 1110.10  17
   4   2   2 4912.47 946.743  57
  -4   2  -2 5260.71 1041.35  58
  -4   2  -2 3603.57 1059.55  59
  -4   2  -2 2914.50 1223.04  24
  -4   2  -2 3940.13 864.316  51
   4   2   2 4927.96 1396.14  50
   4   2   2 3653.32 986.979  48
  -4   2  -2 6267.70 1223.30   6
  -4   2  -2 4866.89 1191.37   1
  -4   2  -2 5588.32 1219.06  45
  -4   2  -2 6962.29 1286.88  42
  -4   2  -2 5096.53 1577.87  39
  -4   2  -2 6364.18 2188.79  10
   4   2   2 4896.99 897.410  17
  -4   2  -3 2539.16 894.734  59
   4   2   3 3480.97 743.160  57
  -4   2  -3 1561.12 742.832  56
  -4   2  -3 3797.25 850.297  58
  -4   2  -3 2379.33 638.681  51
   4   2   3 1101.38 771.534  50
   4   2   3 2230.88 761.691  48
  -4   2  -3 2488.92 812.126   1
  -4   2  -3 2089.79 709.522   6
  -4   2  -3 3098.29 1245.91  39
  -4   2  -3 4022.70 970.486  42
  -4   2  -3 2566.31 854.005  45
  -4   2  -3 1981.14 1455.53  10
   4   2   3 2773.70 657.793  17
  -4   2  -4 2489.36 908.034  59
   4   2   4 1648.53 533.129  57
  -4   2  -4 1940.19 837.266  56
  -4   2  -4 2618.51 724.206  58
  -4   2  -4 1998.97 590.417  51
   4   2   4 2332.60 1075.44  50
   4   2   4 1154.73 528.612  48
  -4   2  -4 1276.11 629.670   1
  -4   2  -4 2147.19 734.146   6
  -4   2  -4 1495.32 944.185  39
  -4   2  -4 3966.26 969.152  42
  -4   2  -4 2902.20 847.464  45
  -4   2  -4 997.224 1108.20  10
   4   2   4 2342.68 591.573  17
  -4   2  -5 3826.03 1109.07  59
   4   2   5 2490.18 686.528  57
  -4   2  -5 2336.77 955.114  56
  -4   2  -5 4051.98 908.911  58
  -4   2  -5 2290.78 818.219   1
  -4   2  -5 2207.91 771.916   6
  -4   2  -5 2789.17 697.212  51
   4   2   5 3079.45 1242.30  50
   4   2   5 3592.49 890.424  48
  -4   2  -5 4565.90 1421.66  39
  -4   2  -5 2277.04 773.494  42
  -4   2  -5 4046.00 986.018  45
  -4   2  -5 498.787 977.903  10
   4   2   5 2696.21 681.717  17
  -4   2  -6 1472.05 737.264  59
   4   2   6 1569.02 497.540  57
  -4   2  -6 1994.02 953.715  56
   4   2   6 1294.66 510.519  21
  -4   2  -6 971.002 512.564   6
  -4   2  -6 2511.34 807.829   1
  -4   2  -6 1093.22 444.262  51
   4   2   6 971.848 801.936  50
  -4   2  -6 166.315 420.448  42
  -4   2  -6 1294.21 623.601  45
  -4   2  -6 494.823 1219.55  10
   4   2   6 1533.75 499.598  17
  -4   2  -7 1521.98 728.132  59
  -4   2  -7 1309.43 716.470  56
   4   2   7 1148.84 462.789  57
   4   2   7 1437.33 573.033  21
  -4   2  -7 3575.27 919.451   6
  -4   2  -7 2043.86 759.514   1
  -4   2  -7 1553.21 518.880  51
   4   2   7 338.675 657.254  50
  -4   2  -7 2705.60 819.988  42
  -4   2  -7 970.941 1199.51  10
   4   2   7 2008.28 594.801  18
   4   2   7 1252.87 476.652  17
  -4   2  -8 7321.08 1700.28  59
  -4   2  -8 6500.39 1721.54  56
   4   2   8 7914.82 1221.84  57
   4   2   8 8605.67 1360.19  21
   4   2   8 8370.95 1302.90  22
  -4   2  -8 9538.08 1596.97   6
  -4   2  -8 6694.47 1450.21   1
  -4   2  -8 4629.19 1055.78  51
   4   2   8 6665.22 1952.45  50
  -4   2  -8 10902.8 1708.20  42
   4   2   8 8088.79 1248.31  18
  -4   2  -8 5630.81 2216.64  10
  -4   2  -9 2671.57 1043.37  59
  -4   2  -9 1100.53 843.350  56
   4   2   9 4249.31 914.700  21
   4   2   9 5080.86 944.698  22
  -4   2  -9 4096.53 1044.70   1
  -4   2  -9 5094.66 1101.17   6
  -4   2  -9 2958.59 741.589  51
   4   2   9 1075.96 920.841  50
  -4   2  -9 4573.50 1102.02  42
  -4   2  -9 1333.33 1124.13  10
   4   2   9 3279.36 746.960  18
   4   2  10 479.618 395.177  21
  -4   2 -10 218.927 416.576  59
  -4   2 -10-273.599 520.599  56
  -4   2 -10 166.732 409.579   1
  -4   2 -10-165.535 314.989  42
  -4   2 -10 409.341 635.953  10
  -4   2 -11 477.695 430.474   1
   4   2  11 464.699 385.109  21
  -4   2 -11 316.556 391.002  42
  -4   2 -11 630.463 517.891  59
  -4   2 -11 795.718 652.858  56
  -4   2 -12 147.906 324.973   1
   4   2  12 109.741 208.823  21
  -4   2 -12 147.368 323.790  42
  -4   2 -12-196.135 373.202  59
  -4   2 -12-249.478 387.592  56
  -4   2 -13 531.276 413.184   1
   4   2  13 402.619 313.402  21
  -4   2 -13 930.337 506.171  42
  -4   2 -13 193.735 238.804  45
  -4   2 -13 708.746 477.215  59
  -4   2 -13-226.426 431.304  56
  -4   2 -14 3773.38 843.922   1
   4   2  14 3992.32 760.398  21
  -4   2 -14 2883.00 760.816  42
  -4   2 -14 2773.21 850.957  59
  -4   2 -14 2167.96 608.722  58
  -4   2 -15 3160.80 726.907   1
   4   2  15 4080.59 708.008  21
  -4   2 -15 3046.82 704.386  42
  -4   2 -15 2171.63 722.791  59
  -4   2 -15 2941.30 621.480  58
  -4   2 -16 219.023 213.197  42
  -4   2 -16 197.881 288.309  59
  -4   2 -16 373.851 362.785  56
  -4   2 -17 432.196 199.319  42
  -4   2 -17 201.414 210.436  59
  -4   3  18 797.932 263.034  37
  -4   3  18 478.991 252.434   5
   4   3 -18 725.685 304.046  59
  -4   3  17 679.345 335.756  37
  -4   3  17 510.554 300.163   5
   4   3 -17 681.836 389.314  59
  -4   3  16 492.980 324.938  37
  -4   3  16-113.357 215.690  43
  -4   3  16-107.894 205.295   5
  -4   3  15-135.780 258.610  43
  -4   3  15 127.860 281.155   5
   4   3 -15 729.667 379.962   3
  -4   3  15 119.617 322.080  37
   4   3 -14 1701.23 495.001  57
   4   3 -14 1214.41 546.322   3
  -4   3  14 1009.53 560.383   5
  -4   3  14 1242.03 625.277  43
   4   3 -13 1222.61 457.209  57
   4   3 -13 639.744 474.018   3
  -4   3  13 1719.82 649.308   5
  -4   3  13 1027.02 601.824  43
  -4   3  12 1277.57 529.584  58
   4   3 -12 1263.24 629.872   3
  -4   3  12 654.232 542.469   5
  -4   3  12 183.118 406.925  43
   4   3 -11 7474.93 1579.95   3
  -4   3  11 5479.77 1326.36   5
  -4   3  11 9385.61 1399.76  58
   4   3 -10 2091.25 825.726   3
  -4   3  10 1971.83 817.071   5
  -4   3  10 3850.34 885.446  58
   4   3  -9 789.184 531.673  48
  -4   3   9 392.645 381.484  58
   4   3  -9 166.469 260.207  29
  -4   3   9 318.219 350.752   5
  -4   3   9 522.847 542.281   8
  -4   3   8 605.070 408.896   5
  -4   3   8 344.377 464.967   8
  -4   3   8 791.318 436.386  58
   4   3  -8 401.959 443.280  48
   4   3  -8 908.629 600.164  29
   4   3  -8 285.867 237.279  17
   4   3  -7 658.981 348.122  17
  -4   3   7 566.649 470.646   5
  -4   3   7 674.879 559.216   8
   4   3  -7 747.604 477.886  57
  -4   3   7 922.037 504.777  58
   4   3  -7 805.397 588.237  48
  -4   3   7 1071.54 668.543  40
  -4   3   7 730.931 805.165  39
   4   3  -7 387.867 480.086  29
   4   3  -6 556.247 306.901  17
  -4   3   6 261.494 353.015   5
  -4   3   6 164.639 362.886   8
  -4   3   6 392.599 353.335  58
  -4   3   6 800.996 440.918  51
   4   3  -6 194.484 371.183  48
  -4   3   6 203.642 388.559  40
  -4   3   6 368.191 701.171  39
   4   3  -6 203.414 317.345  29
   4   3  -5 8758.65 1247.91  17
  -4   3   5 8823.59 1462.46  58
  -4   3   5 7862.09 1480.58   8
  -4   3   5 7343.33 1349.77  51
   4   3  -5 6496.01 1488.08  48
  -4   3   5 8251.41 1635.30  40
   4   3  -5 6944.98 1609.44  29
   4   3  -4 10475.0 1472.94  17
  -4   3   4 12355.0 1724.17  58
   4   3  -4 11074.1 1618.64  57
  -4   3   4 10945.1 1665.81  51
   4   3  -4 11396.7 1939.22  48
   4   3  -4 8607.58 1895.32  29
  -4   3   4 9293.15 1765.58  45
  -4   3   4 11800.4 2600.37  39
  -4   3   4 12393.2 2001.86  40
  -4   3   4 10494.2 1753.42   8
   4   3  -3-176.973 217.392  17
  -4   3   3-153.479 337.229   8
   4   3  -3 118.785 226.046  57
  -4   3   3 255.967 281.216  58
  -4   3   3 126.173 196.055  51
  -4   3   3 835.652 485.776  40
  -4   3   3 174.120 427.728  45
   4   3  -3-218.022 479.029  29
  -4   3   2 6258.58 1189.06  58
   4   3  -2 7521.25 1215.75  57
  -4   3   2 6468.98 1219.83  51
   4   3  -2 6044.46 1355.36  48
  -4   3   2 7105.61 1341.96   8
  -4   3   2 5101.01 1186.21  40
  -4   3   2 9004.19 1552.43  45
  -4   3   2 8049.18 2085.66  39
   4   3  -2 5883.17 1022.96  17
   4   3  -1 3497.75 777.352  57
  -4   3   1 2559.59 763.907  58
  -4   3   1 3282.37 964.636  45
  -4   3   1 2180.99 1210.46  39
  -4   3   1 1405.37 1272.45  10
   4   3  -1 2106.04 564.078  17
  -4   3   1 532.723 469.440   9
  -4   3   1 4063.34 862.368  51
   4   3  -1 2081.41 758.098  48
   4   3   0-116.067 255.238  57
  -4   3   0 514.492 399.798  58
  -4   3   0 241.198 296.439  51
   4   3   0 508.002 416.097  48
  -4   3   0 360.371 685.776  39
  -4   3   0 345.630 379.844  45
  -4   3   0 482.804 530.492  10
   4   3   0-87.9310 348.451  17
  -4   3   0 359.216 394.764   9
   4   3   1 1736.06 607.581  57
  -4   3  -1 2724.93 746.983  58
  -4   3  -1 2549.97 765.982   6
  -4   3  -1 2650.54 721.222  51
   4   3   1 2314.14 768.264  48
  -4   3  -1 1399.51 683.668  42
  -4   3  -1 2772.39 889.144  45
  -4   3  -1 989.578 1342.52  10
   4   3   1 1505.26 497.292  17
   4   3   2 3489.64 734.922  17
   4   3   2 4061.42 876.642  57
  -4   3  -2 2736.58 899.445  56
   4   3   2 3190.32 702.519  20
  -4   3  -2 4472.59 918.836  51
   4   3   2 3963.56 1315.43  50
   4   3   2 3059.74 897.674  48
  -4   3  -2 1513.96 840.804  36
  -4   3  -2 6423.58 1251.85  42
  -4   3  -2 3999.18 1052.42  45
  -4   3  -2 3287.94 908.766   6
   4   3   3 4540.91 853.624  17
  -4   3  -3 4198.72 1005.72   6
  -4   3  -3 5813.78 1199.43   1
  -4   3  -3 3248.71 1005.53  59
   4   3   3 5715.62 1042.74  57
  -4   3  -3 5392.58 1300.70  56
  -4   3  -3 4919.48 983.848  51
   4   3   3 3573.34 1284.33  50
   4   3   3 3432.83 971.959  48
  -4   3  -3 5224.37 1204.98  42
  -4   3  -3 5240.18 1215.27  45
  -4   3  -3 4232.72 1225.84  36
   4   3   4 2951.72 670.706  18
  -4   3  -4 1026.03 1149.01  10
   4   3   4 3048.39 664.150  17
  -4   3  -4 1205.53 742.206  59
  -4   3  -4 2793.68 1026.13  56
   4   3   4 3043.72 749.981  57
  -4   3  -4 2026.86 710.686   6
  -4   3  -4 3770.76 949.140   1
  -4   3  -4 2298.72 688.275  51
   4   3   4 2805.37 1157.40  50
   4   3   4 4484.05 1010.13  48
  -4   3  -4 4802.40 1092.70  42
  -4   3  -4 1752.51 754.106  45
  -4   3  -4 2053.88 901.885  36
   4   3   5 4324.97 929.701  18
   4   3   5 6676.94 1034.81  17
  -4   3  -5 3067.19 1917.13  10
  -4   3  -5 5256.37 1293.56  59
  -4   3  -5 3870.97 1207.38  56
   4   3   5 5643.97 1060.19  57
  -4   3  -5 5519.16 1140.07  58
   4   3   5 6147.04 1070.84  21
  -4   3  -5 5791.88 1199.96   1
  -4   3  -5 5429.16 1139.14   6
  -4   3  -5 5974.64 1108.61  51
   4   3   5 3899.22 1410.74  50
  -4   3  -5 7272.24 1334.99  42
  -4   3  -5 5607.95 1256.06  45
  -4   3  -5 3546.85 1153.65  36
  -4   3  -6 2520.03 1568.16  10
   4   3   6 1241.40 427.489  17
  -4   3  -6 944.354 661.186  59
   4   3   6 2232.24 637.538  57
  -4   3  -6 1211.52 539.407  58
  -4   3  -6 237.852 459.884  56
   4   3   6 1200.45 471.450  21
  -4   3  -6 766.486 511.774   1
  -4   3  -6 1333.51 545.988   6
  -4   3  -6 857.514 453.745  51
   4   3   6 1347.93 831.791  50
  -4   3  -6 975.124 570.461  42
  -4   3  -6 522.660 512.914  45
  -4   3  -6 186.036 507.221  36
   4   3   7 1216.31 495.638  18
  -4   3  -7 490.355 938.136  10
  -4   3  -7 194.300 531.915  59
   4   3   7 1739.93 549.409  57
  -4   3  -7 1734.80 629.610  58
  -4   3  -7 979.693 666.284  56
   4   3   7 1756.59 561.282  21
   4   3   7 731.142 375.809  22
  -4   3  -7 2141.73 757.915   1
  -4   3  -7 1337.28 573.849   6
  -4   3  -7 1834.81 593.845  51
   4   3   7 346.938 547.806  50
  -4   3  -7 2432.65 782.718  42
  -4   3  -7 1030.09 604.380  36
   4   3   8 328.098 339.828  21
  -4   3  -8 196.731 374.337  59
   4   3   8 451.682 350.873  57
  -4   3  -8-261.425 321.097  58
  -4   3  -8 248.333 472.520  56
  -4   3  -8 150.895 370.673   1
  -4   3  -8 320.193 497.454  42
  -4   3  -8-469.109 515.346  10
   4   3   9 2364.04 640.052  21
  -4   3  -9 2344.81 834.700  59
   4   3   9 1072.35 431.237  57
  -4   3  -9 1512.25 592.061  58
  -4   3  -9 247.376 281.794  56
  -4   3  -9 1611.19 686.725   1
  -4   3  -9 155.745 597.354  42
  -4   3  -9 878.425 1278.74  10
   4   3  10 620.902 360.126  21
  -4   3 -10 189.707 361.593  59
   4   3  10 98.6821 188.975  57
  -4   3 -10 357.120 293.191  58
  -4   3 -10 482.710 649.807  56
  -4   3 -10 278.439 342.647   1
  -4   3 -10 148.672 327.343  42
  -4   3 -10 399.832 439.752  10
   4   3  11 8949.97 1214.82  21
  -4   3 -11 4303.95 1177.34  59
  -4   3 -11 7669.34 1195.56  58
   4   3  11 7625.26 1106.19  57
  -4   3 -11 4365.21 1398.44  56
  -4   3 -11 8454.63 1411.30  42
  -4   3 -11 7727.99 1296.46   1
  -4   3 -12 2629.18 893.271  59
  -4   3 -12 4247.59 1236.48  56
  -4   3 -12 4193.96 822.282  58
  -4   3 -12 4266.28 964.710  42
  -4   3 -12 4665.36 988.479  45
  -4   3 -13-145.092 356.473  59
  -4   3 -13-189.510 360.652  56
  -4   3 -13 83.0292 204.068  58
  -4   3 -13-109.478 240.630  42
  -4   3 -13-100.002 219.818  45
  -4   3 -14 1955.92 656.902  59
  -4   3 -14 2816.84 650.666  42
  -4   3 -14 1932.66 515.320  45
  -4   3 -15-96.2170 211.399  59
  -4   3 -15 50.0845 134.773  45
   4   3  16 54.2114 119.315  11
  -4   3 -16 187.556 230.466  56
  -4   4  17 160.204 195.203  37
   4   4 -17 215.204 223.446  59
  -4   4  16 304.164 238.641  37
   4   4 -16 602.901 367.642  59
  -4   4  15 352.556 290.475   5
   4   4 -15-94.7697 208.218   3
  -4   4  14-103.405 254.051   5
   4   4 -14 380.415 341.250   3
  -4   4  13 1965.03 733.473  43
  -4   4  13 2050.33 624.996  37
   4   4 -13 2772.77 837.475   3
  -4   4  13 691.187 397.775   5
   4   4 -12 2976.38 668.134  57
  -4   4  12 3646.06 1048.18  43
  -4   4  12 3341.23 865.699  37
   4   4 -12 2304.72 889.837   3
  -4   4  12 3569.38 875.130   5
  -4   4  11-176.693 336.900  43
   4   4 -11 472.711 329.147  57
  -4   4  11 487.596 354.961  58
   4   4 -11 589.230 528.960   3
  -4   4  11 127.089 312.938   5
  -4   4  10 2023.61 806.296  43
   4   4 -10 2550.65 653.380  57
  -4   4  10 2727.03 752.727  58
   4   4 -10 2323.09 889.400   3
  -4   4  10 1783.79 640.095   5
   4   4  -9 2155.14 601.351  57
  -4   4   9 2985.29 795.919  58
  -4   4   9 938.703 592.946  43
   4   4  -9 1967.72 793.204  29
   4   4  -9 221.877 435.351   3
   4   4  -8 896.274 457.816  57
  -4   4   8 2091.91 677.228  58
   4   4  -8 2286.43 912.597   3
  -4   4   8 1334.89 905.036  39
   4   4  -8 980.650 656.108  29
   4   4  -7 115.171 179.017  57
  -4   4   7 425.350 381.563  58
  -4   4   7 174.911 271.797  45
  -4   4   7-347.557 763.636  39
   4   4  -7 209.490 325.509  29
   4   4  -7-207.842 395.509  48
   4   4  -6 1879.51 640.573  57
  -4   4   6 1714.17 629.840  58
  -4   4   6 2129.71 797.184  45
  -4   4   6 2864.01 1254.60  39
   4   4  -6 2192.89 884.161  29
  -4   4   6 1561.05 626.009  51
   4   4  -6 2276.51 866.576  48
   4   4  -5 1907.13 610.634  57
  -4   4   5 2144.80 688.536  58
  -4   4   5 3224.60 939.155  45
  -4   4   5 3657.72 1459.08  39
   4   4  -5 1806.00 803.111  29
  -4   4   5 2128.13 683.523  51
   4   4  -5 1225.60 657.870  48
   4   4  -4 482.276 399.184  57
  -4   4   4 1425.10 587.017  58
  -4   4   4 424.386 412.927  51
  -4   4   4 180.349 345.276  45
   4   4  -4 229.374 564.734  29
  -4   4   3 10668.5 1595.03  51
   4   4  -3 10002.2 1786.41  48
  -4   4   3 15015.2 1825.42  58
  -4   4   3 12507.2 1916.02  45
   4   4  -3 11998.5 2101.99  29
  -4   4   2 2655.18 792.895  51
   4   4  -2 1149.14 643.683  48
   4   4  -2 2762.83 1019.54  29
  -4   4   2 3399.39 1442.90  39
   4   4  -2 2206.91 487.821  18
  -4   4   2 355.857 410.786   9
  -4   4   2 2641.18 1456.21  10
  -4   4   1 2309.20 1439.42  10
   4   4  -1 2285.51 509.914  18
  -4   4   1 181.340 362.920   9
   4   4  -1 1732.45 587.619  57
  -4   4   1 2087.73 675.896  51
   4   4  -1 1494.70 689.971  48
  -4   4   1 2649.98 1252.69  39
   4   4  -1 1827.30 876.469  29
  -4   4   0 409.975 368.113  51
   4   4   0 546.100 447.465  48
   4   4   0 624.356 434.115  57
  -4   4   0 183.256 349.092   9
   4   4   0 335.304 226.188  18
  -4   4   0-479.822 745.631  10
   4   4   0-108.651 207.414  20
   4   4   1 1153.97 405.669  18
  -4   4  -1 494.043 554.056  10
   4   4   1 1802.82 532.787  20
   4   4   1 1259.66 547.409  57
  -4   4  -1 2051.05 664.176  58
  -4   4  -1 1226.84 530.584  51
   4   4   1 2299.47 785.204  48
  -4   4  -1 735.861 582.374  45
  -4   4  -1 1851.15 957.626  36
   4   4   2 1029.54 401.725  18
  -4   4  -2 2521.11 1665.76  10
  -4   4  -2 1099.34 614.819   9
   4   4   2 1777.01 618.706  57
  -4   4  -2 1959.86 754.738  56
  -4   4  -2 2161.21 673.614  58
   4   4   2 1750.14 542.926  20
  -4   4  -2 1768.09 608.732  51
   4   4   2 1880.17 712.024  48
  -4   4  -2 1289.24 650.190  45
  -4   4  -2 228.354 449.632  36
   4   4   2 1964.22 904.506  29
   4   4   3 9625.34 1358.87  18
  -4   4  -3 5609.06 2298.77  10
  -4   4  -3 2719.72 1153.85   9
  -4   4  -3 6236.34 1550.11  56
  -4   4  -3 13453.5 1725.04  58
   4   4   3 13745.5 1698.32  57
  -4   4  -3 11933.3 1672.35  51
   4   4   3 13359.4 1533.06  20
   4   4   3 7679.76 1522.33  48
  -4   4  -3 11596.2 1865.63  45
  -4   4  -3 13849.6 1879.16  42
  -4   4  -3 8944.15 1927.48  36
   4   4   3 8331.11 1763.74  29
   4   4   4 8299.14 1238.47  18
  -4   4  -4 2491.88 1033.88   9
  -4   4  -4 8365.54 1414.51  51
  -4   4  -4 12823.0 1640.65  58
  -4   4  -4 5863.45 1534.28  56
   4   4   4 10445.2 1476.91  57
  -4   4  -4 10993.3 1792.85  45
  -4   4  -4 11339.8 1660.24  42
  -4   4  -4 7803.57 1756.15  36
   4   4   4 9156.54 1785.75  29
   4   4   5 848.439 374.085  18
  -4   4  -5 505.356 787.783  10
  -4   4  -5 791.284 439.439  51
  -4   4  -5 2208.73 708.067  42
  -4   4  -5 906.504 530.920  45
  -4   4  -5 207.408 513.591  36
   4   4   5 402.522 498.616  29
  -4   4  -5 447.433 553.354  56
   4   4   5 1519.35 560.125  57
  -4   4  -5 511.214 377.074  58
  -4   4  -6 2961.61 1873.47  10
  -4   4  -6 7789.42 1362.91  42
  -4   4  -6 6939.01 1425.80  45
  -4   4  -6 3901.26 1212.20  36
   4   4   6 5388.50 1356.42  29
  -4   4  -6 8049.54 1275.39  58
  -4   4  -6 3864.88 1307.74  56
   4   4   6 9202.29 1343.83  57
  -4   4  -7 1897.97 1281.96  10
  -4   4  -7 978.827 544.382  42
  -4   4  -7 1036.14 610.802  45
  -4   4  -7 896.278 719.236  36
   4   4   7 1627.11 725.238  29
   4   4   7 1689.24 589.080  57
  -4   4  -7 1899.27 608.514  58
  -4   4  -7 1138.94 671.951  56
  -4   4  -8 894.793 997.957  10
  -4   4  -8 2138.23 724.846  42
  -4   4  -8 3469.81 958.771  45
  -4   4  -8 797.530 580.278  36
   4   4   8 3302.93 940.979  29
   4   4   8 2527.89 666.299  57
  -4   4  -8 1573.04 799.442  56
  -4   4  -8 2579.57 696.484  58
   4   4   9 746.345 410.858  57
  -4   4  -9 871.222 636.338  56
  -4   4  -9 623.869 384.315  58
  -4   4  -9 411.937 786.469  10
  -4   4  -9 1253.62 519.323  42
  -4   4  -9 621.022 455.853  45
  -4   4 -10 4888.15 902.257  58
  -4   4 -10 4135.69 1184.07  56
   4   4  10 6140.86 981.593  57
  -4   4 -10 1840.36 1341.09  10
  -4   4 -10 5509.58 1026.62  42
  -4   4 -10 4135.90 1011.28  45
   4   4  11 2232.08 550.272  57
  -4   4 -11 1888.03 508.142  58
  -4   4 -11 766.157 576.456  56
  -4   4 -11 1263.88 863.298  10
  -4   4 -11 2419.16 687.281  45
   4   4  12 2927.61 553.351  57
  -4   4 -12 1893.42 751.475  56
  -4   4 -12 766.416 649.766  10
  -4   4 -12 1861.68 601.041  45
  -4   4 -13 2676.95 818.785  56
  -4   4 -13 3571.47 688.870  45
  -4   4 -14 485.371 377.340  56
   4   4  14 102.653 126.999  11
  -4   4 -14 397.827 282.515  45
  -4   5  15 359.689 220.848  37
   4   5 -15 416.460 276.437  59
  -4   5  14-153.102 188.188  37
   4   5 -14 99.8142 245.299   3
  -4   5  13 180.361 298.033  37
   4   5 -13 384.729 373.399   3
  -4   5  12-302.761 248.206  37
  -4   5  12-124.719 362.700  43
   4   5 -12 610.576 474.448   3
  -4   5  11 2173.34 608.034  37
  -4   5  11 2190.51 714.894  43
   4   5 -11 896.291 490.572  34
   4   5 -11 865.573 516.338   3
  -4   5  10 2042.55 750.343  43
  -4   5  10 2041.68 641.660  37
  -4   5  10 3077.08 762.480  58
   4   5 -10 758.446 572.087   3
   4   5  -9 594.710 311.751  57
  -4   5   9 888.171 463.769  58
  -4   5   9 303.322 335.265  43
  -4   5   9 230.611 285.649  37
   4   5  -9 403.897 497.452   3
   4   5  -8 277.615 228.860  57
  -4   5   8 534.099 415.732  58
  -4   5   8 229.082 356.887  37
  -4   5   8 308.683 480.298  43
   4   5  -7 394.585 286.845  57
  -4   5   7-138.175 303.707  58
  -4   5   7 306.853 583.926  39
  -4   5   7 462.676 378.942  43
  -4   5   7-111.426 273.847  37
   4   5  -7 204.928 390.021  29
   4   5  -6 416.183 282.858  57
  -4   5   6 1145.56 569.934  45
  -4   5   6-325.018 506.547  39
  -4   5   6 606.771 442.729  43
   4   5  -6 431.308 531.268  29
   4   5  -6 862.888 581.878   3
   4   5  -5 652.381 360.788  57
  -4   5   5 507.147 493.129  45
  -4   5   5 1698.61 1056.41  39
   4   5  -5 222.535 600.286  29
   4   5  -5 214.076 409.490   3
  -4   5   4 620.654 459.639   9
   4   5  -4 1466.96 503.743  57
  -4   5   4 1559.61 692.098  45
  -4   5   4 1054.07 867.637  39
   4   5  -4 1356.74 828.647  29
   4   5  -4 630.544 572.501   3
  -4   5   3 164.453 314.345   9
   4   5  -3 465.951 314.885  57
  -4   5   3 284.737 414.876  58
  -4   5   3 176.657 434.980  45
  -4   5   3 1440.75 969.688  39
   4   5  -3 680.601 611.208  29
  -4   5   2 171.044 325.636   9
   4   5  -2 116.384 221.718  20
   4   5  -2 119.719 228.057  57
  -4   5   2-140.644 345.654  58
  -4   5   2 179.206 341.158  45
   4   5  -2 676.176 553.767  29
   4   5  -1 579.342 365.145  20
   4   5  -1 1225.40 470.292  57
  -4   5   1 1243.31 550.559  58
  -4   5   1 1109.64 997.165  39
  -4   5   1 361.757 529.242  45
  -4   5   1 846.252 807.402  10
  -4   5   1 350.575 389.917   9
  -4   5   0 444.258 852.037  10
  -4   5   0 532.313 448.776   9
   4   5   0 1488.88 544.387  20
  -4   5   0 2834.48 777.846  58
  -4   5   0 1455.19 700.413  45
   4   5   0 1958.90 868.703  29
  -4   5  -1-459.848 719.361  10
   4   5   1 1346.41 500.178  20
  -4   5  -1 1049.29 506.194  58
  -4   5  -1 1274.64 638.157  45
  -4   5  -1 909.063 665.896  36
   4   5   1 1271.95 741.243  29
  -4   5  -2-469.774 516.775  10
   4   5   2 325.677 268.030  20
   4   5   2 1146.63 485.582  57
  -4   5  -2 126.779 242.734  58
  -4   5  -2 181.344 446.276  45
  -4   5  -2 1119.43 816.165  36
   4   5   2 1231.55 676.998  29
   4   5   3 517.346 322.770  20
   4   5   3 1019.85 505.751  57
  -4   5  -3 365.305 328.915  58
  -4   5  -3 473.747 736.562  10
  -4   5  -3-172.491 380.061   9
  -4   5  -3 436.475 587.950  36
   4   5   3 986.680 613.824  29
   4   5   4 578.228 336.285  20
  -4   5  -4 471.370 732.997  10
  -4   5  -4 167.021 319.375   9
  -4   5  -4 840.185 611.319  36
   4   5   4 563.759 462.699  29
   4   5   4 630.523 393.108  57
  -4   5  -4 116.063 256.967  58
  -4   5  -5 159.460 364.482   9
  -4   5  -5 2189.22 907.031  36
   4   5   5 2118.10 805.774  29
   4   5   5 2840.12 712.000  57
  -4   5  -5 1862.66 573.444  58
  -4   5  -6 1486.81 670.391  45
  -4   5  -6 1663.91 799.997  36
   4   5   6 974.008 609.170  29
   4   5   6 2024.99 644.280  57
  -4   5  -6 2451.91 651.402  58
  -4   5  -7-422.022 659.404  10
  -4   5  -7 627.715 521.938  45
  -4   5  -7 502.126 491.528  36
   4   5   7 1577.01 529.689  57
  -4   5  -7 1311.88 476.943  58
  -4   5  -8-390.670 858.339  10
  -4   5  -8-146.630 279.002  45
  -4   5  -8-146.274 278.325  36
  -4   5  -8 192.077 558.269  56
   4   5   8 104.294 229.148  57
  -4   5  -8 84.0274 206.412  58
  -4   5  -9 1074.06 493.345  45
  -4   5  -9 351.970 775.961  10
  -4   5  -9 180.131 447.096  56
   4   5   9 1126.71 417.528  57
  -4   5 -10 1181.87 569.813  39
  -4   5 -10 1078.56 483.665  45
  -4   5 -10 306.254 590.071  10
   4   5  10 1467.72 448.542  57
  -4   5 -11 413.743 341.935  45
   4   5  11 1075.49 347.381  57
   4   5  12 404.799 210.951  57
  -4   5 -12 425.030 282.358  45
  -4   5 -13 512.376 276.003  45
   4   6 -13 877.976 369.246   3
   4   6 -12 1467.39 510.314   3
   4   6 -12 967.406 286.243  20
   4   6 -11-125.223 275.203   3
   4   6 -11-76.7638 223.205  34
   4   6 -11-59.6286 146.614  20
   4   6 -10 2324.41 696.189  34
   4   6 -10 2965.93 588.560  20
   4   6  -9 386.936 378.852  34
   4   6  -9 846.727 342.647  20
  -4   6   8 2998.23 730.413  58
   4   6  -8 1471.65 697.926   3
  -4   6   7 4975.90 947.508  58
   4   6  -7 2029.49 837.317   3
   4   6  -6 2466.30 622.737  20
   4   6  -6 1818.23 501.491  57
  -4   6   6 3871.89 859.114  58
  -4   6   6 2058.43 958.743  39
   4   6  -6 2572.89 845.533   3
   4   6  -5 3069.94 707.907  20
   4   6  -5 2315.65 586.797  57
  -4   6   5 3112.30 810.326  58
  -4   6   5 2222.04 1037.08  39
   4   6  -5 2565.97 828.895   3
   4   6  -4 1008.54 536.370   3
   4   6  -4 1283.50 455.668  57
  -4   6   4 1808.73 575.117  58
   4   6  -4 1330.24 479.296  20
  -4   6   4 1697.19 652.143  45
  -4   6   4 1765.26 977.271  39
   4   6  -4 1753.72 810.197  29
   4   6  -3 6678.89 1294.76   3
  -4   6   3 9236.69 1322.44  58
   4   6  -3 7651.86 1115.76  57
   4   6  -3 6595.86 1087.28  20
  -4   6   3 6327.54 1228.78  45
  -4   6   3 8592.95 1988.48  39
   4   6  -3 5289.83 1350.78  29
   4   6  -2 933.662 519.387   3
   4   6  -2 1272.56 473.188  20
   4   6  -2 1013.09 479.280  57
  -4   6   2 943.812 524.893  58
  -4   6   2 1362.81 627.817  45
  -4   6   2 438.668 368.478   9
  -4   6   1 1059.14 583.829   9
   4   6  -1 4776.91 886.186  20
   4   6  -1 3779.17 797.774  57
  -4   6   1 4247.22 874.215  58
  -4   6   1 4318.05 1061.38  45
   4   6  -1 2862.44 993.713  29
  -4   6   0 707.214 673.626  10
  -4   6   0-153.839 339.598   9
   4   6   0 840.071 400.961  20
   4   6   0 431.054 291.840  57
  -4   6   0 884.233 439.026  58
  -4   6   0 622.097 484.358  45
   4   6   0 926.937 576.968  29
  -4   6  -1 1854.40 1178.31  10
  -4   6  -1 1077.80 588.658   9
   4   6   1 3785.73 793.057  20
   4   6   1 4809.74 892.107  57
  -4   6  -1 4528.37 869.703  58
  -4   6  -1 4656.70 1052.23  45
   4   6   1 1960.98 866.470  29
  -4   6  -2-380.811 735.208  10
   4   6   2 1565.63 496.601  20
   4   6   2 1538.16 540.638  57
  -4   6  -2 3174.59 674.511  58
  -4   6  -2 1688.22 664.749  45
   4   6   2 847.364 601.761  29
  -4   6  -3 1150.84 1137.63  10
  -4   6  -3 1031.24 559.434   9
   4   6   3 3926.65 744.461  20
  -4   6  -3 4151.02 764.873  58
  -4   6  -3 3152.84 886.289  45
  -4   6  -3 2995.71 990.844  36
   4   6   3 3334.66 966.189  29
   4   6   4 4296.76 745.882  20
  -4   6  -4 3026.24 1023.73  36
   4   6   4 3353.15 921.339  29
  -4   6  -4 4790.53 1034.88  45
  -4   6  -4 1896.83 1462.16  10
  -4   6  -4 1124.60 562.179   9
  -4   6  -5-368.102 572.334  10
   4   6   5 357.141 236.513  20
  -4   6  -5 138.544 341.092  45
  -4   6  -5 497.937 516.232  36
   4   6   5 307.059 276.370  57
  -4   6  -6 3149.00 1478.07  10
  -4   6  -6 4949.67 1028.67  45
  -4   6  -6 2416.40 970.607  36
   4   6   6 4821.42 875.876  57
  -4   6  -7 120.309 325.466  45
   4   6   7 709.543 352.894  57
  -4   6  -8 293.248 806.088  10
   4   6   8 2772.39 593.887  57
  -4   6  -9 1257.78 537.895  39
  -4   6  -9 255.148 492.119  10
   4   6   9 1157.60 359.992  57
  -4   6 -10 840.920 733.264  10
   4   6  10 4090.32 612.158  57
  -4   6 -11 1392.17 392.860  45
   4   7 -10 69.7143 171.352   3
   4   7  -9 249.852 242.064   3
   4   7  -9 72.3866 210.392  34
   4   7  -9-45.0504 98.9830  20
   4   7  -8 92.7774 249.771   3
   4   7  -8 275.973 267.481  34
   4   7  -8 53.4762 117.744  20
   4   7  -7-106.768 287.432  34
   4   7  -7-98.7817 242.807   3
  -4   7   6 1342.82 404.028  58
   4   7  -6 470.496 436.091  34
   4   7  -5 779.956 328.237  20
  -4   7   5 805.111 338.378  58
  -4   7   4 387.634 480.735  39
   4   7  -4 820.848 334.603  20
  -4   7   4 963.641 379.064  58
  -4   7   3 629.651 565.602  39
   4   7  -3 308.983 241.964  20
  -4   7   2 442.334 543.746  39
   4   7  -2 235.958 212.839  20
  -4   7   1 455.927 613.896  39
   4   7  -1 157.253 212.947  20
   4   7  -1 415.675 241.877  57
  -4   7   0 691.246 620.861  39
   4   7   0 462.639 295.198  20
   4   7   0 287.675 225.784  57
   4   7   1 1107.77 369.923  20
   4   7   1 659.831 309.864  57
   4   7   2 686.890 307.273  20
   4   7   2 659.341 295.828  57
  -4   7  -3 184.521 226.663  45
  -4   7  -3-424.509 521.402  39
   4   7   3 61.4195 165.316  20
   4   7   3-71.8695 176.583  57
   4   7   4 466.566 224.577  20
  -4   7  -4 262.049 290.959  45
  -4   7  -4 232.772 513.165  10
   4   7   4 689.499 305.913  57
  -4   7  -5 1291.37 484.599  45
  -4   7  -5 1430.34 691.123  39
  -4   7  -5 223.362 660.436  10
   4   7   5 2062.25 452.966  57
  -4   7  -6-206.898 454.699  10
  -4   7  -6 216.982 177.985  45
  -4   7  -6 155.135 341.012  39
  -4   7  -7 62.0377 152.533  45
  -4   7  -7 125.718 276.293  39
  -4   7  -8 98.5652 132.882  45
   4   8  -3 55.7735 212.299  34
   4   8  -2 54.2508 178.851  34
  -4   8  -1 1346.93 462.987  39
  -5  -6   9 86.2189 211.919  46
  -5  -6   8 732.790 388.405  46
  -5  -6   8 970.985 373.770  55
  -5  -6   7 119.122 226.827  46
  -5  -6   7 89.9321 197.784  55
  -5  -6   6 260.404 352.645  46
  -5  -6   6 766.416 422.877  55
  -5  -6   5 81.6099 219.909  31
  -5  -6   5 203.309 249.976   4
  -5  -6   5 138.019 214.738  46
  -5  -6   4 190.254 276.593  31
  -5  -6   4 434.514 315.822   4
  -5  -6   4-142.414 221.387  46
  -5  -6   3 567.256 375.668   4
  -5  -6   3 317.593 330.953  31
  -5  -6   2-116.182 285.606   4
  -5  -6   2 2168.89 639.519  31
  -5  -6   1 350.638 366.810   4
  -5  -6   1 1199.83 561.584  31
  -5  -6   0-115.605 254.006   4
  -5  -6   0 123.198 234.425  31
  -5  -6  -1 449.701 357.348   4
  -5  -6  -1 3089.53 795.181  31
  -5  -6  -2 322.208 291.614   4
  -5  -6  -2 846.503 498.585  31
  -5  -6  -3 849.310 447.424  24
  -5  -6  -3 704.074 375.555   4
  -5  -6  -3 2071.69 674.058  31
  -5  -6  -4 118.677 226.603  24
  -5  -6  -4 530.005 386.675  31
  -5  -6  -5 936.094 419.066  31
  -5  -5  11 703.565 413.036  46
  -5  -5  11 882.187 393.616  55
  -5  -5  10 414.521 372.531  46
  -5  -5  10 213.942 236.166  55
  -5  -5   9 156.049 343.115  46
  -5  -5   8 171.210 325.844  46
  -5  -5   8-133.295 387.483  55
  -5  -5   7 425.053 386.072  55
  -5  -5   7 918.387 573.944  46
  -5  -5   7 720.656 400.478   4
  -5  -5   7 983.504 471.771  31
  -5  -5   6 3828.13 988.169  55
  -5  -5   6 1961.36 653.220   4
  -5  -5   6 3429.23 872.507  31
  -5  -5   5 2102.77 726.112  55
  -5  -5   5 799.829 666.509  46
  -5  -5   5 696.830 444.394   4
  -5  -5   5 1797.24 644.995  31
  -5  -5   4 301.630 331.405  55
  -5  -5   4-203.303 315.901  46
  -5  -5   4-146.001 277.863   4
  -5  -5   4-160.865 306.139  31
  -5  -5   3 1045.15 569.708  55
  -5  -5   3 203.057 388.603  46
  -5  -5   3 753.610 470.165   4
  -5  -5   3 340.779 376.671  31
  -5  -5   2-178.142 277.086  31
  -5  -5   2-153.585 337.711   4
  -5  -5   2-145.840 320.707  55
  -5  -5   1-183.815 403.862  31
  -5  -5   1 154.639 339.758   4
  -5  -5   0 2057.41 853.600  31
  -5  -5   0 923.506 517.922   4
  -5  -5  -1 1968.76 686.468   4
  -5  -5  -2 147.226 323.714   4
  -5  -5  -3 141.271 310.622   4
  -5  -5  -4-133.588 293.727   4
  -5  -5  -5 172.406 328.284  24
  -5  -5  -5 124.192 305.327   4
  -5  -5  -6-143.294 352.007  24
  -5  -5  -6 113.103 215.231   4
   5  -5   6-60.3157 187.441  26
  -5  -5  -7 1103.50 432.586   4
   5  -5   7 712.063 278.156  26
  -5  -5  -8-85.7461 188.529   4
   5  -5   8 768.091 269.000  26
  -5  -5  -9 414.113 242.370   4
  -5  -4  13 120.786 148.372   5
  -5  -4  13-121.598 188.929  46
  -5  -4  12 146.242 278.372  46
  -5  -4  12 69.0174 185.886  14
  -5  -4  11 167.633 369.187  46
  -5  -4  11 393.557 260.656  14
  -5  -4  11 245.271 330.982  55
  -5  -4  10 186.083 289.096  46
  -5  -4  10-103.287 253.717  40
  -5  -4  10 257.658 249.626  14
  -5  -4  10 141.269 310.381  55
  -5  -4   9 201.633 313.372  46
  -5  -4   9 635.993 369.801  40
  -5  -4   9-90.7490 172.888  14
  -5  -4   9 468.669 485.487  55
  -5  -4   8 2781.21 861.520  31
  -5  -4   8 2805.21 656.211  14
  -5  -4   8 2142.43 877.982  46
  -5  -4   7 1341.44 668.402  31
  -5  -4   7 223.862 497.559  46
  -5  -4   7 1227.06 469.774  14
  -5  -4   6 1256.90 593.310  31
  -5  -4   6 230.442 567.688  46
  -5  -4   6 146.486 324.693   4
  -5  -4   6 1451.73 662.559  55
  -5  -4   5 1141.59 594.685  31
  -5  -4   5 467.835 517.963  46
  -5  -4   5 461.638 419.054   4
  -5  -4   5 1658.74 732.842  55
  -5  -4   4 999.118 659.454  31
  -5  -4   4 234.193 515.706  46
  -5  -4   4 159.584 305.609   4
  -5  -4   4 1294.29 674.558  55
  -5  -4   3-208.146 323.558  31
  -5  -4   3-231.111 507.891  46
  -5  -4   3 327.553 402.454   4
  -5  -4   3-183.547 349.415  55
  -5  -4   2 3010.52 1005.78  31
  -5  -4   2 897.735 609.789  46
  -5  -4   2 2346.38 797.586  55
  -5  -4   2 333.197 417.843   4
  -5  -4   1 2286.53 861.324  55
  -5  -4   1 1345.09 638.604   4
  -5  -4   0 1010.48 561.727   4
  -5  -4  -1 1673.88 678.300   4
  -5  -4  -2 1649.63 668.475   4
  -5  -4  -3 322.018 396.466   4
  -5  -4  -4 155.384 341.652   4
  -5  -4  -5 1637.28 856.006  24
  -5  -4  -5 739.799 466.756   4
  -5  -4  -6 207.302 456.757  24
  -5  -4  -6 554.597 404.444   4
  -5  -4  -7 1229.20 615.028  24
  -5  -4  -7 764.596 427.219   4
  -5  -4  -8 2062.24 687.297  24
  -5  -4  -8 1943.93 627.029   4
  -5  -4  -9 795.661 393.471   4
   5  -4   9 2000.46 492.249  26
  -5  -4 -10 661.899 341.015   4
   5  -4  10 1720.50 399.658  26
  -5  -4 -11 63.8034 140.288   4
  -5  -3  15 295.366 216.087  14
  -5  -3  15 103.752 279.844  46
  -5  -3  14 152.075 186.952  14
  -5  -3  14 153.896 253.720   5
  -5  -3  14-133.936 294.380  46
  -5  -3  13 960.796 559.120  46
  -5  -3  13 541.655 348.111  14
  -5  -3  12-182.849 284.113  46
  -5  -3  12-103.320 253.846  40
  -5  -3  12 203.975 224.130  14
  -5  -3  11 202.059 385.374  46
  -5  -3  11 1158.07 510.347  40
  -5  -3  11 111.151 213.139  14
  -5  -3  11 707.022 466.768  55
  -5  -3  10 2394.12 922.173  46
  -5  -3  10 2547.17 769.367  40
  -5  -3  10 3651.12 828.374  14
  -5  -3  10 1926.54 780.997  55
  -5  -3   9 1377.36 770.664  46
  -5  -3   9 2017.93 753.378  40
  -5  -3   9 2195.92 645.519  14
  -5  -3   9 1230.39 657.027  55
  -5  -3   8 316.249 461.495   8
  -5  -3   8 1282.86 605.431  31
  -5  -3   8 237.853 524.266  46
  -5  -3   8 496.191 362.973  14
  -5  -3   8 374.793 506.003  55
  -5  -3   7 2939.80 929.074   8
  -5  -3   7 2905.19 1020.42  31
  -5  -3   7 2912.02 1041.89  46
  -5  -3   7 4349.30 954.237  14
  -5  -3   7 4894.50 1215.86  55
  -5  -3   6 1666.54 713.713   8
  -5  -3   6 488.384 471.712  46
  -5  -3   6 1476.27 563.137  14
  -5  -3   6 608.448 595.077  31
  -5  -3   5 168.609 414.175   8
  -5  -3   5 298.014 327.383   4
  -5  -3   5-210.850 463.257  31
  -5  -3   5-242.596 533.007  46
  -5  -3   5 120.686 187.496  14
  -5  -3   4 1743.03 833.127  31
  -5  -3   4 475.978 529.197  46
  -5  -3   4 1186.55 650.182   8
  -5  -3   4 920.344 512.048   4
  -5  -3   4 1027.49 643.697  55
  -5  -3   3 230.368 508.027  46
  -5  -3   3 819.389 596.989  55
  -5  -3   3 678.819 591.160   8
  -5  -3   3 470.046 423.875   4
  -5  -3   2 810.871 545.494  55
  -5  -3   2 508.270 588.567   8
  -5  -3   2-159.139 302.809   4
  -5  -3   1 1793.30 797.602  55
  -5  -3   1 3022.14 1089.61  31
  -5  -3   1 1012.64 678.363   8
  -5  -3   1 965.543 542.737   4
  -5  -3   0 4193.93 1054.14   8
  -5  -3   0 1134.63 584.366   4
  -5  -3  -1 166.268 447.627   8
  -5  -3  -1 162.580 357.480   4
  -5  -3  -2 324.465 399.478   4
   5  -3   3 1948.68 556.163  21
  -5  -3  -3 321.605 359.822   4
   5  -3   4 200.796 270.725  21
  -5  -3  -4 301.924 469.390  24
  -5  -3  -4 157.995 347.571   4
   5  -3   5 3209.77 716.690  21
  -5  -3  -5 1696.12 949.772  24
  -5  -3  -5 1535.02 635.443   4
   5  -3   6 3997.63 737.649  21
  -5  -3  -6 5421.06 1457.38  24
   5  -3   7 2008.97 531.187  21
  -5  -3  -7 684.340 618.647  24
  -5  -3  -7 415.370 380.462   4
   5  -3   8 721.480 330.801  21
  -5  -3  -8 192.490 423.928  24
  -5  -3  -8 127.636 281.949   4
   5  -3   9 2703.74 599.555  26
  -5  -3  -9 753.467 450.507  24
   5  -3   9 2630.31 528.652  21
  -5  -3  -9 458.537 349.477   4
   5  -3  10 890.595 364.317  25
   5  -3  10 1739.30 450.155  26
   5  -3  10 957.832 325.007  21
  -5  -3 -10 497.876 319.190   4
  -5  -3 -11 165.108 202.792   4
   5  -3  11-61.8702 151.985  26
   5  -3  11 69.0163 169.539  25
   5  -3  12 746.468 258.540  26
  -5  -2  16-55.5420 122.161   5
  -5  -2  16-98.6284 216.769  46
  -5  -2  15 77.6570 147.823  14
  -5  -2  15-80.6787 217.139   5
  -5  -2  15-131.661 250.554  46
  -5  -2  14 850.855 383.157  14
  -5  -2  14 1224.08 482.308   5
  -5  -2  14 802.867 535.383  46
  -5  -2  13 928.205 547.346  46
  -5  -2  13 1513.81 550.469  40
  -5  -2  13 872.092 457.422  14
  -5  -2  12 413.094 559.028  46
  -5  -2  12 1127.08 516.813  40
  -5  -2  12 604.231 380.261  14
  -5  -2  11 891.818 694.354  46
  -5  -2  11 161.657 399.882  40
  -5  -2  11 910.255 454.183  14
  -5  -2  10 955.585 506.883  14
  -5  -2  10 1173.55 735.799  46
  -5  -2  10 538.506 566.234  40
  -5  -2  10 2260.84 793.751   8
  -5  -2  10 1495.09 665.197  55
  -5  -2   9 702.579 410.551  14
  -5  -2   9 194.779 372.976  40
  -5  -2   9 241.898 462.173  46
  -5  -2   9 906.011 630.874   8
  -5  -2   9 727.826 491.414  55
  -5  -2   8 743.892 580.535   8
  -5  -2   8 801.367 662.607  31
  -5  -2   8 244.802 540.738  46
  -5  -2   8 710.931 417.010  14
  -5  -2   8 776.323 525.219  55
  -5  -2   7 943.743 630.980   8
  -5  -2   7 1661.66 729.272  31
  -5  -2   7 975.311 716.535  46
  -5  -2   7 1218.12 747.225  55
  -5  -2   7 1419.97 613.341  14
  -5  -2   6 1465.01 730.393  55
  -5  -2   6 239.407 460.856  46
  -5  -2   6 760.476 594.847   8
  -5  -2   6 1403.76 581.215  14
  -5  -2   5 2133.56 851.912  55
  -5  -2   5 2066.09 668.297  14
  -5  -2   5 231.909 579.763  46
  -5  -2   5 1333.52 702.401   8
  -5  -2   4 3617.08 1045.09   8
   5  -2  -4 4194.87 1107.72  48
  -5  -2   4 4667.67 1279.22  31
  -5  -2   4 3102.05 1016.98  46
  -5  -2   4 2689.06 808.384  14
  -5  -2   3 3040.82 997.491   8
  -5  -2   3 5180.85 1339.45  31
   5  -2  -3 4317.54 1155.24  48
  -5  -2   3 2084.52 841.946  46
   5  -2  -3 3476.28 787.911  17
  -5  -2   2 454.768 612.625  31
   5  -2  -2 199.931 440.327  48
  -5  -2   2 647.822 531.321  55
   5  -2  -2 772.325 454.534  17
  -5  -2   2 569.235 552.336   8
  -5  -2   2 138.446 265.191   4
  -5  -2   1 1137.24 664.132   8
  -5  -2   1 421.085 387.524   4
  -5  -2   1 1142.76 715.423  31
   5  -2  -1 1559.75 554.171  17
   5  -2  -1 2422.14 891.175  48
  -5  -2   0 426.319 387.619   4
   5  -2   0 784.945 448.661  17
   5  -2   1 1203.38 663.172  48
  -5  -2  -1 431.049 390.361   4
  -5  -2  -2 2464.16 759.567   4
  -5  -2  -3 4478.22 1527.81  24
  -5  -2  -3 2038.96 691.416   4
  -5  -2  -4 668.449 821.016  24
  -5  -2  -4-145.384 276.683   4
  -5  -2  -5 287.519 353.834   4
  -5  -2  -5 133.656 255.283  42
   5  -2   5 369.061 331.779  21
  -5  -2  -5 637.200 700.348  24
  -5  -2  -6 2321.67 800.382   1
  -5  -2  -6 1291.09 452.816  58
  -5  -2  -6 1667.81 622.441  42
   5  -2   6 837.539 447.299  21
  -5  -2  -6 296.966 660.110  24
  -5  -2  -7 157.804 347.052   1
  -5  -2  -7 91.7243 202.114  58
  -5  -2  -7 241.826 351.769  42
   5  -2   7 230.064 309.920  21
  -5  -2  -7 538.001 512.069  24
  -5  -2  -8 1472.92 620.732   1
  -5  -2  -8 2129.50 559.730  58
  -5  -2  -8 1224.94 522.663  42
   5  -2   8 1852.16 565.327  21
  -5  -2  -8 1173.49 742.002  24
   5  -2   9 2937.17 678.370  21
  -5  -2  -9 1360.84 670.652  24
  -5  -2  -9 1662.98 522.406  58
  -5  -2  -9 2685.08 763.594   1
  -5  -2  -9 2982.96 675.933  42
   5  -2   9 2846.36 645.269  26
   5  -2  10 1009.48 423.956  21
  -5  -2 -10 900.925 369.053  58
  -5  -2 -10 831.686 477.935   1
  -5  -2 -10 1105.43 415.633  42
   5  -2  10 1000.65 358.485  26
   5  -2  11 2092.31 521.276  21
  -5  -2 -11 1359.56 410.279  58
  -5  -2 -11 1416.67 494.034   1
  -5  -2 -11 1969.47 465.242  42
   5  -2  11 1928.63 479.380  26
   5  -2  12 2010.45 486.999  21
  -5  -2 -12 1152.19 347.678  58
   5  -2  13 152.861 207.513  25
  -5  -2 -13 454.028 183.268  58
  -5  -1  16 257.164 200.542  14
  -5  -1  16 147.577 215.192   5
  -5  -1  15-84.3697 227.032  14
  -5  -1  15 96.8105 237.811   5
  -5  -1  15 145.397 276.656  46
  -5  -1  14 203.821 251.488  14
  -5  -1  14 117.463 316.992   5
  -5  -1  13 429.419 386.802  40
  -5  -1  13 543.187 396.282   5
  -5  -1  13 197.630 486.758  46
  -5  -1  12 2646.20 879.026  40
  -5  -1  12 2380.82 915.391  46
  -5  -1  11 4729.72 1077.26  14
  -5  -1  11 5138.49 1192.13   8
  -5  -1  11 2986.74 1131.18  46
  -5  -1  11 4240.24 1167.67  40
  -5  -1  10 292.035 322.442  14
  -5  -1  10 712.489 584.289  46
  -5  -1  10 600.672 539.750  40
  -5  -1  10 185.482 456.769   8
  -5  -1   9 1653.85 687.005  14
  -5  -1   9 479.908 596.355  46
  -5  -1   9 852.441 668.340  40
  -5  -1   9 1527.51 732.241   8
  -5  -1   9 1057.22 587.734  55
  -5  -1   8 152.430 167.799  14
  -5  -1   8-237.639 261.281  46
  -5  -1   8-223.349 245.597  40
  -5  -1   8-194.074 426.536   8
  -5  -1   8-379.450 466.170  55
  -5  -1   7 1564.19 756.251   8
  -5  -1   7 1927.90 859.170  31
  -5  -1   7 2400.43 916.082  55
  -5  -1   7 924.698 730.914  46
  -5  -1   7 1526.57 596.466  14
  -5  -1   6 391.555 570.230   8
  -5  -1   6 433.646 477.822  31
  -5  -1   6 1038.97 646.715  55
  -5  -1   6 549.219 604.482  24
   5  -1  -6 557.872 501.760  48
  -5  -1   6 221.155 422.430  46
  -5  -1   6 302.920 373.893  14
  -5  -1   5 5275.83 1259.55   8
  -5  -1   5 3708.20 1147.96  31
  -5  -1   5 4911.54 1306.87  55
  -5  -1   5 2382.17 1181.54  24
   5  -1  -5 5238.01 1232.88  48
  -5  -1   5 5200.71 1275.35  46
   5  -1  -5 2855.40 743.499  17
  -5  -1   5 4328.00 1039.05  14
  -5  -1   4 1892.12 1003.06  24
  -5  -1   4 3311.92 1048.57   8
   5  -1  -4 2996.09 955.326  48
   5  -1  -4 2551.25 684.084  17
  -5  -1   4 1902.62 696.746  14
  -5  -1   4 3057.85 1012.30  31
  -5  -1   3 658.070 641.636  24
  -5  -1   3 2332.08 916.600   8
   5  -1  -3 2034.35 817.933  48
   5  -1  -3 2112.14 633.968  17
  -5  -1   3 1525.11 769.797  31
  -5  -1   2 3398.85 1337.04  24
  -5  -1   2 4659.73 1216.34   8
   5  -1  -2 3788.65 880.031  17
  -5  -1   2 4764.50 1281.78  31
   5  -1  -2 3490.54 1087.72  48
  -5  -1   1 2090.94 1219.51  24
   5  -1  -1 1194.45 545.051  17
  -5  -1   1 3860.53 1139.46  31
  -5  -1   0 2130.20 1106.96  24
   5  -1   0 401.052 450.034  48
   5  -1   0 1199.61 535.064  17
  -5  -1   0 2960.29 933.673  31
   5  -1   1 395.638 490.726  48
  -5  -1  -1 934.049 584.470   6
   5  -1   1 1082.02 481.086  17
  -5  -1  -1 829.026 647.607  31
  -5  -1  -2 8754.32 1263.05  58
  -5  -1  -2 6752.32 1488.17   6
   5  -1   2 5263.85 1662.15  50
   5  -1   2 6773.88 1497.46  48
  -5  -1  -2 6248.20 1484.25  31
   5  -1   2 8407.45 1341.33  17
   5  -1   3-119.769 228.033  17
  -5  -1  -3 208.412 229.093  58
  -5  -1  -3-358.991 683.114  24
  -5  -1  -3-187.955 357.721   6
   5  -1   3-305.929 582.160  50
   5  -1   3-187.486 412.004  48
  -5  -1  -3 161.470 396.720  42
  -5  -1  -3 193.909 369.047  31
  -5  -1  -4 5641.67 1745.59  24
  -5  -1  -4 5412.35 1008.19  58
  -5  -1  -4 5591.57 1305.97   1
  -5  -1  -4 5123.52 1210.25  42
  -5  -1  -4 4410.87 1156.57  31
  -5  -1  -5 3407.18 1329.11  24
  -5  -1  -5 3222.51 779.056  58
  -5  -1  -5 3497.96 1071.85   1
  -5  -1  -5 4414.14 1036.89  42
  -5  -1  -5 2899.38 906.945  31
  -5  -1  -6 719.795 526.644   1
  -5  -1  -6 1572.87 512.596  58
  -5  -1  -6 767.879 481.156  42
   5  -1   6 653.474 435.119  21
  -5  -1  -6 322.432 359.539  24
  -5  -1  -7 1908.84 797.439   1
  -5  -1  -7 1226.41 493.090  58
   5  -1   7 1520.71 589.569  21
  -5  -1  -7 2079.64 1040.81  24
  -5  -1  -7 1917.35 718.956  42
  -5  -1  -8 657.761 483.859   1
  -5  -1  -8 1112.66 556.028  42
   5  -1   8 970.967 467.994  21
  -5  -1  -8 793.920 654.431  24
  -5  -1  -9 610.375 529.425   1
   5  -1   9 3168.46 652.421  26
  -5  -1  -9 2692.41 736.991  42
   5  -1   9 2173.99 649.904  21
  -5  -1 -10 1493.74 551.339  42
  -5  -1 -10 1380.77 601.914   1
   5  -1  10 1692.76 548.493  21
  -5  -1 -11 5210.58 1103.13   1
   5  -1  11 7339.82 1093.74  21
  -5  -1 -11 7053.20 1098.61  42
  -5  -1 -11 4411.80 886.456  58
  -5  -1 -12 2250.24 628.925   1
   5  -1  12 3243.13 665.282  21
  -5  -1 -12 2942.01 642.479  42
  -5  -1 -12 1763.38 490.069  58
  -5  -1 -13 1551.96 487.120   1
   5  -1  13 1173.63 394.500  21
  -5  -1 -13 1123.87 360.512  58
  -5  -1 -13 1362.53 382.200  42
  -5  -1 -14 442.055 200.211  58
   5  -1  14 1149.08 308.605  21
  -5   0  17 55.3822 105.484   5
  -5   0  16 725.928 348.752   5
  -5   0  15 103.383 253.955   5
  -5   0  15-80.3856 197.464  14
  -5   0  14-89.4054 259.876  43
  -5   0  14 99.0927 188.577  14
  -5   0  14 170.617 374.877  46
  -5   0  13 666.799 459.092  43
  -5   0  13 460.697 313.289  14
  -5   0  13 579.075 562.892  46
  -5   0  12 1417.56 711.119   5
  -5   0  12 2353.83 836.214  40
  -5   0  12 1927.02 681.793  43
  -5   0  12 1671.95 621.268  14
  -5   0  12 2726.53 935.961  46
  -5   0  11 1786.01 743.623   8
  -5   0  11 1793.17 767.412  40
  -5   0  11 975.387 564.491  14
  -5   0  11 1322.02 774.552  46
  -5   0  10 1489.60 740.670   8
  -5   0  10 427.534 529.524  40
  -5   0  10 884.441 516.611  14
  -5   0  10 674.569 701.994  46
  -5   0   9 2483.58 917.574   8
  -5   0   9 3146.94 1070.83  40
  -5   0   9 2236.85 1007.59  46
  -5   0   8 193.666 476.076   8
  -5   0   8 232.479 511.106  40
  -5   0   8 217.448 534.458  46
  -5   0   7 584.110 566.390   8
  -5   0   7 157.977 347.885  14
  -5   0   6 257.176 399.696  24
  -5   0   6-389.293 523.886   8
   5   0  -6 195.534 372.214  48
  -5   0   6 239.730 526.824  40
   5   0  -6 232.952 256.146  17
  -5   0   6 474.369 388.574  14
  -5   0   5 283.914 540.520  24
  -5   0   5 776.208 603.224   8
   5   0  -5-201.466 313.520  48
  -5   0   5 314.381 423.371  14
   5   0  -5 469.934 365.491  17
  -5   0   5 210.898 401.694  31
   5   0  -4 1022.06 513.276  57
  -5   0   4 2126.64 1008.42  24
  -5   0   4 1159.99 648.385   8
   5   0  -4 2199.00 800.880  48
   5   0  -4 1185.53 518.518  17
  -5   0   4 2281.49 947.094  31
   5   0  -3 3788.09 903.978  57
  -5   0   3 7021.52 1841.56  24
  -5   0   3 5012.38 1276.88   8
   5   0  -3 6650.01 1417.18  48
   5   0  -3 5368.17 1059.51  17
  -5   0   3 6494.90 1460.83  31
   5   0  -2 4418.02 866.552  57
  -5   0   2 3174.17 767.395  58
  -5   0   2 5302.76 1662.85  24
  -5   0   2 3851.79 1130.37   8
  -5   0   2 5535.86 1292.53  31
   5   0  -2 3593.46 868.669  17
   5   0  -1-240.715 349.926  17
   5   0  -1 194.409 238.935  57
  -5   0   1 102.384 225.117  58
  -5   0   1-341.453 530.546  24
   5   0  -1-200.089 439.700  48
  -5   0   1-152.217 334.548  45
  -5   0   1-191.657 364.778  31
  -5   0   0 1377.99 492.151  58
  -5   0   0 1748.06 946.965  24
  -5   0   0 1291.88 650.190   6
   5   0   0 1184.42 659.503  48
   5   0   0 843.463 506.957  17
  -5   0   0 1662.36 711.174  31
  -5   0  -1 2087.81 622.429  58
  -5   0  -1 355.842 796.471  24
   5   0   1 1934.60 809.607  48
  -5   0  -1 2119.59 790.914  31
   5   0   1 1927.70 596.624  17
  -5   0  -1 1854.87 750.265   6
   5   0   2 481.174 326.400  17
  -5   0  -2 569.160 356.171  58
  -5   0  -2 559.436 503.541   6
   5   0   2 376.309 360.456  48
  -5   0  -2 341.566 461.465  42
  -5   0  -2 668.310 487.415  31
   5   0   3 1796.47 569.837  17
  -5   0  -3 940.065 461.627  58
  -5   0  -3 2523.24 1193.47  24
  -5   0  -3 748.794 556.029   6
   5   0   3 2402.87 1049.69  50
   5   0   3 1812.51 727.000  48
  -5   0  -3 2047.89 781.431  42
  -5   0  -3 933.143 552.298  31
  -5   0  -4 3927.36 1443.56  24
  -5   0  -4 2995.83 964.467   6
  -5   0  -4 2059.30 822.287   1
   5   0   4 3436.37 1316.38  50
   5   0   4 4136.97 1025.76  48
  -5   0  -4 6456.88 1257.88  42
  -5   0  -4 3134.64 803.335  58
  -5   0  -5 556.619 502.225   1
  -5   0  -5 735.222 429.151  58
  -5   0  -5 840.296 525.018  42
  -5   0  -5 348.277 543.809  24
  -5   0  -6 5464.65 1257.81   1
  -5   0  -6 4796.19 1000.96  58
  -5   0  -6 5267.88 1179.27  42
   5   0   6 5250.39 1066.32  21
  -5   0  -6 3663.85 1433.52  24
  -5   0  -7 5824.36 1301.58   1
  -5   0  -7 4737.32 1023.27  58
  -5   0  -7 7322.01 1359.60  42
   5   0   7 8673.74 1341.19  21
  -5   0  -7 2795.46 1228.29  24
  -5   0  -8 504.751 490.478   1
  -5   0  -8 470.697 344.103  58
  -5   0  -8 302.762 409.101  42
   5   0   8 490.072 382.557  21
  -5   0  -9-157.229 423.110   1
  -5   0  -9 111.397 244.796  58
  -5   0  -9 141.059 379.601  42
   5   0   9 347.779 382.081  21
  -5   0 -10 860.740 524.874   1
  -5   0 -10 1334.13 493.751  58
  -5   0 -10 256.437 375.736  42
   5   0  10 323.105 338.063  21
  -5   0 -11 508.698 370.479   1
  -5   0 -11 274.610 285.521  58
  -5   0 -11 339.192 373.460  42
   5   0  11 195.542 241.471  21
  -5   0 -12 543.871 358.645   1
  -5   0 -12 235.377 244.026  58
  -5   0 -12-95.9199 279.001  42
   5   0  12 258.150 283.798  21
  -5   0 -13 4786.53 879.956   1
  -5   0 -13 3251.74 687.495  58
  -5   0 -13 4623.68 804.902  42
   5   0  13 5523.47 832.831  21
  -5   0 -14 2404.69 522.471   1
  -5   0 -14 1189.87 343.850  58
  -5   0 -14 2026.73 452.835  42
   5   0  14 2741.96 495.797  21
   5   1 -16 106.003 165.579  57
  -5   1  16 76.3530 188.341   5
  -5   1  15-80.2043 233.233  43
  -5   1  15-98.9565 243.195   5
  -5   1  14 516.304 341.781  43
  -5   1  14 238.673 322.678   5
  -5   1  13 245.550 331.020  43
  -5   1  13-137.103 337.418   5
  -5   1  13 617.099 339.587  14
  -5   1  12 2365.61 766.841  43
  -5   1  12 1517.60 666.420   5
  -5   1  12 2004.08 642.610  14
  -5   1  11 6334.35 1438.21  40
  -5   1  11 2930.94 963.539   8
  -5   1  11 2766.00 932.794   5
   5   1 -11 4751.70 999.508   3
  -5   1  11 3648.20 894.378  14
  -5   1  10-361.219 486.003   8
  -5   1  10 849.333 618.908   5
  -5   1  10 420.590 377.259  14
  -5   1   9 744.191 582.364   8
  -5   1   9 886.700 518.206  14
  -5   1   8-233.059 362.234  40
  -5   1   8 189.212 415.855   8
  -5   1   8-153.310 291.904  14
  -5   1   7 1901.96 554.244  58
  -5   1   7 705.706 592.328  40
  -5   1   7 2288.48 848.059   8
  -5   1   6 1336.97 663.876   8
  -5   1   6 415.975 323.892  58
   5   1  -6 786.959 529.871  48
  -5   1   6 703.353 631.273  40
   5   1  -6-159.569 351.296  29
   5   1  -5 3581.74 848.899  17
   5   1  -5 5411.52 1053.70  57
  -5   1   5 3632.19 830.197  58
  -5   1   5 4193.64 1124.57   8
   5   1  -5 3210.17 1046.97  48
  -5   1   5 6707.60 1544.09  40
   5   1  -5 4448.92 1144.25  29
   5   1  -4 2631.74 707.089  57
  -5   1   4 2400.59 658.130  58
  -5   1   4 284.216 459.783  24
  -5   1   4 3039.74 964.962   8
   5   1  -4 2023.04 780.463  48
  -5   1   4 2941.30 1032.79  40
   5   1  -4 1044.98 477.424  17
   5   1  -3 1622.94 569.755  57
  -5   1   3 2224.50 612.202  58
  -5   1   3 301.960 486.373  24
  -5   1   3 1893.83 815.926   8
   5   1  -3 1010.77 678.488  48
  -5   1   3 1801.54 751.553  45
  -5   1   3 2856.10 973.903  40
   5   1  -3 2094.75 639.327  17
   5   1  -2 4705.55 920.709  57
  -5   1   2 3290.23 796.001  58
  -5   1   2 2210.55 1244.84  24
  -5   1   2 3591.08 1067.75   8
  -5   1   2 3372.74 989.989  45
   5   1  -2 5006.68 960.979  17
   5   1  -1 1399.52 599.907  17
  -5   1   1 653.842 822.492  24
   5   1  -1 2923.63 716.024  57
  -5   1   1 2897.68 719.707  58
   5   1  -1 1976.81 831.758  48
  -5   1   1 1568.96 713.005  45
  -5   1   1 3983.55 990.683  31
   5   1   0 1465.27 503.201  57
  -5   1   0 947.879 449.022  58
  -5   1   0 2015.83 984.278  24
   5   1   0 1937.24 747.489  48
  -5   1   0 1877.47 736.611  45
   5   1   0 1513.80 585.267  17
   5   1   1 201.909 273.124  57
  -5   1  -1 485.010 377.811  58
  -5   1  -1-343.084 377.953  24
  -5   1  -1 906.284 527.578   6
   5   1   1 1131.91 622.372  48
  -5   1  -1 499.124 448.587  45
   5   1   1 348.499 256.790  17
  -5   1  -2 9045.92 1460.15  58
   5   1   2 10325.7 1409.51  57
  -5   1  -2 6959.53 2065.37  24
   5   1   2 11121.2 1838.56  48
  -5   1  -2 9448.58 1709.82   6
  -5   1  -2 9230.46 1750.71  42
  -5   1  -2 8222.11 1579.40  45
   5   1   2 8326.93 1397.23  17
  -5   1  -3 126.196 277.312  58
  -5   1  -3 181.851 346.054   6
   5   1   3-174.412 331.901  48
  -5   1  -3 173.751 381.783  42
  -5   1  -3-154.941 294.858  45
   5   1   3-115.038 178.795  17
  -5   1  -4 4906.00 1187.16   1
  -5   1  -4 2785.62 1360.27  24
  -5   1  -4 3448.64 874.013  58
  -5   1  -4 4316.84 1066.76  42
  -5   1  -4 2944.43 865.110  45
  -5   1  -5 2872.39 931.903   1
  -5   1  -5 4090.89 1068.85  42
  -5   1  -5 3717.30 896.881  58
  -5   1  -6 878.367 589.581   1
   5   1   6 2001.55 639.540  21
  -5   1  -6 1333.34 643.962  42
  -5   1  -6 1144.43 534.417  58
  -5   1  -7 1018.64 627.616   1
   5   1   7 1575.89 574.883  21
  -5   1  -7 1448.29 621.525  42
  -5   1  -7 994.449 503.688  58
  -5   1  -8 322.799 399.201   1
   5   1   8 696.254 444.053  21
  -5   1  -8 611.626 506.079  42
  -5   1  -8 596.740 373.755  58
  -5   1  -9 2256.26 739.817   1
   5   1   9 2296.37 646.659  21
  -5   1  -9 2279.35 785.079  42
  -5   1  -9 1457.67 549.231  58
  -5   1 -10 1368.30 572.658   1
   5   1  10 808.621 429.218  21
  -5   1 -10 1943.90 661.238  42
  -5   1 -10 1436.99 527.837  58
  -5   1 -11 6282.97 1182.41   1
   5   1  11 6101.12 1015.41  21
  -5   1 -11 5839.44 1118.68  42
  -5   1 -11 6099.79 1015.25  58
  -5   1 -12 1745.93 582.530   1
   5   1  12 3099.66 648.160  21
  -5   1 -12 2826.85 686.186  42
  -5   1 -12 2638.12 593.068  58
  -5   1 -13 1405.31 452.938   1
   5   1  13 1983.42 464.681  21
  -5   1 -13 2048.51 519.795  42
  -5   1 -13 938.267 352.249  58
  -5   1 -14 699.423 308.356  42
  -5   1 -14 604.864 274.833   1
   5   1  14 1208.26 310.886  21
  -5   2  16-58.5439 143.890   5
  -5   2  16-55.0835 121.120  37
  -5   2  15-80.6820 234.561   5
  -5   2  15-81.3433 218.949  43
  -5   2  15-77.3348 208.166  37
   5   2 -15 57.0079 153.493  57
  -5   2  14 1759.63 558.584  43
  -5   2  14 100.173 223.936   5
   5   2 -14 1012.71 375.010  57
  -5   2  13 1599.47 610.361  43
  -5   2  13 467.302 414.584   5
   5   2 -13 1286.71 450.039  57
  -5   2  12 560.101 463.116  43
   5   2 -12 932.854 426.637   3
  -5   2  12 130.275 322.375   5
  -5   2  11 617.376 480.047  43
  -5   2  11 140.128 407.838   5
   5   2 -11 140.475 345.726   3
  -5   2  10 1609.22 630.274   5
  -5   2  10 1497.26 690.965   8
   5   2 -10 805.302 539.979   3
   5   2 -10 1249.98 477.489  57
  -5   2  10 995.578 409.879  58
  -5   2   9 1297.66 753.257  40
  -5   2   9 1040.78 591.372   5
  -5   2   9 173.563 385.120   8
   5   2  -9 830.519 454.706  57
  -5   2   9 598.371 383.319  58
  -5   2   8 220.419 420.988  40
  -5   2   8 738.377 460.303   5
  -5   2   8 356.636 481.221   8
   5   2  -8 243.537 355.799  57
  -5   2   8 640.060 390.386  58
  -5   2   7 574.768 457.803   5
  -5   2   7 1267.78 637.255   8
  -5   2   7 1103.65 734.456  40
   5   2  -7 1246.77 601.647  29
   5   2  -7 1356.21 516.787  57
  -5   2   7 1903.82 585.852  58
  -5   2   6 960.231 480.839   5
  -5   2   6-182.490 406.052   8
  -5   2   6 871.142 636.234  40
   5   2  -6 876.790 548.632  29
   5   2  -6 1111.84 474.481  57
  -5   2   6 1391.34 513.511  58
  -5   2   5 2011.20 799.364   8
   5   2  -5 3316.26 785.130  57
  -5   2   5 2497.61 715.419  58
  -5   2   5 1485.29 759.723  40
   5   2  -5 1535.67 723.188  29
  -5   2   4 4199.49 1147.87   8
   5   2  -4 4732.76 984.063  57
  -5   2   4 4245.19 965.423  58
   5   2  -4 4453.69 1177.84  48
  -5   2   4 5316.09 1309.53  40
  -5   2   4 4102.66 1151.51  45
   5   2  -4 5144.36 1336.44  29
   5   2  -3 3705.65 872.542  57
  -5   2   3 3204.56 821.860  58
  -5   2   3 2548.59 942.689   8
  -5   2   3 4096.72 1132.66  40
  -5   2   3 4843.82 1195.47  45
  -5   2   3 3523.81 1519.48  39
   5   2  -3 3359.74 783.125  17
   5   2  -2 117.477 316.448  57
  -5   2   2 625.239 388.813  58
   5   2  -2 793.388 533.924  48
  -5   2   2 181.399 527.433   8
  -5   2   2 921.027 535.586  40
  -5   2   2 741.430 538.933  45
  -5   2   2 767.724 943.039  39
   5   2  -2-108.587 337.708  17
   5   2  -1 1729.50 585.030  57
  -5   2   1 1774.19 654.521  58
   5   2  -1 1944.39 783.913  48
  -5   2   1 2892.02 921.614   8
  -5   2   1 1547.34 643.257  40
  -5   2   1 919.111 589.595  45
  -5   2   1 2983.98 1366.85  39
   5   2  -1 1734.21 552.216  17
   5   2   0 1579.74 538.655  57
  -5   2   0 1154.50 521.268  58
  -5   2   0 2528.64 804.080  40
  -5   2   0 907.969 576.137  45
  -5   2   0 1794.43 1049.58  39
   5   2   0 1188.71 488.932  17
   5   2   0 1326.25 668.408  48
   5   2   1 1283.56 615.828  48
  -5   2  -1 1071.36 661.296  45
  -5   2  -1 1365.29 999.106  39
   5   2   1 1326.35 499.950  57
  -5   2  -1 1942.53 662.630  58
  -5   2  -2 7675.12 1489.31  45
  -5   2  -2 7678.31 1950.38  39
   5   2   2 6481.20 1141.43  57
  -5   2  -2 6521.40 1280.11  58
  -5   2  -3 4906.99 1245.07  45
  -5   2  -3 4706.22 1501.85  39
  -5   2  -3 7713.40 1309.82  58
   5   2   3 6602.62 1119.23  57
  -5   2  -4 1299.91 639.625  45
   5   2   4 2222.17 609.519  57
  -5   2  -4 2212.77 675.377  58
  -5   2  -5 461.968 415.524  45
   5   2   5 232.051 256.796  21
   5   2   5 764.840 379.944  57
  -5   2  -5 128.430 400.254  58
   5   2   6 1802.81 588.349  21
  -5   2  -6 1753.35 622.622  58
  -5   2  -6 717.094 482.172  45
  -5   2  -6 639.203 505.592   1
   5   2   7-108.215 237.800  21
  -5   2  -7 481.587 349.959  58
  -5   2  -7 130.516 286.791  45
  -5   2  -7 152.552 290.301   1
   5   2   8 1434.00 516.947  21
  -5   2  -8 2274.16 635.683  58
  -5   2  -8 1150.45 519.201  45
  -5   2  -8 1001.85 511.084   1
   5   2   9 2760.84 649.713  21
  -5   2  -9 1471.36 543.106  58
  -5   2  -9 1644.11 557.281  45
  -5   2  -9 2496.19 741.024   1
   5   2  10 863.993 400.950  21
  -5   2 -10 1290.51 522.855   1
   5   2  11 2275.48 547.363  21
  -5   2 -11 2121.45 626.847   1
  -5   2 -12 1649.94 499.907   1
  -5   2 -13 1159.42 396.403  42
  -5   2 -13 738.952 276.008  58
  -5   2 -14 232.352 169.321  42
  -5   2 -14-69.0180 92.8735  58
  -5   3  15 604.780 253.919  37
  -5   3  14 637.398 333.383  43
   5   3 -14 315.486 176.370  57
  -5   3  13 1554.08 530.076  43
   5   3 -13 967.809 436.811   3
   5   3 -13 1599.21 436.043  57
  -5   3  12-128.712 346.446  43
   5   3 -12-116.147 255.317   3
   5   3 -12-78.6923 173.088  57
  -5   3  11 1296.33 552.898  43
   5   3 -11 560.093 413.375   3
   5   3 -11 1156.15 409.287  57
  -5   3  11 650.906 353.674  58
   5   3 -10 3052.10 938.504   3
   5   3 -10 2727.41 678.563  57
  -5   3  10 3629.64 742.944  58
   5   3  -9 2140.57 779.687   3
  -5   3   9 2056.82 603.126  58
  -5   3   8 150.544 371.195   8
   5   3  -8 282.262 348.164  29
  -5   3   8 774.943 404.633  58
  -5   3   7 2024.18 796.475   8
   5   3  -7 3261.96 921.367  29
   5   3  -7 4412.63 888.327  57
  -5   3   7 3746.73 869.927  58
  -5   3   6 794.882 562.060   8
   5   3  -6 1270.39 607.158  29
   5   3  -6 1157.28 452.617  57
  -5   3   6 1708.82 562.636  58
  -5   3   5-160.814 433.161   8
  -5   3   5 178.814 340.784  45
   5   3  -5 786.132 571.546  29
   5   3  -5 938.645 446.916  57
  -5   3   5 125.841 240.221  58
  -5   3   4 2907.24 863.101   8
  -5   3   4 1995.99 810.325  45
  -5   3   4 1890.20 1183.48  39
  -5   3   4 1704.10 715.193  40
   5   3  -4 1041.96 772.892  29
   5   3  -4 1299.70 523.053  57
  -5   3   4 1801.10 648.340  58
  -5   3   3 161.410 502.535   8
  -5   3   3 548.915 493.381  45
  -5   3   3-378.656 589.132  39
   5   3  -3 217.058 338.713  29
   5   3  -3 946.961 451.576  57
  -5   3   3 522.646 431.786  58
  -5   3   2 321.428 530.773   8
  -5   3   2 367.158 495.187  45
  -5   3   2-375.479 715.268  39
   5   3  -2 668.347 548.330  29
   5   3  -2 1062.96 450.768  57
  -5   3   2 527.895 385.121  58
  -5   3   1 1595.42 764.817   8
  -5   3   1 2931.81 955.860  45
  -5   3   1 2579.87 1304.60  39
   5   3  -1 3161.33 1137.30  29
   5   3  -1 3164.53 770.220  57
  -5   3   1 5043.22 1020.07  58
  -5   3   0 4579.65 1147.71   8
  -5   3   0 3820.15 1149.73  45
  -5   3   0 6440.78 1857.01  39
   5   3   0 3395.84 1225.79  29
  -5   3   0 7573.44 1277.14  58
   5   3   0 6853.14 1152.02  57
   5   3   1 114.670 281.685  57
  -5   3  -1 132.377 251.886  58
  -5   3  -1 311.573 484.057   8
  -5   3  -1 179.504 440.942  45
  -5   3  -1-686.256 842.871  39
  -5   3  -2 527.262 517.952  45
  -5   3  -2 648.456 801.031  39
   5   3   2 898.759 418.184  57
  -5   3  -2 2491.85 710.992  58
  -5   3  -3 1024.20 575.083  45
  -5   3  -3 902.351 818.123  39
   5   3   3 1510.05 508.773  21
   5   3   3 1423.91 524.261  57
  -5   3  -3 1934.34 644.685  58
  -5   3  -4-164.015 312.207  45
  -5   3  -4 544.673 598.416  39
   5   3   4-196.456 264.471  21
   5   3   4-105.645 259.663  57
  -5   3  -4 125.839 239.607  58
  -5   3  -5 2552.94 773.155  42
  -5   3  -5 777.464 537.441  45
  -5   3  -5 1429.19 801.553  39
   5   3   5 2375.10 603.242  21
   5   3   5 2202.60 604.107  57
  -5   3  -5 2673.96 737.054  58
  -5   3  -6 4493.37 1037.11  45
   5   3   6 3807.62 813.888  57
  -5   3  -7 2281.99 711.323  42
  -5   3  -7 1454.65 638.326  45
   5   3   7 2075.91 518.545  57
  -5   3  -8 618.328 410.442  42
  -5   3  -8 1055.55 467.075  45
   5   3   8 295.939 328.712  29
  -5   3  -9 2559.29 679.244  42
  -5   3  -9 1399.71 518.944  45
  -5   3  -9 2256.35 585.331  58
  -5   3 -10 480.309 301.552  45
  -5   3 -10 1101.49 394.047  58
  -5   3 -11-81.0443 218.374  42
  -5   3 -11-56.3244 151.984  45
  -5   3 -11-196.638 227.981  58
  -5   3 -12 439.450 271.976  42
  -5   3 -12 757.980 271.116  58
  -5   4  14 775.971 263.999  37
  -5   4  13 330.647 257.010  43
  -5   4  13 64.9469 142.995  37
   5   4 -13 71.1931 175.125   3
  -5   4  12-100.582 247.077  43
   5   4 -12 99.9716 219.653   3
  -5   4  12-78.2861 192.310  37
   5   4 -11 494.942 385.927   3
  -5   4  11 232.086 362.122  43
  -5   4  11 622.035 353.567  37
   5   4 -11 329.603 219.827  57
   5   4 -10 143.999 274.153   3
  -5   4  10 129.016 317.056  43
  -5   4  10 96.6531 237.607  37
   5   4 -10 605.184 311.084  57
  -5   4  10-85.4039 187.875  58
  -5   4   9 418.143 407.041  43
   5   4  -9 643.917 501.755   3
   5   4  -9 503.427 308.259  57
  -5   4   9 384.227 301.081  58
  -5   4   8 2647.32 824.073  43
   5   4  -8 3321.74 962.853   3
   5   4  -8 2906.98 676.132  57
  -5   4   8 4626.20 871.256  58
   5   4  -7 1112.75 600.320   3
   5   4  -7 1860.18 701.645  29
   5   4  -7 3090.73 675.368  57
  -5   4   7 2025.82 616.360  58
   5   4  -6-192.922 368.498   3
   5   4  -6 517.105 502.026  29
  -5   4   6 1185.63 470.724  58
   5   4  -5 744.051 547.103  29
  -5   4   5 1231.36 564.001  58
   5   4  -4 645.416 375.916  57
  -5   4   4 631.744 394.709  58
  -5   4   4 497.247 516.629  45
   5   4  -4-195.999 432.564  29
   5   4  -3-93.0011 177.312  20
   5   4  -3-109.626 269.521  57
  -5   4   3-128.306 282.123  58
  -5   4   3-168.840 371.127  45
  -5   4   3-342.518 532.247  39
   5   4  -3-202.585 497.761  29
   5   4  -2 2535.66 597.979  20
   5   4  -2 2773.92 704.642  57
  -5   4   2 2452.81 737.561  58
  -5   4   2 511.736 516.609  45
  -5   4   2 343.179 767.849  39
   5   4  -2 2472.58 916.982  29
   5   4  -1 2259.50 596.310  20
   5   4  -1 3235.61 738.014  57
  -5   4   1 4636.48 971.958  58
  -5   4   1 2908.35 917.057  45
  -5   4   1 3056.92 1317.06  39
   5   4  -1 2894.67 1094.97  29
   5   4   0 245.308 237.835  20
   5   4   0 445.755 387.235  57
  -5   4   0 127.414 313.115  58
   5   4   0 1024.47 711.843  29
  -5   4   0-170.245 418.292  45
  -5   4   0 663.760 729.228  39
   5   4   1 4407.84 920.489  57
  -5   4  -1 5208.07 1191.15  45
  -5   4  -1 4476.15 1501.91  39
   5   4   2 2490.02 661.853  57
  -5   4  -2 1805.63 771.227  45
  -5   4  -2 3939.50 1387.81  39
   5   4   3 1472.51 508.031  57
   5   4   3-186.054 414.170  29
  -5   4  -3 2222.92 763.223  45
  -5   4  -3 1126.51 821.253  39
   5   4   4 100.543 220.927  57
  -5   4  -4 111.771 212.696  58
   5   4   4-175.488 385.578  29
  -5   4  -4-151.676 288.619  45
  -5   4  -4 255.253 485.690  39
   5   4   5 3212.90 705.401  57
  -5   4  -5 2840.24 714.004  58
   5   4   5 2438.40 851.740  29
  -5   4  -5 2283.82 772.459  45
  -5   4  -5 2905.88 1039.63  39
   5   4   6 346.386 271.669  57
  -5   4  -6 389.950 323.465  58
   5   4   6 1028.34 560.304  29
  -5   4  -6 263.798 326.163  45
  -5   4  -6 928.225 578.046  39
   5   4   7 2217.49 533.609  57
  -5   4  -7 2215.45 580.010  58
   5   4   7 1279.31 615.777  29
  -5   4  -7 1310.31 590.777  45
  -5   4  -8 5844.78 1068.27  45
  -5   4  -8 6282.78 975.136  58
   5   4   8 6141.61 909.259  57
  -5   4  -9 1575.95 508.493  45
  -5   4  -9 2281.85 505.563  58
  -5   4 -10 818.842 357.169  45
  -5   4 -10 1511.91 378.515  58
   5   5 -11 266.516 221.229   3
   5   5 -11 586.295 224.261  20
   5   5 -10 325.742 292.992   3
   5   5 -10 229.171 179.352  20
   5   5  -9 192.704 188.576  20
   5   5  -9 400.351 228.086  57
  -5   5   9 617.440 318.349  58
   5   5  -9 498.154 411.292   3
   5   5  -9 152.927 253.392  34
   5   5  -8 137.071 213.144   3
   5   5  -8 69.9066 171.961  20
   5   5  -8 65.6069 176.775  57
  -5   5   8 259.914 285.673  58
   5   5  -7 595.238 287.624  20
   5   5  -7 654.680 313.596  57
  -5   5   7 472.918 405.584  58
   5   5  -6 2799.64 608.937  20
   5   5  -6 3073.26 656.860  57
  -5   5   6 3332.00 762.234  58
   5   5  -6 2894.94 841.805   3
   5   5  -6 2735.27 815.185  29
   5   5  -5 1279.98 407.999  20
   5   5  -5 838.906 384.559  57
  -5   5   5 1901.69 590.550  58
   5   5  -5 2021.37 712.748   3
   5   5  -5 1249.36 604.312  29
   5   5  -4-81.0679 218.169  20
   5   5  -4 264.196 305.948  57
  -5   5   4-108.870 267.452  58
   5   5  -4 164.655 255.826  29
   5   5  -4-155.834 242.123   3
   5   5  -3 647.247 312.367  20
   5   5  -3 509.102 529.916  29
  -5   5   3 419.704 410.025  45
  -5   5   3 1683.56 926.238  39
   5   5  -3 614.418 449.551   3
   5   5  -2-79.3891 213.629  20
   5   5  -2 515.008 421.694  29
  -5   5   2 283.949 623.864  39
   5   5  -2-148.982 327.328   3
   5   5  -1-142.075 349.001   3
   5   5  -1 305.030 251.324  20
   5   5  -1-94.8917 208.495  57
  -5   5   1 565.905 695.055  39
   5   5  -1 170.788 324.970  29
   5   5   0 2139.63 516.299  20
  -5   5   0 2497.77 1077.50  39
   5   5   0 2258.78 731.843   3
   5   5   0 2762.92 654.955  57
  -5   5   0 3211.64 737.213  58
   5   5   1 3024.67 681.959  57
  -5   5  -1 4133.37 813.026  58
   5   5   1 1940.11 809.142  29
  -5   5  -1 2393.36 808.300  45
  -5   5  -1 1873.23 958.944  39
   5   5   2 184.670 248.914  57
  -5   5  -2 196.945 265.402  58
   5   5   2 153.772 378.027  29
  -5   5  -2 136.903 336.627  45
  -5   5  -2 253.087 556.259  39
   5   5   3 978.303 436.410  57
  -5   5  -3 1202.91 453.225  58
   5   5   3 1580.27 676.320  29
  -5   5  -3 919.170 487.831  45
  -5   5  -3 1169.37 732.909  39
   5   5   4 1428.16 454.087  57
  -5   5  -4 1283.23 432.368  58
   5   5   4 524.661 529.348  29
  -5   5  -4 1487.84 570.685  45
  -5   5  -4 1048.91 698.778  39
   5   5   5-77.3132 170.102  57
  -5   5  -5-77.5217 190.638  58
   5   5   5 115.855 284.732  29
  -5   5  -5-229.706 282.271  45
  -5   5  -5 721.622 594.620  39
  -5   5  -6 208.109 302.614  45
   5   5   6 68.9573 151.868  57
  -5   5  -6 68.3755 168.287  58
  -5   5  -7 731.764 369.028  45
   5   5   7 879.484 310.145  57
  -5   5  -8 307.756 271.463  45
   5   5   8 734.135 235.814  57
  -5   5  -9 299.702 209.801  45
   5   6  -8 1034.61 380.397   3
   5   6  -8 962.822 268.022  20
   5   6  -7 176.638 194.180   3
   5   6  -7 49.2647 132.762  20
   5   6  -7 75.6173 219.899  34
   5   6  -6 1120.86 319.435  20
   5   6  -6 1123.18 434.677   3
   5   6  -5 337.181 195.870  20
   5   6  -5 160.136 144.513  57
  -5   6   5 142.985 176.334  58
   5   6  -5 95.8281 258.352   3
   5   6  -4 692.558 265.810  20
   5   6  -4 409.054 227.537  57
  -5   6   4 668.906 298.300  58
   5   6  -3 1040.77 322.554  20
   5   6  -3 997.585 325.161  57
  -5   6   3 906.878 398.553  58
   5   6  -2 1295.80 358.613  20
   5   6  -2 1626.07 420.789  57
  -5   6   2 1203.42 429.377  58
  -5   6   1 879.550 425.588  45
  -5   6   1 1400.87 701.112  39
   5   6  -1 1165.04 315.617  20
   5   6  -1 1201.29 384.695  57
  -5   6   1 808.457 380.961  58
   5   6   0 141.961 137.868  20
  -5   6   0 70.4071 189.699  58
   5   6   0 229.623 333.836  29
  -5   6   0 293.000 322.017  45
  -5   6   0-196.644 432.152  39
  -5   6  -1 2772.29 581.535  58
   5   6   1 2812.71 710.319  29
  -5   6  -1 1628.84 561.652  45
  -5   6  -1 2076.03 826.596  39
   5   6   2 1094.92 351.481  57
  -5   6  -2 964.945 329.750  58
   5   6   2 296.875 348.669  29
  -5   6  -2 645.740 383.622  45
  -5   6  -2 176.286 436.930  39
   5   6   3 1883.23 444.291  57
  -5   6  -3 1590.78 671.750  39
   5   6   4 222.457 163.207  57
  -5   6  -4 546.109 424.811  39
   5   6   5 682.551 233.716  57
  -5   6  -5 534.909 356.790  39
  -6  -5   2 1914.42 453.489  31
  -6  -5   1 598.603 287.583  31
  -6  -5   0 512.750 257.631  31
  -6  -4   7 144.985 195.463  40
  -6  -4   6 88.8694 195.403  40
  -6  -4   5 101.348 222.841  40
  -6  -4   4 2245.54 639.920  31
  -6  -4   3 156.665 388.761  24
  -6  -4   3 1886.01 611.861  31
  -6  -4   2 166.025 258.324  24
  -6  -4   1 169.594 323.019  24
  -6  -4   0 652.435 362.689  31
  -6  -4  -1-161.381 250.962  24
  -6  -4  -1-102.795 276.831  31
  -6  -4  -2 150.158 371.743  24
  -6  -4  -2 940.001 375.187  31
  -6  -4  -3 1745.22 603.511  24
  -6  -4  -3 1314.36 502.397  31
  -6  -4  -4 113.289 177.289  24
   6  -4   4 410.212 192.373  26
  -6  -3  10 61.4440 151.024  40
  -6  -3   9 170.180 209.524  40
  -6  -3   8 309.726 301.239  40
  -6  -3   7 354.283 368.189  40
  -6  -3   6 912.555 524.159  40
  -6  -3   6 1148.76 443.380   8
  -6  -3   5 1429.48 516.765   8
  -6  -3   4 1100.31 488.149   8
  -6  -3   3 606.785 449.848  24
  -6  -3   3 973.478 533.815  31
  -6  -3   3 925.209 470.844   8
  -6  -3   2 212.917 331.597  24
  -6  -3   2 837.754 509.251  31
  -6  -3   2 103.768 323.257   8
   6  -3  -1 594.851 266.087  21
  -6  -3   1 217.945 479.075  24
  -6  -3   1-137.829 338.890  31
  -6  -3   1-103.032 277.643   8
   6  -3   0 482.048 265.537  21
  -6  -3   0 435.463 415.815  24
  -6  -3   0 267.045 389.713  31
  -6  -3   0 402.267 368.139   8
   6  -3   1 1872.02 421.362  21
  -6  -3  -1 2530.97 741.112  31
  -6  -3  -1 1734.61 564.644   8
   6  -3   2 295.704 190.482  21
  -6  -3  -2 404.959 386.703  24
  -6  -3  -2 700.457 386.181  31
  -6  -3  -2 451.788 345.463   8
  -6  -3  -3-187.723 357.220  24
  -6  -3  -3 164.800 271.604   8
  -6  -3  -4 168.367 375.367  24
  -6  -3  -4 1517.14 439.342   8
  -6  -3  -5 866.422 480.248  24
  -6  -3  -5 712.076 298.567   8
   6  -3   6-47.4636 138.012  26
  -6  -2  11 77.9809 148.527  40
  -6  -2  10 298.772 310.498  40
  -6  -2   9 1057.36 474.058  40
  -6  -2   8 921.061 497.983   8
  -6  -2   8 1194.10 533.110  40
  -6  -2   7 994.766 494.378   8
  -6  -2   7 290.894 322.421  40
  -6  -2   6 657.817 480.161   8
  -6  -2   6 155.903 343.672  40
  -6  -2   5 547.913 477.943   8
  -6  -2   5 492.103 511.635  40
  -6  -2   4 1060.08 532.442  31
  -6  -2   4 844.669 563.603   8
  -6  -2   3 1149.51 689.803  24
  -6  -2   3 1859.17 756.534   8
  -6  -2   2 485.455 598.518  24
  -6  -2   2 605.092 501.261  31
  -6  -2   2 718.937 549.659   8
  -6  -2   1 249.959 554.578  24
  -6  -2   1 1182.08 543.863  31
  -6  -2   1 1431.26 671.521   8
  -6  -2   0 1763.46 846.840  24
  -6  -2   0 1701.45 644.988  31
  -6  -2   0 2538.10 821.995   8
  -6  -2  -1 1331.80 583.987  31
  -6  -2  -1 2197.86 752.654   8
   6  -2   2 1788.16 500.027  21
  -6  -2  -2 660.627 492.531   8
   6  -2   3-156.035 242.503  21
  -6  -2  -3 681.285 611.121  24
  -6  -2  -3 625.968 456.187   8
   6  -2   4 2281.35 525.322  21
  -6  -2  -4 626.347 474.289  24
  -6  -2  -4 1514.44 570.708   8
   6  -2   5-67.9238 183.009  21
  -6  -2  -5-185.658 353.381  24
  -6  -2  -5-105.973 285.312   8
   6  -2   6 4752.57 746.948  21
  -6  -2  -6 3930.19 818.311   8
   6  -2   7 1204.59 350.285  21
  -6  -2  -7 1662.90 482.604   8
  -6  -2  -8 1809.25 444.712   8
  -6  -1  12 409.931 251.388   5
  -6  -1  11 666.547 355.191   5
  -6  -1  11 101.005 223.036  40
   6  -1 -10 303.954 179.694  57
  -6  -1  10 95.8287 279.303   5
  -6  -1  10 239.848 264.307  40
   6  -1  -9 47.6283 128.330  57
  -6  -1   9 124.066 304.829   8
  -6  -1   9 136.120 299.141  40
   6  -1  -8 150.630 166.733  57
  -6  -1   8 449.324 368.478  40
  -6  -1   8 671.544 489.777   8
  -6  -1   7 998.455 549.484   8
  -6  -1   6 1492.11 647.555   8
  -6  -1   5 175.573 273.577  40
  -6  -1   5 462.674 479.663   8
  -6  -1   4-179.029 393.399  40
  -6  -1   4 157.746 424.528   8
  -6  -1   3-159.918 465.163   8
  -6  -1   3-239.698 456.455  24
  -6  -1   2-321.603 499.739   8
  -6  -1   2-254.955 396.223  24
  -6  -1   2 148.553 282.839  31
  -6  -1   1 2085.30 783.279   8
  -6  -1   1 1058.23 728.241  24
  -6  -1   1 2280.40 733.715  31
  -6  -1   0 1613.27 849.167  24
  -6  -1   0 1904.31 755.085   8
  -6  -1  -1 536.080 590.429  24
  -6  -1  -1 466.713 485.235   8
  -6  -1  -2 754.635 528.269   8
   6  -1   3 1049.07 438.587  21
  -6  -1  -3 501.434 483.049  24
  -6  -1  -3 1157.12 577.904   8
   6  -1   4 1546.94 482.484  21
  -6  -1  -4 936.466 640.174  24
   6  -1   5 512.896 300.186  21
   6  -1   6 945.356 395.398  21
   6  -1   7 1346.42 405.937  21
   6  -1   8 739.073 301.624  21
   6  -1   9 1871.05 413.140  21
  -6   0  12 331.315 265.730   5
   6   0 -12 576.796 206.632  57
  -6   0  11 202.048 245.466  43
  -6   0  11 80.5550 197.978   5
   6   0 -11-99.0453 163.331  57
  -6   0  10 256.371 345.043  40
  -6   0  10 258.135 283.708  43
  -6   0  10 92.0907 226.384   5
   6   0 -10 56.3456 124.106  57
  -6   0   9-128.079 372.360   8
   6   0  -9 184.783 191.581  57
  -6   0   8 3172.16 876.519   8
   6   0  -8 4054.07 688.533  57
  -6   0   7 329.540 404.852  40
  -6   0   7 291.838 392.761   8
   6   0  -7 67.6986 166.557  57
  -6   0   6 171.281 378.667  40
  -6   0   6 608.917 474.869   8
   6   0  -6 617.013 274.787  57
  -6   0   5 4197.56 1085.77  40
  -6   0   5 3454.92 1029.92   8
   6   0  -5 3876.06 698.433  57
  -6   0   4 2284.18 805.862  40
  -6   0   4 1764.66 716.217   8
   6   0  -4 1254.76 377.300  57
   6   0  -3 127.198 279.486  29
  -6   0   3-173.763 381.789  40
  -6   0   3 162.521 437.338   8
  -6   0   2-169.097 321.908  40
  -6   0   2 163.401 439.810   8
  -6   0   1 1940.11 751.624  40
  -6   0   1 2089.42 1008.23  24
  -6   0   1 1956.90 757.800   8
  -6   0   0 267.656 509.475  24
  -6   0   0-323.011 469.624   8
  -6   0  -1 1427.45 663.277   8
  -6   0  -2 4548.56 809.707  58
  -6   0  -2 7404.42 1363.83   8
   6   0   3 400.645 294.129  21
  -6   0  -3 583.724 302.841  58
   6   0   4 382.558 300.014  21
  -6   0  -4 569.126 284.780  58
   6   0   5 90.0903 198.049  21
  -6   0  -5 67.7883 182.532  58
   6   0   6 83.4485 205.377  21
  -6   0  -6-251.860 138.919  58
   6   0   7 907.992 346.393  21
  -6   0  -7 452.604 229.661  58
   6   0   8 4202.07 666.966  21
  -6   0  -8 1893.43 454.795  58
   6   0   9 1181.75 327.307  21
  -6   0  -9 541.028 221.364  58
  -6   1  12 293.426 204.688  43
   6   1 -12 174.361 144.820  57
  -6   1  11-78.4698 192.990  43
   6   1 -11 316.288 200.831  57
  -6   1  10 94.5356 234.159  43
   6   1 -10 663.547 258.407  57
  -6   1   9 839.174 493.595   8
   6   1  -9 86.1422 285.338   3
   6   1  -9 398.940 243.945  57
  -6   1   8 147.424 362.672  40
   6   1  -8 142.482 192.715  57
  -6   1   7 1857.93 689.361  40
  -6   1   7 1656.04 634.880   8
   6   1  -7 1044.53 365.066  57
  -6   1   6 2226.80 800.573  40
  -6   1   6 1299.21 618.363   8
   6   1  -6 2529.52 560.286  57
  -6   1   5 160.171 393.831  40
  -6   1   5 596.600 491.852   8
   6   1  -5 154.882 191.020  57
  -6   1   4 304.913 443.131   8
  -6   1   4-158.260 301.156  40
   6   1  -4-123.548 271.477  29
   6   1  -4 77.0442 207.357  57
  -6   1   3-154.425 415.726   8
  -6   1   3-153.400 238.644  40
   6   1  -3 140.288 308.478  29
   6   1  -3 452.087 248.630  57
  -6   1   3 225.685 202.812  58
   6   1  -2-72.6294 178.453  57
  -6   1   2 79.7879 247.946  58
   6   1  -2-153.554 377.215  29
  -6   1   2 155.132 450.905   8
   6   1  -1 1303.10 392.828  57
  -6   1   1 1492.36 459.880  58
  -6   1   1 927.628 622.411   8
  -6   1   0 2542.51 602.272  58
  -6   1   0 1528.26 715.894   8
  -6   1  -1 256.272 248.463  58
  -6   1  -1-149.734 403.028   8
  -6   1  -2 849.116 336.647  58
  -6   1  -2-290.482 422.398   8
   6   1   3 753.508 379.151  21
  -6   1  -3 748.537 336.302  58
  -6   1  -3 974.706 534.189   8
   6   1   4 1702.55 500.991  21
  -6   1  -4 801.428 353.563  58
   6   1   5 168.031 185.512  21
  -6   1  -5 303.090 250.402  58
   6   1   6 1469.90 470.350  21
  -6   1  -6 1749.22 468.896  58
   6   1   7 1183.71 352.378  21
  -6   1  -7 125.633 221.175  58
   6   1   8 1456.29 376.767  21
  -6   1  -8 487.927 239.614  58
   6   1   9 1905.99 385.436  21
  -6   1  -9 528.289 239.421  58
  -6   2  12 111.512 150.335  43
  -6   2  11 74.5762 231.732  43
   6   2 -11-47.8251 105.102  57
  -6   2  10 630.490 361.189  43
   6   2 -10 605.934 272.572   3
   6   2 -10 731.379 275.243  57
  -6   2   9 412.639 402.327  43
   6   2  -9 1391.30 384.348  57
   6   2  -9 1275.18 433.558   3
   6   2  -8 688.693 305.941  57
  -6   2   8 538.576 376.880   8
   6   2  -8 331.266 324.068   3
   6   2  -7 951.664 352.810  57
  -6   2   7 1282.88 535.824   8
   6   2  -6 991.979 367.828  57
  -6   2   6 255.894 226.227  58
  -6   2   6 741.157 452.046   8
   6   2  -5 390.395 259.256  57
  -6   2   5 433.020 264.843  58
   6   2  -5 108.979 294.950  29
  -6   2   5 771.705 469.679   8
   6   2  -4 1498.98 434.005  57
  -6   2   4 1098.56 395.853  58
   6   2  -4 762.189 450.365  29
  -6   2   4 660.474 550.357   8
   6   2  -3 3224.07 657.189  57
  -6   2   3 3076.27 651.887  58
   6   2  -3 2120.48 832.636  29
  -6   2   3 3484.75 908.293   8
   6   2  -2 773.056 332.996  57
  -6   2   2 432.027 304.637  58
   6   2  -2 760.684 475.566  29
  -6   2   2 538.183 514.646   8
   6   2  -1 1796.09 473.657  57
  -6   2   1 1590.84 518.981  58
   6   2  -1 1434.96 643.153  29
  -6   2   1 668.500 562.887   8
   6   2   0 1630.43 432.242  57
  -6   2   0 2406.61 585.678  58
   6   2   0 979.858 609.157  29
  -6   2   0 920.555 592.423   8
   6   2   1 2358.10 514.307  57
  -6   2  -1 3280.79 695.344  58
  -6   2  -1 2431.02 774.736   8
   6   2   1 2129.53 793.683  29
   6   2   2 1724.94 474.345  21
  -6   2  -2 1218.36 442.829  58
  -6   2  -2 860.816 500.552   8
   6   2   2 1932.43 779.690  29
   6   2   3-78.4309 172.320  21
  -6   2  -3 757.432 333.343  58
  -6   2  -3 116.518 286.217   8
   6   2   3-310.202 340.771  29
   6   2   4 2065.00 517.430  21
  -6   2  -4 1841.07 506.800  58
  -6   2  -4 1844.57 604.864   8
   6   2   4 1461.16 661.145  29
  -6   2  -5 98.8444 242.961   8
   6   2   5 136.057 197.917  21
  -6   2  -5 74.6675 183.624  58
   6   2   6 4467.65 690.730  21
   6   2   6 2741.88 781.668  29
  -6   2  -6 2720.15 607.901  58
   6   2   7 1010.33 454.271  29
  -6   2  -7 1200.41 373.749  58
   6   2   8 1495.43 453.472  29
  -6   2  -8 1113.30 327.210  58
  -6   2  -9 196.861 150.774  58
  -6   3  11 437.164 235.489  43
   6   3 -10 44.2659 97.3301  57
   6   3  -9 365.763 192.731  57
   6   3  -9 324.759 254.050   3
   6   3  -8-41.2589 90.8236  20
   6   3  -8 176.295 170.892  57
  -6   3   8 127.019 154.366  58
  -6   3   8 567.040 344.378  43
   6   3  -8 198.383 218.006   3
   6   3  -7 683.461 416.467   3
   6   3  -7 429.942 186.167  20
   6   3  -7 703.944 283.325  57
  -6   3   7 163.686 201.781  58
   6   3  -6 502.995 396.546   3
   6   3  -6 563.458 313.714  29
   6   3  -6 1088.57 364.784  57
  -6   3   6 1022.02 343.275  58
   6   3  -5 1113.24 467.415  29
   6   3  -5 1206.10 376.815  57
  -6   3   5 923.757 352.318  58
   6   3  -4 351.233 318.366  29
   6   3  -4 727.652 323.020  57
  -6   3   4 536.240 295.111  58
   6   3  -3 1160.81 516.463  29
   6   3  -3 661.544 311.499  57
  -6   3   3 1128.60 422.239  58
   6   3  -2 274.493 375.302  29
   6   3  -2 1094.52 364.645  57
  -6   3   2 998.218 424.057  58
   6   3  -1 142.041 313.642  29
   6   3  -1 500.218 284.768  57
  -6   3   1 421.950 309.061  58
   6   3   0 143.543 276.869  29
   6   3   0 755.444 314.359  57
  -6   3   0 1011.32 416.518  58
  -6   3  -1 1120.85 521.420  45
   6   3   1 3119.92 844.621  29
   6   3   1 2834.25 546.992  57
  -6   3  -1 2237.78 583.552  58
  -6   3  -2 939.008 431.774  45
   6   3   2 1233.43 606.793  29
   6   3   2 756.782 288.511  57
  -6   3  -2 882.518 370.927  58
  -6   3  -3 167.425 260.510  45
   6   3   3 99.3384 164.330  57
  -6   3  -3 381.616 278.457  58
  -6   3  -4 568.368 290.369  45
  -6   3  -4 1495.43 441.403  58
  -6   3  -5 441.171 241.052  45
   6   3   5 1159.14 520.641  29
  -6   3  -5 843.264 323.437  58
   6   3   6-88.5852 217.603  29
  -6   3  -6 57.2366 177.843  58
  -6   3  -7 192.580 183.955  58
  -6   3  -8 222.281 136.313  58
   6   4  -7-84.9667 208.717   3
   6   4  -7-47.0611 103.402  57
  -6   4   7 42.4651 104.317  58
   6   4  -6 190.082 233.481   3
   6   4  -6-104.142 114.446  57
  -6   4   6 206.782 196.750  58
   6   4  -5 167.508 162.947  57
  -6   4   5 176.063 182.940  58
   6   4  -4 847.631 445.964   3
   6   4  -4 1105.80 440.081  29
   6   4  -4 1285.66 364.494  57
  -6   4   4 1148.41 383.089  58
   6   4  -3 1498.63 599.504   3
   6   4  -3 1635.88 563.632  29
   6   4  -3 2336.17 476.151  57
  -6   4   3 2020.74 502.013  58
   6   4  -2-105.314 258.719   3
   6   4  -2 108.528 206.529  29
   6   4  -2-60.1981 187.076  57
  -6   4   2 69.3867 170.477  58
   6   4  -1 100.770 248.038   3
   6   4  -1 668.339 367.442  29
   6   4  -1 59.2606 160.246  57
  -6   4   1 349.767 243.526  58
   6   4   0 933.186 374.918   3
   6   4   0 444.042 350.596  29
   6   4   0 739.281 272.381  57
  -6   4   0 829.358 336.849  58
   6   4   1-107.606 236.477  29
   6   4   1-53.0500 142.847  57
  -6   4  -1-66.9209 194.574  58
   6   4   2 1136.96 300.410  57
  -6   4  -2 1521.93 417.126  58
  -6   4  -2 755.335 364.594  45
  -6   4  -3 2871.58 535.223  58
   6   4   3 1932.64 583.332  29
  -6   4  -3 1727.49 474.793  45
  -6   4  -4 629.341 252.715  58
   6   4   4 79.5351 232.887  29
  -6   4  -4 328.269 226.653  45
   6   4   5 502.014 252.237  29
  -6   5   3 162.899 134.936  58
  -6   5   2 2249.92 417.237  58
  -6   5   1 890.875 262.291  58
   6   5   0-63.9254 172.102  29
   0   0   0    0.00    0.00   0

TITL songxh_Cl_210208_2 in P2(1)
REM P2(1) (#4 in standard setting)
CELL 1.54184   5.547200   7.819535  18.332703  90.0000  94.3077  90.0000
ZERR    9.00   0.000240   0.000356   0.000704   0.0000   0.0037   0.0000
LATT -1
SYMM -x, y+1/2,-z
SFAC C H N O Cl Br
UNIT 9.00 9.00 9.00 9.00 9.00 9.00
TREF
HKLF 4
END
;
_shelx_hkl_checksum              66564
_olex2_submission_special_instructions 'No special instructions were received'
_oxdiff_exptl_absorpt_empirical_details
;
Empirical correction (ABSPACK) includes:
- Absorption correction using spherical harmonics
- Frame scaling
;
_oxdiff_exptl_absorpt_empirical_full_max 3.400
_oxdiff_exptl_absorpt_empirical_full_min 0.414
loop_
_space_group_symop_operation_xyz
'x, y, z'
'-x, y+1/2, -z'
loop_
_atom_site_label
_atom_site_type_symbol
_atom_site_fract_x
_atom_site_fract_y
_atom_site_fract_z
_atom_site_U_iso_or_equiv
_atom_site_adp_type
_atom_site_occupancy
_atom_site_site_symmetry_order
_atom_site_calc_flag
_atom_site_refinement_flags_posn
_atom_site_refinement_flags_adp
_atom_site_refinement_flags_occupancy
_atom_site_disorder_assembly
_atom_site_disorder_group
Br13 Br 1.0550(3) 0.4067(3) 1.09215(9) 0.0344(5) Uani 1 1 d . . . . .
Br12 Br 0.4586(3) 0.7898(2) 0.77804(10) 0.0371(5) Uani 1 1 d . . . . .
Br11 Br 0.3181(4) 0.2084(3) 0.77944(11) 0.0408(5) Uani 1 1 d . . . . .
O20 O 0.293(2) 0.441(2) 0.3930(6) 0.043(4) Uani 1 1 d . . . . .
O10 O -0.025(2) 0.5297(18) 0.7146(6) 0.039(3) Uani 1 1 d . . . . .
C4 C 0.843(3) 0.455(2) 1.0068(9) 0.028(4) Uani 1 1 d . . . . .
C2 C 0.481(3) 0.570(3) 0.9502(9) 0.035(4) Uani 1 1 d . . . . .
H2 H 0.337432 0.629027 0.953763 0.042 Uiso 1 1 calc R U . . .
C6 C 0.759(3) 0.428(3) 0.8785(9) 0.037(4) Uani 1 1 d . . . . .
H6 H 0.802460 0.391044 0.833073 0.044 Uiso 1 1 calc R U . . .
C18 C 0.434(3) 0.387(3) 0.5134(9) 0.034(4) Uani 1 1 d . . . . .
H18 H 0.567185 0.333329 0.495796 0.041 Uiso 1 1 calc R U . . .
C16 C 0.052(3) 0.541(2) 0.4905(9) 0.031(4) Uani 1 1 d . . . . .
H16 H -0.067435 0.589745 0.458586 0.037 Uiso 1 1 calc R U . . .
C9 C 0.168(3) 0.488(3) 0.6939(10) 0.033(4) Uani 1 1 d . . . . .
C5 C 0.909(3) 0.395(2) 0.9403(9) 0.029(4) Uani 1 1 d . . . . .
H5 H 1.052067 0.334562 0.937243 0.034 Uiso 1 1 calc R U . . .
C1 C 0.539(3) 0.515(2) 0.8835(9) 0.030(4) Uani 1 1 d . . . . .
C17 C 0.255(3) 0.458(2) 0.4647(9) 0.033(4) Uani 1 1 d . . . . .
C19 C 0.410(3) 0.397(3) 0.5884(9) 0.034(4) Uani 1 1 d . . . . .
H19 H 0.528701 0.349678 0.621007 0.041 Uiso 1 1 calc R U . . .
C7 C 0.374(3) 0.555(2) 0.8180(9) 0.033(4) Uani 1 1 d . . . . .
H7 H 0.207775 0.557780 0.832308 0.040 Uiso 1 1 calc R U . . .
C15 C 0.038(3) 0.547(2) 0.5659(9) 0.033(4) Uani 1 1 d . . . . .
H15 H -0.093505 0.601618 0.584147 0.039 Uiso 1 1 calc R U . . .
C3 C 0.631(3) 0.539(2) 1.0142(10) 0.028(4) Uiso 1 1 d . . . . .
H3 H 0.586288 0.574156 1.059793 0.034 Uiso 1 1 calc R U . . .
C8 C 0.384(3) 0.451(2) 0.7505(10) 0.035(4) Uiso 1 1 d . . . . .
H8 H 0.539489 0.461749 0.728960 0.042 Uiso 1 1 calc R U . . .
C14 C 0.210(3) 0.477(3) 0.6145(9) 0.032(4) Uani 1 1 d . . . . .
C21 C 0.108(4) 0.509(3) 0.3416(10) 0.047(6) Uani 1 1 d . . . . .
H21A H -0.045060 0.458590 0.350565 0.070 Uiso 1 1 calc R U . . .
H21B H 0.146281 0.482126 0.292637 0.070 Uiso 1 1 calc R U . . .
H21C H 0.099090 0.630514 0.347275 0.070 Uiso 1 1 calc R U . . .
loop_
_atom_site_aniso_label
_atom_site_aniso_U_11
_atom_site_aniso_U_22
_atom_site_aniso_U_33
_atom_site_aniso_U_23
_atom_site_aniso_U_13
_atom_site_aniso_U_12
Br13 0.0301(9) 0.0460(11) 0.0261(9) 0.0022(8) -0.0048(6) 0.0001(9)
Br12 0.0385(10) 0.0349(11) 0.0367(10) 0.0042(9) -0.0043(8) -0.0008(9)
Br11 0.0486(11) 0.0348(11) 0.0365(10) 0.0025(9) -0.0131(8) -0.0036(9)
O20 0.039(7) 0.067(11) 0.021(6) -0.002(6) -0.005(5) 0.011(7)
O10 0.039(8) 0.054(9) 0.023(6) 0.000(6) -0.002(6) 0.004(6)
C4 0.023(8) 0.038(11) 0.023(8) 0.003(7) -0.001(6) -0.004(7)
C2 0.022(8) 0.055(13) 0.027(9) 0.003(9) -0.003(7) -0.012(8)
C6 0.030(9) 0.054(13) 0.026(8) -0.004(9) 0.000(7) 0.000(9)
C18 0.029(9) 0.051(12) 0.022(8) -0.005(8) -0.004(6) 0.003(8)
C16 0.030(10) 0.033(11) 0.029(9) 0.002(7) -0.002(7) 0.004(8)
C9 0.022(9) 0.042(11) 0.036(10) -0.003(9) 0.000(7) -0.005(7)
C5 0.028(8) 0.030(9) 0.028(8) -0.004(8) 0.006(6) 0.007(8)
C1 0.019(8) 0.043(11) 0.028(9) 0.002(8) -0.004(7) 0.001(7)
C17 0.028(9) 0.044(12) 0.028(9) 0.000(8) -0.002(7) -0.004(8)
C19 0.033(9) 0.041(10) 0.026(8) 0.003(8) -0.007(6) -0.003(9)
C7 0.039(10) 0.033(10) 0.027(9) 0.000(7) -0.006(7) 0.010(8)
C15 0.026(9) 0.044(12) 0.028(8) -0.008(8) -0.004(7) -0.004(8)
C14 0.026(9) 0.051(12) 0.019(8) -0.002(8) 0.002(7) -0.007(8)
C21 0.056(13) 0.061(15) 0.024(9) 0.007(10) 0.007(9) 0.030(11)
loop_
_atom_type_symbol
_atom_type_description
_atom_type_scat_dispersion_real
_atom_type_scat_dispersion_imag
_atom_type_scat_source
C C 0.0181 0.0091 'International Tables Vol C Tables 4.2.6.8 and 6.1.1.4'
H H 0.0000 0.0000 'International Tables Vol C Tables 4.2.6.8 and 6.1.1.4'
Br Br -0.6763 1.2805 'International Tables Vol C Tables 4.2.6.8 and 6.1.1.4'
O O 0.0492 0.0322 'International Tables Vol C Tables 4.2.6.8 and 6.1.1.4'
loop_
_geom_angle_atom_site_label_1
_geom_angle_atom_site_label_2
_geom_angle_atom_site_label_3
_geom_angle
_geom_angle_site_symmetry_1
_geom_angle_site_symmetry_3
_geom_angle_publ_flag
C17 O20 C21 116.2(14) . . ?
C5 C4 Br13 117.8(12) . . ?
C3 C4 Br13 119.5(13) . . ?
C3 C4 C5 122.6(15) . . ?
C1 C2 H2 118.8 . . ?
C1 C2 C3 122.3(18) . . ?
C3 C2 H2 118.8 . . ?
C5 C6 H6 119.7 . . ?
C5 C6 C1 120.6(16) . . ?
C1 C6 H6 119.7 . . ?
C17 C18 H18 120.2 . . ?
C19 C18 H18 120.2 . . ?
C19 C18 C17 119.6(17) . . ?
C17 C16 H16 121.6 . . ?
C15 C16 H16 121.6 . . ?
C15 C16 C17 116.8(16) . . ?
O10 C9 C8 119.9(16) . . ?
O10 C9 C14 122.0(16) . . ?
C14 C9 C8 118.1(16) . . ?
C4 C5 C6 118.6(15) . . ?
C4 C5 H5 120.7 . . ?
C6 C5 H5 120.7 . . ?
C2 C1 C6 118.5(16) . . ?
C2 C1 C7 119.2(16) . . ?
C6 C1 C7 122.2(16) . . ?
O20 C17 C18 115.1(16) . . ?
O20 C17 C16 123.9(15) . . ?
C18 C17 C16 121.0(16) . . ?
C18 C19 H19 120.0 . . ?
C18 C19 C14 120.0(16) . . ?
C14 C19 H19 120.0 . . ?
Br12 C7 H7 108.9 . . ?
C1 C7 Br12 109.6(13) . . ?
C1 C7 H7 108.9 . . ?
C1 C7 C8 119.8(15) . . ?
C8 C7 Br12 99.9(12) . . ?
C8 C7 H7 108.9 . . ?
C16 C15 H15 118.4 . . ?
C14 C15 C16 123.3(17) . . ?
C14 C15 H15 118.4 . . ?
C4 C3 C2 117.2(17) . . ?
C4 C3 H3 121.4 . . ?
C2 C3 H3 121.4 . . ?
Br11 C8 H8 111.9 . . ?
C9 C8 Br11 102.0(12) . . ?
C9 C8 H8 111.9 . . ?
C7 C8 Br11 106.3(12) . . ?
C7 C8 C9 112.3(15) . . ?
C7 C8 H8 111.9 . . ?
C19 C14 C9 123.2(16) . . ?
C15 C14 C9 117.4(17) . . ?
C15 C14 C19 119.3(16) . . ?
O20 C21 H21A 109.5 . . ?
O20 C21 H21B 109.5 . . ?
O20 C21 H21C 109.5 . . ?
H21A C21 H21B 109.5 . . ?
H21A C21 H21C 109.5 . . ?
H21B C21 H21C 109.5 . . ?
loop_
_geom_bond_atom_site_label_1
_geom_bond_atom_site_label_2
_geom_bond_distance
_geom_bond_site_symmetry_2
_geom_bond_publ_flag
Br13 C4 1.923(15) . ?
Br12 C7 2.041(19) . ?
Br11 C8 2.008(19) . ?
O20 C17 1.35(2) . ?
O20 C21 1.44(2) . ?
O10 C9 1.21(2) . ?
C4 C5 1.38(2) . ?
C4 C3 1.37(2) . ?
C2 H2 0.9300 . ?
C2 C1 1.36(3) . ?
C2 C3 1.40(2) . ?
C6 H6 0.9300 . ?
C6 C5 1.38(2) . ?
C6 C1 1.40(3) . ?
C18 H18 0.9300 . ?
C18 C17 1.40(2) . ?
C18 C19 1.39(2) . ?
C16 H16 0.9300 . ?
C16 C17 1.41(2) . ?
C16 C15 1.39(2) . ?
C9 C8 1.55(2) . ?
C9 C14 1.49(2) . ?
C5 H5 0.9300 . ?
C1 C7 1.49(2) . ?
C19 H19 0.9300 . ?
C19 C14 1.39(3) . ?
C7 H7 0.9800 . ?
C7 C8 1.49(2) . ?
C15 H15 0.9300 . ?
C15 C14 1.37(2) . ?
C3 H3 0.9300 . ?
C8 H8 0.9800 . ?
C21 H21A 0.9600 . ?
C21 H21B 0.9600 . ?
C21 H21C 0.9600 . ?
loop_
_geom_torsion_atom_site_label_1
_geom_torsion_atom_site_label_2
_geom_torsion_atom_site_label_3
_geom_torsion_atom_site_label_4
_geom_torsion
_geom_torsion_site_symmetry_1
_geom_torsion_site_symmetry_2
_geom_torsion_site_symmetry_3
_geom_torsion_site_symmetry_4
_geom_torsion_publ_flag
Br13 C4 C5 C6 179.5(14) . . . . ?
Br13 C4 C3 C2 -179.3(13) . . . . ?
Br12 C7 C8 Br11 177.7(8) . . . . ?
Br12 C7 C8 C9 -71.6(16) . . . . ?
O10 C9 C8 Br11 82(2) . . . . ?
O10 C9 C8 C7 -31(3) . . . . ?
O10 C9 C14 C19 -166(2) . . . . ?
O10 C9 C14 C15 12(3) . . . . ?
C2 C1 C7 Br12 87.0(19) . . . . ?
C2 C1 C7 C8 -158.5(18) . . . . ?
C6 C1 C7 Br12 -91(2) . . . . ?
C6 C1 C7 C8 24(3) . . . . ?
C18 C19 C14 C9 177.8(19) . . . . ?
C18 C19 C14 C15 -1(3) . . . . ?
C16 C15 C14 C9 -177.8(17) . . . . ?
C16 C15 C14 C19 1(3) . . . . ?
C5 C4 C3 C2 -3(3) . . . . ?
C5 C6 C1 C2 1(3) . . . . ?
C5 C6 C1 C7 178.9(19) . . . . ?
C1 C2 C3 C4 2(3) . . . . ?
C1 C6 C5 C4 -2(3) . . . . ?
C1 C7 C8 Br11 58(2) . . . . ?
C1 C7 C8 C9 168.9(17) . . . . ?
C17 C18 C19 C14 0(3) . . . . ?
C17 C16 C15 C14 0(3) . . . . ?
C19 C18 C17 O20 -179.7(18) . . . . ?
C19 C18 C17 C16 1(3) . . . . ?
C15 C16 C17 O20 179.8(17) . . . . ?
C15 C16 C17 C18 -1(3) . . . . ?
C3 C4 C5 C6 3(3) . . . . ?
C3 C2 C1 C6 -1(3) . . . . ?
C3 C2 C1 C7 -178.9(17) . . . . ?
C8 C9 C14 C19 16(3) . . . . ?
C8 C9 C14 C15 -165.3(18) . . . . ?
C14 C9 C8 Br11 -100.2(18) . . . . ?
C14 C9 C8 C7 146.4(18) . . . . ?
C21 O20 C17 C18 178.3(19) . . . . ?
C21 O20 C17 C16 -2(3) . . . . ?
