#------------------------------------------------------------------------------
#$Date: 2021-11-06 20:59:59 +0200 (Sat, 06 Nov 2021) $
#$Revision: 270399 $
#$URL: file:///home/coder/svn-repositories/cod/cif/7/12/91/7129124.cif $
#------------------------------------------------------------------------------
#
# This file is available in the Crystallography Open Database (COD),
# http://www.crystallography.net/
#
# All data on this site have been placed in the public domain by the
# contributors.
#
data_7129124
loop_
_publ_author_name
'Feuerstein, Wolfram'
'Varava, Paul'
'Fadaei-Tirani, Farzaneh'
'Scopelliti, Rosario'
'Severin, Kay'
_publ_section_title
;
 Synthesis, structural characterization, and coordination chemistry of
 imidazole-based alkylidene ketenes.
;
_journal_issue                   87
_journal_name_full
'Chemical communications (Cambridge, England)'
_journal_page_first              11509
_journal_page_last               11512
_journal_paper_doi               10.1039/d1cc05161j
_journal_volume                  57
_journal_year                    2021
_chemical_formula_moiety         'C7 H8 N2 O'
_chemical_formula_sum            'C7 H8 N2 O'
_chemical_formula_weight         136.15
_space_group_crystal_system      monoclinic
_space_group_IT_number           14
_space_group_name_Hall           '-P 2ybc'
_space_group_name_H-M_alt        'P 1 21/c 1'
_atom_sites_solution_hydrogens   geom
_atom_sites_solution_primary     dual
_atom_sites_solution_secondary   difmap
_audit_creation_date             2021-09-06
_audit_creation_method
;
Olex2 1.5
(compiled 2021.08.20 svn.r13c46975 for OlexSys, GUI svn.r6394)
;
_audit_update_record
;
2021-09-06 deposited with the CCDC.	2021-10-11 downloaded from the CCDC.
;
_cell_angle_alpha                90
_cell_angle_beta                 96.876(4)
_cell_angle_gamma                90
_cell_formula_units_Z            4
_cell_length_a                   6.2198(3)
_cell_length_b                   15.0126(7)
_cell_length_c                   7.3727(3)
_cell_measurement_reflns_used    2224
_cell_measurement_temperature    140.00(10)
_cell_measurement_theta_max      72.2230
_cell_measurement_theta_min      5.8670
_cell_volume                     683.48(5)
_computing_cell_refinement       'CrysAlisPro 1.171.41.116a (Rigaku OD, 2021)'
_computing_data_collection       'CrysAlisPro 1.171.41.116a (Rigaku OD, 2021)'
_computing_data_reduction        'CrysAlisPro 1.171.41.116a (Rigaku OD, 2021)'
_computing_molecular_graphics    'Olex2 1.5 (Dolomanov et al., 2009)'
_computing_publication_material  'Olex2 1.5 (Dolomanov et al., 2009)'
_computing_structure_refinement  'ShelXL 2018/3 (Sheldrick, 2015)'
_computing_structure_solution    'ShelXT 2018/2 (Sheldrick, 2015)'
_diffrn_ambient_environment      N~2~
_diffrn_ambient_temperature      140.00(10)
_diffrn_detector                 'CCD plate'
_diffrn_detector_area_resol_mean 10.2665
_diffrn_detector_type            Atlas
_diffrn_measured_fraction_theta_full 0.998
_diffrn_measured_fraction_theta_max 0.972
_diffrn_measurement_details
;
List of Runs (angles in degrees, time in seconds):

  # Type    Start    End  Width  t~exp~   \w     \q     \k     \f   Frames
#--------------------------------------------------------------------------
  1  \w    -34.00  -1.00   1.00    2.00    --  -43.50  91.00 142.00   33
  2  \w     38.00  73.00   1.00    2.00    --   43.55 -91.00  28.00   35
  3  \w    105.00 175.00   1.00   10.00    --  103.26  91.00 142.00   70
  4  \w     64.00  96.00   1.00   10.00    --  103.26 -91.00  28.00   32
  5  \w    -65.00  26.00   1.00    2.00    --  -43.50  37.00  30.00   91
  6  \w     29.00  75.00   1.00    2.00    --   43.55 -99.00 -60.00   46
  7  \w     23.00 112.00   1.00    2.00    --   43.55  37.00-120.00   89
  8  \w     55.00  82.00   1.00   10.00    --  103.26 -45.00  30.00   27
  9  \w    122.00 170.00   1.00   10.00    --  103.26  77.00 -60.00   48
 10  \w     48.00 107.00   1.00   10.00    --  103.26 -94.00 -60.00   59
 11  \w     98.00 169.00   1.00   10.00    --  103.26 125.00-120.00   71
 12  \w    104.00 170.00   1.00   10.00    --  103.26  77.00  30.00   66
 13  \w    103.00 176.00   1.00   10.00    --  103.26  77.00   0.00   73
 14  \w     75.00 100.00   1.00   10.00    --  103.26 -77.00-180.00   25
;
_diffrn_measurement_device       'four-circle diffractometer'
_diffrn_measurement_device_type  'SuperNova, Dual, Cu at home/near, Atlas'
_diffrn_measurement_method       '\w scans'
_diffrn_orient_matrix_type
'CrysAlisPro convention (1999,Acta A55,543-557)'
_diffrn_orient_matrix_UB_11      0.2090385000
_diffrn_orient_matrix_UB_12      -0.0078372000
_diffrn_orient_matrix_UB_13      -0.0919675000
_diffrn_orient_matrix_UB_21      -0.0693664000
_diffrn_orient_matrix_UB_22      -0.0932835000
_diffrn_orient_matrix_UB_23      -0.0708072000
_diffrn_orient_matrix_UB_31      -0.1177039000
_diffrn_orient_matrix_UB_32      0.0417765000
_diffrn_orient_matrix_UB_33      -0.1756281000
_diffrn_radiation_monochromator  mirror
_diffrn_radiation_probe          x-ray
_diffrn_radiation_type           'Cu K\a'
_diffrn_radiation_wavelength     1.54184
_diffrn_reflns_av_R_equivalents  0.0119
_diffrn_reflns_av_unetI/netI     0.0139
_diffrn_reflns_Laue_measured_fraction_full 0.998
_diffrn_reflns_Laue_measured_fraction_max 0.972
_diffrn_reflns_limit_h_max       7
_diffrn_reflns_limit_h_min       -7
_diffrn_reflns_limit_k_max       18
_diffrn_reflns_limit_k_min       -17
_diffrn_reflns_limit_l_max       8
_diffrn_reflns_limit_l_min       -9
_diffrn_reflns_number            3278
_diffrn_reflns_point_group_measured_fraction_full 0.998
_diffrn_reflns_point_group_measured_fraction_max 0.972
_diffrn_reflns_theta_full        67.684
_diffrn_reflns_theta_max         72.347
_diffrn_reflns_theta_min         5.895
_diffrn_source                   'micro-focus sealed X-ray tube'
_diffrn_source_type              'SuperNova (Cu) X-ray Source'
_exptl_absorpt_coefficient_mu    0.752
_exptl_absorpt_correction_T_max  1.000
_exptl_absorpt_correction_T_min  0.821
_exptl_absorpt_correction_type   gaussian
_exptl_absorpt_process_details
;
CrysAlisPro 1.171.41.116a (Rigaku Oxford Diffraction, 2021)
Numerical absorption correction based on Gaussian integration over
a multifaceted crystal model.
Empirical absorption correction using spherical harmonics
as implemented in SCALE3 ABSPACK scaling algorithm
;
_exptl_crystal_colour            'clear light yellow'
_exptl_crystal_density_diffrn    1.323
_exptl_crystal_description       plate
_exptl_crystal_F_000             288
_exptl_crystal_size_max          0.22
_exptl_crystal_size_mid          0.17
_exptl_crystal_size_min          0.03
_refine_diff_density_max         0.127
_refine_diff_density_min         -0.230
_refine_diff_density_rms         0.036
_refine_ls_extinction_method     none
_refine_ls_goodness_of_fit_ref   1.068
_refine_ls_hydrogen_treatment    constr
_refine_ls_matrix_type           full
_refine_ls_number_parameters     95
_refine_ls_number_reflns         1312
_refine_ls_number_restraints     0
_refine_ls_restrained_S_all      1.068
_refine_ls_R_factor_all          0.0372
_refine_ls_R_factor_gt           0.0321
_refine_ls_shift/su_max          0.000
_refine_ls_shift/su_mean         0.000
_refine_ls_structure_factor_coef Fsqd
_refine_ls_weighting_details
'w=1/[\s^2^(Fo^2^)+(0.0492P)^2^+0.1051P] where P=(Fo^2^+2Fc^2^)/3'
_refine_ls_weighting_scheme      calc
_refine_ls_wR_factor_gt          0.0849
_refine_ls_wR_factor_ref         0.0891
_reflns_Friedel_coverage         0.000
_reflns_number_gt                1156
_reflns_number_total             1312
_reflns_threshold_expression     'I > 2\s(I)'
_cod_data_source_file            d1cc05161j2.cif
_cod_data_source_block           wf457
_cod_depositor_comments
;
The following automatic conversions were performed:

data item '_exptl_absorpt_correction_type' value 'Gaussian' was
changed to 'gaussian' in accordance with the
/home/data/users/saulius/crontab/automatic-downloads/rss-feeds/RSC/lib/dictionaries/cif_core.dic
dictionary named 'cif_core.dic' version 2.4.2 last updated on
2011-04-26.

Automatic conversion script
Id: cif_fix_values 7556 2019-12-06 15:28:31Z antanas 

 Adding full bibliography for 7129122--7129133.cif.
;
_cod_original_cell_volume        683.47(6)
_cod_database_code               7129124
_shelx_shelxl_version_number     2018/3
_audit_contact_author            'Farzaneh Fadaei Tirani'
_chemical_oxdiff_formula         'C7 H8 N2 O'
_shelx_space_group_comment
;
The symmetry employed for this shelxl refinement is uniquely defined
by the following loop, which should always be used as a source of
symmetry information in preference to the above space-group names.
They are only intended as comments.
;
_shelx_estimated_absorpt_t_max   0.978
_shelx_estimated_absorpt_t_min   0.852
_olex2_refinement_description
;
1. Fixed Uiso
 At 1.2 times of:
  All C(H) groups, All C(H,H,H,H,H,H) groups
2. Others
 Sof(H8D)=Sof(H8E)=Sof(H8F)=1-FVAR(1)
 Sof(H8A)=Sof(H8B)=Sof(H8C)=FVAR(1)
 Sof(H9D)=Sof(H9E)=Sof(H9F)=1-FVAR(2)
 Sof(H9A)=Sof(H9B)=Sof(H9C)=FVAR(2)
3.a Aromatic/amide H refined with riding coordinates:
 C4(H4), C5(H5)
3.b Disordered Me refined as rotating group:
 C8(H8A,H8B,H8C,H8D,H8E,H8F), C9(H9A,H9B,H9C,H9D,H9E,H9F)
;
_shelx_res_file
;
TITL wf457.res in P2(1)/c
    wf457.res
    created by SHELXL-2018/3 at 16:28:30 on 06-Sep-2021
CELL 1.54184 6.219754 15.012602 7.372714 90 96.8759 90
ZERR 4 0.000293 0.000708 0.000337 0 0.0044 0
LATT 1
SYMM -X,0.5+Y,0.5-Z
SFAC C H N O
UNIT 28 32 8 4

L.S. 20
PLAN  10
SIZE 0.03 0.17 0.22
TEMP -133.15
CONF
BOND $H
MORE -1
fmap 2
acta
REM <olex2.extras>
REM <HklSrc "%.\\WF457.hkl">
REM </olex2.extras>

WGHT    0.049200    0.105100
FVAR       0.84591   0.83716   0.68031
O1    4    0.201448    0.453551    0.199435    11.00000    0.04646    0.02604 =
         0.04744    0.00424    0.00404    0.00544
N1    3    0.580198    0.177054    0.375066    11.00000    0.02585    0.02810 =
         0.02355   -0.00082    0.00275    0.00166
N2    3    0.757373    0.297586    0.456283    11.00000    0.02488    0.03001 =
         0.02451   -0.00197    0.00157    0.00029
C2    1    0.565929    0.266911    0.371579    11.00000    0.02549    0.02924 =
         0.01996   -0.00090    0.00397    0.00010
C4    1    0.890016    0.226515    0.512153    11.00000    0.02412    0.03782 =
         0.02724   -0.00132   -0.00065    0.00533
AFIX  43
H4    2    1.032692    0.229890    0.574272    11.00000   -1.20000
AFIX   0
C5    1    0.779634    0.151577    0.462260    11.00000    0.02893    0.03290 =
         0.02673    0.00019    0.00159    0.00715
AFIX  43
H5    2    0.829597    0.092234    0.483133    11.00000   -1.20000
AFIX   0
C6    1    0.387499    0.315476    0.296696    11.00000    0.02710    0.03239 =
         0.02939    0.00167    0.00135    0.00135
C7    1    0.303841    0.388259    0.251502    11.00000    0.02782    0.02670 =
         0.02573   -0.00243    0.00318   -0.00419
C8    1    0.405383    0.117709    0.302356    11.00000    0.03050    0.03119 =
         0.03269   -0.00241    0.00247   -0.00328
AFIX 127
H8A   2    0.279021    0.127683    0.367406    21.00000   -1.20000
H8B   2    0.453125    0.055718    0.318821    21.00000   -1.20000
H8C   2    0.366447    0.129820    0.171945    21.00000   -1.20000
H8D   2    0.453375    0.081131    0.204708   -21.00000   -1.20000
H8E   2    0.279270    0.153096    0.253294   -21.00000   -1.20000
H8F   2    0.365948    0.078994    0.400170   -21.00000   -1.20000
AFIX   0
C9    1    0.815865    0.391183    0.475316    11.00000    0.03240    0.03161 =
         0.03568   -0.00365    0.00247   -0.00427
AFIX 127
H9A   2    0.878996    0.410919    0.366551    31.00000   -1.20000
H9B   2    0.921829    0.399195    0.583618    31.00000   -1.20000
H9C   2    0.686194    0.426517    0.488608    31.00000   -1.20000
H9D   2    0.779017    0.413502    0.592634   -31.00000   -1.20000
H9E   2    0.736183    0.425226    0.375567   -31.00000   -1.20000
H9F   2    0.971819    0.397903    0.470576   -31.00000   -1.20000
AFIX   0
HKLF 4




REM  wf457.res in P2(1)/c
REM wR2 = 0.0891, GooF = S = 1.068, Restrained GooF = 1.068 for all data
REM R1 = 0.0321 for 1156 Fo > 4sig(Fo) and 0.0372 for all 1312 data
REM 95 parameters refined using 0 restraints

END

WGHT      0.0492      0.1050

REM Highest difference peak  0.127,  deepest hole -0.230,  1-sigma level  0.036
Q1    1   0.5636  0.2229  0.3771  11.00000  0.05    0.13
Q2    1   0.7791  0.0773  0.4351  11.00000  0.05    0.12
Q3    1   0.3486  0.3350  0.1947  11.00000  0.05    0.12
Q4    1   0.4256  0.3732  0.3072  11.00000  0.05    0.11
Q5    1   0.8161  0.1804  0.5487  11.00000  0.05    0.11
Q6    1   0.6666  0.1620  0.4215  11.00000  0.05    0.11
Q7    1   0.4486  0.2929  0.3385  11.00000  0.05    0.11
Q8    1   1.0567  0.2629  0.5552  11.00000  0.05    0.11
Q9    1   0.8538  0.4044  0.6383  11.00000  0.05    0.10
Q10   1   0.3489  0.3514  0.3440  11.00000  0.05    0.10
;
_shelx_res_checksum              74678
_shelx_hkl_file
;
   0   0  -1    0.07    0.13
   0   0  -2   14.76    0.87
   0   0  -3   -0.37    0.45
   0   0  -4  344.79    5.83
   0   0  -5   -0.30    0.31
   0   0  -5    0.31    0.39
   0   0  -5    0.07    0.69
   0   0  -6   58.55    1.65
   0   0  -6   58.07    3.79
   0   0  -6   58.96    1.79
   0   0  -7   -0.77    0.85
   0   0  -7   -0.18    0.46
   0   0  -8   13.66    0.76
   0   0  -9   -0.12    0.16
   0   1   0    0.09    0.12
   0   1  -1   36.27    1.00
   0  -1  -1   36.29    0.97
   0  -1  -2 2920.27   10.58
   0   1  -2 2914.49   11.52
   0   1  -3  477.10    5.86
   0   1  -3  469.72    7.33
   0   1  -4   19.59    1.49
   0  -1  -4   18.83    1.41
   0   1  -5   35.21    2.70
   0   1  -5   41.08    1.29
   0  -1  -5   37.70    1.31
   0  -1  -5   39.30    1.24
   0   1  -5   40.39    1.33
   0  -1  -5   36.64    2.66
   0   1  -6   15.61    1.97
   0  -1  -6   14.46    1.96
   0  -1  -6   17.15    1.11
   0  -1  -6   15.41    0.90
   0   1  -6   15.74    0.93
   0   1  -6   14.47    1.00
   0   1  -7    5.45    0.63
   0   1  -7    5.80    0.92
   0  -1  -7    7.05    0.68
   0  -1  -8    9.38    0.64
   0   1  -8    9.13    0.63
   0  -1  -9    0.37    0.15
   0   1  -9    0.32    0.15
   0  -2   0 2711.26    8.10
   0   2   0 2722.18    9.09
   0   2  -1  187.78    2.68
   0  -2   1  189.34    1.46
   0  -2  -1  189.31    2.70
   0  -2  -2 1158.78    7.82
   0   2  -2 1174.85    9.50
   0   2  -2 1165.09    8.08
   0   2  -3  290.33    4.88
   0   2  -3  295.29    5.95
   0   2  -4   30.28    1.85
   0  -2  -4   26.68    1.71
   0   2  -4   24.83    2.18
   0  -2  -5  171.23    5.74
   0   2  -5  177.75    2.76
   0  -2  -5  177.62    2.76
   0  -2  -5  177.85    2.58
   0   2  -5  177.19    2.60
   0   2  -5  173.78    5.87
   0   2  -6   10.09    0.89
   0  -2  -6   10.76    1.08
   0   2  -6    9.12    1.68
   0   2  -6   10.75    0.81
   0  -2  -6   10.21    0.77
   0  -2  -6    7.69    1.39
   0   2  -7   -0.39    0.75
   0   2  -7    0.66    0.48
   0  -2  -7    0.40    0.43
   0   2  -8   31.90    1.05
   0  -2  -8   30.91    1.02
   0   3   0    0.12    0.44
   0  -3   0    0.20    0.33
   0   3  -1   13.87    0.94
   0  -3   1   14.64    0.63
   0   3  -2  196.90    4.23
   0  -3  -2  197.78    3.63
   0   3  -2  199.83    3.70
   0  -3  -3   26.28    1.55
   0   3  -3   26.36    2.03
   0   3  -3   28.18    1.66
   0   3  -4   58.78    3.27
   0   3  -4   59.84    2.65
   0  -3  -5   98.25    2.13
   0   3  -5   96.99    4.44
   0  -3  -5   99.19    1.94
   0  -3  -5   93.23    4.27
   0   3  -5  100.38    1.97
   0   3  -5   97.02    2.12
   0   3  -6   36.22    1.33
   0   3  -6   39.90    1.52
   0  -3  -6   35.49    1.29
   0   3  -6   37.58    3.10
   0  -3  -6   38.14    3.09
   0  -3  -7   45.37    1.46
   0   3  -7   48.29    1.73
   0   3  -7   47.13    1.50
   0   3  -8    6.26    0.84
   0  -3  -8    6.39    0.50
   0   3  -8    5.92    0.50
   0  -4   0  626.20    5.75
   0   4  -1  121.21    2.88
   0  -4   1  114.06    2.07
   0  -4  -1  118.75    1.74
   0  -4  -1  120.83    2.78
   0   4  -2  100.53    2.87
   0   4  -2   98.07    3.26
   0  -4  -2   97.88    2.85
   0   4  -3    6.26    1.25
   0   4  -3    7.06    0.95
   0  -4  -3    6.18    0.98
   0  -4  -4  139.61    4.45
   0   4  -4  132.04    4.48
   0   4  -4  134.48    4.06
   0   4  -4  134.20    5.15
   0  -4  -5   26.92    1.04
   0   4  -5   25.67    2.31
   0   4  -5   27.72    1.06
   0  -4  -5   23.60    2.21
   0   4  -5   26.08    1.21
   0   4  -5   23.72    2.54
   0  -4  -6   10.23    0.75
   0   4  -6   12.07    1.76
   0  -4  -6    8.76    1.51
   0   4  -6   11.23    0.95
   0   4  -6   12.01    0.81
   0   4  -7   21.00    1.24
   0  -4  -8    4.32    0.40
   0   4  -8    3.73    0.39
   0   4  -8    3.86    0.69
   0  -5   0   -0.19    0.47
   0  -5  -1   38.27    0.89
   0   5  -1   37.28    0.92
   0   5  -1   38.81    1.87
   0  -5  -1   38.15    1.80
   0  -5   1   35.57    1.36
   0  -5  -2  452.96    5.08
   0   5  -2  443.63    5.19
   0  -5  -2  450.88    6.63
   0   5  -2  447.40    6.56
   0   5  -3  142.15    4.80
   0  -5  -3  138.07    4.02
   0  -5  -3  144.12    3.70
   0   5  -3  138.17    3.77
   0   5  -3  145.91    4.09
   0   5  -4   35.13    2.23
   0   5  -4   38.97    2.44
   0  -5  -4   37.36    2.32
   0   5  -4   37.70    2.95
   0  -5  -5   19.72    1.96
   0  -5  -5   20.44    0.90
   0   5  -5   20.69    2.43
   0   5  -5   21.02    2.13
   0   5  -5   20.06    1.11
   0   5  -5   21.47    0.95
   0   5  -6  199.83    7.05
   0   5  -6  211.22    3.06
   0   5  -6  204.31    3.42
   0  -5  -6  207.17    2.93
   0   5  -7   75.19    2.03
   0  -5  -7   71.44    1.63
   0   5  -8    0.80    0.53
   0   5  -8    0.33    0.20
   0  -5  -8    0.71    0.21
   0  -6   0   43.76    1.92
   0   6  -1  869.48    9.55
   0  -6   1  860.09    7.54
   0  -6  -2    4.53    0.92
   0  -6  -2    4.28    0.53
   0   6  -2    4.86    0.57
   0   6  -2    5.63    1.02
   0   6  -3   11.23    1.37
   0  -6  -3    9.97    1.30
   0   6  -3    9.36    1.48
   0  -6  -3   10.84    1.08
   0   6  -3   11.88    1.15
   0   6  -4   36.26    2.39
   0   6  -4   38.67    1.31
   0   6  -4   37.72    3.11
   0   6  -4   37.25    2.37
   0  -6  -4   34.37    2.19
   0   6  -4   36.50    1.25
   0   6  -5    4.33    1.09
   0   6  -5    2.87    0.60
   0   6  -5    3.54    0.45
   0   6  -5    4.20    1.24
   0   6  -5    3.34    0.53
   0   6  -6    3.04    0.72
   0   6  -7  136.38    2.11
   0   6  -7  139.63    2.69
   0  -6  -7  138.69    2.03
   0   6  -8   16.30    0.85
   0  -7   0    0.25    0.60
   0  -7   1  214.62    4.12
   0  -7  -1  206.70    4.87
   0   7  -2    1.02    0.87
   0  -7  -2    2.00    0.81
   0   7  -3   -0.70    0.96
   0   7  -3    0.50    0.78
   0   7  -4   90.98    2.06
   0   7  -4   86.34    2.08
   0   7  -4   93.52    4.86
   0   7  -4   94.38    4.00
   0   7  -5   13.74    0.92
   0   7  -5   14.15    2.14
   0   7  -5   15.04    1.01
   0   7  -6    9.26    0.97
   0   7  -7    4.25    0.67
   0   7  -8    1.46    0.45
   0  -8   0   24.25    1.72
   0  -8   1   41.98    2.04
   0  -8  -1   43.17    2.45
   0   8  -2   10.35    1.44
   0  -8  -2   13.47    1.55
   0   8  -3  341.50    7.75
   0   8  -3  342.73    8.85
   0   8  -3  348.43    4.07
   0   8  -3  352.87    4.14
   0   8  -4   42.96    1.56
   0   8  -4   50.73    3.79
   0   8  -4   43.65    1.62
   0   8  -4   45.81    2.96
   0   8  -5   70.21    2.04
   0   8  -5   74.81    4.88
   0   8  -5   69.41    2.02
   0   8  -6   -0.31    0.62
   0   8  -7    1.45    0.49
   0   8  -8   20.87    0.76
   0  -9   0   -0.14    0.52
   0  -9  -1  307.44    6.85
   0   9   2   69.00    1.78
   0   9  -2   65.86    1.75
   0  -9  -2   64.05    3.36
   0   9  -2   64.81    1.82
   0   9  -2   68.37    1.81
   0   9  -3   13.14    1.94
   0   9  -3   15.99    1.00
   0   9  -3   14.04    0.95
   0   9  -4    3.43    0.64
   0   9  -4    2.58    0.88
   0   9  -5   25.41    1.31
   0   9  -6   22.02    1.20
   0   9   7   10.19    0.67
   0   9  -7   10.24    0.73
   0  10   0   32.08    1.27
   0  10   1   44.88    1.50
   0  10  -1   44.76    1.51
   0  10  -1   44.66    1.52
   0  10  -1   46.33    1.49
   0  10  -2   19.20    1.10
   0  10  -2   20.63    1.10
   0  10   2   20.34    1.06
   0  10  -2   19.44    1.06
   0  10  -3  109.55    2.58
   0  10  -3  113.20    5.65
   0  10  -3  111.46    2.60
   0  10   3  111.55    2.53
   0  10  -4   42.75    3.78
   0  10  -4   42.84    1.72
   0  10  -5    0.68    0.61
   0  10  -6    6.56    0.75
   0  10   6    7.17    0.71
   0  10  -7   22.63    0.91
   0  11   0   -0.45    0.41
   0  11   0    0.01    0.37
   0  11   0   -0.18    0.28
   0  11  -1   47.26    1.58
   0  11  -1   44.22    1.62
   0  11   1   44.51    1.59
   0  11  -1   43.28    1.61
   0  11  -2    4.25    0.64
   0  11   2    4.36    0.66
   0  11  -2    3.28    0.63
   0  11  -3   15.60    1.11
   0  11   3   15.87    1.04
   0  11  -3   16.21    2.33
   0  11  -3   16.83    1.15
   0  11  -4    1.47    0.68
   0  11   4    1.77    0.61
   0  11  -4    1.55    0.60
   0  11   5  266.13    3.86
   0  11  -5  265.24    3.80
   0  11  -6   66.77    1.73
   0  11   6   67.52    1.72
   0  11  -7   42.83    1.07
   0  12   0  134.49    2.71
   0  12   0  137.94    2.88
   0  12   0  136.40    2.58
   0  12  -1    0.05    0.44
   0  12  -1   -0.29    0.53
   0  12  -1    0.32    0.48
   0  12   1   -1.30    0.64
   0  12  -2   31.07    1.45
   0  12   2   32.76    1.49
   0  12  -2   31.13    3.21
   0  12  -2   31.65    1.51
   0  12  -3   23.49    1.37
   0  12  -3   23.57    1.34
   0  12   3   22.74    1.31
   0  12   4  103.26    2.52
   0  12  -4  102.80    2.43
   0  12  -5  159.00    2.82
   0  12   5  153.22    2.82
   0  12   6    0.07    0.26
   0  12  -6    0.36    0.38
   0  13   0    0.19    0.53
   0  13   0   -0.60    0.45
   0  13   1   59.01    1.99
   0  13  -1   59.04    1.91
   0  13  -1   59.19    1.97
   0  13  -1   59.04    2.03
   0  13  -2   40.00    1.67
   0  13  -2   41.82    1.74
   0  13   2   42.63    1.71
   0  13   3  278.50    4.19
   0  13  -3  282.82    4.25
   0  13  -4   21.85    1.17
   0  13   4   22.61    1.17
   0  13   5   21.90    1.02
   0  13  -5   22.32    1.05
   0  13  -6    5.65    0.48
   0  14   0  176.74    3.13
   0  14   0  180.89    3.45
   0  14  -1   11.18    0.98
   0  14   1   11.36    0.98
   0  14   2  133.36    2.92
   0  14  -2  135.20    3.05
   0  14   3    1.26    0.45
   0  14   4    0.49    0.40
   0  14  -4    0.22    0.43
   0  14  -5   40.16    1.22
   0  14   5   40.55    1.19
   0  15   0    0.29    0.56
   0  15  -1   14.60    1.12
   0  15   1   12.65    1.00
   0  15  -2    6.85    0.80
   0  15   2    7.16    0.76
   0  15   3    7.15    0.71
   0  15  -4    9.30    0.68
   0  15   4    8.46    0.63
   0  15  -5    6.84    0.47
   0  16   0    3.41    0.61
   0  16  -1   34.44    1.47
   0  16   1   34.61    1.41
   0  16   2   64.44    1.79
   0  16  -3   17.67    0.88
   0  16   3   18.69    0.90
   0  16   4    3.37    0.37
   0  16  -4    2.76    0.36
   0  17   0    0.10    0.35
   0  17  -1    2.72    0.52
   0  17   1    2.42    0.46
   0  17   2    3.95    0.46
   0  17  -3    1.91    0.32
   0  17   3    1.56    0.27
   0  18   0   80.47    1.62
   0  18   1    6.19    0.47
   1   0  -9   -0.13    0.17
   1   0  -8   25.51    1.03
   1   0  -7    0.10    0.46
   1   0  -7   -0.06    0.73
   1   0  -6   97.64    2.14
   1   0  -6   99.72    2.22
   1   0  -5   -0.13    0.68
   1   0  -5    0.44    0.40
   1   0  -5   -0.72    0.37
   1   0  -4 1342.84   13.28
   1   0  -3   -0.01    0.37
   1   0  -3   -0.99    0.77
   1   0  -2 5310.73   14.17
   1   0  -2 5357.37   17.62
   1   0  -2 5356.82   19.11
   1   0  -1    0.76    0.27
   1   0   0 1161.59    5.16
  -1   0  -1   -0.27    0.70
  -1   0  -2   54.14    2.04
  -1   0  -3   -0.46    0.72
  -1   0  -4   10.94    1.38
  -1   0  -5    0.27    0.34
  -1   0  -5    0.03    0.32
  -1   0  -5    0.99    0.90
  -1   0  -5    0.08    0.47
  -1   0  -6   14.11    0.90
  -1   0  -6   15.02    1.14
  -1   0  -7    0.32    0.43
  -1   0  -8   94.27    1.66
   1  -1  -9    0.21    0.16
   1   1  -9   -0.06    0.15
   1  -1  -8    1.99    0.43
   1   1  -8    1.61    0.41
   1  -1  -7   19.15    1.03
   1   1  -7   18.59    1.04
   1   1  -7   19.40    1.20
   1   1  -6    2.26    0.61
   1  -1  -6    3.24    0.54
   1   1  -6    2.67    0.52
   1  -1  -6    3.74    0.72
   1  -1  -5   30.88    1.13
   1  -1  -5   31.08    2.38
   1   1  -5   30.94    2.42
   1   1  -5   31.03    1.15
   1   1  -5   32.10    1.15
   1  -1  -5   34.24    1.22
   1  -1  -4   93.12    3.90
   1   1  -4   74.05    3.26
   1  -1  -3  177.56    3.31
   1   1  -3  176.17    4.28
   1   1  -3  167.31    2.13
   1   1  -3  181.55    4.35
   1   1  -2 9968.87   25.52
   1   1  -2 9999.00   16.93
   1   1  -2 9991.99   26.65
   1  -1  -2 9996.25   22.24
   1  -1  -1  428.00    4.28
   1   1  -1  436.67    4.60
   1   1  -1  438.55    3.69
   1   1   0 1302.70    6.35
  -1   1  -1 1129.20    7.17
  -1  -1  -1 1133.87    7.24
  -1   1  -1 1110.03    7.82
  -1  -1  -1 1139.62    7.78
  -1   1  -1 1130.70    7.05
  -1   1  -2  665.13    7.25
  -1   1  -2  660.63    6.91
  -1  -1  -2  668.95    6.97
  -1   1  -2  661.03    2.88
  -1  -1  -3  279.87    5.47
  -1   1  -3  282.02    5.47
  -1   1  -4  110.34    4.06
  -1  -1  -4  117.99    4.24
  -1   1  -5   -0.06    0.43
  -1   1  -5    0.39    0.35
  -1  -1  -5    0.08    0.32
  -1  -1  -5    0.47    0.57
  -1  -1  -5   -0.48    0.60
  -1  -1  -5    0.27    0.33
  -1   1  -5   -0.07    0.33
  -1   1  -6   70.04    1.82
  -1  -1  -6   71.90    4.30
  -1   1  -6   71.57    2.07
  -1  -1  -6   73.69    1.83
  -1  -1  -6   72.16    2.15
  -1   1  -6   74.32    4.33
  -1   1  -7    1.62    0.46
  -1  -1  -7    2.76    0.51
  -1   1  -7    2.39    0.91
  -1  -1  -8   19.25    0.78
  -1   1  -8   19.63    0.79
   1  -2  -9    1.18    0.20
   1   2  -9    0.80    0.17
   1   2  -8    2.95    0.44
   1  -2  -8    3.00    0.46
   1  -2  -7   12.46    0.87
   1   2  -7   12.40    0.87
   1   2  -7   13.30    1.03
   1  -2  -6   15.51    0.91
   1   2  -6   15.50    0.99
   1  -2  -6   14.69    1.09
   1   2  -6   14.64    0.90
   1   2  -5  119.00    4.74
   1  -2  -5  121.87    2.19
   1   2  -5  120.29    2.24
   1   2  -5  119.41    2.19
   1  -2  -5  123.99    2.23
   1  -2  -5  119.60    4.63
   1  -2  -4 1173.61   10.13
   1   2  -4 1161.30   13.38
   1  -2  -4 1168.67   12.64
   1   2  -4 1143.62   13.05
   1   2  -3   74.41    2.93
   1   2  -3   73.83    2.95
   1  -2  -3   76.08    2.43
   1   2  -2  545.34    6.63
   1   2  -2  543.30    3.64
   1  -2  -2  542.00    5.83
   1   2  -2  545.28    6.23
   1  -2  -1   10.55    0.85
   1   2  -1   13.08    1.02
   1  -2   0  465.32    4.60
   1   2   0  470.66    4.45
  -1  -2  -1  455.90    4.96
  -1   2  -1  459.74    4.61
  -1   2  -1  461.99    5.07
  -1   2  -1  464.82    4.95
  -1  -2  -1  464.16    4.62
  -1   2  -2  154.80    3.44
  -1   2  -2  159.06    3.81
  -1  -2  -2  152.78    3.41
  -1   2  -2  158.93    2.08
  -1   2  -3   24.39    1.75
  -1  -2  -3   24.53    1.71
  -1   2  -3   24.41    1.91
  -1   2  -4    4.19    0.87
  -1  -2  -4    2.35    0.75
  -1   2  -5    0.18    0.34
  -1  -2  -5    0.25    0.57
  -1   2  -5    0.09    0.33
  -1  -2  -5    0.49    0.35
  -1  -2  -5    0.95    0.53
  -1  -2  -5    0.27    0.32
  -1   2  -5    0.14    0.72
  -1   2  -5    0.13    0.46
  -1  -2  -6   29.62    2.76
  -1   2  -6   32.14    1.43
  -1  -2  -6   34.65    1.26
  -1   2  -6   31.89    1.29
  -1   2  -6   33.50    2.96
  -1   2  -7    0.41    0.75
  -1   2  -7   -0.18    0.41
  -1  -2  -7   -0.25    0.40
  -1   2  -8   29.59    0.93
  -1  -2  -8   28.58    0.90
   1   3  -8   23.42    1.09
   1  -3  -7   48.52    1.51
   1   3  -7   48.69    1.68
   1   3  -7   50.58    1.55
   1   3  -6   44.44    3.41
   1   3  -6   42.51    1.43
   1  -3  -6   39.55    3.10
   1   3  -6   40.29    1.48
   1  -3  -6   41.84    1.40
   1   3  -5   17.40    0.87
   1   3  -5   16.36    0.90
   1  -3  -5   16.62    1.92
   1  -3  -5   15.91    0.82
   1   3  -5   16.45    1.94
   1   3  -4  165.06    5.23
   1  -3  -4  170.03    4.26
   1   3  -4  165.69    5.11
   1  -3  -3   34.93    1.89
   1   3  -3   34.26    2.10
   1   3  -3   34.75    2.16
   1   3  -2  158.03    3.88
   1  -3  -2  157.51    3.48
   1   3  -2  153.84    3.64
   1   3  -1   19.93    1.33
   1  -3   0 1432.57    8.57
   1   3   0 1427.35    8.95
  -1   3  -1   11.20    0.87
   1  -3   1   10.65    0.78
  -1  -3  -1   10.76    0.85
  -1  -3  -2 1079.75    8.99
  -1   3  -2 1060.36    6.88
   1  -3   2 1063.48    6.73
  -1   3  -2 1051.32    8.96
  -1   3  -2 1057.66   10.14
  -1  -3  -3   72.44    2.85
  -1   3  -3   70.34    2.84
  -1   3  -3   70.58    3.29
  -1  -3  -4    9.30    1.37
  -1   3  -4   11.67    1.47
  -1   3  -4   11.73    1.68
  -1  -3  -5   32.13    2.69
  -1   3  -5   28.30    2.48
  -1  -3  -5   29.15    1.11
  -1  -3  -5   30.45    1.15
  -1   3  -5   30.60    1.16
  -1   3  -5   31.54    1.26
  -1   3  -6   10.99    0.96
  -1   3  -6   11.52    1.79
  -1  -3  -6   13.25    1.85
  -1   3  -7   12.75    1.07
  -1   3  -7   12.83    0.77
  -1  -3  -7   11.50    0.72
  -1  -3  -8    2.03    0.33
  -1   3  -8    1.89    0.30
   1   4  -8   50.33    1.46
   1   4  -7   23.63    1.07
   1   4  -7   24.02    1.23
   1  -4  -7   24.33    1.06
   1   4  -6    0.97    0.43
   1  -4  -6    1.12    0.42
   1   4  -6    0.74    0.58
   1   4  -5   85.13    2.01
   1   4  -5   87.14    1.88
   1   4  -5   82.92    4.51
   1  -4  -5   85.86    1.82
   1  -4  -5   86.61    4.10
   1   4  -5   79.39    3.97
   1   4  -4   12.69    1.69
   1   4  -4   11.98    1.58
   1  -4  -4   13.62    1.35
   1  -4  -3   17.48    1.43
   1   4  -3   15.22    1.56
   1   4  -3   18.04    1.74
   1   4  -2   27.75    1.85
   1   4  -2   22.39    1.63
   1  -4  -2   24.59    1.59
   1  -4  -1   32.29    1.62
   1   4  -1   32.95    1.76
   1   4   0  184.05    3.62
   1  -4   0  186.08    3.43
   1  -4   1  700.84    6.21
   1  -4   2  257.68    3.45
  -1  -4  -2  258.46    4.36
  -1   4  -2  253.93    4.38
  -1   4  -2  254.27    5.41
  -1   4  -3  684.46   10.34
  -1  -4  -3  687.97    8.73
  -1   4  -3  693.93    8.85
  -1  -4  -4  438.05    8.27
  -1   4  -4  443.85    8.48
  -1   4  -4  442.14    9.59
  -1  -4  -5  134.01    2.34
  -1  -4  -5  131.97    5.23
  -1   4  -5  134.60    5.35
  -1   4  -5  138.30    2.62
  -1   4  -6    9.39    0.91
  -1   4  -6    8.95    0.74
  -1  -4  -6   10.26    0.73
  -1  -4  -7    8.63    0.61
  -1   4  -7    8.60    0.64
  -1   4  -7    9.94    0.92
  -1  -4  -8    8.00    0.47
  -1   4  -8    8.00    0.48
   1   5  -8   31.94    0.92
   1   5  -8   34.66    1.18
   1  -5  -8   32.05    0.89
   1   5  -7    0.10    0.32
   1  -5  -7   -0.21    0.31
   1   5  -7    0.10    0.55
   1   5  -6    1.15    0.45
   1   5  -6    0.94    0.65
   1  -5  -6    1.26    0.39
   1   5  -5    1.48    1.03
   1   5  -5    0.69    0.46
   1   5  -5    1.29    0.67
   1   5  -5    1.28    0.38
   1  -5  -5    0.97    0.33
   1   5  -4    9.80    1.72
   1   5  -4    9.52    1.51
   1  -5  -4    9.30    1.24
   1  -5  -3   11.69    1.38
   1   5  -3   11.38    1.45
   1   5  -3   10.97    1.48
   1   5  -2    0.44    0.79
   1  -5  -2    0.39    0.71
   1   5  -1  310.52    5.58
   1  -5  -1  325.66    5.43
  -1   5   0  129.11    2.12
   1  -5   0  122.10    3.08
  -1  -5   0  126.41    2.07
   1   5   0  124.35    3.30
   1  -5   1   62.36    2.11
   1  -5   2   17.38    1.00
  -1   5  -2   16.87    1.64
  -1  -5  -2   18.26    1.18
  -1   5  -2   16.98    1.15
  -1   5  -3    3.05    0.92
  -1  -5  -3    2.42    0.72
  -1   5  -3    5.21    0.92
  -1   5  -4   21.16    1.90
  -1  -5  -4   22.19    1.91
  -1   5  -4   20.11    2.16
  -1   5  -4   21.35    0.99
  -1  -5  -5  405.30    8.87
  -1   5  -5  401.25    9.10
  -1   5  -5  407.76    4.53
  -1  -5  -5  399.17    3.82
  -1  -5  -6    1.21    0.36
  -1   5  -6    0.66    0.55
  -1   5  -6    0.89    0.37
  -1   5  -7   15.91    1.03
  -1  -5  -7   14.65    0.73
  -1   5  -7   14.73    0.75
  -1  -5  -8    0.01    0.18
  -1  -5  -8   -0.22    0.17
  -1   5  -8    0.21    0.17
   1   6  -8    3.21    0.51
   1   6  -8    3.24    0.28
   1  -6  -7    4.99    0.48
   1   6  -7    4.47    0.71
   1   6  -7    4.72    0.48
   1   6  -6    2.68    0.42
   1  -6  -6    3.64    0.47
   1   6  -6    1.97    0.66
   1   6  -5    9.92    1.45
   1   6  -5   12.43    1.76
   1   6  -5   13.02    1.96
   1   6  -5   12.20    0.72
   1   6  -5   12.58    0.90
   1   6  -4   41.55    2.93
   1   6  -4   39.64    3.02
   1  -6  -4   39.95    2.60
   1   6  -4   43.03    1.39
   1   6  -3   13.59    1.63
   1  -6  -3   17.08    1.67
   1   6  -3   13.19    1.65
   1  -6  -2    4.38    0.95
   1   6  -2    4.70    1.02
   1  -6  -1  142.89    4.02
   1   6  -1  146.48    4.13
   1  -6   0  223.11    4.61
   1   6   0  230.79    4.93
   1  -6   1    8.74    0.98
  -1   6  -2   36.45    2.45
  -1  -6  -3    0.61    0.51
  -1   6  -3    0.16    0.49
  -1   6  -3    0.21    0.92
  -1   6  -4   78.25    3.54
  -1   6  -4   78.37    1.87
  -1  -6  -4   78.17    3.43
  -1   6  -4   78.09    4.41
  -1   6  -5    7.15    0.56
  -1   6  -5    6.54    0.73
  -1   6  -5    8.88    1.51
  -1   6  -5    7.23    1.59
  -1   6  -6    7.98    0.59
  -1  -6  -6    7.07    0.55
  -1   6  -6    7.67    0.85
  -1  -6  -7   27.19    0.87
  -1   6  -7   28.72    1.25
  -1   6  -7   27.35    0.91
  -1   6  -8   10.78    0.68
  -1  -6  -8    8.07    0.38
   1   7  -8    0.93    0.37
   1   7  -7    2.88    0.61
   1   7  -6   56.47    1.83
   1   7  -5   32.67    1.39
   1   7  -5   33.58    2.76
   1   7  -5   33.87    3.18
   1  -7  -4   20.54    1.98
   1   7  -4   23.18    2.50
   1   7  -4   17.60    2.01
   1   7  -3  289.99    7.67
   1  -7  -3  294.34    6.92
   1   7  -3  290.02    7.11
   1   7  -2   19.00    1.84
   1  -7  -2   20.84    1.80
   1  -7  -1  153.37    4.44
   1   7  -1  157.72    4.67
   1  -7   0   25.78    1.79
   1  -7   1   87.75    2.97
  -1   7  -2   26.82    2.24
  -1   7  -3  113.93    2.32
  -1   7  -3  113.41    4.92
  -1   7  -4    0.11    0.43
  -1   7  -4    0.14    0.39
  -1  -7  -4    0.59    0.35
  -1   7  -5  151.10    2.85
  -1   7  -5  141.80    6.63
  -1   7  -5  144.14    2.82
  -1   7  -6   50.65    1.72
  -1   7  -7   30.73    1.21
   1   8  -8    2.46    0.37
  -1   8   8    3.14    0.36
   1   8  -7   24.57    1.10
   1   8  -6   -0.06    0.57
   1   8  -5   72.17    4.70
   1   8  -5   72.36    2.08
   1  -8  -4    2.03    0.88
   1   8  -4    2.17    1.01
   1   8  -4    1.85    0.90
   1   8  -3   86.93    2.02
   1   8  -3   86.33    4.10
   1  -8  -3   92.54    4.16
   1   8  -3   91.41    4.60
   1   8  -2   -0.57    0.91
   1  -8  -2   -0.11    0.65
   1   8  -1  522.95    9.04
   1  -8  -1  536.45    8.80
   1  -8   0   13.08    1.40
   1  -8   1   91.16    3.22
  -1   8  -2  251.51    7.07
  -1   8  -3   38.25    1.44
  -1   8  -3   39.10    1.42
  -1   8  -3   39.63    3.17
  -1   8  -4    4.54    0.65
  -1   8  -4    4.32    1.50
  -1   8  -4    5.82    0.77
  -1   8  -5    5.59    0.73
  -1   8  -5    6.66    0.74
  -1   8  -6    9.16    0.84
  -1   8  -7   37.93    1.24
   1   9  -7    4.44    0.55
   1   9  -6   -0.13    0.53
   1   9  -5   83.96    2.21
   1  -9  -4    1.10    0.75
   1   9  -4   -0.39    0.74
   1   9  -4    1.30    1.01
   1   9  -3   68.22    1.97
   1   9  -3   68.29    3.86
   1   9  -3   71.49    4.29
  -1   9   3   68.81    1.80
   1  -9  -3   70.73    3.86
   1   9  -3   64.76    1.90
   1   9  -2    0.96    0.34
   1   9  -2    0.48    0.90
   1   9  -2    1.22    0.40
   1  -9  -2    0.21    0.61
   1  -9  -1   70.67    3.45
   1  -9   0  106.78    3.99
   1  -9   1  426.09    7.35
  -1   9  -2    0.32    0.37
   1   9   2   -0.43    0.29
  -1   9  -2    0.27    0.70
  -1   9  -2    0.07    0.35
   1   9   3   88.05    2.05
  -1   9  -3   83.95    2.14
  -1   9  -3   84.83    4.76
  -1   9  -4    0.90    0.53
  -1   9  -4    0.16    0.97
  -1   9  -4    0.48    0.49
   1   9   4    0.34    0.36
  -1   9  -5   53.72    1.85
  -1   9  -5   53.30    1.78
  -1   9  -6    1.53    0.48
  -1   9  -7  273.53    2.93
   1  10  -7   73.54    1.56
  -1  10   7   72.93    1.68
   1  10  -6    2.15    0.59
   1  10  -5   21.71    1.23
   1  10  -4   37.51    3.17
   1  10  -4   43.42    3.67
   1  10  -3   -0.47    0.81
   1  10  -3   -0.32    0.75
   1 -10  -3   -0.02    0.68
  -1  10   3   -0.13    0.39
   1 -10  -2    6.45    1.31
   1  10  -2    6.34    0.72
  -1  10   2    6.18    0.62
   1  10  -2    6.15    0.69
  -1  10   2    6.89    0.69
  -1  10   1   65.75    1.83
   1  10  -1   62.06    1.79
  -1  10   1   62.77    1.75
   1 -10  -1   64.89    3.51
  -1  10   0   23.35    1.10
   1  10   0   24.05    1.12
   1 -10   0   22.76    2.01
  -1  10   0   21.90    1.10
  -1  10  -1   31.91    1.33
   1 -10   1   35.26    2.31
   1  10   1   30.84    1.24
  -1  10  -1   33.48    1.34
  -1  10  -2  123.97    2.62
  -1  10  -2  124.46    2.69
   1  10   2  123.82    2.45
  -1  10  -2  120.65    5.60
   1  10   3  199.57    3.19
  -1  10  -3  197.73    3.44
  -1  10  -3  204.03    3.51
  -1  10  -3  199.88    7.58
  -1  10  -4  173.75    3.38
   1  10   4  173.82    3.00
  -1  10  -4  168.72    3.03
  -1  10  -5   48.65    1.76
  -1  10  -5   50.74    1.70
  -1  10  -6    3.01    0.56
  -1  10  -7   34.25    0.98
  -1  11   7   96.27    1.69
   1  11  -7  104.10    1.65
  -1  11   6   54.58    1.68
   1  11  -6   54.72    1.58
  -1  11   5   -0.20    0.56
   1  11  -5    0.49    0.56
  -1  11   4   13.25    1.09
  -1  11   3    6.65    0.68
  -1  11   3    6.36    0.79
   1  11  -3    8.12    1.65
   1 -11  -3    6.21    1.22
  -1  11   2  101.82    2.33
   1 -11  -2  103.85    4.83
   1  11  -2   98.45    2.48
  -1  11   2  101.78    2.52
   1 -11  -1  109.16    4.80
   1  11  -1  113.93    2.52
  -1  11   1  109.08    2.45
  -1  11   1  112.68    2.55
   1  11   0    9.78    0.78
  -1  11   0   10.78    0.77
   1 -11   0   10.70    1.49
  -1  11   0    9.49    0.83
  -1  11   0   11.21    0.89
  -1  11  -1  120.04    2.66
   1  11   1  119.58    2.53
  -1  11  -1  120.83    2.55
  -1  11  -1  120.24    2.64
   1  11   2  161.66    2.96
  -1  11  -2  165.76    3.14
  -1  11  -2  165.91    3.26
  -1  11  -2  167.65    3.19
  -1  11  -2  169.44    6.95
  -1  11  -3    0.38    0.53
   1  11   3    0.71    0.45
  -1  11  -3    0.09    0.52
   1  11   4    8.63    0.75
  -1  11  -4    8.53    0.85
  -1  11  -4    8.22    0.90
  -1  11  -5   47.16    1.71
  -1  11  -5   49.36    1.59
  -1  11  -6   -0.20    0.41
  -1 -11  -7    6.60    0.34
   1  12  -6   31.98    1.14
  -1  12   6   31.81    1.18
   1  12  -5   70.54    1.93
  -1  12   5   68.24    2.01
  -1  12   4   13.08    1.06
  -1  12   3   40.12    1.69
  -1  12   2   12.71    0.90
  -1  12   2   12.15    1.03
   1  12  -2   11.39    0.96
   1 -12  -2   12.89    1.78
  -1  12   1   34.12    1.45
   1 -12  -1   36.08    2.88
  -1  12   1   39.44    1.63
   1  12  -1   36.06    1.53
  -1  12   0   11.16    0.81
  -1  12   0   10.40    0.89
   1  12   0   11.79    0.95
  -1  12   0   11.36    0.95
   1 -12   0   13.66    1.75
   1  12   1   76.69    2.14
  -1  12  -1   79.13    2.17
  -1  12  -1   80.37    2.29
  -1  12  -1   81.44    2.29
  -1  12  -2    0.18    0.64
  -1  12  -2    0.09    0.53
  -1  12  -2    0.37    0.50
   1  12   2   -0.47    0.56
  -1  12  -2    1.76    0.90
  -1  12  -3  384.66    5.12
   1  12   3  390.56    4.58
  -1  12  -3  385.60    5.04
  -1  12  -4   10.77    0.99
  -1  12  -4   10.26    0.85
  -1  12  -5    0.53    0.42
  -1  12  -6   15.48    0.72
  -1  13   6    3.62    0.42
   1  13  -6    3.86    0.45
  -1  13   5   12.96    0.91
   1  13  -5   12.60    0.86
  -1  13   4   18.09    1.14
   1  13  -4   18.44    1.09
  -1  13   3  107.25    2.70
  -1  13   2    0.28    0.37
   1  13  -2    0.68    0.59
  -1  13   2   -0.74    0.60
  -1  13   1    0.70    0.58
   1  13  -1    0.09    0.52
  -1  13   1    0.22    0.45
  -1  13   0    1.45    0.51
  -1  13   0    2.13    0.51
   1  13   0    3.00    0.63
  -1  13   0    2.75    0.66
  -1  13  -1  234.23    3.77
   1  13   1  244.74    3.78
  -1  13  -1  241.93    4.02
  -1  13  -1  245.54    4.02
  -1  13  -2   43.35    1.74
   1  13   2   42.79    1.58
  -1  13  -2   44.04    1.78
  -1  13  -3   61.19    2.07
   1  13   3   62.55    1.83
  -1  13  -4   12.16    1.00
  -1  13  -4   12.25    0.86
  -1  13  -5   12.19    0.72
  -1 -13  -6   19.48    0.55
  -1  13  -6   20.56    0.67
  -1  14   5   62.63    1.61
   1  14  -5   64.43    1.54
   1  14  -4   -0.37    0.51
  -1  14   4    0.15    0.43
  -1  14   3    5.52    0.75
   1  14  -2   15.73    1.14
  -1  14   2   15.55    0.95
  -1  14   2   16.83    1.18
  -1  14   1   20.85    1.16
  -1  14   1   21.50    1.29
   1  14  -1   20.71    1.23
  -1  14   0   56.90    1.93
   1  14   0   57.46    1.91
  -1  14   0   55.97    1.98
  -1  14  -1  134.67    2.99
  -1  14  -1  133.11    3.01
  -1  14  -1  132.11    2.79
   1  14   1  133.88    2.81
  -1  14  -2    6.17    0.78
  -1  14  -2    6.54    0.82
   1  14   2    6.62    0.69
  -1  14  -3   17.23    1.15
   1  14   3   16.77    0.93
  -1  14  -3   16.82    0.95
  -1  14  -4    5.30    0.56
  -1 -14  -5    7.26    0.37
  -1  14  -5    7.72    0.52
  -1  15   5   14.42    0.67
   1  15  -5   13.17    0.62
  -1  15   4  133.67    2.40
   1  15  -4  130.98    2.24
  -1  15   3    0.48    0.48
  -1  15   2  139.45    2.89
  -1  15   1   29.61    1.43
   1  15  -1   29.74    1.39
  -1  15   1   30.66    1.31
  -1  15   0  163.47    3.22
   1  15   0  161.04    3.04
  -1  15   0  163.63    3.08
  -1  15  -1    2.67    0.53
  -1  15  -1    2.88    0.66
   1  15   1    2.03    0.47
  -1  15  -2   -0.09    0.46
  -1  15  -2    0.14    0.50
   1  15   2   -0.05    0.34
  -1  15  -3    0.84    0.41
  -1  15  -4    2.07    0.36
   1  16  -4    0.00    0.30
  -1  16   4    0.74    0.29
  -1  16   3   13.21    0.82
  -1  16   2    0.95    0.47
  -1  16   1    0.71    0.50
  -1  16   1   -0.12    0.34
   1  16  -1    0.34    0.41
   1  16   0   44.71    1.53
  -1  16   0   48.25    1.68
  -1  16  -1    4.38    0.64
   1  16   1    4.05    0.54
   1  16   2   11.57    0.70
  -1  16  -3    5.07    0.46
   1  17  -3    1.77    0.34
  -1  17   3    1.53    0.32
  -1  17   2   39.25    1.26
  -1  17   1    6.71    0.65
   1  17   0    0.29    0.32
  -1  17   0    0.10    0.38
   1  17   1    7.82    0.55
  -1  17  -1    7.36    0.65
  -1  17  -2   27.42    0.84
   1  18  -2   14.47    0.57
  -1  18   1    1.28    0.31
  -1  18   0    0.32    0.28
   2   0  -9   -0.11    0.15
   2   0  -8    4.02    0.49
   2   0  -7   -0.07    0.45
   2   0  -6  524.07    5.01
   2   0  -6  516.77   11.59
   2   0  -6  510.31    4.81
   2   0  -5   -0.15    1.00
   2   0  -5   -0.38    0.42
   2   0  -4 1653.92   16.72
   2   0  -3    0.74    1.01
   2   0  -3   -0.30    0.54
   2   0  -2  114.45    2.95
   2   0  -2  114.28    3.37
   2   0  -1   -0.26    0.52
   2   0   0 1364.06    8.15
   2   0   1   -0.03    0.10
  -2   0  -1   -0.03    0.66
  -2   0  -2  174.67    4.59
  -2   0  -3   -0.60    0.67
  -2   0  -4  165.16    2.30
  -2   0  -4  161.20    2.60
  -2   0  -5    0.57    0.53
  -2   0  -5    0.46    0.61
  -2   0  -5   -0.15    0.38
  -2   0  -5   -0.16    0.43
  -2   0  -6  287.82    3.87
  -2   0  -6  287.57    3.47
  -2   0  -7    0.24    0.38
  -2   0  -7   -0.68    0.41
  -2   0  -8   47.39    1.04
   2  -1  -9   12.64    0.46
   2   1  -9   12.80    0.46
   2   1  -8    2.61    0.43
   2  -1  -8    2.83    0.44
   2   1  -7   39.90    1.43
   2  -1  -7   35.59    1.35
   2   1  -7   37.34    1.38
   2   1  -6  324.37    9.27
   2  -1  -6  326.45    3.99
   2   1  -6  322.44    3.96
   2  -1  -6  332.36    3.87
   2   1  -6  323.28    3.85
   2  -1  -6  321.55    9.16
   2   1  -5   46.95    3.36
   2   1  -5   48.77    1.53
   2  -1  -5   47.62    1.51
   2  -1  -5   43.25    3.15
   2   1  -5   46.37    1.34
   2   1  -4 2343.87   20.20
   2  -1  -4 2335.77   19.79
   2   1  -3    8.75    1.41
   2  -1  -3    8.90    1.31
   2  -1  -3    8.91    1.02
   2   1  -3    8.09    0.80
   2   1  -2    3.84    1.00
   2  -1  -2    1.70    0.63
   2   1  -2    2.28    0.42
   2   1  -2    2.09    0.58
   2  -1  -1   52.40    2.10
   2   1  -1   53.35    1.04
   2   1  -1   53.32    2.06
   2   1   0  788.35    6.69
  -2   1  -1    4.09    0.85
   2   1   1    4.46    0.39
  -2  -1  -1    3.93    0.82
   2  -1   1    6.06    0.31
  -2   1  -2   44.15    2.43
  -2  -1  -2   47.04    2.47
  -2  -1  -3   97.22    3.66
  -2   1  -3   91.27    3.54
  -2   1  -4   50.92    3.00
  -2  -1  -4   55.30    3.15
  -2   1  -4   57.99    1.38
  -2  -1  -4   55.46    1.55
  -2  -1  -4   57.11    1.37
  -2   1  -4   54.02    1.55
  -2  -1  -5    0.21    0.67
  -2   1  -5   -0.27    0.58
  -2  -1  -5   -0.09    0.38
  -2  -1  -5    0.14    0.43
  -2   1  -5   -0.19    0.44
  -2   1  -5    0.12    0.36
  -2   1  -5    1.29    0.83
  -2   1  -6   62.48    1.65
  -2  -1  -6   59.14    1.78
  -2  -1  -6   60.37    1.63
  -2   1  -6   57.82    1.86
  -2   1  -6   60.68    1.83
  -2  -1  -7    1.27    0.41
  -2   1  -7    1.06    0.40
  -2  -1  -7    1.27    0.35
  -2   1  -8   97.03    1.46
  -2  -1  -8   98.45    1.45
   2  -2  -8    5.61    0.52
   2   2  -8    5.11    0.50
   2   2  -7    1.29    0.59
   2   2  -7    0.33    0.45
   2  -2  -7    0.12    0.42
   2  -2  -6   47.98    1.59
   2   2  -6   49.02    1.59
   2   2  -6   43.49    3.45
   2   2  -6   47.65    1.54
   2  -2  -5    8.13    0.69
   2   2  -5    8.29    0.72
   2   2  -5    7.11    1.55
   2  -2  -5    5.29    1.30
   2   2  -5    8.47    0.65
   2  -2  -4   36.42    2.03
   2  -2  -4   42.47    2.83
   2   2  -3  216.32    4.69
   2  -2  -3  205.56    4.61
   2   2  -3  207.66    3.51
   2   2  -3  220.55    5.69
   2   2  -2 1237.55    8.98
   2  -2  -2 1226.11   10.49
   2   2  -2 1218.70   11.67
   2   2  -1 1045.97    9.64
   2  -2  -1 1057.53    9.37
   2   2   0  290.25    4.38
   2  -2   0  287.57    4.82
  -2   2   0  295.03    2.62
   2   2   1  186.89    2.72
  -2  -2  -1  185.39    4.30
  -2   2  -1  181.80    4.27
  -2   2  -1  192.25    3.31
  -2   2  -2    1.30    0.84
  -2  -2  -2    0.74    0.77
  -2   2  -2    1.43    0.72
  -2   2  -3    0.68    0.61
  -2  -2  -3    0.82    0.73
  -2  -2  -4   43.99    2.84
  -2   2  -4   42.83    2.77
  -2  -2  -4   46.09    1.44
  -2  -2  -4   46.60    1.24
  -2   2  -4   46.82    1.25
  -2   2  -4   45.63    1.31
  -2   2  -4   47.07    1.44
  -2  -2  -5   18.07    2.01
  -2   2  -5   20.57    2.21
  -2   2  -5   21.07    0.95
  -2  -2  -5   20.52    0.95
  -2   2  -5   18.44    1.09
  -2  -2  -5   19.83    1.08
  -2   2  -5   19.34    1.04
  -2   2  -6    9.72    0.85
  -2  -2  -6    9.51    0.72
  -2   2  -6    9.66    0.73
  -2  -2  -6   10.66    0.84
  -2   2  -6   10.02    0.92
  -2   2  -7    3.46    0.47
  -2  -2  -7    2.62    0.42
  -2  -2  -7    3.27    0.45
  -2  -2  -8   40.07    0.92
  -2   2  -8   42.95    0.96
   2  -3  -8   16.32    0.76
   2   3  -8   16.90    0.76
   2   3  -7   -0.82    0.54
   2  -3  -7   -0.05    0.37
   2   3  -7    0.49    0.43
   2  -3  -6  122.26    2.41
   2   3  -6  120.34    2.41
   2   3  -6  124.66    5.76
   2   3  -6  117.44    2.38
   2  -3  -6  127.64    5.75
   2   3  -5    5.32    0.59
   2  -3  -5    6.17    0.65
   2   3  -5    4.27    1.32
   2  -3  -5    3.99    1.10
   2   3  -5    4.99    0.59
   2   3  -4    2.42    1.20
   2   3  -4    4.41    0.93
   2   3  -3    8.59    1.51
   2  -3  -3    6.23    0.98
   2   3  -3    7.56    1.11
   2   3  -2   40.87    2.42
   2  -3  -2   42.41    2.19
   2   3  -2   42.36    1.90
   2   3  -1   81.15    2.88
   2  -3  -1   79.67    2.71
   2   3   0  288.40    4.70
   2  -3   0  284.76    4.99
  -2   3   0  291.13    3.51
   2   3   1  863.12    6.96
  -2   3  -1  861.15    7.70
  -2   3  -1  856.79    9.21
   2  -3   1  876.23    8.48
  -2  -3  -1  857.48    9.16
  -2   3  -2   18.90    1.54
   2  -3   2   17.92    1.30
  -2   3  -3   36.03    2.47
  -2  -3  -4  108.70    1.88
  -2   3  -4  111.49    1.91
  -2   3  -4  110.93    2.20
  -2  -3  -4  114.48    2.27
  -2   3  -4  107.85    2.04
  -2  -3  -5    6.11    0.58
  -2  -3  -5    6.92    0.68
  -2   3  -5    6.95    0.76
  -2   3  -5    6.83    0.70
  -2   3  -5    6.83    0.61
  -2   3  -6   11.33    0.92
  -2  -3  -6   13.03    0.80
  -2   3  -6   13.29    0.81
  -2  -3  -6   12.67    0.86
  -2   3  -6   12.35    0.95
  -2   3  -7    4.18    0.49
  -2  -3  -7    3.54    0.44
  -2  -3  -7    2.78    0.41
  -2  -3  -7    4.23    0.37
  -2  -3  -8    1.40    0.25
  -2   3  -8    1.28    0.24
   2  -4  -8    9.07    0.55
   2   4  -8    9.04    0.54
   2   4  -7   10.01    0.80
   2  -4  -7    8.52    0.64
   2   4  -7    8.14    0.65
   2   4  -6   36.20    3.00
   2   4  -6   33.17    1.34
   2  -4  -6   38.07    3.19
   2  -4  -6   35.06    1.31
   2   4  -6   33.77    1.29
   2  -4  -5   12.65    0.81
   2   4  -5   13.12    0.84
   2   4  -5   12.73    2.06
   2  -4  -5    9.86    1.65
   2   4  -5   12.71    0.83
   2  -4  -4   15.96    1.63
   2   4  -4   17.91    2.12
   2   4  -4   18.44    1.83
   2   4  -3    3.13    1.22
   2  -4  -3    4.60    1.02
   2   4  -3    2.37    0.74
   2   4  -2    2.54    1.07
   2   4  -2    2.60    0.72
   2   4  -1  263.48    5.44
   2  -4  -1  253.12    5.12
   2   4   0  290.36    5.07
   2  -4   0  280.23    5.15
  -2   4  -1  115.13    3.41
   2  -4   1  114.90    3.25
  -2  -4  -1  115.74    3.36
  -2   4  -1  113.48    3.15
   2  -4   2  331.44    5.49
  -2   4  -2  341.56    6.49
  -2   4  -3  528.82    9.38
  -2   4  -4   24.04    1.11
  -2  -4  -4   24.42    0.91
  -2  -4  -4   23.87    1.12
  -2   4  -4   24.98    0.94
  -2   4  -4   25.08    1.05
  -2  -4  -5    8.41    0.66
  -2   4  -5    8.04    0.82
  -2   4  -5    9.50    0.68
  -2  -4  -5    9.75    0.80
  -2   4  -5    9.66    0.81
  -2   4  -6   12.16    0.75
  -2  -4  -6   11.75    0.75
  -2  -4  -6   12.23    0.85
  -2   4  -6   11.01    0.91
  -2   4  -7    0.88    0.56
  -2  -4  -7    1.48    0.29
  -2  -4  -7    0.77    0.30
  -2   4  -7    1.41    0.34
   2   5  -8    3.09    0.45
   2   5  -8    2.52    0.30
   2  -5  -7   13.60    0.76
   2   5  -7   13.56    0.76
   2   5  -7   13.11    0.84
   2   5  -6   20.17    1.13
   2  -5  -6   21.23    1.01
   2   5  -6   20.46    1.00
   2   5  -5   -0.13    0.42
   2   5  -5    0.31    0.93
   2  -5  -5    0.06    0.32
   2   5  -5    0.45    0.33
   2   5  -5    1.93    0.97
   2   5  -4    1.01    0.34
   2   5  -4    0.71    0.84
   2   5  -4    1.24    0.74
   2  -5  -4    1.06    0.72
   2   5  -3   35.64    2.66
   2  -5  -3   38.20    2.49
   2   5  -3   36.04    2.38
   2   5  -2   39.15    2.59
   2  -5  -2   41.85    2.45
   2   5  -1   22.41    1.85
   2  -5  -1   22.17    1.74
   2  -5   0  357.29    6.17
  -2  -5   0  361.45    5.40
  -2   5   0  355.89    5.46
   2   5   0  362.58    6.13
   2  -5   1  385.48    6.16
  -2  -5  -1  395.25    6.04
  -2   5  -1  380.56    6.08
   2  -5   2  579.73    7.48
  -2   5  -2  557.48    8.77
  -2   5  -3   29.07    2.39
  -2   5  -4   17.57    0.80
  -2  -5  -4   16.77    0.76
  -2   5  -4   15.91    0.95
  -2   5  -4   16.36    2.14
  -2  -5  -4   16.75    0.98
  -2   5  -4   16.40    0.89
  -2  -5  -5   56.68    1.46
  -2   5  -5   56.58    1.49
  -2  -5  -5   58.78    1.74
  -2   5  -5   57.40    1.72
  -2  -5  -6   23.02    0.95
  -2   5  -6   23.20    0.97
  -2  -5  -6   24.47    1.09
  -2   5  -6   21.60    1.13
  -2   5  -7    7.22    0.69
  -2  -5  -7    8.82    0.53
  -2  -5  -7    8.58    0.53
  -2   5  -7    8.07    0.53
   2   6  -8    4.83    0.47
   2  -6  -7    1.41    0.30
   2   6  -7    1.96    0.32
   2   6  -7    1.83    0.49
   2   6  -6    4.78    0.67
   2  -6  -6    5.77    0.54
   2   6  -6    6.16    0.57
   2  -6  -5   61.89    1.55
   2   6  -5   61.37    1.57
   2   6  -5   62.87    4.02
   2   6  -5   56.55    1.70
   2   6  -4    0.34    0.36
   2   6  -4   -0.11    1.16
   2  -6  -4    2.15    0.97
   2   6  -4   -0.32    0.89
   2   6  -3  105.83    4.61
   2  -6  -3  111.69    4.40
   2   6  -3  102.31    4.21
   2   6  -2  118.55    4.51
   2  -6  -2  118.81    4.27
   2  -6  -1    0.61    0.77
   2   6  -1    1.52    0.92
  -2   6   0    1.89    0.49
   2  -6   0    2.79    0.86
   2   6   0    1.98    0.83
  -2  -6   0    1.97    0.54
   2  -6   1   61.92    2.65
  -2   6  -1   62.90    2.83
   2  -6   2   34.50    1.96
  -2   6  -2   34.37    2.33
  -2   6  -3  538.12    4.64
  -2   6  -3  530.32   10.38
  -2  -6  -3  538.09    4.69
  -2   6  -4    0.32    0.39
  -2  -6  -4    0.16    0.45
  -2   6  -4    0.13    0.25
  -2   6  -4    0.75    1.05
  -2   6  -5    1.70    0.38
  -2  -6  -5    1.75    0.36
  -2   6  -5    2.34    0.56
  -2  -6  -5    0.77    0.45
  -2   6  -6   20.41    0.86
  -2  -6  -6   22.60    1.02
  -2  -6  -6   21.07    0.83
  -2   6  -6   21.43    1.09
  -2  -6  -7  173.40    2.10
  -2   6  -7  171.40    1.98
  -2   6  -7  169.70    2.42
   2   7  -8    3.63    0.38
   2   7  -7   28.57    1.11
   2   7  -6    5.03    0.66
  -2   7   6    4.45    0.65
   2   7  -5    6.94    0.75
  -2   7   5    7.74    0.77
   2   7  -5    7.03    1.52
   2   7  -5    7.06    1.37
   2   7  -4    0.29    0.37
   2  -7  -4    1.33    0.92
   2   7  -4   -0.97    0.83
   2   7  -4   -1.55    1.32
   2  -7  -3  222.67    6.62
   2   7  -3  219.43    6.85
  -2   7   3  222.10    3.19
   2   7  -3  216.75    6.46
   2   7  -2   17.29    2.02
   2  -7  -2   15.48    1.70
   2   7  -1  181.39    5.40
   2  -7  -1  177.72    5.35
   2   7   0  524.10    8.66
   2  -7   0  524.09    8.56
   2  -7   1  110.60    3.82
  -2   7  -1  103.02    3.91
  -2   7  -2   15.15    1.69
  -2   7  -3  169.57    2.89
  -2   7  -3  164.41    6.08
  -2  -7  -3  170.64    2.77
  -2   7  -3  169.28    2.54
  -2   7  -4   93.51    5.01
  -2  -7  -4   90.27    2.15
  -2   7  -4   91.84    2.06
  -2   7  -5   24.29    1.16
  -2  -7  -5   23.81    1.14
  -2   7  -5   22.20    1.12
  -2   7  -6    1.22    0.48
  -2  -7  -6    0.79    0.33
  -2  -7  -7    8.20    0.49
  -2   7  -7    8.24    0.61
  -2   8   8    8.52    0.52
   2   8  -7    6.00    0.58
   2   8  -6    0.00    0.46
  -2   8   6   -0.12    0.36
   2   8  -5   88.49    4.83
  -2   8   5   88.16    2.24
   2   8  -5   83.55    2.12
  -2   8   4    7.74    0.76
   2   8  -4    9.17    1.63
   2  -8  -4    8.97    1.59
   2  -8  -3  121.89    5.14
   2   8  -3  116.25    5.20
   2   8  -3  111.69    5.04
  -2   8   3  117.55    2.50
  -2   8   2    4.41    0.56
   2  -8  -2    3.61    0.93
   2   8  -2    3.37    1.10
   2   8  -1   98.59    4.28
   2  -8  -1   87.97    3.98
   2   8   0   24.75    2.19
   2  -8   0   26.70    2.11
   2  -8   1   19.38    1.76
  -2   8  -2    0.79    0.35
  -2   8  -2    1.23    0.41
  -2   8  -2    1.93    0.83
  -2   8  -3   13.82    0.96
  -2   8  -3   13.04    0.79
  -2  -8  -4   21.37    1.09
  -2   8  -4   20.80    1.06
  -2   8  -5  169.05    3.06
  -2  -8  -5  166.87    2.78
  -2   8  -5  165.99    2.83
  -2   8  -6   16.93    0.89
  -2  -8  -7   49.93    1.04
  -2   8  -7   47.23    1.11
   2   9  -7   51.38    1.28
   2   9  -6    3.25    0.56
   2   9  -5    0.04    0.49
  -2   9   5   -0.23    0.44
  -2   9   4   -0.33    0.52
   2   9  -4   -1.78    1.25
   2   9  -4   -0.28    0.87
   2   9  -3   91.42    4.76
   2  -9  -3   94.35    4.68
  -2   9   3   87.45    2.22
   2   9  -3   80.50    4.58
   2  -9  -2    0.56    0.58
   2   9  -2    1.05    0.36
  -2   9   2    1.53    0.48
  -2   9   2    1.50    0.50
   2   9  -2    1.95    0.98
   2  -9  -1  178.67    5.94
   2   9  -1  164.97    5.92
  -2   9   1  176.84    2.87
  -2   9   1  172.12    2.94
  -2   9   0    6.63    0.60
   2  -9   0    6.77    1.10
  -2   9   0    7.29    0.71
   2  -9   1   19.76    1.88
  -2   9  -1   20.36    1.07
  -2   9  -1   17.57    0.93
  -2   9  -2   51.86    1.73
  -2   9  -2   51.46    1.61
  -2   9  -2   50.17    3.39
  -2   9  -3    6.94    0.77
  -2   9  -3    6.88    0.64
  -2   9  -4    0.13    0.42
  -2   9  -4    0.06    0.48
  -2  -9  -4    0.25    0.42
  -2   9  -5  382.47    4.63
  -2  -9  -5  381.06    4.08
  -2   9  -5  374.48    4.17
  -2   9  -6    6.07    0.56
  -2  -9  -7    0.59    0.19
   2  10  -7    0.18    0.28
  -2  10   7    0.55    0.33
   2  10  -6    9.75    0.73
  -2  10   5   19.32    1.06
   2  10  -5   18.45    1.07
  -2  10   4    3.05    0.60
   2  10  -3    2.61    1.43
   2 -10  -3    1.29    0.65
  -2  10   3    3.09    0.64
  -2  10   3    2.40    0.55
   2  10  -3    3.93    1.46
   2  10  -2   24.89    2.68
   2  10  -2   22.93    1.17
  -2  10   2   23.34    1.23
  -2  10   2   26.22    1.26
   2 -10  -2   27.14    2.50
  -2  10   1   75.42    2.08
   2 -10  -1   77.78    4.14
   2  10  -1   72.89    1.88
  -2  10   1   76.88    2.02
  -2  10   0    5.06    0.65
  -2  10   0    4.60    0.61
   2 -10   0    3.64    0.92
  -2  10  -1  124.28    2.69
  -2  10  -1  123.73    2.55
  -2  10  -1  124.96    5.39
  -2  10  -2   61.22    1.96
  -2  10  -2   61.28    1.85
  -2  10  -2   62.55    4.06
  -2  10  -3  204.80    7.54
  -2  10  -3  211.11    3.10
  -2  10  -4    1.44    0.46
  -2  10  -4    1.45    0.57
  -2 -10  -4    2.26    0.50
  -2  10  -5   65.18    1.93
  -2 -10  -5   67.26    1.62
  -2  10  -5   67.05    1.72
  -2  10  -6    1.60    0.35
  -2 -10  -6    2.27    0.36
  -2  11   7    4.02    0.40
   2  11  -6    0.14    0.36
  -2  11   6    0.47    0.43
  -2  11   5   11.70    0.78
  -2  11   5   14.16    1.05
   2  11  -5   13.14    0.88
  -2  11   4   36.01    1.46
  -2  11   4   34.27    1.59
   2  11  -3   25.65    2.77
  -2  11   3   20.67    1.24
  -2  11   3   23.33    1.33
   2 -11  -3   16.97    2.14
   2  11  -3   16.99    2.24
  -2  11   2    0.97    0.49
  -2  11   2   -0.22    0.49
   2  11  -2    0.37    0.41
   2 -11  -2    1.06    0.69
  -2  11   1   52.71    1.82
   2 -11  -1   54.34    3.59
   2  11  -1   49.95    1.65
  -2  11   1   53.42    1.80
  -2  11   0  193.45    3.45
  -2  11   0  194.85    3.35
   2 -11   0  195.06    6.47
  -2  11  -1  480.75    5.26
  -2  11  -1  490.42    5.55
  -2  11  -2   54.67    1.98
  -2  11  -2   55.50    1.86
  -2  11  -2   51.68    3.87
  -2  11  -3   24.91    1.39
  -2 -11  -3   23.59    1.17
  -2  11  -3   24.44    1.11
  -2  11  -4   -0.27    0.41
  -2  11  -4    0.42    0.55
  -2 -11  -4    0.24    0.39
  -2  11  -5   12.71    0.88
  -2  11  -5   13.76    0.77
  -2  11  -6    0.02    0.23
  -2 -11  -6    0.08    0.21
   2  12  -6    0.29    0.31
  -2  12   6   -0.02    0.36
  -2  12   5   42.65    1.58
   2  12  -5   41.83    1.40
  -2  12   4   28.97    1.26
  -2  12   4   28.07    1.41
   2  12  -4   26.77    1.23
  -2  12   3   49.83    1.75
  -2  12   3   51.70    1.89
  -2  12   2   63.64    2.02
  -2  12   2   66.39    2.09
   2 -12  -1  335.95    9.04
  -2  12   1  334.88    4.60
  -2  12   1  332.95    4.54
   2  12  -1  340.35    4.38
  -2  12   0  128.67    2.92
   2 -12   0  129.90    5.41
  -2  12   0  129.81    2.82
  -2  12  -1   25.65    1.43
  -2  12  -1   24.86    1.29
  -2  12  -2   22.53    1.35
  -2  12  -2   23.85    1.35
  -2  12  -2   23.38    1.28
  -2  12  -3   10.66    0.98
  -2 -12  -3   10.74    0.82
  -2  12  -3   10.56    0.78
  -2  12  -4    7.68    0.81
  -2 -12  -4    6.38    0.59
  -2  12  -4    7.56    0.63
  -2 -12  -5    7.44    0.49
  -2  12  -5    8.00    0.67
  -2  12  -5    8.52    0.56
  -2 -12  -6   -0.12    0.17
   2  13  -6    1.38    0.29
  -2  13   6    0.54    0.27
   2  13  -5    4.49    0.54
  -2  13   5    4.64    0.62
   2  13  -4   -0.13    0.47
  -2  13   4   -0.27    0.53
  -2  13   4    0.82    0.37
  -2  13   3    3.37    0.72
  -2  13   3    2.14    0.49
  -2  13   2   28.78    1.38
  -2  13   2   29.36    1.45
  -2  13   1   24.59    1.33
  -2  13   1   24.38    1.34
   2  13  -1   25.49    1.25
  -2  13   0   -0.31    0.41
  -2  13   0   -0.06    0.55
  -2  13   0    0.50    0.49
  -2  13  -1  113.76    2.83
  -2  13  -1  111.95    2.65
  -2  13  -1  111.07    2.64
  -2  13  -2   -0.46    0.50
  -2  13  -2    0.35    0.63
  -2  13  -2   -0.07    0.48
  -2  13  -3   39.60    1.65
  -2 -13  -3   38.47    1.37
  -2  13  -3   41.68    1.33
  -2  13  -4   54.98    1.76
  -2 -13  -4   53.99    1.18
  -2 -13  -4   53.56    1.38
  -2  13  -4   56.67    1.39
  -2 -13  -5   -0.10    0.19
  -2  14   5   31.78    1.12
   2  14  -5   32.60    1.00
  -2  14   4   55.70    1.70
   2  14  -4   54.41    1.49
  -2  14   3   10.63    0.91
  -2  14   3    9.05    0.73
  -2  14   2   29.17    1.33
  -2  14   2   29.40    1.41
  -2  14   1  169.71    3.25
  -2  14   1  167.66    3.24
   2  14  -1  170.38    3.03
  -2  14   0    0.78    0.63
  -2  14   0    0.33    0.50
  -2  14   0   -0.26    0.45
  -2  14  -1    2.27    0.55
  -2  14  -1    2.07    0.65
  -2  14  -1    1.47    0.52
  -2  14  -2   19.49    1.16
  -2  14  -2   19.76    1.13
  -2  14  -2   20.24    0.94
  -2  14  -3    1.80    0.39
  -2  14  -3    1.47    0.54
  -2 -14  -3    1.10    0.35
  -2  14  -4    0.38    0.40
  -2  15   5    3.37    0.35
  -2  15   4   28.09    1.09
   2  15  -4   27.56    0.96
  -2  15   3    0.64    0.30
  -2  15   3    0.71    0.46
  -2  15   2  103.92    2.39
  -2  15   2  102.04    2.24
  -2  15   1    5.69    0.71
  -2  15   1    7.21    0.79
  -2  15   0    2.43    0.59
  -2  15   0    3.15    0.60
  -2  15  -1    4.29    0.54
  -2  15  -1    6.32    0.76
  -2  15  -1    5.08    0.65
  -2  15  -2   -0.22    0.40
  -2  15  -3    1.10    0.43
  -2 -15  -3    1.00    0.28
  -2  16   4    8.63    0.52
   2  16  -4    8.74    0.47
  -2  16   3   28.39    1.07
   2  16  -3   29.48    0.98
  -2  16   2    5.04    0.50
  -2  16   2    5.65    0.61
  -2  16   1   36.42    1.32
  -2  16   1   37.99    1.38
  -2  16   0   10.81    0.82
  -2  16   0   10.55    0.79
  -2  16  -1   14.55    0.88
  -2 -16  -2    0.01    0.28
  -2  17   3    0.21    0.22
  -2  17   2   15.22    0.74
  -2  17   1    0.18    0.29
  -2  17   0    0.37    0.30
  -2 -17  -1    0.55    0.26
   3   0  -8    7.27    0.55
   3   0  -7    0.54    0.45
   3   0  -6 1340.74    8.42
   3   0  -5    1.34    0.93
   3   0  -5   -0.32    0.47
   3   0  -4    2.52    0.46
   3   0  -4    2.71    1.02
   3   0  -3   -0.63    0.93
   3   0  -3    0.38    0.51
   3   0  -2  555.21    8.15
   3   0  -2  548.89    8.63
   3   0  -1   -0.19    0.74
   3   0   0  347.98    5.32
  -3   0  -1   -0.45    0.81
  -3   0  -2  227.85    6.26
  -3   0  -3    0.02    0.28
  -3   0  -3    0.01    0.35
  -3   0  -4    5.88    0.48
  -3   0  -4    6.24    0.60
  -3   0  -4    6.20    0.71
  -3   0  -5   -0.09    0.41
  -3   0  -5   -0.18    0.50
  -3   0  -6  311.47    3.51
  -3   0  -6  306.94    4.00
  -3   0  -7    0.40    0.34
   3  -1  -8  271.67    2.82
   3   1  -8  270.20    2.81
   3  -1  -7    0.99    0.42
   3   1  -7    1.15    0.43
   3  -1  -6    2.76    0.67
   3   1  -6    1.98    0.59
   3   1  -5   49.49    3.78
   3  -1  -5   55.06    1.70
   3   1  -5   52.97    1.67
   3  -1  -5   49.47    3.64
   3   1  -4   39.79    1.35
   3  -1  -4   36.90    1.31
   3  -1  -4   38.44    2.92
   3   1  -4   39.88    3.12
   3  -1  -3  324.98    6.62
   3   1  -3  326.34    6.24
   3  -1  -3  335.05    7.58
   3   1  -3  335.79    7.76
   3  -1  -2    0.16    0.74
   3   1  -2    1.09    0.90
   3  -1  -2    0.47    0.68
   3   1  -2    0.53    0.65
   3   1  -1  168.86    4.43
   3  -1  -1  158.49    4.52
   3  -1  -1  162.73    4.13
   3  -1   0    0.40    0.51
   3   1   0    0.02    0.49
  -3  -1  -1   78.31    3.50
  -3   1  -1   75.41    3.44
  -3  -1  -2   35.83    2.61
  -3   1  -2   32.35    2.49
  -3  -1  -3    5.85    0.48
  -3  -1  -3    6.16    0.52
  -3   1  -3    6.46    0.52
  -3   1  -3    4.80    0.58
  -3  -1  -3    4.69    0.58
  -3  -1  -4  405.88    3.66
  -3  -1  -4  407.21    3.91
  -3   1  -4  407.41    3.89
  -3   1  -4  405.29    4.50
  -3  -1  -4  406.64    4.50
  -3  -1  -5    0.99    0.47
  -3   1  -5    0.98    0.46
  -3   1  -5    1.17    0.54
  -3  -1  -5    0.44    0.52
  -3  -1  -5    0.63    0.29
  -3  -1  -6    3.35    0.57
  -3   1  -6    2.66    0.60
  -3  -1  -6    3.00    0.62
  -3   1  -6    2.37    0.52
  -3   1  -7   15.20    0.72
  -3  -1  -7   14.31    0.77
   3  -2  -8   41.92    1.11
   3   2  -8   41.68    1.10
   3  -2  -7    5.69    0.61
   3   2  -7    6.00    0.62
   3  -2  -6  161.45    2.91
   3   2  -6  157.62    2.88
   3  -2  -5    8.90    0.80
   3   2  -5    8.91    0.78
   3  -2  -5    8.05    1.67
   3   2  -4   75.27    4.26
   3  -2  -4   77.22    1.88
   3  -2  -4   72.19    3.36
   3   2  -4   75.00    1.85
   3  -2  -4   70.15    3.98
   3   2  -3   59.80    3.49
   3  -2  -3   57.95    2.94
   3   2  -3   57.90    2.61
   3  -2  -3   58.61    3.32
   3   2  -2    2.56    0.92
   3  -2  -2    2.93    0.93
   3   2  -1  134.43    4.15
   3  -2  -1  137.78    4.31
   3  -2  -1  134.43    3.77
   3   2   0   10.16    1.05
   3  -2   0    9.37    1.29
   3  -2   0   11.53    1.04
  -3   2  -1   48.49    2.74
  -3  -2  -1   47.23    2.78
  -3  -2  -2  410.41    8.37
  -3   2  -2  411.63    8.42
  -3  -2  -3    7.61    0.57
  -3  -2  -3    8.38    0.55
  -3   2  -3    7.17    0.65
  -3   2  -3    7.15    0.54
  -3  -2  -3    7.46    0.69
  -3  -2  -4   59.04    1.46
  -3  -2  -4   63.28    1.59
  -3   2  -4   62.00    1.57
  -3   2  -4   62.85    1.83
  -3  -2  -4   63.18    1.82
  -3  -2  -5   15.57    0.80
  -3  -2  -5   14.99    0.86
  -3   2  -5   15.18    0.85
  -3   2  -5   15.26    1.06
  -3  -2  -5   14.68    1.01
  -3  -2  -6  128.12    1.98
  -3   2  -6  126.13    2.20
  -3  -2  -6  127.50    2.52
  -3  -2  -6  126.77    2.21
  -3   2  -6  121.37    2.53
  -3  -2  -7   30.79    1.04
   3  -3  -8    1.69    0.30
   3   3  -8    1.24    0.29
   3  -3  -7    0.16    0.36
   3   3  -7    0.30    0.34
   3  -3  -6   18.20    1.03
   3   3  -6   17.27    1.00
   3  -3  -5    7.05    0.70
   3  -3  -5    6.63    1.62
   3   3  -5    6.71    1.60
   3   3  -5    5.12    0.60
   3   3  -4  146.23    6.07
   3   3  -4  149.39    2.60
   3  -3  -4  145.54    5.03
   3  -3  -4  151.09    2.60
   3  -3  -4  143.19    5.72
   3   3  -3    3.01    1.18
   3  -3  -3    3.38    1.20
   3  -3  -3    1.00    0.64
   3   3  -2  159.52    5.21
   3  -3  -2  151.15    4.70
   3   3  -1  139.21    4.37
   3  -3  -1  142.57    4.51
   3   3   0   72.30    2.73
   3  -3   0   75.81    3.29
  -3  -3  -1  136.08    4.50
  -3   3  -1  134.40    4.52
   3  -3   1  132.32    4.25
  -3  -3  -2   12.05    1.64
  -3   3  -2   13.68    1.74
   3  -3   2   11.42    1.43
  -3   3  -3   42.45    1.35
  -3  -3  -3   43.77    1.18
  -3  -3  -3   44.68    1.23
  -3   3  -3   45.14    1.22
  -3   3  -3   43.83    1.40
  -3  -3  -3   45.15    1.51
  -3  -3  -4    1.94    0.40
  -3  -3  -4    2.92    0.47
  -3   3  -4    2.70    0.45
  -3   3  -4    3.90    0.64
  -3  -3  -4    3.03    0.61
  -3  -3  -5    5.82    0.55
  -3  -3  -5    6.69    0.64
  -3   3  -5    5.75    0.62
  -3   3  -5    5.74    0.78
  -3  -3  -5    6.30    0.74
  -3  -3  -6   66.90    1.46
  -3   3  -6   63.19    1.57
  -3  -3  -6   64.29    1.55
  -3   3  -6   63.57    1.88
  -3  -3  -6   64.55    1.79
  -3  -3  -7   -0.05    0.26
  -3   4   8    4.79    0.43
   3  -4  -8    5.94    0.41
   3   4  -8    4.73    0.37
   3  -4  -7   15.60    0.81
   3   4  -7   15.13    0.81
   3  -4  -6    9.69    0.76
   3   4  -6    9.66    0.79
   3  -4  -5   -0.36    1.07
   3   4  -5    0.07    1.24
   3  -4  -5    0.13    0.38
   3   4  -5    0.69    0.43
   3  -4  -4   14.16    2.10
   3  -4  -4   12.70    0.81
   3   4  -4   11.77    0.79
   3   4  -4   13.60    2.10
   3  -4  -4   12.72    1.62
   3   4  -3   11.98    1.93
   3  -4  -3   10.45    1.48
   3   4  -2  509.45    9.49
   3  -4  -2  503.81    8.95
   3   4  -1  553.20    8.93
   3  -4  -1  546.54    9.03
  -3  -4   0   54.89    2.82
  -3   4   0   53.45    2.81
   3   4   0   56.57    2.53
   3  -4   0   57.45    2.99
   3  -4   1   15.27    1.59
  -3  -4  -1   15.81    1.72
  -3   4  -1   16.41    1.79
  -3  -4  -2   69.38    1.41
   3  -4   2   69.53    3.25
  -3  -4  -3    4.40    0.45
  -3   4  -3    4.18    0.44
  -3   4  -3    4.18    0.57
  -3  -4  -3    3.96    0.61
  -3  -4  -4    1.70    0.42
  -3   4  -4    1.44    0.41
  -3   4  -4    1.66    0.53
  -3  -4  -4    1.69    0.56
  -3   4  -5    0.53    0.38
  -3  -4  -5    1.06    0.38
  -3  -4  -5    0.53    0.37
  -3   4  -5    0.47    0.51
  -3  -4  -5    0.52    0.52
  -3  -4  -6    4.13    0.46
  -3  -4  -6    4.02    0.50
  -3   4  -6    4.15    0.50
  -3  -4  -6    2.96    0.51
  -3  -4  -7    9.64    0.45
  -3  -4  -7   10.03    0.56
   3  -5  -8   12.00    0.48
   3   5  -8   11.80    0.49
   3  -5  -7    1.60    0.33
   3   5  -7    1.70    0.34
   3  -5  -6    0.12    0.35
   3   5  -6    0.08    0.35
   3  -5  -5    4.55    1.65
   3  -5  -5    3.14    0.50
   3   5  -5    3.13    0.52
   3   5  -4   53.29    3.79
   3  -5  -4   55.35    1.57
   3   5  -4   53.97    1.56
   3  -5  -4   52.02    3.33
   3  -5  -3   17.58    1.95
   3   5  -3   16.55    2.07
   3   5  -2    9.63    1.56
   3  -5  -2    9.50    1.40
   3   5  -1  111.45    4.23
   3  -5  -1  111.44    4.25
   3   5   0  409.56    7.15
  -3  -5   0  413.14    7.50
  -3   5   0  406.68    7.52
   3  -5   0  415.74    7.91
   3  -5   1  586.40    9.27
  -3  -5  -1  602.66    9.48
  -3   5  -1  595.18    9.65
  -3   5  -2    9.61    0.72
  -3  -5  -2   10.50    0.60
  -3   5  -2    8.99    0.66
   3  -5   2    9.14    1.31
  -3  -5  -2    9.88    0.76
  -3   5  -3    1.15    0.37
  -3   5  -3    0.63    0.44
  -3  -5  -3    0.81    0.47
  -3  -5  -4   42.47    1.28
  -3   5  -4   45.23    1.34
  -3   5  -4   45.51    1.59
  -3  -5  -4   44.85    1.66
  -3  -5  -5   85.48    1.82
  -3  -5  -5   83.78    1.77
  -3   5  -5   86.37    1.84
  -3  -5  -5   83.19    2.15
  -3  -5  -6   85.02    1.67
  -3  -5  -6   86.05    1.94
  -3  -5  -7    2.10    0.25
  -3  -5  -7    2.40    0.30
  -3   6   7    8.22    0.68
   3  -6  -7    8.19    0.51
   3   6  -7    7.66    0.50
   3  -6  -6   -0.04    0.27
   3   6  -6    0.00    0.28
   3  -6  -5   89.05    1.93
   3   6  -5   89.08    1.97
   3   6  -5   79.67    4.93
   3  -6  -5   88.87    5.07
   3   6  -4    4.44    1.39
   3   6  -4    4.70    0.54
   3  -6  -4    1.92    0.76
   3   6  -3   26.33    2.67
   3  -6  -3   31.05    2.64
   3   6  -2    1.30    0.98
  -3   6   2    0.15    0.35
   3  -6  -2    0.07    0.82
   3   6  -1   88.74    3.98
   3  -6  -1   88.65    3.96
   3   6   0   24.82    1.98
  -3  -6   0   25.89    1.91
  -3   6   0   26.79    2.03
   3  -6   0   26.06    2.11
  -3   6  -1  670.09    5.42
  -3  -6  -1  666.64    4.37
   3  -6   1  654.02   10.19
  -3  -6  -1  680.15    9.94
  -3   6  -1  678.19   10.19
  -3  -6  -2    0.47    0.30
  -3   6  -2    0.62    0.30
   3  -6   2    0.45    0.58
  -3   6  -2    0.17    0.31
  -3   6  -3   17.91    1.02
  -3  -6  -3   18.63    1.07
  -3  -6  -4    0.98    0.59
  -3  -6  -5  164.93    2.53
  -3  -6  -5  169.36    2.97
  -3  -6  -6   47.01    1.24
  -3  -6  -6   44.95    1.37
  -3  -6  -7   33.78    0.78
  -3   7   7   29.81    1.10
  -3   7   6    1.62    0.49
  -3   7   5   16.01    1.09
   3   7  -4    8.05    1.65
  -3   7   4    7.15    0.79
   3  -7  -4    7.54    1.35
  -3   7   3    9.13    0.81
   3  -7  -3    6.96    1.32
   3   7  -2  136.15    5.52
  -3   7   2  138.49    2.68
   3  -7  -2  141.27    5.53
  -3   7   1    0.05    0.41
   3   7  -1   -0.45    0.78
   3  -7  -1    0.30    0.80
  -3   7   0    1.29    0.38
   3   7   0    1.91    0.91
  -3   7   0    1.15    0.37
   3  -7   0    0.99    0.61
  -3  -7  -1    1.83    0.32
  -3   7  -1    1.72    0.39
   3  -7   1    1.36    0.57
  -3   7  -2   -0.03    0.38
  -3  -7  -2   -0.15    0.28
  -3   7  -3    0.39    0.43
  -3  -7  -3    0.55    0.52
  -3  -7  -4   86.67    2.33
  -3   7  -5  126.76    2.48
  -3  -7  -5  124.25    2.20
  -3  -7  -5  124.45    2.49
  -3  -7  -6   20.53    0.82
  -3  -7  -6   20.69    0.89
  -3  -7  -7   19.46    0.56
  -3   8   7   14.46    0.71
  -3   8   6   -0.33    0.44
  -3   8   5   14.06    1.04
  -3   8   4    0.62    0.59
   3   8  -4    0.48    0.82
   3  -8  -3  104.67    5.12
   3   8  -3  104.19    5.37
  -3   8   3  101.91    2.50
   3   8  -2   66.48    4.10
  -3   8   2   63.95    1.89
   3  -8  -2   63.16    3.86
  -3   8   2   63.45    1.79
   3   8  -1  106.10    4.88
  -3   8   1  102.64    2.35
   3  -8  -1  104.54    4.77
  -3   8   1  107.82    2.20
   3  -8   0   10.36    1.59
   3   8   0    8.39    1.36
  -3   8   0   11.13    0.83
  -3  -8  -1    8.13    0.56
  -3   8  -1    8.49    0.79
   3  -8   1    8.56    1.35
  -3  -8  -2   99.47    1.87
  -3   8  -2   92.40    2.25
  -3   8  -3  586.69    5.68
  -3  -8  -3  590.60    4.72
  -3  -8  -3  593.65    5.64
  -3  -8  -4    0.79    0.42
  -3  -8  -4    0.51    0.52
  -3   8  -5   29.51    1.22
  -3  -8  -5   30.66    1.11
  -3  -8  -5   28.46    1.20
  -3  -8  -6   34.95    0.99
  -3  -8  -6   34.48    1.03
  -3   9   7   15.54    0.80
  -3   9   6   -0.15    0.35
  -3   9   5   97.80    2.42
   3   9  -5   96.42    2.02
  -3   9   4   12.85    1.02
   3   9  -4   13.13    0.85
   3   9  -3    1.75    1.13
  -3   9   3    2.55    0.66
   3  -9  -3    2.32    0.91
  -3   9   3    3.12    0.63
   3   9  -2    1.35    0.90
  -3   9   2    0.51    0.49
  -3   9   2    0.35    0.42
   3  -9  -2    0.36    0.71
   3   9  -1    4.44    1.30
  -3   9   1    5.22    0.66
  -3   9   1    5.16    0.61
   3  -9  -1    5.54    1.44
  -3   9   0   51.29    1.75
   3  -9   0   54.18    3.50
  -3   9   0   52.02    1.59
  -3  -9  -1  288.79    2.99
  -3   9  -1  291.70    4.10
  -3  -9  -2    0.61    0.37
  -3   9  -2    0.31    0.46
  -3  -9  -3   17.24    0.88
  -3  -9  -3   16.11    1.09
  -3  -9  -4    4.74    0.69
  -3  -9  -4    3.94    0.53
  -3  -9  -5    0.96    0.38
  -3   9  -5    1.06    0.36
  -3  -9  -5    1.51    0.41
  -3  -9  -6    0.61    0.26
  -3  10   7    8.93    0.54
  -3  10   6    7.39    0.60
  -3  10   6    6.82    0.67
  -3  10   5   16.88    1.02
  -3  10   5   16.43    1.08
   3  10  -5   17.34    0.88
   3  10  -4    0.26    0.40
  -3  10   4    0.56    0.57
  -3  10   4    0.15    0.54
   3  10  -3  132.19    6.21
  -3  10   3  126.70    2.89
  -3  10   3  125.81    2.77
   3  10  -2  165.59    6.79
  -3  10   2  156.91    3.17
   3 -10  -2  166.29    6.64
  -3  10   2  153.51    2.99
   3 -10  -1   27.73    2.63
  -3  10   1   32.00    1.35
  -3  10   1   31.61    1.46
  -3  10   0   55.87    1.89
   3 -10   0   55.35    3.64
  -3  10   0   57.39    1.74
  -3  10  -1   -0.09    0.51
  -3  10  -1   -0.46    0.43
  -3 -10  -2   36.90    1.17
  -3  10  -2   37.73    1.60
  -3 -10  -3  226.53    2.90
  -3 -10  -3  232.51    3.53
  -3  10  -4    6.43    0.74
  -3 -10  -4    6.09    0.58
  -3 -10  -4    6.03    0.71
  -3  10  -5    4.74    0.53
  -3 -10  -5    5.04    0.47
  -3 -10  -5    4.32    0.49
  -3 -10  -6    0.14    0.18
  -3  11   6    3.12    0.48
   3  11  -5    3.08    0.47
  -3  11   5    1.73    0.46
  -3  11   5    2.12    0.49
  -3  11   4   12.56    0.95
  -3  11   4   13.24    0.97
   3  11  -4   13.83    0.84
  -3  11   3   31.71    1.50
  -3  11   3   30.64    1.42
  -3  11   2    3.35    0.70
  -3  11   2    3.76    0.63
  -3  11   1  269.70    4.19
   3 -11  -1  279.04    8.43
  -3  11   1  269.08    3.97
  -3  11   0   55.56    1.96
   3 -11   0   58.90    3.77
  -3  11   0   58.07    1.82
  -3  11  -1  101.23    2.58
  -3  11  -1  102.72    2.36
  -3 -11  -2   -0.32    0.34
  -3  11  -2   -0.32    0.55
  -3 -11  -3    3.76    0.47
  -3 -11  -3    3.75    0.63
  -3  11  -4    1.13    0.49
  -3 -11  -4    0.63    0.31
  -3 -11  -4    1.41    0.47
  -3  11  -5   17.61    0.85
  -3 -11  -5   17.06    0.67
  -3 -11  -5   17.70    0.73
  -3  12   6   15.47    0.72
  -3  12   5   18.82    0.90
  -3  12   5   20.49    1.01
   3  12  -5   20.21    0.81
   3  12  -4    0.11    0.38
  -3  12   4   -0.32    0.46
  -3  12   4    0.07    0.46
  -3  12   3   73.51    2.17
  -3  12   3   77.93    2.16
  -3  12   2   77.34    2.30
  -3  12   2   75.94    2.18
  -3  12   1  154.78    3.22
  -3  12   1  153.65    3.01
  -3  12   0    2.70    0.73
  -3  12   0    2.48    0.58
  -3  12  -1    0.76    0.54
  -3  12  -1    1.76    0.46
  -3  12  -2   54.61    1.91
  -3  12  -2   53.46    1.65
  -3 -12  -3    3.53    0.41
  -3  12  -3    3.98    0.69
  -3 -12  -3    3.97    0.58
  -3  12  -4    3.68    0.57
  -3 -12  -4    3.02    0.46
  -3 -12  -4    2.76    0.35
  -3  12  -5    4.05    0.40
  -3 -12  -5    4.13    0.33
  -3  13   5    4.19    0.39
  -3  13   5    4.21    0.49
  -3  13   4   12.27    0.83
  -3  13   4   12.00    0.79
   3  13  -4   12.35    0.71
  -3  13   3  305.90    4.05
  -3  13   3  309.17    4.10
  -3  13   2   18.32    1.14
  -3  13   2   20.41    1.14
  -3  13   1   15.92    1.13
  -3  13   1   15.42    1.00
  -3  13   0   24.82    1.37
  -3  13   0   23.40    1.20
  -3  13  -1   12.67    0.99
  -3  13  -1   13.33    0.89
  -3  13  -2    0.53    0.48
  -3  13  -2    1.04    0.54
  -3 -13  -2    1.35    0.53
  -3  13  -3    4.27    0.62
  -3 -13  -3    4.72    0.57
  -3  13  -4    6.67    0.60
  -3 -13  -4    5.90    0.38
  -3 -13  -4    6.92    0.50
  -3  14   5    4.83    0.40
  -3  14   4   63.96    1.49
  -3  14   4   64.74    1.58
   3  14  -4   62.99    1.30
   3  14  -3    2.69    0.44
  -3  14   3    2.02    0.50
  -3  14   3    2.96    0.52
  -3  14   2    0.82    0.48
  -3  14   2    1.04    0.41
  -3  14   1    9.08    0.85
  -3  14   1    8.95    0.74
  -3  14   0    0.70    0.53
  -3  14   0    0.68    0.38
  -3  14   0    0.78    0.35
  -3  14  -1   23.52    1.15
  -3  14  -1   22.62    1.22
  -3  14  -1   22.18    1.05
  -3  14  -2   26.19    1.21
  -3 -14  -2   26.90    1.14
  -3  14  -3    0.43    0.35
  -3 -14  -3    1.07    0.35
  -3  14  -4   23.11    0.85
  -3  15   4    3.24    0.37
   3  15  -3    1.55    0.31
  -3  15   3    1.82    0.36
  -3  15   3    1.91    0.37
  -3  15   2    0.33    0.35
  -3  15   2    0.39    0.35
  -3  15   1    6.91    0.69
  -3  15   1    7.56    0.65
  -3  15   0    4.77    0.60
  -3  15   0    4.31    0.51
  -3  15  -1   14.44    0.80
  -3  15  -1   15.25    0.94
  -3  15  -1   14.68    0.78
  -3  15  -2   22.19    0.97
  -3 -15  -2   20.64    0.87
  -3  15  -3    0.79    0.29
  -3 -15  -3    0.65    0.23
  -3  16   3    2.65    0.31
   3  16  -2    0.21    0.21
  -3  16   2   -0.18    0.26
  -3  16   2    0.02    0.23
  -3  16   1    0.29    0.34
  -3  16   1   -0.21    0.28
  -3  16   0   19.94    0.93
  -3  16   0   19.31    0.80
  -3  16  -1    4.65    0.42
  -3 -16  -1    3.50    0.42
  -3 -16  -2    0.68    0.22
   4   0  -8   51.58    1.07
   4   0  -7    0.19    0.34
   4   0  -6    9.58    0.86
   4   0  -5    0.52    1.06
   4   0  -5    0.40    0.48
   4   0  -4    5.32    1.41
   4   0  -4    7.52    0.77
   4   0  -3   -0.15    0.93
   4   0  -3   -0.45    0.82
   4   0  -2   95.11    4.25
   4   0  -2   97.85    4.29
   4   0  -1   -0.12    0.67
   4   0  -1    1.25    0.74
  -4   0   0   13.49    0.81
  -4   0   0   11.01    1.80
  -4   0  -1   -0.01    0.33
  -4   0  -1    2.10    1.15
  -4   0  -2  612.26   11.95
  -4   0  -2  616.62    5.22
  -4   0  -2  622.80    4.57
  -4   0  -2  616.35    5.13
  -4   0  -3   -0.05    0.31
  -4   0  -3   -0.11    0.31
  -4   0  -3    0.13    0.45
  -4   0  -4   46.67    1.33
  -4   0  -4   47.08    1.67
  -4   0  -5   -0.01    0.57
  -4   0  -6   36.32    1.28
   4  -1  -8  190.87    1.99
   4   1  -8  189.70    1.99
   4  -1  -7    3.74    0.48
   4   1  -7    3.35    0.47
   4  -1  -6    4.46    0.69
   4   1  -6    4.19    0.67
   4  -1  -5   42.17    3.70
   4   1  -5   41.66    3.85
   4   1  -5   36.89    1.50
   4  -1  -5   38.27    1.53
   4   1  -4   66.55    4.40
   4  -1  -4   64.22    1.84
   4   1  -4   66.30    1.87
   4  -1  -4   62.24    4.17
  -4   1   3   17.45    0.87
   4  -1  -3   17.08    2.05
   4   1  -3   16.82    2.25
   4  -1  -3   16.50    1.89
   4   1  -3   17.73    1.79
   4   1  -2   23.24    2.25
   4  -1  -2   22.11    2.08
   4   1  -2   23.31    2.09
   4  -1  -2   23.53    2.14
  -4   1   1    4.74    0.51
   4  -1  -1    3.08    0.79
   4  -1  -1    3.70    1.08
  -4  -1   0  312.29    7.91
  -4   1   0  316.50    3.60
  -4  -1  -1    1.52    0.95
  -4   1  -1    1.53    0.40
  -4  -1  -1    1.53    0.42
  -4   1  -1    2.06    0.97
  -4  -1  -1    1.72    0.38
  -4  -1  -2   69.38    4.09
  -4   1  -2   67.60    1.80
  -4  -1  -2   67.92    1.72
  -4   1  -2   68.55    4.06
  -4  -1  -2   68.85    1.59
  -4   1  -2   68.74    1.72
  -4  -1  -2   72.25    1.83
  -4   1  -3    2.61    0.45
  -4  -1  -3    2.11    0.43
  -4   1  -3    2.22    0.56
  -4  -1  -3    2.62    0.57
  -4  -1  -4  278.00    3.24
  -4   1  -4  281.57    3.89
  -4  -1  -4  288.65    4.01
  -4  -1  -5    6.53    0.53
  -4   1  -5    6.83    0.81
  -4  -1  -5    7.81    0.83
  -4   1  -6   37.88    1.30
  -4  -1  -6   39.50    1.33
  -4   2   8   26.75    0.90
   4  -2  -8   27.21    0.74
   4   2  -8   28.32    0.76
   4  -2  -7    9.77    0.67
   4   2  -7   10.13    0.67
   4  -2  -6   17.94    1.05
   4   2  -6   16.21    1.02
   4   2  -5   45.64    3.91
   4  -2  -5   49.60    1.72
   4   2  -5   49.06    1.71
   4  -2  -5   49.13    3.92
   4   2  -4   43.93    3.70
   4  -2  -4   46.36    1.58
   4   2  -4   48.64    1.62
   4  -2  -4   44.69    3.54
   4  -2  -3   -1.19    1.17
   4   2  -3   -0.50    1.01
   4  -2  -3    0.07    0.64
   4   2  -3   -0.85    0.59
   4  -2  -2    0.74    0.85
  -4   2   2    0.67    0.36
   4   2  -2    0.96    0.86
   4  -2  -2   -0.16    0.76
   4   2  -2    0.04    0.62
   4   2  -1   30.18    2.32
  -4   2   1   28.41    1.10
   4  -2  -1   29.87    2.43
   4  -2  -1   26.34    1.99
  -4  -2   0   35.20    2.78
  -4   2   0   39.18    2.94
  -4   2   0   41.28    1.35
   4  -2   0   34.67    2.67
  -4   2  -1   13.03    0.83
  -4  -2  -1   13.43    0.81
  -4  -2  -1   12.47    0.67
  -4  -2  -1   10.48    1.68
  -4   2  -1   12.72    1.84
   4  -2   1   12.85    1.78
  -4  -2  -1   13.09    0.76
  -4   2  -2  141.92    2.66
  -4  -2  -2  142.04    2.46
  -4  -2  -2  151.12    6.04
  -4   2  -2  138.07    5.77
  -4  -2  -2  142.27    2.28
   4  -2   2  140.10    5.62
  -4   2  -2  140.32    2.43
  -4  -2  -2  149.39    2.71
  -4   2  -3   -0.29    0.42
  -4  -2  -3   -0.03    0.32
  -4   2  -3    0.44    0.43
  -4  -2  -3    0.32    0.47
  -4  -2  -4   10.37    0.71
  -4   2  -4    9.98    0.89
  -4  -2  -4   10.79    0.93
  -4  -2  -5   58.64    1.43
  -4   2  -5   55.18    1.79
  -4  -2  -5   58.51    1.81
  -4   2  -6   82.63    1.90
  -4  -2  -6   83.20    1.87
  -4   3   8    0.21    0.22
   4  -3  -8    0.09    0.16
   4   3  -8    0.08    0.15
   4  -3  -7    0.56    0.29
   4   3  -7    1.06    0.35
   4  -3  -6   48.05    1.55
   4   3  -6   47.84    1.57
   4  -3  -5   21.73    1.16
   4   3  -5   18.91    1.11
   4   3  -4  127.79    6.17
   4  -3  -4  130.09    2.61
   4   3  -4  124.19    2.56
   4  -3  -4  117.27    5.06
   4  -3  -4  134.30    5.97
   4   3  -3  106.34    5.24
   4  -3  -3  103.97    4.68
   4  -3  -3  104.30    4.85
   4   3  -2   33.88    2.90
  -4   3   2   31.73    1.15
   4  -3  -2   31.80    2.65
   4  -3  -2   31.70    2.49
   4  -3  -1    2.32    0.71
  -4   3   1    3.14    0.48
   4   3  -1    2.28    0.85
   4  -3  -1    2.77    1.11
  -4   3   0   20.18    1.01
  -4  -3   0   17.59    2.04
  -4   3   0   20.15    2.19
   4  -3   0   19.66    2.11
  -4   3  -1   84.56    2.02
  -4  -3  -1   82.30    1.68
   4  -3   1   77.96    4.03
  -4  -3  -1   76.76    4.19
  -4   3  -1   83.30    4.34
  -4  -3  -1   81.54    1.85
  -4   3  -2   90.87    2.16
  -4  -3  -2   93.43    1.98
  -4  -3  -2   92.50    1.83
  -4  -3  -2   93.95    4.78
  -4   3  -2   90.39    4.69
   4  -3   2   92.31    4.54
  -4   3  -2   87.86    1.92
  -4  -3  -2   84.16    2.23
  -4   3  -3   33.04    1.35
  -4  -3  -3   30.90    1.14
  -4   3  -3   31.22    1.30
  -4  -3  -4  140.01    2.33
  -4   3  -4  137.65    2.75
  -4  -3  -4  145.84    2.93
  -4  -3  -5    2.51    0.39
  -4   3  -5    2.89    0.60
  -4  -3  -5    1.84    0.62
  -4  -3  -6    7.18    0.62
   4  -4  -7    0.43    0.29
   4   4  -7    0.27    0.26
   4  -4  -6    2.81    0.48
   4   4  -6    2.76    0.48
   4  -4  -5   14.15    0.94
   4   4  -5   13.00    0.93
   4   4  -4   23.01    1.15
   4   4  -4   21.16    2.65
   4  -4  -4   22.34    1.12
   4  -4  -4   21.83    2.32
   4  -4  -4   21.37    2.51
   4   4  -3  276.95    8.53
   4  -4  -3  269.10    7.72
   4  -4  -3  261.51    7.79
   4   4  -2  136.01    5.56
  -4   4   2  138.29    2.40
  -4   4   2  136.71    2.56
   4  -4  -2  137.62    5.48
   4  -4  -2  129.54    5.03
   4   4  -1  167.05    5.63
  -4   4   1  159.87    2.67
  -4   4   1  165.25    2.71
   4  -4  -1  172.36    6.01
   4  -4  -1  165.66    5.02
  -4   4   0    0.39    0.43
   4  -4   0    1.04    0.79
  -4  -4   0    0.40    0.81
  -4   4   0    0.40    0.64
  -4   4  -1    4.11    1.11
  -4   4  -1    5.76    0.67
   4  -4   1    4.65    1.24
  -4  -4  -1    4.78    0.69
  -4  -4  -1    4.81    1.47
  -4   4  -2    9.62    0.79
  -4  -4  -2   10.54    0.70
  -4   4  -2   10.26    0.72
   4  -4   2    7.54    1.46
  -4  -4  -2   10.02    0.80
  -4  -4  -3    1.69    0.46
  -4   4  -3    1.97    0.54
  -4  -4  -3    1.42    0.54
  -4  -4  -4  102.67    2.00
  -4   4  -4  104.21    2.40
  -4  -4  -5    9.73    0.64
  -4   4  -5    8.57    0.82
  -4  -4  -5   10.41    0.84
  -4  -4  -6    9.09    0.50
  -4  -4  -6    9.40    0.64
  -4   5   7   15.38    0.85
   4  -5  -7   14.86    0.63
   4   5  -7   15.48    0.66
   4  -5  -6    1.48    0.35
   4   5  -6    1.12    0.35
   4  -5  -5    2.62    0.53
   4   5  -5    2.01    0.50
   4   5  -4   91.07    2.18
   4   5  -4   87.53    5.18
   4  -5  -4   91.83    2.13
   4  -5  -4   84.90    4.50
   4  -5  -4   95.39    5.18
   4   5  -3   39.12    3.33
   4  -5  -3   35.82    2.97
   4  -5  -3   37.58    3.09
   4  -5  -2   -0.16    0.76
  -4   5   2    0.26    0.35
  -4   5   2   -0.23    0.45
   4  -5  -2   -0.56    0.74
  -4   5   1  459.33    4.63
   4   5  -1  467.47    9.55
  -4   5   1  464.09    4.70
   4  -5  -1  462.09   10.19
  -4   5   0  162.26    2.85
  -4  -5   0  157.07    5.73
  -4   5   0  152.96    5.77
  -4   5   0  161.54    2.68
   4  -5   0  160.17    5.89
  -4  -5  -1    4.52    0.49
  -4   5  -1    6.15    0.66
  -4  -5  -1    4.02    0.94
  -4   5  -1    3.37    0.96
   4  -5   1    4.98    1.11
  -4  -5  -1    4.50    0.59
  -4   5  -2    2.02    0.55
  -4  -5  -2    2.46    0.45
   4  -5   2    0.75    0.76
  -4   5  -2    1.46    0.37
  -4  -5  -2    2.45    0.62
  -4  -5  -3  180.90    2.65
  -4   5  -3  176.92    2.96
  -4  -5  -4   10.46    0.74
  -4   5  -4   10.61    0.87
  -4  -5  -4   10.62    0.94
  -4  -5  -5   41.03    1.21
  -4  -5  -5   41.04    1.48
  -4  -5  -6    0.60    0.23
  -4  -5  -6   -0.09    0.31
  -4   6   7    4.26    0.50
   4  -6  -6    6.02    0.49
   4   6  -6    6.00    0.50
  -4   6   6    6.14    0.73
   4  -6  -5    9.81    0.71
   4   6  -5    8.74    0.67
   4  -6  -4    3.19    1.49
   4   6  -4    1.63    1.12
  -4   6   4    3.18    0.70
   4  -6  -4    4.44    0.55
   4   6  -4    4.94    0.58
   4   6  -3   38.21    3.33
  -4   6   3   35.40    1.52
   4  -6  -3   37.56    1.29
   4   6  -3   36.34    1.31
   4  -6  -3   34.54    2.94
   4  -6  -3   37.79    3.11
  -4   6   2   77.47    1.87
   4   6  -2   77.35    4.43
  -4   6   2   70.64    2.05
   4  -6  -2   75.52    4.29
  -4   6   1    0.51    0.42
  -4   6   1    0.33    0.46
  -4  -6   1    1.24    0.76
  -4   6   1    0.52    0.62
   4  -6  -1    1.22    0.89
   4   6  -1    0.36    0.89
  -4   6   0    1.78    0.50
  -4   6   0    1.57    0.43
  -4   6   0    0.42    0.84
   4  -6   0    1.25    0.58
  -4   6  -1   10.36    0.87
  -4  -6  -1   10.78    0.71
  -4  -6  -1   13.74    1.75
   4  -6   1   10.79    1.66
  -4  -6  -1    9.52    0.90
  -4   6  -1   12.33    1.70
  -4  -6  -2   82.96    1.81
  -4  -6  -2   86.53    2.19
  -4  -6  -3   76.51    1.76
  -4  -6  -3   87.47    2.34
  -4  -6  -4   25.85    1.06
  -4  -6  -4   27.52    1.32
  -4  -6  -5   10.53    0.67
  -4  -6  -5   10.62    0.81
  -4  -6  -6    1.43    0.26
  -4  -6  -6    1.53    0.33
  -4   7   7    5.62    0.49
  -4   7   6    8.68    0.76
  -4   7   5    8.52    0.92
  -4   7   4    3.66    0.70
   4   7  -3   13.24    2.09
  -4   7   3   16.71    1.15
   4  -7  -3   14.87    2.12
   4   7  -2   10.85    1.88
  -4   7   2   14.31    1.03
   4  -7  -2   15.49    2.07
  -4   7   1  141.77    2.70
   4   7  -1  142.92    5.75
  -4   7   1  145.54    2.89
   4  -7  -1  150.95    6.16
  -4   7   0   65.96    1.95
  -4   7   0   68.12    1.96
  -4   7  -1   76.25    2.10
  -4  -7  -1   77.06    1.74
  -4   7  -1   75.30    1.98
   4  -7   1   73.13    4.17
  -4  -7  -2   49.09    1.44
  -4  -7  -2   51.24    1.74
  -4  -7  -3  234.33    3.06
  -4  -7  -3  254.24    3.97
  -4  -7  -4   97.01    1.95
  -4  -7  -4  103.61    2.38
  -4  -7  -5    2.36    0.40
  -4  -7  -5    2.41    0.52
  -4  -7  -6   -0.05    0.19
  -4  -7  -6    0.45    0.24
  -4   8   7   41.91    1.03
  -4   8   7   40.93    1.01
  -4   8   6    1.83    0.49
  -4   8   6    0.80    0.36
  -4   8   5   11.93    0.96
  -4   8   4   54.38    1.94
  -4   8   4   53.54    1.73
  -4   8   3   21.79    1.30
  -4   8   3   24.72    1.17
  -4   8   2    2.07    0.63
   4  -8  -2    3.12    1.16
   4   8  -1  124.96    5.45
  -4   8   1  127.56    2.79
   4  -8  -1  134.48    6.00
  -4   8   0    5.93    0.75
   4  -8   0    5.11    1.43
  -4  -8  -1   65.43    1.62
  -4   8  -1   67.92    1.97
   4  -8   1   70.86    4.21
  -4  -8  -2   48.03    1.42
  -4   8  -2   49.87    1.64
  -4  -8  -2   47.50    1.68
  -4  -8  -3    4.00    0.55
  -4  -8  -3    1.96    0.64
  -4  -8  -4    1.86    0.43
  -4  -8  -4    1.73    0.56
  -4  -8  -5   17.07    0.75
  -4  -8  -5   16.39    0.84
  -4   9   6    1.95    0.40
  -4   9   6    1.10    0.31
  -4   9   5   35.30    1.45
  -4   9   5   36.23    1.34
  -4   9   4    9.56    0.94
  -4   9   4    8.42    0.75
  -4   9   3    6.82    0.89
  -4   9   3    7.44    0.72
  -4   9   2    2.94    0.70
  -4   9   1  103.54    2.58
   4  -9  -1  105.45    5.46
  -4   9   0    2.87    0.63
   4  -9   0   -1.42    1.04
  -4  -9  -1  499.66    4.35
  -4   9  -1  505.45    5.46
  -4  -9  -2    0.77    0.41
  -4   9  -2    0.20    0.39
  -4  -9  -2    0.44    0.58
  -4  -9  -3    2.76    0.49
  -4  -9  -3    3.17    0.66
  -4  -9  -4    2.46    0.41
  -4  -9  -4    3.14    0.54
  -4  -9  -5   81.43    1.43
  -4  -9  -5   80.60    1.60
  -4  10   6    0.04    0.27
  -4  10   6   -0.08    0.23
  -4  10   5    5.44    0.65
  -4  10   5    5.45    0.57
  -4  10   4   20.66    1.21
  -4  10   4   20.47    1.05
  -4  10   3   97.58    2.55
  -4  10   3   99.49    2.26
  -4  10   2   70.70    2.21
  -4  10   1  207.55    3.65
  -4  10   0    6.53    0.78
  -4  10  -1   29.15    1.39
  -4 -10  -2   -0.14    0.34
  -4  10  -2   -0.08    0.40
  -4 -10  -2    0.06    0.56
  -4 -10  -3    2.21    0.43
  -4 -10  -3    0.85    0.50
  -4  10  -4   17.40    0.95
  -4 -10  -4   18.51    0.77
  -4 -10  -4   17.83    0.92
  -4 -10  -5    0.30    0.21
  -4 -10  -5   -0.15    0.25
  -4  11   5  101.58    2.02
  -4  11   5  103.04    1.90
  -4  11   4   99.63    2.31
  -4  11   4   97.65    2.08
  -4  11   3   13.54    1.01
  -4  11   3   12.47    0.83
  -4  11   2   -0.24    0.62
  -4  11   2    0.25    0.34
  -4  11   1    2.09    0.62
  -4  11   0    0.26    0.50
  -4  11  -1    0.50    0.46
  -4 -11  -2    0.39    0.31
  -4  11  -2    0.21    0.41
  -4 -11  -2   -0.15    0.48
  -4 -11  -3   20.91    0.82
  -4 -11  -3   22.29    1.07
  -4  11  -4    3.51    0.45
  -4 -11  -4    2.74    0.34
  -4 -11  -4    3.42    0.44
  -4  12   5   34.88    1.05
  -4  12   5   33.42    0.95
  -4  12   4    0.54    0.36
  -4  12   4   -0.06    0.29
  -4  12   3  130.64    2.64
  -4  12   3  132.23    2.36
  -4  12   2   10.53    0.95
  -4  12   2    9.68    0.72
  -4  12   1   -0.28    0.53
  -4  12   0    7.50    0.79
  -4  12  -1    4.13    0.64
  -4 -12  -2    0.40    0.44
  -4  12  -3    4.63    0.57
  -4 -12  -3    4.87    0.57
  -4  12  -4    2.58    0.37
  -4 -12  -4    2.66    0.34
  -4  13   4    9.59    0.63
  -4  13   4    9.51    0.55
  -4  13   3    6.00    0.62
  -4  13   3    5.74    0.49
  -4  13   2   20.49    1.08
  -4  13   1    4.18    0.64
  -4  13   0   55.75    1.75
  -4  13  -1    2.52    0.53
  -4 -13  -1    2.00    0.53
  -4  13  -2    5.97    0.62
  -4 -13  -2    5.27    0.56
  -4  13  -3    1.39    0.38
  -4 -13  -3    1.33    0.34
  -4  14   3    4.42    0.49
  -4  14   2   12.35    0.78
  -4  14   1    6.73    0.64
  -4  14   0   25.96    0.97
  -4  14   0   27.53    1.14
  -4  14  -1    1.14    0.35
  -4  14  -1    0.86    0.39
  -4 -14  -1    1.04    0.39
  -4  14  -2    4.45    0.46
  -4 -14  -2    4.23    0.47
  -4  14  -3    7.49    0.48
  -4  15   2    7.87    0.56
  -4  15   1    4.22    0.47
  -4  15   0   -0.18    0.30
  -4 -15   0   -0.26    0.30
  -4  15  -1    0.04    0.20
  -4 -15  -1    0.18    0.26
   5   0  -7   -0.28    0.26
   5   0  -6   21.45    1.02
   5   0  -5    0.20    0.50
   5   0  -4   -0.14    0.51
  -5   0   3   -0.07    0.41
   5   0  -3    1.01    1.02
  -5   0   2   72.13    1.99
   5   0  -2   74.83    4.41
  -5   0   1   -0.13    0.46
  -5   0   1    0.41    0.89
   5   0  -1    1.60    0.89
  -5   0   0  466.25    4.96
  -5   0   0  470.99   11.25
   5   0   0  461.26   11.25
  -5   0  -1    1.26    1.04
  -5   0  -1   -0.42    0.50
   5   0   1    1.81    0.94
  -5   0  -2  157.73    2.96
   5   0   2  157.95    7.01
  -5   0  -2  158.85    2.73
  -5   0  -3    0.65    0.45
  -5   0  -3   -0.13    0.46
  -5   0  -4   62.56    1.78
  -5   0  -5    0.24    0.37
   5   1  -7    3.85    0.37
   5  -1  -7    3.97    0.39
   5  -1  -6   22.27    1.03
   5   1  -6   22.42    1.04
   5  -1  -5    3.84    0.66
   5   1  -5    2.94    0.60
  -5  -1   4   28.06    1.19
   5  -1  -4   28.99    1.36
   5   1  -4   28.66    1.35
  -5   1   3   25.89    1.16
   5  -1  -3   24.33    2.72
   5   1  -3   17.99    2.03
   5  -1  -3   22.84    2.34
  -5   1   2   91.84    2.22
   5  -1  -2  100.28    5.12
   5   1  -2   94.68    4.99
  -5   1   1    1.50    0.50
  -5  -1   1    1.37    0.52
  -5  -1   1    1.38    0.93
  -5   1   1    2.94    1.12
   5  -1  -1    0.06    0.82
   5   1  -1    0.94    0.86
  -5   1   0  165.18    3.02
  -5  -1   0  166.78    2.99
  -5  -1   0  164.57    6.68
  -5   1   0  172.00    6.89
   5  -1   0  168.73    6.76
  -5  -1  -1    7.27    1.75
  -5   1  -1    5.14    0.71
  -5  -1  -1    5.84    0.72
  -5   1  -1    7.20    1.54
   5  -1   1    6.91    1.34
  -5   1  -2  159.09    3.01
  -5  -1  -2  163.05    2.95
  -5   1  -2  163.72    2.70
  -5  -1  -2  164.66    2.82
  -5   1  -3   65.77    1.82
  -5   1  -3   62.87    1.82
  -5  -1  -3   62.69    1.89
  -5   1  -4    9.33    0.78
  -5  -1  -4    8.18    0.79
  -5   1  -5    1.79    0.47
  -5  -1  -5    2.30    0.48
  -5  -1  -6    9.46    0.51
  -5   2   7   26.22    0.99
   5  -2  -7   26.69    0.82
   5   2  -7   25.09    0.80
   5  -2  -6    8.23    0.66
   5   2  -6    8.27    0.67
   5  -2  -5   10.80    0.87
   5   2  -5   10.74    0.86
   5  -2  -4   10.93    0.90
   5   2  -4   10.62    0.92
  -5   2   3    5.42    0.63
   5   2  -3    3.88    1.48
   5  -2  -3    4.23    0.99
  -5   2   2   59.40    1.78
   5  -2  -2   57.12    3.90
  -5   2   1   15.85    1.04
  -5  -2   1   16.86    2.24
  -5   2   1   14.25    2.07
   5  -2  -1   16.64    2.27
   5   2  -1   12.77    1.95
  -5  -2   0   -0.25    1.12
  -5   2   0    0.78    1.09
  -5   2   0    3.21    0.67
  -5  -2   0    1.86    0.54
   5  -2   0    2.44    0.77
  -5   2  -1   34.69    1.48
  -5  -2  -1   30.64    1.34
   5  -2   1   30.78    3.02
  -5  -2  -1   32.49    1.24
  -5  -2  -1   34.38    3.28
  -5   2  -1   33.70    3.13
  -5   2  -2  116.59    2.59
  -5  -2  -2  118.33    2.48
  -5   2  -2  119.92    2.26
  -5  -2  -2  111.13    2.43
  -5   2  -3    0.60    0.42
  -5   2  -3   -0.14    0.40
  -5  -2  -3    0.41    0.47
  -5   2  -4   70.24    1.82
  -5  -2  -4   71.92    1.93
  -5   2  -5    0.58    0.40
  -5  -2  -5   -0.24    0.39
  -5  -2  -6   13.49    0.58
   5  -3  -7    0.19    0.19
   5   3  -7    0.05    0.20
   5  -3  -6    7.06    0.60
   5   3  -6    6.81    0.59
   5  -3  -5   59.48    1.75
   5   3  -5   57.18    1.74
   5  -3  -4    0.71    0.45
   5   3  -4    0.77    0.49
  -5   3   3    4.54    0.56
   5   3  -3    1.96    0.86
  -5   3   3    2.21    0.57
   5  -3  -3    5.22    1.38
  -5   3   2    6.04    0.69
  -5   3   2    5.73    0.63
   5  -3  -2    6.00    1.36
   5   3  -2    3.13    0.90
  -5   3   1    1.32    0.52
  -5  -3   1    1.16    1.18
  -5   3   1    3.27    1.30
   5  -3  -1    1.19    0.56
  -5   3   0   71.09    2.05
  -5  -3   0   71.25    4.44
  -5   3   0   73.11    4.55
   5  -3   0   68.78    4.32
  -5   3  -1    1.84    0.59
  -5  -3  -1    2.18    0.55
   5  -3   1    1.22    0.73
  -5  -3  -1    1.80    0.47
  -5   3  -1    1.43    0.73
  -5   3  -2   18.94    1.14
  -5  -3  -2   19.37    1.03
  -5  -3  -2   20.13    1.11
  -5   3  -3    4.23    0.55
  -5  -3  -3    4.53    0.67
  -5   3  -4   18.00    0.95
  -5  -3  -4   18.69    1.05
  -5  -3  -5   12.36    0.75
  -5  -3  -6    1.13    0.23
  -5   4   7    0.37    0.27
   5  -4  -7   -0.08    0.17
   5   4  -7    0.09    0.15
   5  -4  -6   47.52    1.27
   5   4  -6   46.56    1.29
  -5   4   6   49.62    1.59
  -5   4   5    1.98    0.58
   5  -4  -5    2.36    0.47
   5   4  -5    2.57    0.48
   5  -4  -4   16.30    0.98
   5   4  -4   15.73    0.99
  -5   4   4   14.12    1.06
  -5   4   3   64.40    2.01
  -5   4   2   36.03    1.40
  -5   4   2   33.92    1.41
   5  -4  -2   31.48    2.97
   5   4  -2   33.19    2.91
  -5   4   1   29.49    1.34
  -5  -4   1   34.33    3.08
  -5   4   1   30.13    2.88
   5  -4  -1   28.01    2.90
  -5   4   0   35.04    1.51
   5  -4   0   36.80    3.11
  -5  -4   0   33.49    3.00
  -5   4   0   36.48    3.21
  -5   4  -1    8.13    0.87
  -5  -4  -1    9.69    1.68
  -5  -4  -1    6.69    0.73
  -5   4  -1    5.44    1.24
   5  -4   1    6.44    1.59
  -5  -4  -1    8.14    0.79
  -5   4  -2  184.87    3.28
  -5  -4  -2  186.07    2.95
  -5  -4  -2  182.48    3.24
  -5   4  -3    3.30    0.53
  -5  -4  -3    4.22    0.68
  -5  -4  -4   16.55    0.98
  -5  -4  -5   11.80    0.72
  -5   5   7   -0.21    0.23
   5  -5  -6   28.96    0.90
   5   5  -6   27.59    0.91
  -5   5   6   29.47    1.21
   5  -5  -5   93.20    1.94
   5   5  -5   89.32    1.96
  -5   5   5   93.09    2.33
   5  -5  -4   47.91    1.52
   5   5  -4   44.80    1.55
  -5   5   4   46.08    1.75
  -5   5   3    0.42    0.49
  -5  -5   2   34.62    3.00
  -5   5   2   34.31    3.16
  -5   5   2   30.18    1.30
  -5   5   2   30.76    1.39
  -5   5   1    5.25    0.69
  -5   5   1    4.47    0.60
   5  -5  -1    3.82    1.17
  -5  -5   1    7.00    1.56
  -5   5   0    5.86    0.78
   5  -5   0    6.05    1.43
  -5   5   0    8.45    1.60
  -5  -5   0    5.58    0.65
  -5   5  -1    0.77    0.60
  -5  -5  -1    0.31    0.41
  -5  -5  -1    0.75    0.49
  -5   5  -2   53.71    1.80
  -5  -5  -2   53.80    1.78
  -5  -5  -3   27.89    1.32
  -5  -5  -4    1.20    0.47
  -5  -5  -5    3.55    0.45
  -5   6   6    7.85    0.65
   5   6  -6    5.69    0.38
  -5   6   5   -0.05    0.49
   5  -6  -5    0.34    0.28
   5   6  -5   -0.10    0.28
   5  -6  -4   15.59    0.82
   5   6  -4   16.33    0.90
  -5   6   4   17.26    1.12
  -5   6   3  190.70    3.41
   5  -6  -3  194.79    2.96
   5   6  -3  188.76    3.01
  -5   6   2    7.03    0.70
  -5   6   2    5.35    0.73
  -5   6   1   14.51    0.99
  -5   6   1   13.88    0.95
  -5   6   0   67.24    2.03
  -5  -6   0   67.25    1.79
  -5   6  -1  452.04    5.14
  -5  -6  -1  437.49    4.66
  -5  -6  -1  454.11    4.83
  -5  -6  -2    2.53    0.64
  -5  -6  -3   11.00    0.86
  -5  -6  -4    2.88    0.51
  -5  -6  -5   20.68    0.81
  -5   7   6   21.09    0.91
  -5   7   5   23.67    1.16
  -5   7   4    0.78    0.58
  -5   7   3   69.55    2.11
  -5   7   2   12.63    0.83
  -5   7   2   12.71    1.01
  -5   7   1  105.46    2.40
  -5   7   1  106.57    2.49
  -5   7   0   38.49    1.54
  -5   7   0   38.07    1.44
  -5  -7   0   38.81    1.38
  -5  -7  -1   10.26    0.80
  -5  -7  -1   11.11    0.90
  -5  -7  -2   10.04    0.89
  -5  -7  -3    0.63    0.48
  -5  -7  -4   14.53    0.82
  -5  -7  -5    0.13    0.23
  -5   8   6    0.91    0.30
  -5   8   5   -0.35    0.43
  -5   8   4    5.54    0.72
  -5   8   3   60.61    1.93
  -5   8   2    8.62    0.84
  -5   8   1  116.77    2.62
  -5  -8   1  116.51    2.24
  -5   8   0   51.42    1.68
  -5  -8   0   48.22    1.56
  -5  -8  -1    8.00    0.68
  -5  -8  -1    9.09    0.83
  -5  -8  -2   51.12    1.71
  -5  -8  -3   76.54    1.86
  -5  -8  -4    0.70    0.32
  -5   9   5    0.92    0.36
  -5   9   4   16.62    0.99
  -5   9   3   64.59    1.93
  -5   9   2    3.89    0.65
  -5   9   1  186.49    3.25
  -5  -9   1  177.31    2.79
  -5   9   0    5.63    0.65
  -5  -9   0    4.84    0.63
  -5  -9  -1   39.85    1.39
  -5  -9  -2    9.31    0.80
  -5  -9  -3    3.82    0.54
  -5   9  -4    1.37    0.29
  -5  -9  -4    1.89    0.35
  -5  10   5    2.11    0.36
  -5  10   4   -0.09    0.36
  -5  10   3  107.12    2.33
  -5  10   2    9.27    0.82
  -5  10   1   38.63    1.47
  -5 -10   1   37.10    1.28
  -5  10   0    4.03    0.54
  -5 -10   0    4.04    0.55
  -5  10  -1    0.01    0.34
  -5 -10  -1    0.12    0.41
  -5 -10  -2   12.07    0.84
  -5 -10  -3   16.26    0.79
  -5 -10  -4    1.32    0.25
  -5  11   5   80.88    1.38
  -5  11   4   12.58    0.73
  -5  11   3   23.28    1.05
  -5  11   2    0.20    0.40
  -5  11   1   11.46    0.83
  -5 -11   1   10.07    0.69
  -5  11   0    2.23    0.47
  -5 -11   0    1.37    0.42
  -5  11  -1   -0.52    0.32
  -5 -11  -1   -0.15    0.41
  -5 -11  -2    0.09    0.34
  -5  11  -3    0.69    0.29
  -5 -11  -3    0.39    0.25
  -5  12   4   11.39    0.59
  -5  12   3    0.33    0.31
  -5  12   2   10.97    0.73
  -5  12   1    8.07    0.66
  -5 -12   1    6.03    0.55
  -5  12   0   -0.03    0.31
  -5 -12   0   -0.19    0.35
  -5 -12  -1   15.87    0.81
  -5  12  -2    0.33    0.28
  -5 -12  -2    0.26    0.30
  -5  13   3   14.52    0.64
  -5  13   2   36.55    1.10
  -5  13   1    0.15    0.27
  -5 -13   1   -0.19    0.26
  -5  13   0   -0.04    0.22
  -5  13   0    0.31    0.24
  -5 -13   0    0.29    0.28
  -5  13  -1    0.31    0.23
  -5 -13  -1    0.18    0.25
   6   0  -6   13.29    0.62
  -6   0   6   10.21    0.55
  -6   0   5   -0.18    0.28
   6   0  -5    0.18    0.34
  -6   0   4  111.07    2.03
   6   0  -4  110.07    2.35
  -6   0   3   -0.39    0.42
  -6   0   2    5.96    0.77
  -6   0   1    0.17    0.54
  -6   0   0  208.72    3.50
  -6   0  -1   -0.44    0.52
  -6   0  -2    5.53    0.65
  -6   0  -3    0.16    0.30
  -6   0  -4    4.31    0.40
   6  -1  -6   13.51    0.61
   6   1  -6   13.76    0.61
  -6   1   6   12.45    0.62
   6  -1  -5    6.12    0.58
   6   1  -5    6.30    0.59
  -6   1   5    5.56    0.53
   6  -1  -4    6.42    0.70
   6   1  -4    5.08    0.64
  -6  -1   4    5.85    0.56
  -6   1   4    4.68    0.52
  -6   1   3    1.10    0.45
  -6  -1   3    0.82    0.42
  -6   1   2  202.31    3.29
  -6  -1   2  201.38    3.35
  -6   1   1    3.47    0.65
  -6  -1   1    3.27    0.70
  -6   1   0   13.90    1.07
  -6  -1   0   12.87    1.01
  -6   1  -1   18.09    1.12
  -6  -1  -1   15.19    1.01
  -6   1  -2   44.88    1.51
  -6  -1  -2   44.19    1.44
  -6   1  -3   -0.12    0.28
  -6  -1  -3    0.15    0.29
  -6  -1  -4    9.09    0.55
  -6   2   6    0.02    0.22
   6  -2  -6    0.33    0.20
   6   2  -6    0.16    0.20
  -6   2   5    1.80    0.40
   6  -2  -5    1.81    0.39
   6   2  -5    1.95    0.41
  -6  -2   4   43.36    1.32
   6  -2  -4   42.44    1.44
   6   2  -4   43.21    1.48
  -6   2   4   40.20    1.33
  -6   2   3    0.45    0.38
  -6  -2   3    0.70    0.48
  -6   2   2   60.32    1.83
  -6  -2   2   57.64    1.84
  -6   2   1   25.73    1.33
  -6  -2   1   24.12    1.29
  -6   2   0  179.00    3.31
  -6  -2   0  181.78    3.20
  -6   2  -1   41.87    1.59
  -6  -2  -1   37.37    1.43
  -6   2  -2    0.14    0.41
  -6  -2  -2    0.61    0.40
  -6  -2  -2   -0.33    0.33
  -6  -2  -3   -0.27    0.31
  -6  -2  -4   20.95    0.79
   6  -3  -6    4.17    0.33
   6   3  -6    4.69    0.35
  -6   3   6    3.53    0.36
  -6   3   5    0.11    0.33
   6  -3  -5   -0.06    0.31
   6   3  -5    0.09    0.32
  -6  -3   4    1.13    0.41
  -6   3   4    0.91    0.38
   6  -3  -4    0.51    0.41
   6   3  -4    0.99    0.39
  -6   3   3   22.69    1.02
  -6  -3   3   23.25    1.14
  -6   3   2    0.42    0.45
  -6  -3   2    0.06    0.55
  -6   3   1   14.47    1.02
  -6  -3   1   14.54    1.02
  -6   3   0   53.36    1.84
  -6  -3   0   51.03    1.71
  -6   3  -1    1.67    0.54
  -6  -3  -1    2.34    0.52
  -6   3  -2   43.16    1.49
  -6  -3  -2   39.71    1.29
  -6  -3  -2   40.81    1.28
  -6  -3  -3    0.05    0.29
  -6  -3  -4   45.66    1.10
  -6   4   6    1.00    0.25
  -6   4   5    0.94    0.34
   6  -4  -5    0.85    0.30
   6   4  -5    1.11    0.31
  -6  -4   4   24.43    1.00
   6  -4  -4   24.10    1.03
   6   4  -4   25.37    1.08
  -6   4   4   25.05    1.09
  -6   4   3   13.11    0.77
  -6  -4   3   12.30    0.88
  -6   4   3   12.73    0.81
   6  -4  -3   12.56    0.83
   6   4  -3   12.21    0.84
  -6   4   2   38.02    1.40
  -6  -4   2   36.40    1.46
  -6   4   1    0.37    0.50
  -6  -4   1    0.96    0.59
  -6   4   0   15.66    1.07
  -6  -4   0   15.28    0.99
  -6   4  -1   13.87    1.00
  -6  -4  -1   14.82    0.90
  -6  -4  -2    9.98    0.66
  -6  -4  -2    9.78    0.66
  -6  -4  -3   27.78    1.01
  -6  -4  -4    1.18    0.26
   6  -5  -5   48.45    1.07
   6   5  -5   48.81    1.11
  -6   5   5   50.97    1.35
  -6  -5   4    7.08    0.60
   6  -5  -4    7.62    0.57
   6   5  -4    7.56    0.59
  -6   5   4    6.70    0.63
   6  -5  -3    5.64    0.56
   6   5  -3    5.31    0.56
  -6  -5   3    4.70    0.61
  -6   5   3    5.27    0.56
  -6   5   2   17.11    0.94
  -6  -5   2   18.83    1.06
  -6   5   1  144.20    2.72
  -6  -5   1  145.14    2.75
  -6   5   0   78.53    2.10
  -6  -5   0   76.99    1.96
  -6   5  -1    6.11    0.73
  -6  -5  -1    5.35    0.56
  -6  -5  -2    4.19    0.46
  -6  -5  -3   22.01    0.88
  -6  -5  -4    7.62    0.44
  -6   6   5   41.93    1.19
  -6  -6   4    4.30    0.49
  -6   6   4    3.16    0.48
   6   6  -4    3.94    0.39
   6  -6  -3   19.75    0.85
   6   6  -3   19.14    0.86
  -6   6   3   20.82    1.00
  -6   6   2   -0.19    0.36
  -6   6   1   57.71    1.68
  -6  -6   1   60.71    1.77
  -6   6   0   17.36    1.05
  -6  -6   0   17.25    0.94
  -6  -6  -1    5.44    0.52
  -6  -6  -1    5.84    0.54
  -6  -6  -2    0.75    0.32
  -6  -6  -3    4.48    0.43
  -6   7   5    1.73    0.30
  -6  -7   4    0.35    0.30
  -6   7   4    0.30    0.30
  -6   7   3   11.08    0.73
  -6   7   2   95.28    1.96
  -6  -7   1   71.83    1.82
  -6  -7   0   19.03    0.92
  -6  -7  -1    1.45    0.31
  -6  -7  -1    1.50    0.34
  -6  -7  -2   11.90    0.65
  -6  -7  -3    2.64    0.33
  -6  -8   4    1.69    0.33
  -6   8   4    1.86    0.35
  -6   8   3  146.67    2.31
  -6   8   2    2.04    0.37
  -6  -8   1   40.51    1.32
  -6  -8   0    7.75    0.59
  -6  -8  -1   11.42    0.63
  -6  -8  -2    8.27    0.53
  -6  -8  -3    3.58    0.33
  -6  -9   4   -0.29    0.24
  -6   9   4   -0.43    0.25
  -6   9   3    5.41    0.48
  -6   9   2    2.29    0.37
  -6  -9   1   30.73    1.06
  -6  -9   0    0.37    0.23
  -6  -9  -1   32.75    0.94
  -6  -9  -2    1.49    0.28
  -6 -10   3   46.69    1.10
  -6  10   3   45.17    1.09
  -6 -10   2    0.30    0.27
  -6  10   2   -0.09    0.22
  -6 -10   1    7.24    0.50
  -6 -10   0   -0.05    0.17
  -6 -10  -1    8.83    0.47
  -6 -11   2    1.18    0.23
  -6 -11   1    4.51    0.35
   7   0  -4  125.78    1.83
   7   0  -3   -0.04    0.28
  -7   0   3    0.31    0.29
  -7   0   2    4.71    0.56
  -7   0   1   -0.13    0.38
  -7   0   0    6.82    0.62
  -7   0  -1    0.00    0.30
   7  -1  -4    1.14    0.28
   7   1  -4    0.93    0.27
  -7   1   3   12.42    0.65
  -7  -1   3   12.62    0.68
   7  -1  -3   11.94    0.67
   7   1  -3   12.50    0.70
  -7   1   2  112.25    2.08
  -7  -1   2  112.35    2.09
  -7   1   1    7.26    0.66
  -7  -1   1    7.99    0.68
  -7   1   0    8.78    0.67
  -7  -1   0    8.34    0.65
  -7   1  -1    6.70    0.55
  -7  -1  -1    5.91    0.51
   7  -2  -4   44.20    1.03
   7   2  -4   45.12    1.07
   7  -2  -3    2.29    0.37
   7   2  -3    2.84    0.40
  -7   2   3    2.13    0.34
  -7  -2   3    3.12    0.39
  -7   2   2    4.80    0.53
  -7  -2   2    5.59    0.57
  -7   2   1   20.70    0.97
  -7  -2   1   20.30    0.95
  -7   2   0   15.94    0.86
  -7  -2   0   14.71    0.80
  -7   2  -1    1.55    0.36
  -7  -2  -1    0.96    0.29
   7  -3  -4   22.68    0.69
   7   3  -4   24.60    0.75
  -7  -3   3   11.89    0.64
   7  -3  -3   10.73    0.59
   7   3  -3   11.10    0.63
  -7   3   2   85.64    1.70
  -7  -3   2   86.13    1.75
  -7   3   1    0.09    0.35
  -7  -3   1    0.40    0.35
  -7   3   0   16.08    0.83
  -7  -3   0   16.01    0.80
  -7  -3  -1    5.24    0.43
  -7  -4   3    5.27    0.45
   7  -4  -3    4.53    0.37
   7   4  -3    4.67    0.40
  -7   4   2   18.92    0.78
   7  -4  -2   16.94    0.73
   7   4  -2   18.17    0.77
  -7   4   1    0.10    0.32
  -7  -4   1    0.07    0.31
  -7  -4   0    0.09    0.30
  -7  -4  -1    0.27    0.19
  -7  -5   3   42.97    1.04
  -7  -5   2    5.15    0.47
   7  -5  -2    4.28    0.36
   7   5  -2    4.55    0.38
  -7  -5   1   15.39    0.74
  -7  -5   0   13.85    0.66
  -7  -6   3   46.24    1.01
  -7  -6   2    4.51    0.41
  -7  -6   1    3.03    0.38
  -7  -6   0    9.54    0.51
  -7  -7   2    8.44    0.46
  -7  -7   1    0.92    0.24
   0   0   0    0.00    0.00


TITL WF457 in P2(1)/c
REM P2(1)/c (#14 in standard setting)
CELL 1.54184   6.219754  15.012602   7.372714  90.0000  96.8759  90.0000
ZERR    4.00   0.000293   0.000708   0.000337   0.0000   0.0044   0.0000
LATT  1
SYMM -x, y+1/2,-z+1/2
SFAC C H N O
UNIT 28.00 32.00 8.00 4.00
REM  CrysAlisPro recorded range (K): Min=140.0; max=140.0; aver:140.0
TEMP -133
SIZE 0.03 0.17 0.22
TREF
HKLF 4
END
_computing_structure_solution     'SHELXT 2014/5 (Sheldrick, 2014)'
;
_shelx_hkl_checksum              41583
_olex2_submission_special_instructions 'No special instructions were received'
_oxdiff_exptl_absorpt_empirical_details
;
Empirical correction (ABSPACK) includes:
- Absorption correction using spherical harmonics
- Frame scaling
- Detector area scaling
- B-factor correction
;
_oxdiff_exptl_absorpt_empirical_full_max 1.420
_oxdiff_exptl_absorpt_empirical_full_min 0.705
loop_
_space_group_symop_operation_xyz
'x, y, z'
'-x, y+1/2, -z+1/2'
'-x, -y, -z'
'x, -y-1/2, z-1/2'
loop_
_atom_site_label
_atom_site_type_symbol
_atom_site_fract_x
_atom_site_fract_y
_atom_site_fract_z
_atom_site_U_iso_or_equiv
_atom_site_adp_type
_atom_site_occupancy
_atom_site_site_symmetry_order
_atom_site_calc_flag
_atom_site_refinement_flags_posn
_atom_site_refinement_flags_adp
_atom_site_refinement_flags_occupancy
_atom_site_disorder_assembly
_atom_site_disorder_group
O1 O 0.20145(14) 0.45355(5) 0.19943(12) 0.0401(2) Uani 1 1 d . . . . .
N1 N 0.58020(14) 0.17705(6) 0.37507(11) 0.0259(2) Uani 1 1 d . . . . .
N2 N 0.75737(14) 0.29759(6) 0.45628(11) 0.0266(2) Uani 1 1 d . . . . .
C2 C 0.56593(16) 0.26691(7) 0.37158(13) 0.0248(2) Uani 1 1 d . . . . .
C4 C 0.89002(18) 0.22652(8) 0.51215(14) 0.0300(3) Uani 1 1 d . . . . .
H4 H 1.032692 0.229890 0.574272 0.036 Uiso 1 1 calc R U . . .
C5 C 0.77963(17) 0.15158(8) 0.46226(14) 0.0297(3) Uani 1 1 d . . . . .
H5 H 0.829597 0.092234 0.483133 0.036 Uiso 1 1 calc R U . . .
C6 C 0.38750(18) 0.31548(8) 0.29670(15) 0.0298(3) Uani 1 1 d . . . . .
C7 C 0.30384(17) 0.38826(7) 0.25150(14) 0.0268(3) Uani 1 1 d . . . . .
C8 C 0.40538(18) 0.11771(8) 0.30236(15) 0.0316(3) Uani 1 1 d . . . . .
H8A H 0.279021 0.127683 0.367406 0.038 Uiso 0.837(14) 1 calc R U P . .
H8B H 0.453125 0.055718 0.318821 0.038 Uiso 0.837(14) 1 calc R U P . .
H8C H 0.366447 0.129820 0.171945 0.038 Uiso 0.837(14) 1 calc R U P . .
H8D H 0.453375 0.081131 0.204708 0.038 Uiso 0.163(14) 1 calc R U P . .
H8E H 0.279270 0.153096 0.253294 0.038 Uiso 0.163(14) 1 calc R U P . .
H8F H 0.365948 0.078994 0.400170 0.038 Uiso 0.163(14) 1 calc R U P . .
C9 C 0.81587(19) 0.39118(8) 0.47532(16) 0.0334(3) Uani 1 1 d . . . . .
H9A H 0.878996 0.410919 0.366551 0.040 Uiso 0.680(15) 1 calc R U P . .
H9B H 0.921829 0.399195 0.583618 0.040 Uiso 0.680(15) 1 calc R U P . .
H9C H 0.686194 0.426517 0.488608 0.040 Uiso 0.680(15) 1 calc R U P . .
H9D H 0.779017 0.413502 0.592634 0.040 Uiso 0.320(15) 1 calc R U P . .
H9E H 0.736183 0.425226 0.375567 0.040 Uiso 0.320(15) 1 calc R U P . .
H9F H 0.971819 0.397903 0.470576 0.040 Uiso 0.320(15) 1 calc R U P . .
loop_
_atom_site_aniso_label
_atom_site_aniso_U_11
_atom_site_aniso_U_22
_atom_site_aniso_U_33
_atom_site_aniso_U_23
_atom_site_aniso_U_13
_atom_site_aniso_U_12
O1 0.0465(5) 0.0260(5) 0.0474(5) 0.0042(4) 0.0040(4) 0.0054(4)
N1 0.0259(5) 0.0281(5) 0.0235(4) -0.0008(3) 0.0027(3) 0.0017(3)
N2 0.0249(5) 0.0300(5) 0.0245(4) -0.0020(3) 0.0016(3) 0.0003(4)
C2 0.0255(5) 0.0292(6) 0.0200(5) -0.0009(4) 0.0040(4) 0.0001(4)
C4 0.0241(5) 0.0378(6) 0.0272(5) -0.0013(4) -0.0006(4) 0.0053(4)
C5 0.0289(6) 0.0329(6) 0.0267(5) 0.0002(4) 0.0016(4) 0.0072(4)
C6 0.0271(5) 0.0324(6) 0.0294(5) 0.0017(4) 0.0013(4) 0.0014(4)
C7 0.0278(5) 0.0267(6) 0.0257(5) -0.0024(4) 0.0032(4) -0.0042(4)
C8 0.0305(6) 0.0312(6) 0.0327(5) -0.0024(4) 0.0025(4) -0.0033(4)
C9 0.0324(6) 0.0316(6) 0.0357(6) -0.0037(5) 0.0025(5) -0.0043(5)
loop_
_atom_type_symbol
_atom_type_description
_atom_type_scat_dispersion_real
_atom_type_scat_dispersion_imag
_atom_type_scat_source
C C 0.0181 0.0091 'International Tables Vol C Tables 4.2.6.8 and 6.1.1.4'
H H 0.0000 0.0000 'International Tables Vol C Tables 4.2.6.8 and 6.1.1.4'
N N 0.0311 0.0180 'International Tables Vol C Tables 4.2.6.8 and 6.1.1.4'
O O 0.0492 0.0322 'International Tables Vol C Tables 4.2.6.8 and 6.1.1.4'
loop_
_exptl_crystal_face_index_h
_exptl_crystal_face_index_k
_exptl_crystal_face_index_l
_exptl_crystal_face_perp_dist
-1 0 0 0.0110
1 0 0 0.0205
0 1 0 0.0521
0 -1 0 0.1195
0 1 -1 0.0691
0 -1 1 0.1220
0 0 -1 0.1109
0 0 1 0.1050
0 2 1 0.0466
1 -2 -2 0.1270
loop_
_geom_angle_atom_site_label_1
_geom_angle_atom_site_label_2
_geom_angle_atom_site_label_3
_geom_angle
_geom_angle_site_symmetry_1
_geom_angle_site_symmetry_3
_geom_angle_publ_flag
C2 N1 C5 109.78(9) . . ?
C2 N1 C8 123.96(9) . . ?
C5 N1 C8 126.22(10) . . ?
C2 N2 C4 109.57(9) . . ?
C2 N2 C9 124.61(9) . . ?
C4 N2 C9 125.74(9) . . ?
N1 C2 N2 106.13(9) . . ?
N1 C2 C6 125.45(10) . . ?
N2 C2 C6 128.41(10) . . ?
N2 C4 H4 126.4 . . ?
C5 C4 N2 107.29(9) . . ?
C5 C4 H4 126.4 . . ?
N1 C5 H5 126.4 . . ?
C4 C5 N1 107.22(10) . . ?
C4 C5 H5 126.4 . . ?
C7 C6 C2 149.51(12) . . ?
O1 C7 C6 172.39(12) . . ?
N1 C8 H8A 109.5 . . ?
N1 C8 H8B 109.5 . . ?
N1 C8 H8C 109.5 . . ?
N1 C8 H8D 109.5 . . ?
N1 C8 H8E 109.5 . . ?
N1 C8 H8F 109.5 . . ?
H8A C8 H8B 109.5 . . ?
H8A C8 H8C 109.5 . . ?
H8A C8 H8D 141.1 . . ?
H8A C8 H8E 56.3 . . ?
H8A C8 H8F 56.3 . . ?
H8B C8 H8C 109.5 . . ?
H8B C8 H8D 56.3 . . ?
H8B C8 H8E 141.1 . . ?
H8B C8 H8F 56.3 . . ?
H8C C8 H8D 56.3 . . ?
H8C C8 H8E 56.3 . . ?
H8C C8 H8F 141.1 . . ?
H8D C8 H8E 109.5 . . ?
H8D C8 H8F 109.5 . . ?
H8E C8 H8F 109.5 . . ?
N2 C9 H9A 109.5 . . ?
N2 C9 H9B 109.5 . . ?
N2 C9 H9C 109.5 . . ?
N2 C9 H9D 109.5 . . ?
N2 C9 H9E 109.5 . . ?
N2 C9 H9F 109.5 . . ?
H9A C9 H9B 109.5 . . ?
H9A C9 H9C 109.5 . . ?
H9A C9 H9D 141.1 . . ?
H9A C9 H9E 56.3 . . ?
H9A C9 H9F 56.3 . . ?
H9B C9 H9C 109.5 . . ?
H9B C9 H9D 56.3 . . ?
H9B C9 H9E 141.1 . . ?
H9B C9 H9F 56.3 . . ?
H9C C9 H9D 56.3 . . ?
H9C C9 H9E 56.3 . . ?
H9C C9 H9F 141.1 . . ?
H9D C9 H9E 109.5 . . ?
H9D C9 H9F 109.5 . . ?
H9E C9 H9F 109.5 . . ?
loop_
_geom_bond_atom_site_label_1
_geom_bond_atom_site_label_2
_geom_bond_distance
_geom_bond_site_symmetry_2
_geom_bond_publ_flag
O1 C7 1.2063(14) . ?
N1 C2 1.3519(15) . ?
N1 C5 1.3811(14) . ?
N1 C8 1.4573(14) . ?
N2 C2 1.3572(13) . ?
N2 C4 1.3811(14) . ?
N2 C9 1.4540(14) . ?
C2 C6 1.3861(15) . ?
C4 H4 0.9500 . ?
C4 C5 1.3461(16) . ?
C5 H5 0.9500 . ?
C6 C7 1.2386(16) . ?
C8 H8A 0.9800 . ?
C8 H8B 0.9800 . ?
C8 H8C 0.9800 . ?
C8 H8D 0.9800 . ?
C8 H8E 0.9800 . ?
C8 H8F 0.9800 . ?
C9 H9A 0.9800 . ?
C9 H9B 0.9800 . ?
C9 H9C 0.9800 . ?
C9 H9D 0.9800 . ?
C9 H9E 0.9800 . ?
C9 H9F 0.9800 . ?
loop_
_geom_torsion_atom_site_label_1
_geom_torsion_atom_site_label_2
_geom_torsion_atom_site_label_3
_geom_torsion_atom_site_label_4
_geom_torsion
_geom_torsion_site_symmetry_1
_geom_torsion_site_symmetry_2
_geom_torsion_site_symmetry_3
_geom_torsion_site_symmetry_4
_geom_torsion_publ_flag
N1 C2 C6 C7 -172.76(18) . . . . ?
N2 C2 C6 C7 8.0(3) . . . . ?
N2 C4 C5 N1 0.34(12) . . . . ?
C2 N1 C5 C4 -0.35(12) . . . . ?
C2 N2 C4 C5 -0.21(12) . . . . ?
C4 N2 C2 N1 0.00(11) . . . . ?
C4 N2 C2 C6 179.38(10) . . . . ?
C5 N1 C2 N2 0.22(11) . . . . ?
C5 N1 C2 C6 -179.20(10) . . . . ?
C8 N1 C2 N2 178.18(9) . . . . ?
C8 N1 C2 C6 -1.23(16) . . . . ?
C8 N1 C5 C4 -178.26(10) . . . . ?
C9 N2 C2 N1 176.91(9) . . . . ?
C9 N2 C2 C6 -3.70(17) . . . . ?
C9 N2 C4 C5 -177.08(10) . . . . ?
loop_
_exptl_oxdiff_crystal_face_indexfrac_h
_exptl_oxdiff_crystal_face_indexfrac_k
_exptl_oxdiff_crystal_face_indexfrac_l
_exptl_oxdiff_crystal_face_x
_exptl_oxdiff_crystal_face_y
_exptl_oxdiff_crystal_face_z
-1.0000 0.0000 0.0000 -0.2090 0.0694 0.1177
1.0000 -0.0000 -0.0000 0.2090 -0.0694 -0.1177
0.0000 1.0000 0.0000 -0.0078 -0.0933 0.0418
-0.0000 -1.0000 -0.0000 0.0078 0.0933 -0.0418
0.0000 1.0001 -1.0000 0.0841 -0.0225 0.2174
-0.0000 -1.0001 1.0000 -0.0841 0.0225 -0.2174
0.0000 0.0001 -1.0000 0.0920 0.0708 0.1756
-0.0000 -0.0001 1.0000 -0.0920 -0.0708 -0.1756
-0.0000 2.0000 1.0000 -0.1076 -0.2574 -0.0921
1.0000 -1.9999 -2.0000 0.4086 0.2588 0.1500
