#------------------------------------------------------------------------------
#$Date: 2021-11-06 20:53:18 +0200 (Sat, 06 Nov 2021) $
#$Revision: 270380 $
#$URL: file:///home/coder/svn-repositories/cod/cif/7/12/91/7129111.cif $
#------------------------------------------------------------------------------
#
# This file is available in the Crystallography Open Database (COD),
# http://www.crystallography.net/
#
# All data on this site have been placed in the public domain by the
# contributors.
#
data_7129111
loop_
_publ_author_name
'Taylor, Lauren L. K.'
'Vitorica-Yrezabal, I\~nigo J'
'Borilovi\'c, Ivana'
'Tuna, Floriana'
'Riddell, Imogen A.'
_publ_section_title
;
 Self-assembly of a trigonal bipyramidal architecture with stabilisation
 of iron in three spin states.
;
_journal_issue                   85
_journal_name_full
'Chemical communications (Cambridge, England)'
_journal_page_first              11252
_journal_page_last               11255
_journal_paper_doi               10.1039/d1cc04413c
_journal_volume                  57
_journal_year                    2021
_chemical_formula_moiety         'C19 H14 N4 O'
_chemical_formula_sum            'C19 H14 N4 O'
_chemical_formula_weight         314.34
_chemical_name_systematic        IR-LT-ligand
_space_group_crystal_system      triclinic
_space_group_IT_number           2
_space_group_name_Hall           '-P 1'
_space_group_name_H-M_alt        'P -1'
_atom_sites_solution_hydrogens   geom
_audit_creation_date             2019-08-01
_audit_creation_method
;
Olex2 1.2
(compiled 2018.05.29 svn.r3508 for OlexSys, GUI svn.r5506)
;
_audit_update_record
;
2019-09-09 deposited with the CCDC.	2021-08-16 downloaded from the CCDC.
;
_cell_angle_alpha                73.182(6)
_cell_angle_beta                 87.767(6)
_cell_angle_gamma                68.261(8)
_cell_formula_units_Z            2
_cell_length_a                   7.2185(6)
_cell_length_b                   8.4349(7)
_cell_length_c                   13.3131(7)
_cell_measurement_reflns_used    4573
_cell_measurement_temperature    100
_cell_measurement_theta_max      36.0200
_cell_measurement_theta_min      2.6200
_cell_volume                     718.62(11)
_computing_cell_refinement       'CrysAlisPro 1.171.38.46 (Rigaku OD, 2015)'
_computing_data_collection       'CrysAlisPro 1.171.38.46 (Rigaku OD, 2015)'
_computing_data_reduction        'CrysAlisPro 1.171.38.46 (Rigaku OD, 2015)'
_computing_molecular_graphics    'Olex2 (Dolomanov et al., 2009)'
_computing_publication_material  'Olex2 (Dolomanov et al., 2009)'
_computing_structure_refinement  'ShelXL (Sheldrick, 2015)'
_computing_structure_solution    'SHELXT 2018/2 (Sheldrick, 2018)'
_diffrn_ambient_temperature      100
_diffrn_detector                 'CCD plate'
_diffrn_measured_fraction_theta_full 0.992
_diffrn_measured_fraction_theta_max 0.868
_diffrn_measurement_details
;
List of Runs (angles in degrees, time in seconds):

  # Type    Start    End  Width  t~exp~   \w     \q     \k     \f   Frames
#--------------------------------------------------------------------------
  1  \w   -145.00  24.00   1.00    0.20    --   30.00   0.00   0.00  169
  2  \w   -145.00  24.00   1.00    0.20    --   30.00   0.00 120.00  169
  3  \w   -145.00  24.00   1.00    0.20    --   30.00   0.00 240.00  169
  4  \f      0.00 179.00   1.00    0.20   0.00   0.00   0.00    --   179
;
_diffrn_measurement_device       'abstract diffractometer'
_diffrn_measurement_device_type
'dectris-CrysAlisPro-abstract goniometer imported dectris images'
_diffrn_measurement_method       '\w and \f scans'
_diffrn_orient_matrix_type
'CrysAlisPro convention (1999,Acta A55,543-557)'
_diffrn_orient_matrix_UB_11      0.0875879000
_diffrn_orient_matrix_UB_12      0.0137719000
_diffrn_orient_matrix_UB_13      -0.0120107000
_diffrn_orient_matrix_UB_21      0.0385686000
_diffrn_orient_matrix_UB_22      -0.0792180000
_diffrn_orient_matrix_UB_23      -0.0124953000
_diffrn_orient_matrix_UB_31      -0.0382001000
_diffrn_orient_matrix_UB_32      0.0448222000
_diffrn_orient_matrix_UB_33      -0.0513728000
_diffrn_radiation_monochromator  synchrotron
_diffrn_radiation_probe          x-ray
_diffrn_radiation_type           Synchrotron
_diffrn_radiation_wavelength     0.6889
_diffrn_reflns_av_R_equivalents  0.0649
_diffrn_reflns_av_unetI/netI     0.0909
_diffrn_reflns_Laue_measured_fraction_full 0.992
_diffrn_reflns_Laue_measured_fraction_max 0.868
_diffrn_reflns_limit_h_max       12
_diffrn_reflns_limit_h_min       -12
_diffrn_reflns_limit_k_max       14
_diffrn_reflns_limit_k_min       -14
_diffrn_reflns_limit_l_max       21
_diffrn_reflns_limit_l_min       -22
_diffrn_reflns_number            15467
_diffrn_reflns_point_group_measured_fraction_full 0.992
_diffrn_reflns_point_group_measured_fraction_max 0.868
_diffrn_reflns_theta_full        24.415
_diffrn_reflns_theta_max         36.157
_diffrn_reflns_theta_min         1.553
_diffrn_source                   synchrotron
_exptl_absorpt_coefficient_mu    0.089
_exptl_absorpt_correction_T_max  1.00000
_exptl_absorpt_correction_T_min  0.36677
_exptl_absorpt_correction_type   multi-scan
_exptl_absorpt_process_details
;
CrysAlisPro 1.171.38.46 (Rigaku Oxford Diffraction, 2015)
Empirical absorption correction using spherical harmonics,
 implemented in SCALE3 ABSPACK scaling algorithm.
;
_exptl_crystal_colour            'clear brownish colourless'
_exptl_crystal_colour_lustre     clear
_exptl_crystal_colour_modifier   brownish
_exptl_crystal_colour_primary    colourless
_exptl_crystal_density_diffrn    1.453
_exptl_crystal_description       block
_exptl_crystal_F_000             328
_exptl_crystal_size_max          0.2
_exptl_crystal_size_mid          0.2
_exptl_crystal_size_min          0.1
_refine_diff_density_max         0.669
_refine_diff_density_min         -0.462
_refine_diff_density_rms         0.081
_refine_ls_extinction_method     none
_refine_ls_goodness_of_fit_ref   0.976
_refine_ls_hydrogen_treatment    constr
_refine_ls_matrix_type           full
_refine_ls_number_parameters     218
_refine_ls_number_reflns         6580
_refine_ls_number_restraints     0
_refine_ls_restrained_S_all      0.976
_refine_ls_R_factor_all          0.1111
_refine_ls_R_factor_gt           0.0735
_refine_ls_shift/su_max          0.000
_refine_ls_shift/su_mean         0.000
_refine_ls_structure_factor_coef Fsqd
_refine_ls_weighting_details
'w=1/[\s^2^(Fo^2^)+(0.1140P)^2^] where P=(Fo^2^+2Fc^2^)/3'
_refine_ls_weighting_scheme      calc
_refine_ls_wR_factor_gt          0.1884
_refine_ls_wR_factor_ref         0.2089
_reflns_Friedel_coverage         0.000
_reflns_number_gt                4030
_reflns_number_total             6580
_reflns_threshold_expression     'I > 2\s(I)'
_cod_data_source_file            d1cc04413c2.cif
_cod_data_source_block           m_ir_lt_040138_c1_col1_
_cod_depositor_comments
'Adding full bibliography for 7129106--7129112.cif.'
_cod_original_cell_volume        718.63(11)
_cod_database_code               7129111
_shelx_shelxl_version_number     2018/3
_shelx_space_group_comment
;
The symmetry employed for this shelxl refinement is uniquely defined
by the following loop, which should always be used as a source of
symmetry information in preference to the above space-group names.
They are only intended as comments.
;
_shelx_estimated_absorpt_t_max   0.991
_shelx_estimated_absorpt_t_min   0.982
_reflns_odcompleteness_completeness 86.83
_reflns_odcompleteness_iscentric 1
_reflns_odcompleteness_theta     36.16
_olex2_refinement_description
;
1. Fixed Uiso
 At 1.2 times of:
  All C(H) groups
 At 1.5 times of:
  All C(H,H,H) groups
2.a Aromatic/amide H refined with riding coordinates:
 C00A(H00A), C00C(H00C), C00E(H00E), C00F(H00F), C00G(H00G), C00H(H00H),
 C00I(H00I), C00K(H00K), C00M(H00M), C00N(H00N), C00O(H00O)
2.b Idealised Me refined as rotating group:
 C00J(H00B,H00D,H00J)
;
_shelx_res_file
;
TITL m_ir_lt_040138_c1_col1__a.res in P-1
    m_ir_lt_040138_c1_col1_.res
    created by SHELXL-2018/3 at 15:34:06 on 01-Aug-2019
REM Old TITL m_ir_lt_040138_c1_col1_ in P-1 #2
REM SHELXT solution in P-1: R1 0.138, Rweak 0.004, Alpha 0.032
REM <I/s> 0.000 for 0 systematic absences, Orientation as input
REM Formula found by SHELXT: C20 N3 O
CELL 0.6889 7.218483 8.434927 13.313138 73.1821 87.7672 68.2615
ZERR 2 0.00062 0.000735 0.000741 0.0062 0.0056 0.0081
LATT 1
SFAC C H N O
DISP C 0.003 0.001 10.848
DISP N 0.006 0.003 18.337
DISP O 0.011 0.006 30.192
UNIT 38 28 8 2

L.S. 10
PLAN  20
SIZE 0.2 0.2 0.1
TEMP -123.15
BOND
LIST 6
fmap 2
ACTA
REM <olex2.extras>
REM <HklSrc "%.\\m_ir_lt_040138_c1_col1_.hkl">
REM </olex2.extras>

WGHT    0.114000
FVAR       0.57982
O001  4    0.168094    1.428173    0.131292    11.00000    0.04409    0.02717 =
         0.03809   -0.00218    0.01424   -0.01468
N002  3    0.285182    0.155535    0.759060    11.00000    0.02793    0.01961 =
         0.01525   -0.00138    0.00226   -0.00990
N003  3    0.290207    0.018664    0.635887    11.00000    0.02406    0.02235 =
         0.01716   -0.00268    0.00435   -0.00983
N004  3    0.178151    0.485441    0.592373    11.00000    0.02436    0.02151 =
         0.01837   -0.00256    0.00426   -0.00876
N005  3    0.200168    0.990871    0.161349    11.00000    0.03130    0.02686 =
         0.01789   -0.00165    0.00580   -0.01084
C006  1    0.294813   -0.014139    0.812691    11.00000    0.02468    0.01870 =
         0.01646   -0.00166    0.00298   -0.00812
C007  1    0.282413    0.166984    0.653536    11.00000    0.02159    0.02357 =
         0.01479   -0.00183    0.00320   -0.00878
C008  1    0.297209   -0.097335    0.735223    11.00000    0.02298    0.02203 =
         0.01588   -0.00322    0.00307   -0.00837
C009  1    0.234725    0.641679    0.417764    11.00000    0.01995    0.02336 =
         0.01565   -0.00103    0.00173   -0.00878
C00A  1    0.324757    0.478970    0.396621    11.00000    0.02401    0.02672 =
         0.01688   -0.00378    0.00491   -0.01155
AFIX  43
H00A  2    0.373623    0.476030    0.329620    11.00000   -1.20000
AFIX   0
C00B  1    0.268418    0.330479    0.570572    11.00000    0.02115    0.02174 =
         0.01579   -0.00090    0.00147   -0.00865
C00C  1    0.163183    0.635052    0.517761    11.00000    0.02470    0.02146 =
         0.01639   -0.00147    0.00331   -0.00838
AFIX  43
H00C  2    0.099593    0.744999    0.533354    11.00000   -1.20000
AFIX   0
C00D  1    0.217387    0.814660    0.342293    11.00000    0.02097    0.02324 =
         0.01643   -0.00073    0.00337   -0.00845
C00E  1    0.343335    0.321452    0.472869    11.00000    0.02367    0.02252 =
         0.01853   -0.00436    0.00382   -0.00914
AFIX  43
H00E  2    0.405508    0.209624    0.459300    11.00000   -1.20000
AFIX   0
C00F  1    0.300962   -0.271425    0.765421    11.00000    0.02485    0.02230 =
         0.01976   -0.00450    0.00316   -0.00918
AFIX  43
H00F  2    0.299587   -0.330308    0.714631    11.00000   -1.20000
AFIX   0
C00G  1    0.211166    0.958537    0.375729    11.00000    0.02365    0.02574 =
         0.01660   -0.00194    0.00239   -0.00959
AFIX  43
H00G  2    0.217425    0.947446    0.448710    11.00000   -1.20000
AFIX   0
C00H  1    0.208741    0.839906    0.233474    11.00000    0.02697    0.02533 =
         0.01686   -0.00271    0.00386   -0.00972
AFIX  43
H00H  2    0.208993    0.744022    0.209618    11.00000   -1.20000
AFIX   0
C00I  1    0.297694   -0.096531    0.919884    11.00000    0.02996    0.02425 =
         0.01641   -0.00316    0.00293   -0.01105
AFIX  43
H00I  2    0.295108   -0.036959    0.970846    11.00000   -1.20000
AFIX   0
C00J  1    0.288425    0.284795    0.810500    11.00000    0.03288    0.02460 =
         0.02012   -0.00556    0.00289   -0.01249
AFIX 137
H00B  2    0.151010    0.359395    0.818648    11.00000   -1.50000
H00D  2    0.355140    0.360438    0.767613    11.00000   -1.50000
H00J  2    0.361311    0.221748    0.879939    11.00000   -1.50000
AFIX   0
C00K  1    0.304491   -0.268987    0.947929    11.00000    0.03045    0.02462 =
         0.01810   -0.00148    0.00152   -0.01083
AFIX  43
H00K  2    0.307724   -0.331065    1.020241    11.00000   -1.20000
AFIX   0
C00L  1    0.192234    1.126316    0.196089    11.00000    0.02617    0.02413 =
         0.02011   -0.00074    0.00670   -0.00990
C00M  1    0.306746   -0.355087    0.871746    11.00000    0.02922    0.02154 =
         0.02108   -0.00184    0.00296   -0.01123
AFIX  43
H00M  2    0.312424   -0.474554    0.894026    11.00000   -1.20000
AFIX   0
C00N  1    0.195833    1.117351    0.301967    11.00000    0.02517    0.02316 =
         0.02097   -0.00188    0.00356   -0.00997
AFIX  43
H00N  2    0.187945    1.217917    0.323062    11.00000   -1.20000
AFIX   0
C00O  1    0.177787    1.293315    0.113854    11.00000    0.03619    0.02747 =
         0.02533    0.00079    0.01103   -0.01118
AFIX  43
H00O  2    0.176079    1.293703    0.042466    11.00000   -1.20000
AFIX   0
HKLF 4




REM  m_ir_lt_040138_c1_col1__a.res in P-1
REM wR2 = 0.2089, GooF = S = 0.976, Restrained GooF = 0.976 for all data
REM R1 = 0.0735 for 4030 Fo > 4sig(Fo) and 0.1111 for all 6580 data
REM 218 parameters refined using 0 restraints

END

WGHT      0.1123      0.0000

REM Highest difference peak  0.669,  deepest hole -0.462,  1-sigma level  0.081
Q1    1   0.2782  0.2391  0.6143  11.00000  0.05    0.67
Q2    1   0.2183  0.7301  0.3789  11.00000  0.05    0.65
Q3    1   0.1750  1.2142  0.1556  11.00000  0.05    0.62
Q4    1   0.1954  0.9227  0.1955  11.00000  0.05    0.62
Q5    1   0.3335  0.3998  0.4318  11.00000  0.05    0.60
Q6    1   0.1811  0.5583  0.5576  11.00000  0.05    0.59
Q7    1   0.2006  1.0431  0.3376  11.00000  0.05    0.59
Q8    1   0.3159 -0.3363  0.8126  11.00000  0.05    0.48
Q9    1   0.3091 -0.0778  0.8621  11.00000  0.05    0.48
Q10   1   0.3016  0.3215  0.5249  11.00000  0.05    0.46
Q11   1   0.2031  0.8422  0.2857  11.00000  0.05    0.45
Q12   1   0.3041  0.0688  0.7870  11.00000  0.05    0.42
Q13   1   0.2778 -0.0284  0.6886  11.00000  0.05    0.41
Q14   1   0.1923  1.1129  0.2491  11.00000  0.05    0.40
Q15   1   0.2943 -0.1973  0.7300  11.00000  0.05    0.38
Q16   1   0.1681  0.6827  0.4408  11.00000  0.05    0.36
Q17   1   0.3338  0.5834  0.4094  11.00000  0.05    0.36
Q18   1   0.2302  0.5333  0.4058  11.00000  0.05    0.36
Q19   1   0.1999  0.6473  0.4673  11.00000  0.05    0.35
Q20   1   0.3036  0.0242  0.5804  11.00000  0.05    0.34
;
_shelx_res_checksum              83631
_shelx_hkl_file
;
   0   0   1  198.14   16.36
   0   0   2  373.46   31.29
   0   0   2  377.45   31.27
   0   0   2  375.04   31.28
   0   0  -2  388.28   31.28
   0   0  -3  301.81   25.30
   0   0  -3  289.48   25.33
   0   0   3  312.69   25.30
   0   0   3  314.26   25.29
   0   0  -4  304.44   25.00
   0   0  -4  311.39   24.96
   0   0  -4  271.86   25.04
   0   0  -5  135.37   11.86
   0   0  -5  165.02   11.94
   0   0  -6   33.97    2.79
   0   0  -6   29.63    2.58
   0   0  -7   44.89    3.58
   0   0  -7   38.79    3.33
   0   0  -7   38.59    3.34
   0   0   7   42.58    3.57
   0   0  -8   34.13    2.86
   0   0  -8   32.99    2.58
   0   0   8   32.74    2.83
   0   0  -8   34.62    2.73
   0   0  -8   25.87    2.56
   0   0  -9    0.46    0.73
   0   0   9    0.25    0.82
   0   0  -9    0.59    0.51
   0   0  -9    0.31    0.20
   0   0  -9    0.15    0.19
   0   0  10    5.21    1.03
   0   0 -10    4.32    1.01
   0   0 -10    4.13    0.74
   0   0 -10    3.35    0.39
   0   0 -11   12.87    1.38
   0   0  11   12.69    1.26
   0   0 -11   14.84    1.13
   0   0 -12    2.98    1.10
   0   0 -12    3.48    0.87
   0   0 -13   14.37    1.83
   0   0  13   13.59    1.81
   0   0 -13   15.24    1.73
   0   0 -14    0.64    1.00
   0   0 -14    1.21    0.86
   0   0  14    1.81    1.25
   0   0 -15    1.40    0.90
   0   0  15    1.99    1.24
   0   0  16    4.53    1.34
   0   0 -16    4.75    1.20
   0   0 -16    4.34    1.06
   0   0 -17   50.65    5.02
   0   0  17   58.70    5.05
   0   0  18   22.51    2.63
   0   0  19    0.57    1.41
   0  -1  19    2.30    1.42
   0  -1  18    8.24    1.69
   0   1 -17    1.34    1.10
   0  -1  16   16.59    2.09
   0   1 -16   14.78    1.99
   0   1 -15   62.62    5.52
   0  -1  15   56.18    5.40
   0   1 -14    1.75    1.13
   0  -1  14    2.19    1.28
   0   1 -13    4.13    1.31
   0  -1  12   25.03    2.92
   0   1 -12   32.71    3.00
   0  -1  11  434.18   39.64
   0   1 -11  480.28   39.75
   0   1 -11  514.54   39.63
   0   1  -9    1.31    0.78
   0   1  -9    0.80    0.58
   0   1  -8    5.80    0.78
   0   1  -8    5.29    0.91
   0   1  -7  174.41   14.55
   0   1  -7  173.79   14.60
   0   1  -6   23.74    2.13
   0   1  -6   23.81    2.04
   0   1  -6   21.85    1.85
   0  -1   6   21.81    1.85
   0   1  -5  101.80    7.96
   0   1  -5  105.32    7.98
   0   1  -5   91.82    7.81
   0  -1   5   93.87    7.81
   0   1  -4  297.18   25.63
   0   1  -4  346.52   25.72
   0   1  -4  308.30   25.72
   0   1  -4  331.96   25.74
   0  -1   3  402.08   33.75
   0   1  -3  407.87   33.75
   0   1  -3  439.20   33.82
   0   1  -3  405.58   33.81
   0   1  -2   35.88    3.21
   0   1  -2   41.16    3.26
   0  -1   2   44.57    3.25
   0  -1   2   35.91    3.24
   0  -1   2   38.15    3.21
   0   1  -1  104.50    8.88
   0   1  -1  110.68    8.86
   0   1  -1  111.49    8.86
   0  -1   1  110.13    8.86
   0   1  -1   92.36    8.93
   0  -1   1  104.70    8.86
   0  -1   1  101.33    8.95
   0   1   0  168.55    9.37
   0  -1   0  159.94    9.37
   0   1   0  181.93    9.26
   0  -1  -1  105.76    8.49
   0   1   1   98.76    8.41
   0  -1  -1  100.63    8.44
   0   1   1  106.04    8.45
   0   1   1  101.71    8.42
   0  -1  -1  101.75    8.42
   0   1   2 4049.77  346.42
   0  -1  -2 4531.01  346.43
   0   1   2 4382.63  346.39
   0   1   2 4450.66  346.39
   0  -1  -2 4096.26  346.36
   0   1   2 4122.33  346.36
   0  -1  -2 4091.53  346.39
   0  -1  -2 4104.12  346.38
   0   1   3   31.25    2.73
   0  -1  -3   31.24    2.71
   0  -1  -3   29.47    2.71
   0  -1  -3   30.72    2.77
   0   1   3   34.89    2.78
   0  -1  -3   36.35    2.78
   0   1   4   28.07    2.40
   0  -1  -4   28.06    2.38
   0  -1  -4   34.47    2.47
   0   1   4   23.38    2.39
   0  -1  -4   27.19    2.41
   0  -1  -4   28.27    2.48
   0  -1  -5   22.07    2.02
   0   1   6  788.27   67.79
   0  -1  -6  863.97   67.82
   0  -1  -6  818.37   67.77
   0  -1  -7  396.78   31.82
   0  -1  -7  373.48   31.80
   0  -1  -8   11.57    1.36
   0   1   8   12.82    1.36
   0  -1  -8   10.70    1.21
   0  -1  -8   11.37    1.11
   0  -1  -8   10.93    1.08
   0   1   9   39.80    3.98
   0  -1  -9   48.36    3.86
   0  -1  -9   42.08    3.96
   0  -1  -9   48.27    4.07
   0  -1 -10    2.29    0.84
   0   1  10    3.20    0.93
   0  -1 -10    3.42    0.48
   0  -1 -10    2.89    0.72
   0  -1 -11    8.57    1.29
   0  -1 -11    8.84    0.86
   0  -1 -11    8.46    1.13
   0  -1 -11    8.18    0.89
   0   1  12   51.69    3.66
   0  -1 -12   46.57    3.77
   0  -1 -12   38.93    3.30
   0  -1 -12   38.39    3.56
   0  -1 -12   34.10    3.32
   0   1  13   19.96    1.79
   0  -1 -13   10.74    1.14
   0  -1 -13   18.12    1.61
   0  -1 -13   11.42    1.12
   0  -1 -13   19.69    1.73
   0   1  14   18.08    1.54
   0  -1 -14   16.84    1.42
   0  -1 -14   16.97    1.48
   0   1  15    5.93    1.37
   0  -1 -15    7.69    1.27
   0  -1 -15    6.94    1.21
   0  -1 -16    1.73    0.95
   0  -1 -16    1.84    0.91
   0   1  16    0.11    1.34
   0   1  17    8.45    1.66
   0  -1 -17   11.95    1.61
   0   1  18   -0.75    1.32
   0  -2  19    3.54    1.57
   0  -2  18   28.97    3.22
   0  -2  17    1.00    1.51
   0   2 -17    0.58    1.29
   0   2 -16   10.18    1.76
   0  -2  16   11.26    1.88
   0   2 -15    1.20    1.24
   0  -2  15    1.54    1.39
   0  -2  14    2.23    1.45
   0   2 -13    6.26    1.53
   0  -2  13    6.12    1.55
   0  -2  13    8.07    1.61
   0   2 -12   38.38    3.76
   0   2 -11    3.91    1.20
   0   2 -10    3.62    1.06
   0   2  -9  870.13   72.11
   0   2  -8  180.47   15.20
   0   2  -7  112.10    8.81
   0   2  -7  118.80    9.08
   0   2  -7  118.18    9.06
   0  -2   7   99.30    8.80
   0   2  -6   22.64    2.12
   0  -2   6   20.12    1.85
   0   2  -6   23.63    2.09
   0   2  -6   23.10    1.86
   0  -2   5  363.01   30.05
   0   2  -5  362.69   30.05
   0   2  -5  368.62   30.17
   0   2  -4  597.33   49.24
   0   2  -4  639.81   49.33
   0   2  -4  595.04   49.32
   0  -2   4  578.57   49.23
   0  -2   4  603.43   49.49
   0  -2   3    0.04    0.26
   0   2  -3    0.47    0.44
   0   2  -2    9.85    1.02
   0   2  -2   13.31    1.06
   0  -2   2   10.12    1.35
   0  -2   2   10.67    1.01
   0  -2   2   11.01    1.02
   0   2  -2   10.67    1.09
   0   2  -1  249.59   19.41
   0   2  -1  244.27   19.37
   0  -2   1  213.72   19.53
   0  -2   1  231.94   19.37
   0   2  -1  219.71   19.39
   0   2   0    1.12    0.39
   0   2   0    1.02    0.42
   0  -2   0    1.01    0.34
   0   2   0    1.18    0.46
   0  -2   0    1.16    0.84
   0  -2  -1    1.95    0.57
   0   2   1    2.88    0.51
   0  -2  -1    2.53    0.46
   0  -2  -1    2.76    0.43
   0   2   1    1.96    0.51
   0   2   1    3.73    0.48
   0  -2  -1    2.89    0.80
   0   2   2   14.81    1.35
   0  -2  -2   15.46    1.31
   0   2   2   12.38    1.25
   0  -2  -2   12.19    1.27
   0   2   2   14.25    1.26
   0   2   3   65.30    5.33
   0  -2  -3   66.24    5.38
   0   2   3   67.90    5.41
   0  -2  -3   61.70    5.33
   0  -2  -3   53.95    5.48
   0   2   4  476.16   39.80
   0  -2  -4  474.46   39.83
   0   2   4  494.76   39.86
   0  -2  -4  489.33   39.91
   0   2   5    0.10    0.46
   0  -2  -5   -0.15    0.62
   0   2   5   -0.11    0.67
   0  -2  -5    0.26    0.59
   0  -2  -5   -0.20    0.43
   0   2   6    0.19    0.49
   0  -2  -6    0.49    0.60
   0   2   6    0.60    0.74
   0  -2  -6    0.35    0.71
   0  -2  -6    0.75    0.46
   0  -2  -7    3.82    0.79
   0  -2  -7    2.82    0.54
   0  -2  -7    2.66    0.71
   0   2   7    2.80    0.79
   0  -2  -7    3.59    0.55
   0  -2  -8   85.91    7.10
   0  -2  -8   79.88    6.96
   0  -2  -8   75.67    7.04
   0  -2  -8   87.57    6.96
   0  -2  -9  133.73   10.99
   0  -2  -9  152.88   11.14
   0   2   9  126.88   11.00
   0  -2  -9  118.21   11.04
   0  -2 -10   78.00    6.72
   0  -2 -10   79.35    6.77
   0  -2 -10   77.54    6.65
   0  -2 -11   33.18    2.98
   0  -2 -11   37.04    2.94
   0  -2 -11   29.67    3.06
   0   2  11   31.22    3.07
   0  -2 -12   43.10    3.79
   0   2  12   47.09    3.91
   0  -2 -12   41.88    3.90
   0  -2 -12   41.86    3.72
   0  -2 -13   14.62    1.80
   0   2  13   16.64    1.74
   0  -2 -13   14.72    1.73
   0  -2 -14    0.06    0.48
   0   2  14    0.43    0.92
   0  -2 -14   -0.04    0.81
   0  -2 -14   -0.26    0.78
   0  -2 -15   -0.03    0.45
   0  -2 -15    0.88    0.81
   0   2  16   19.89    1.76
   0  -2 -16    8.22    0.96
   0   2  17   45.49    4.33
   0  -2 -17   47.12    4.36
   0  -2 -18    8.12    1.37
   0  -3  19   29.36    3.33
   0   3 -17    8.78    1.65
   0  -3  17    8.81    1.93
   0   3 -16   73.96    7.63
   0  -3  16   99.72    7.76
   0   3 -15    2.76    1.32
   0  -3  15    4.56    1.70
   0   3 -14    3.47    1.50
   0  -3  14    4.13    1.65
   0   3 -13    4.29    1.42
   0  -3  13    4.32    1.59
   0  -3  12    4.57    1.56
   0  -3  11   52.19    4.58
   0   3 -11   40.51    4.23
   0  -3  10    4.73    1.45
   0   3 -10    4.77    1.15
   0  -3   9   70.06    5.69
   0   3  -9   54.11    5.30
   0  -3   8    0.77    0.19
   0   3  -8    1.53    0.92
   0   3  -8    0.91    0.84
   0  -3   8    2.05    1.17
   0  -3   7   33.55    3.08
   0   3  -7   36.40    3.33
   0  -3   7   39.36    3.62
   0   3  -7   40.64    3.12
   0   3  -7   33.62    3.34
   0   3  -6    0.81    0.68
   0   3  -6    0.37    0.35
   0  -3   6    0.60    0.94
   0   3  -6    0.31    0.74
   0   3  -5   24.32    2.19
   0  -3   5   22.52    2.03
   0  -3   5   26.20    2.52
   0   3  -5   22.76    2.07
   0   3  -5   24.21    2.22
   0  -3   4   14.27    1.78
   0  -3   4   12.99    1.22
   0   3  -4   13.18    1.25
   0  -3   3  435.93   37.00
   0   3  -3  489.26   37.04
   0   3  -3  448.78   37.04
   0  -3   3  438.43   37.29
   0   3  -3  426.59   37.02
   0  -3   2  637.63   53.04
   0   3  -2  647.89   53.06
   0  -3   2  588.47   53.26
   0   3  -2  663.05   53.07
   0   3  -2  641.86   53.03
   0   3  -1  115.64    9.60
   0  -3   1  112.99    9.58
   0   3  -1  110.19    9.57
   0   3  -1  118.52    9.55
   0  -3   0  111.07    8.99
   0  -3   0  105.23    9.03
   0   3   0  105.46    9.05
   0   3   1   44.29    3.67
   0  -3  -1   41.73    3.66
   0  -3  -1   43.49    3.72
   0   3   2   31.40    2.97
   0   3   2   34.82    3.06
   0   3   2   40.14    3.00
   0  -3  -2   30.97    3.01
   0  -3  -2   38.67    3.26
   0   3   3  285.65   23.46
   0   3   3  293.54   23.54
   0  -3  -3  278.57   23.49
   0   3   3  278.92   23.43
   0   3   4   30.12    3.14
   0   3   4   41.01    3.11
   0  -3  -4   34.30    3.29
   0   3   4   34.18    3.04
   0  -3  -5   81.98    6.69
   0  -3  -5   72.57    6.81
   0   3   5   78.74    6.71
   0   3   5   78.83    6.62
   0  -3  -6  376.51   32.47
   0  -3  -6  395.08   32.59
   0   3   6  390.68   32.49
   0   3   6  401.08   32.41
   0   3   7    0.86    0.53
   0  -3  -7    0.76    0.48
   0  -3  -7    1.16    0.63
   0   3   7    1.48    0.71
   0  -3  -8    9.51    1.18
   0  -3  -8    9.09    1.05
   0   3   8   10.33    1.23
   0  -3  -9    0.21    0.41
   0  -3  -9    0.02    0.41
   0   3   9   -0.18    0.78
   0  -3  -9   -0.03    0.65
   0  -3 -10    9.06    0.97
   0   3  10    8.61    1.16
   0  -3 -10    7.69    0.97
   0  -3 -10    8.66    1.17
   0   3  11    6.70    1.08
   0  -3 -11    7.34    0.93
   0  -3 -11    7.71    1.13
   0  -3 -11    8.09    0.91
   0   3  12   69.24    6.03
   0  -3 -12   77.45    5.95
   0  -3 -12   58.83    6.03
   0   3  13   12.43    1.41
   0  -3 -13    9.02    1.15
   0   3  14   33.06    2.82
   0  -3 -14   28.60    2.81
   0  -3 -14   26.24    2.65
   0  -3 -15   23.16    2.24
   0  -3 -15   18.48    2.04
   0   3  15   21.80    2.23
   0   3  16    3.49    1.12
   0  -3 -16    1.84    0.92
   0  -3 -17   13.78    1.75
   0  -3 -18    5.59    1.16
   0  -4  18   58.67    5.58
   0   4 -17    2.23    1.31
   0  -4  17    1.80    1.77
   0  -4  16    6.53    1.89
   0   4 -16    3.90    1.43
   0   4 -15   -0.11    1.31
   0  -4  14   43.31    3.86
   0   4 -14   30.45    3.66
   0   4 -13   28.75    3.20
   0  -4  13   31.00    3.55
   0   4 -12   12.90    1.98
   0  -4  12   14.87    2.32
   0   4 -11    0.57    1.09
   0  -4  11   -0.33    1.47
   0   4 -10    1.94    1.06
   0  -4  10   -0.08    1.32
   0   4  -9    2.86    1.06
   0  -4   9    0.94    0.19
   0   4  -9    3.09    1.11
   0  -4   9    0.95    1.34
   0  -4   8   81.48    6.16
   0  -4   8   54.84    5.25
   0   4  -8   60.13    5.31
   0   4  -8   80.42    5.61
   0   4  -8   83.56    5.68
   0  -4   7    7.77    1.59
   0   4  -7    6.67    1.16
   0  -4   7    6.82    0.75
   0   4  -7    5.98    0.86
   0  -4   6    2.75    1.23
   0  -4   6    4.24    0.58
   0   4  -6    3.12    0.66
   0   4  -6    4.82    0.93
   0   4  -6    3.05    0.89
   0  -4   5  308.70   25.62
   0   4  -5  323.82   25.66
   0  -4   5  296.75   26.03
   0   4  -5  297.47   25.67
   0   4  -4    4.50    0.74
   0   4  -4    3.76    0.71
   0  -4   4    3.54    0.57
   0  -4   4    4.41    1.25
   0   4  -3   21.36    2.05
   0  -4   3   21.81    1.98
   0  -4   3   18.61    2.40
   0   4  -3   20.97    2.03
   0   4  -3   23.92    2.01
   0   4  -2   20.33    1.95
   0   4  -2   20.11    1.87
   0  -4   2   21.39    2.33
   0   4  -2   21.52    1.95
   0   4  -1   88.06    7.18
   0   4  -1   90.95    7.14
   0  -4   1   77.12    7.44
   0  -4   1   79.61    7.17
   0   4  -1   82.58    7.21
   0   4   0    0.20    0.54
   0   4   0    0.09    0.57
   0  -4   0   -0.29    0.45
   0   4   0    0.04    0.55
   0  -4   0    0.04    0.97
   0  -4  -1   32.82    3.07
   0   4   1   31.34    2.81
   0  -4  -1   27.02    2.74
   0   4   1   34.15    2.74
   0   4   1   29.94    2.70
   0  -4  -2   -0.07    0.87
   0   4   2    0.12    0.59
   0  -4  -2    0.23    0.55
   0   4   2   -0.04    0.61
   0  -4  -3  147.53   12.13
   0   4   3  137.35   11.97
   0   4   3  150.09   11.90
   0  -4  -3  143.46   11.92
   0   4   3  136.19   11.85
   0   4   4  622.99   52.60
   0  -4  -4  651.02   52.63
   0   4   4  635.30   52.69
   0  -4  -5   32.80    3.18
   0   4   5   34.77    2.89
   0   4   5   32.70    3.01
   0  -4  -5   29.90    2.91
   0   4   6   27.54    2.49
   0  -4  -6   29.31    2.77
   0   4   6   28.24    2.58
   0  -4  -6   25.72    2.49
   0  -4  -7    6.21    0.88
   0   4   7    8.56    1.12
   0   4   7    6.84    1.00
   0  -4  -7    7.55    1.17
   0   4   8   66.50    6.17
   0  -4  -8   74.13    6.31
   0  -4  -8   74.01    6.12
   0   4   9  167.94   14.48
   0  -4  -9  186.55   14.71
   0  -4 -10    0.18    0.52
   0  -4 -10    0.56    0.50
   0  -4 -10    0.04    0.67
   0   4  10    0.89    0.79
   0   4  11   19.56    2.11
   0  -4 -11   22.70    2.25
   0  -4 -11   24.15    2.03
   0  -4 -11   18.30    2.05
   0  -4 -12    0.52    0.50
   0   4  12    0.64    0.88
   0  -4 -12   -0.27    0.85
   0  -4 -12    0.87    0.57
   0   4  13   13.82    1.63
   0  -4 -13   10.73    1.40
   0  -4 -13   15.68    1.63
   0   4  14    1.87    1.00
   0   4  15    9.65    1.51
   0  -4 -15   12.10    1.47
   0  -4 -16    1.67    0.88
   0  -4 -17   14.83    1.82
   0  -4 -18    0.63    0.92
   0  -4 -19    2.56    1.01
   0   4  21    1.93    1.07
   0  -5  17    6.14    1.99
   0  -5  16    9.38    2.11
   0   5 -15    4.14    1.41
   0  -5  15    6.93    1.93
   0   5 -14    5.33    1.49
   0   5 -13    0.89    1.29
   0  -5  12    1.25    1.56
   0   5 -12    0.22    1.27
   0  -5  11   55.80    5.67
   0  -5  10    2.25    1.58
   0   5 -10    2.70    1.19
   0   5  -9    4.82    1.20
   0  -5   9    2.18    0.41
   0  -5   9    3.28    1.65
   0   5  -8   11.56    1.46
   0  -5   8   10.24    1.98
   0   5  -8    9.11    1.08
   0  -5   8    7.94    1.01
   0   5  -8   11.57    1.51
   0  -5   7   29.04    3.31
   0   5  -7   33.17    2.80
   0  -5   7   24.21    2.54
   0   5  -7   34.04    2.87
   0  -5   6  158.74   13.20
   0   5  -6  149.06   13.27
   0   5  -6  167.42   13.34
   0  -5   5   44.08    4.71
   0   5  -5   50.71    4.29
   0   5  -5   47.11    4.29
   0   5  -4   16.09    1.61
   0  -5   4   14.19    1.52
   0  -5   4   14.66    2.15
   0   5  -4   14.53    1.62
   0   5  -4   16.69    1.67
   0  -5   3    2.79    1.24
   0  -5   3    3.40    0.63
   0   5  -3    3.21    0.68
   0   5  -3    2.68    0.75
   0   5  -3    2.84    0.74
   0  -5   2    4.86    1.29
   0  -5   2    3.66    0.67
   0   5  -2    4.48    0.77
   0   5  -2    3.86    0.84
   0   5  -1   31.40    2.26
   0  -5   1   29.51    2.22
   0   5   0   36.81    2.81
   0  -5   0   30.72    2.79
   0  -5   0   28.31    3.10
   0   5   0   26.57    2.74
   0   5   0   31.89    2.90
   0  -5  -1   47.77    4.94
   0  -5  -1   46.23    4.63
   0  -5  -2   11.34    1.64
   0   5   2   13.50    1.36
   0   5   2   13.79    1.28
   0   5   2   11.88    1.42
   0  -5  -2   10.27    1.31
   0  -5  -3    2.07    0.90
   0   5   3    2.08    0.63
   0   5   3    2.31    0.72
   0   5   3    2.30    0.65
   0   5   4   62.61    6.10
   0  -5  -4   68.87    6.37
   0   5   4   81.30    6.10
   0  -5  -5   63.37    5.36
   0   5   5   54.48    5.07
   0   5   5   65.65    5.22
   0   5   5   56.55    5.00
   0  -5  -5   58.09    5.07
   0   5   6  127.58   10.06
   0  -5  -6  118.28   10.12
   0   5   6  121.32   10.22
   0   5   6  105.98   10.11
   0  -5  -6  128.33   10.41
   0  -5  -7   10.22    1.46
   0   5   7    7.60    1.22
   0  -5  -7    9.27    1.09
   0   5   7    9.32    1.23
   0   5   7   10.28    1.25
   0   5   8   31.88    2.81
   0  -5  -8   31.00    3.08
   0  -5  -8   30.24    2.79
   0   5   8   31.64    2.93
   0   5   8   28.41    2.90
   0  -5  -9    1.96    0.93
   0   5   9    2.40    0.85
   0   5   9    1.09    0.71
   0  -5  -9    2.25    0.63
   0   5  10  383.65   32.03
   0   5  10  411.50   32.22
   0  -5 -10  373.77   32.05
   0  -5 -11  143.66   11.26
   0   5  11  122.54   11.23
   0  -5 -11  155.80   11.55
   0  -5 -11  119.73   11.30
   0   5  11  137.46   11.41
   0  -5 -12    1.71    1.00
   0   5  12    0.66    0.90
   0  -5 -12    0.96    0.63
   0   5  12    2.58    0.90
   0  -5 -13    3.26    0.77
   0  -5 -13    5.08    1.08
   0   5  13    2.66    0.98
   0  -5 -14    6.51    1.21
   0   5  14    3.60    1.00
   0  -5 -15   15.21    1.86
   0  -5 -16    5.33    1.10
   0   5  17   11.79    1.70
   0  -5 -17   17.84    1.85
   0   5  18    3.86    1.09
   0   5  19   -0.18    0.90
   0  -5 -19    1.02    0.96
   0  -5 -20    4.79    1.23
   0   5  20    3.93    1.10
   0   5  21    1.41    1.00
   0  -6  15    1.52    1.88
   0   6 -11    1.93    1.23
   0  -6  11    1.59    1.47
   0   6 -10   -0.72    1.10
   0  -6  10    1.07    1.51
   0   6  -9    3.32    1.22
   0   6  -9    4.45    1.15
   0  -6   9    3.07    1.62
   0   6  -8    2.54    1.07
   0  -6   8    2.11    1.47
   0   6  -8    0.10    0.90
   0  -6   7    1.96    0.62
   0   6  -7    2.51    0.79
   0  -6   7    2.41    1.49
   0   6  -7    3.34    1.05
   0   6  -6    0.65    0.82
   0  -6   6    0.30    1.32
   0  -6   6    0.34    0.57
   0   6  -5   50.62    4.58
   0  -6   5   55.32    4.59
   0   6  -5   48.33    4.58
   0   6  -5   52.51    4.64
   0   6  -4   43.10    4.15
   0  -6   4   51.50    4.21
   0   6  -4   42.97    4.20
   0   6  -4   55.13    4.33
   0  -6   4   45.95    4.70
   0  -6   3   23.53    2.79
   0  -6   3   24.20    2.19
   0   6  -3   25.34    2.25
   0   6  -3   18.78    2.09
   0   6  -2    6.64    0.94
   0   6  -2    6.43    1.06
   0  -6   2    5.36    0.91
   0  -6   2    6.39    1.56
   0   6  -2    5.54    0.82
   0   6  -1  307.61   17.05
   0  -6   1  294.13   17.62
   0   6   0  151.01   11.78
   0   6   0  133.27   11.57
   0  -6   0  135.12   11.64
   0   6   1    6.82    0.98
   0  -6  -1    6.07    1.36
   0   6   1    7.85    1.08
   0  -6  -1    7.68    1.01
   0   6   1    8.06    1.12
   0  -6  -2   14.37    1.64
   0   6   2   15.70    1.55
   0  -6  -2   14.97    1.99
   0   6   2   15.33    1.75
   0   6   2   15.82    1.69
   0  -6  -3   11.03    1.42
   0  -6  -3   14.50    1.73
   0   6   3   14.87    1.60
   0   6   3   11.74    1.36
   0   6   4    1.16    0.58
   0   6   4    0.70    0.68
   0   6   4    0.60    0.73
   0  -6  -4    1.13    0.84
   0  -6  -4    0.54    0.62
   0  -6  -5   38.28    3.94
   0   6   5   46.46    3.89
   0  -6  -5   44.61    3.72
   0   6   5   42.90    3.61
   0   6   5   34.01    3.63
   0  -6  -6   22.04    2.37
   0   6   6   19.16    2.02
   0  -6  -6   18.84    1.98
   0   6   7   12.05    1.80
   0   6   7   16.05    1.76
   0  -6  -7   17.39    1.77
   0   6   7   21.21    1.97
   0  -6  -7   21.85    2.21
   0   6   8    3.38    0.99
   0   6   8    3.22    0.92
   0   6   8    4.71    1.01
   0  -6  -8    3.52    1.18
   0  -6  -8    2.26    0.73
   0   6   9    4.83    1.21
   0   6   9    8.69    1.16
   0   6   9    5.18    1.14
   0  -6  -9    9.87    1.54
   0  -6 -10    5.01    1.17
   0   6  10    2.21    0.94
   0  -6 -10    4.39    0.83
   0   6  10    5.72    1.08
   0   6  10    4.08    1.04
   0  -6 -11    0.42    0.64
   0   6  11    0.47    0.92
   0   6  11    1.99    0.93
   0   6  12   22.08    2.16
   0   6  12   15.36    1.91
   0  -6 -12   15.94    1.96
   0  -6 -12   23.01    2.29
   0  -6 -13   17.42    2.20
   0   6  13   17.60    1.97
   0   6  13   19.84    2.15
   0  -6 -14    1.19    1.01
   0   6  16    9.26    1.48
   0  -6 -16   14.47    1.73
   0  -6 -17   17.17    1.86
   0   6  17   11.16    1.66
   0  -6 -18    9.02    1.35
   0   6  18    5.00    1.21
   0  -6 -19    1.14    1.01
   0   6  19    1.46    0.93
   0  -6 -20    6.36    1.30
   0   6  20    4.21    1.12
   0   6  21    1.73    0.99
   0  -7  10   15.63    2.51
   0   7  -9    1.26    1.00
   0  -7   9    1.57    1.68
   0   7  -7    3.79    1.01
   0   7  -7    4.53    1.15
   0   7  -6    0.49    0.80
   0   7  -6   -0.78    0.87
   0  -7   6    0.96    1.63
   0  -7   5    1.37    1.45
   0   7  -5    0.77    0.84
   0   7  -5    0.83    0.78
   0   7  -4    2.62    0.85
   0   7  -4    0.62    0.70
   0   7  -4    2.10    0.88
   0   7  -3    7.72    1.20
   0  -7   3    7.02    1.74
   0   7  -3    4.69    0.85
   0   7  -3    7.33    1.09
   0   7  -2   19.00    1.80
   0  -7   2   18.12    2.34
   0   7  -2   17.74    1.97
   0  -7   2   16.14    1.81
   0   7  -2   14.53    1.68
   0  -7   1    3.19    1.42
   0   7  -1    1.55    0.57
   0  -7   1    2.51    0.76
   0   7   0   33.58    2.87
   0  -7   0   31.40    2.70
   0  -7   0   32.34    3.15
   0   7   0   31.24    2.66
   0   7   1  228.58   22.70
   0  -7  -1  304.51   22.83
   0  -7  -1  219.67   22.96
   0   7   1  289.75   22.72
   0   7   1  347.14   23.04
   0  -7  -2  142.87   15.17
   0  -7  -2  204.28   15.05
   0   7   2  174.91   14.99
   0   7   2  179.37   14.90
   0   7   3   13.49    1.49
   0   7   3   15.05    1.72
   0  -7  -3   10.35    1.72
   0   7   3   12.84    1.56
   0  -7  -3   14.69    1.59
   0   7   4   16.54    2.05
   0   7   4   23.01    2.04
   0  -7  -4   17.41    2.35
   0   7   5   12.88    1.63
   0  -7  -5   10.21    1.75
   0   7   5   12.10    1.48
   0  -7  -5   12.89    1.47
   0  -7  -6   60.49    4.77
   0   7   6   54.99    4.91
   0   7   6   63.12    4.66
   0   7   7   47.69    3.99
   0   7   7   43.78    4.19
   0  -7  -7   38.64    4.02
   0  -7  -7   51.83    4.46
   0  -7  -8    3.46    0.83
   0   7   8    4.59    1.10
   0   7   8    3.87    0.97
   0  -7  -8    3.20    1.16
   0   7   9   10.27    1.54
   0  -7  -9   10.76    1.39
   0   7   9   16.13    1.53
   0  -7  -9   14.56    1.92
   0   7   9    9.26    1.58
   0   7  10    6.82    1.46
   0  -7 -10    8.96    1.14
   0   7  10    8.43    1.24
   0  -7 -10    7.28    1.43
   0   7  10    6.73    1.21
   0  -7 -11   13.57    1.56
   0   7  11   14.10    1.65
   0   7  11   15.41    1.91
   0  -7 -11   15.31    1.92
   0  -7 -12    2.46    1.09
   0   7  12    2.20    0.96
   0   7  12    0.45    1.06
   0   7  13    0.95    0.96
   0   7  14    0.89    0.96
   0  -7 -14   -0.73    1.11
   0  -7 -15    6.30    1.41
   0   7  15    2.70    1.05
   0   7  16    1.05    0.94
   0  -7 -17   24.03    2.35
   0   7  17   13.71    1.90
   0  -7 -18   -0.64    1.09
   0   7  18    0.57    0.91
   0   7  19    2.69    0.98
   0  -7 -20    3.19    1.15
   0   7  20    0.52    0.92
   0  -8   9   75.50    7.24
   0   8  -8   -0.74    0.98
   0  -8   8    2.40    1.63
   0   8  -7    1.92    1.00
   0   8  -6    2.86    1.03
   0  -8   6    4.81    1.70
   0   8  -5   21.53    2.26
   0  -8   4    0.92    1.45
   0   8  -4    0.18    0.84
   0  -8   2   -0.42    1.18
   0   8  -2    0.57    0.57
   0   8  -2   -0.14    0.86
   0   8  -1   17.27    1.98
   0  -8   1   19.90    2.66
   0  -8   0   13.02    1.96
   0   8   0   12.44    1.54
   0   8   0    9.94    1.21
   0   8   1   28.77    2.96
   0  -8  -1   26.02    3.16
   0   8   1   22.01    2.58
   0   8   2   12.90    1.69
   0  -8  -2    9.81    1.77
   0   8   2    9.38    1.35
   0  -8  -2   11.10    1.49
   0   8   2   13.82    1.45
   0   8   3   18.65    1.79
   0  -8  -3   14.95    2.09
   0   8   3   14.24    1.84
   0  -8  -4    8.50    1.26
   0  -8  -4    6.47    1.49
   0   8   4   11.28    1.52
   0  -8  -5    3.49    0.89
   0   8   5    1.59    0.90
   0   8   5    2.78    0.98
   0  -8  -5    2.48    1.19
   0   8   5    1.97    0.82
   0  -8  -6    0.83    1.14
   0   8   6    0.03    0.83
   0  -8  -6   -0.04    0.74
   0   8   6    1.12    0.84
   0   8   6    0.25    0.87
   0   8   7    1.81    0.94
   0  -8  -7    1.59    0.77
   0   8   7    1.43    1.01
   0   8   7    0.78    1.02
   0  -8  -8   30.61    2.82
   0   8   8   35.79    2.75
   0  -8  -8   19.81    2.94
   0   8   8   24.12    2.82
   0   8   9    0.33    0.85
   0  -8  -9    0.34    0.71
   0   8   9   -0.04    0.93
   0  -8  -9    0.43    1.11
   0  -8 -10    3.04    0.87
   0   8  10    5.03    1.32
   0   8  10    5.03    1.04
   0   8  10    2.18    1.06
   0   8  11    0.66    1.30
   0   8  11    1.22    0.95
   0  -8 -11    1.44    1.03
   0  -8 -12   -0.06    1.14
   0   8  12    0.10    1.18
   0  -8 -13    6.91    1.38
   0  -8 -14    2.86    1.29
   0   8  15    1.15    1.09
   0  -8 -15    0.66    1.13
   0  -8 -16   13.46    1.82
   0   8  16    6.88    1.47
   0  -8 -17    6.29    1.61
   0   8  17    4.28    1.20
   0  -8 -18    3.30    1.39
   0   8  18    0.19    1.03
   0  -8 -19    0.44    1.13
   0   8  19    1.38    1.05
   0   8  20    1.04    0.97
   0  -8 -20    0.43    1.03
   0  -8 -21    1.08    1.15
   0   9  -8   12.60    1.75
   0  -9   8   17.22    2.43
   0   9  -7   54.03    5.31
   0  -9   7   79.98    6.16
   0   9  -6    7.24    1.33
   0  -9   6   10.25    2.02
   0   9  -5    8.70    1.38
   0  -9   5   11.36    2.02
   0  -9   4    0.23    1.35
   0  -9   3   25.37    2.79
   0   9  -3   19.29    2.19
   0  -9   2    4.55    1.49
   0   9  -2    4.46    1.07
   0  -9   1    0.63    1.25
   0   9  -1    0.42    0.89
   0   9   0    1.14    0.93
   0  -9   0   -0.07    1.13
   0  -9  -1    1.70    1.30
   0  -9  -2   -0.26    1.10
   0   9   3    0.82    0.91
   0  -9  -3    1.20    1.07
   0   9   3    0.56    0.85
   0   9   4    1.13    0.96
   0  -9  -4    0.31    1.07
   0   9   4    0.71    0.86
   0  -9  -5    1.75    1.23
   0   9   5    0.97    0.97
   0   9   5    2.34    0.96
   0   9   6    1.33    0.87
   0  -9  -6    1.02    1.15
   0   9   6    1.19    0.90
   0  -9  -7   -0.27    1.13
   0   9   7    0.23    0.95
   0   9   7    0.28    0.89
   0   9   7    0.46    0.82
   0   9   8    3.99    1.26
   0   9   8    6.77    1.13
   0  -9  -9   -0.58    1.13
   0   9   9    0.15    0.87
   0   9   9   -0.28    1.07
   0   9   9   -1.10    1.05
   0   9  10    2.19    0.94
   0   9  10    0.35    1.06
   0  -9 -10   -0.52    1.02
   0  -9 -11    0.76    1.07
   0   9  11    0.64    1.12
   0  -9 -12    1.00    1.05
   0   9  13    0.68    1.24
   0  -9 -14   17.89    2.33
   0   9  14   18.10    2.36
   0   9  15    1.69    1.27
   0  -9 -15    4.75    1.38
   0   9  16   -0.66    1.14
   0  -9 -16    1.77    1.39
   0   9  17    4.10    1.29
   0   9  18    6.69    1.60
   0  -9 -18   17.79    2.10
   0  -9 -19   10.36    1.62
   0   9  19    1.95    1.19
   0  -9 -20    3.60    1.35
   0 -10   7    8.73    1.86
   0  10  -7    6.21    1.23
   0 -10   6    0.33    1.44
   0  10  -6    0.28    0.98
   0 -10   5    6.41    1.81
   0 -10   4    8.31    1.73
   0  10  -4    4.16    1.20
   0 -10   3    5.93    1.71
   0  10  -3    4.61    1.14
   0 -10   2   -0.22    1.33
   0  10  -2    0.60    0.95
   0  10  -1    9.27    1.40
   0  10   0    0.20    0.95
   0 -10   0    1.02    1.14
   0 -10  -1    0.20    1.23
   0 -10  -2    0.33    1.12
   0  10   2    0.81    1.02
   0 -10  -3    3.99    1.40
   0  10   3    8.23    1.32
   0 -10  -4   -0.20    1.07
   0  10   4    0.70    1.08
   0 -10  -5    0.42    1.10
   0 -10  -6    1.04    1.20
   0 -10  -7    4.03    1.45
   0  10   7    9.43    1.31
   0  10   8    0.56    1.04
   0 -10  -8    0.13    1.08
   0  10   8    1.89    1.06
   0  10   9    0.25    0.93
   0  10   9    0.30    1.01
   0 -10  -9   -1.85    1.11
   0 -10 -10    0.59    1.16
   0  10  10    0.43    1.07
   0 -10 -11    4.09    1.37
   0  10  12   -0.18    1.14
   0 -10 -12    0.31    1.09
   0  10  13    2.73    1.31
   0 -10 -13    3.60    1.34
   0 -10 -14    5.29    1.42
   0  10  14    1.20    1.30
   0  10  15    1.02    1.22
   0 -10 -15    3.12    1.34
   0 -10 -16    6.17    1.47
   0 -10 -17    6.03    1.48
   0 -10 -18   11.43    1.94
   0 -11   5    2.01    1.35
   0  11  -5    0.77    1.00
   0  11  -4   -0.28    0.98
   0 -11   4    0.46    1.35
   0  11  -3    3.19    1.12
   0 -11   3    6.79    1.67
   0 -11   2    4.43    1.51
   0  11  -2    2.98    1.13
   0 -11   1   16.05    2.32
   0  11   0    8.90    1.49
   0  11   1    0.18    1.08
   0 -11  -1    0.89    1.22
   0 -11  -2   -0.41    1.15
   0  11   2   -0.32    1.13
   0 -11  -3    3.32    1.42
   0  11   3    3.40    1.18
   0 -11  -4    0.71    1.21
   0  11   4    1.17    1.07
   0 -11  -5    7.69    1.84
   0  11   5   13.92    1.64
   0 -11  -6    0.42    1.12
   0  11   6    0.47    1.09
   0  11   7    0.16    1.07
   0 -11  -7   -0.07    1.10
   0  11   8    1.85    1.02
   0 -11  -8    1.39    1.21
   0 -11  -9    0.59    1.13
   0 -11 -10    2.74    1.21
   0 -11 -11   -0.06    1.13
   0 -11 -12    3.80    1.29
   0 -11 -13    9.90    1.62
   0 -11 -15    0.91    1.10
   0  11  16    1.47    1.18
   0 -11 -16    0.49    1.14
   0  11  17    0.24    1.18
   0  11  18    0.17    1.12
   0 -12   3    1.91    1.39
   0 -12   1    1.44    1.26
   0  12  -1    1.31    1.21
   0  12   0    1.75    1.19
   0 -12   0    4.17    1.56
   0  12   1    4.26    1.29
   0 -12  -1    5.23    1.58
   0 -12  -2   10.03    1.79
   0  12   2    6.19    1.45
   0  12   3    1.87    1.22
   0 -12  -3    3.64    1.39
   0 -12  -4    0.43    1.25
   0  12   4   -0.52    1.15
   0  12   5    5.88    1.37
   0 -12  -5    6.05    1.52
   0  12   6    0.98    1.11
   0 -12  -6   -1.17    1.17
   0 -12  -7    1.48    1.27
   0 -12  -8    1.45    1.22
   0 -12  -9    0.26    1.06
   0 -12 -11    0.06    1.14
   0 -12 -12   10.63    1.72
   0 -12 -13    0.59    1.05
   0  13   3    1.90    1.25
   0  13   4    1.42    1.14
   1 -12 -10   -0.45    1.15
   1 -12  -8   -0.67    1.17
   1 -12  -7    1.52    1.32
  -1  12   6    0.87    1.10
   1 -12  -6   -0.21    1.16
  -1  12   5   -0.36    1.09
   1 -12  -5    1.38    1.31
  -1  12   4    0.32    1.10
   1 -12  -4    2.58    1.33
   1 -12  -3    0.21    1.30
   1 -12  -2    3.41    1.35
  -1  12   2    3.11    1.25
   1 -12  -1    0.64    1.23
  -1  12   1    1.62    1.16
   1 -11 -15    3.32    1.33
   1 -11 -14   -0.51    1.09
   1 -11 -13    4.23    1.27
   1 -11 -12    2.36    1.17
   1 -11 -11   14.21    2.05
   1 -11 -10   26.16    2.98
   1 -11  -9    1.93    1.32
  -1  11   8    6.38    1.36
   1 -11  -7    1.48    1.26
  -1  11   7    1.64    1.13
  -1  11   6    0.99    1.11
   1 -11  -6   -0.07    1.10
   1 -11  -5    1.25    1.15
   1 -11  -4    1.99    1.27
  -1  11   4    1.39    1.14
  -1  11   3    0.94    1.07
   1 -11  -3    0.89    1.25
   1 -11  -2   -0.21    1.16
  -1  11   2    0.51    1.09
   1 -11  -1   14.96    2.15
  -1  11   1   11.18    1.72
   1 -11   0    0.73    1.34
  -1  11  -1    0.83    1.08
  -1  11  -2    6.11    1.36
   1 -11   2   12.33    2.05
   1 -11   3    1.43    1.46
  -1  11  -3    0.82    1.01
   1 -11   5    2.67    1.52
   1 -10 -18    0.99    1.31
  -1  10  18   -0.16    1.04
  -1  10  17    1.31    1.18
   1 -10 -17    1.60    1.32
  -1  10  16    1.52    1.10
  -1  10  15    1.01    1.27
   1 -10 -15    3.77    1.34
   1 -10 -14    4.32    1.36
   1 -10 -13    0.71    1.05
   1 -10 -11    2.28    1.17
   1 -10 -10    0.73    1.09
  -1  10  10    2.86    1.07
  -1  10   9   29.68    2.81
   1 -10  -9   25.75    3.15
  -1  10   8    3.03    1.18
   1 -10  -8    0.90    1.16
   1 -10  -7    4.96    1.54
   1 -10  -6    5.45    1.65
  -1  10   6   16.11    1.71
  -1  10   5   11.45    1.60
   1 -10  -5    8.58    1.89
  -1  10   4    5.34    1.22
   1 -10  -4    2.26    1.26
   1 -10  -3    0.74    1.28
  -1  10   3    0.67    1.06
  -1  10   1    0.48    1.03
   1 -10  -1    1.29    1.17
  -1  10   0    7.09    1.32
   1 -10   0    9.48    1.84
   1 -10   1    0.77    1.32
  -1  10  -1    0.50    0.90
  -1  10  -2    0.13    0.95
  -1  10  -3   -0.26    0.95
   1 -10   3    0.41    1.58
   1 -10   4    2.63    1.58
   1 -10   5    2.93    1.81
  -1  10  -5    1.50    0.97
  -1  10  -6    1.82    1.06
   1 -10   6    6.73    1.88
   1 -10   7    1.86    1.59
   1  -9 -20   17.92    2.35
   1  -9 -19   23.07    2.30
  -1   9  19    6.13    1.59
  -1   9  18    2.15    1.27
   1  -9 -18   14.15    1.96
   1  -9 -17   12.35    2.09
   1  -9 -16    8.98    1.80
   1  -9 -15    0.42    1.31
  -1   9  14    1.46    1.25
   1  -9 -14    0.55    1.19
  -1   9  13    2.18    1.29
   1  -9 -13    3.92    1.36
   1  -9 -12    1.72    1.18
  -1   9  12    0.60    1.07
  -1   9  11    1.27    1.11
  -1   9  11    1.20    1.06
   1  -9 -11    0.87    1.20
   1  -9 -10    1.58    1.22
  -1   9  10    1.56    1.14
  -1   9  10    2.71    1.12
   1  -9  -9   -0.60    1.15
  -1   9   9    0.41    0.91
  -1   9   9    1.43    1.16
   1  -9  -8    0.27    1.11
  -1   9   8    0.12    0.91
   1  -9  -7    0.71    0.90
  -1   9   7    0.57    0.98
   1  -9  -7    0.60    1.11
  -1   9   6    0.89    1.03
   1  -9  -6    0.38    1.04
   1  -9  -5    0.44    1.11
  -1   9   5    1.25    1.04
   1  -9  -4    1.41    1.11
   1  -9  -3   14.23    2.18
   1  -9  -2    0.07    1.12
  -1   9   2    1.67    0.95
  -1   9   1    5.86    1.14
   1  -9  -1    2.78    1.33
  -1   9   0    0.87    0.88
   1  -9   0    1.70    1.34
  -1   9  -1    3.31    1.02
   1  -9   1    3.79    1.61
  -1   9  -2   19.61    2.08
   1  -9   2   22.33    2.83
   1  -9   3   29.20    3.49
  -1   9  -4    2.22    0.93
   1  -9   4    1.91    1.60
   1  -9   5    3.79    1.83
  -1   9  -5    2.62    1.01
  -1   9  -6    1.60    0.98
   1  -9   6    3.33    1.84
   1  -9   7   12.53    2.24
  -1   9  -7    5.00    1.23
  -1   9  -8    6.06    1.26
   1  -9   8   11.69    2.20
   1  -8 -20   -0.61    1.12
  -1   8  20   -0.23    0.89
   1  -8 -19    1.31    1.30
  -1   8  19    0.18    0.95
  -1   8  18   17.08    2.51
   1  -8 -18   47.81    3.45
   1  -8 -17    0.98    1.36
  -1   8  17    0.38    0.97
  -1   8  16    0.72    1.01
   1  -8 -16    0.15    1.21
  -1   8  15    4.24    1.33
   1  -8 -15    9.21    1.68
  -1   8  14   17.00    2.59
   1  -8 -14   37.43    3.16
   1  -8 -13   27.09    2.75
  -1   8  13   16.18    2.26
  -1   8  12    7.20    1.36
  -1   8  12    7.78    1.48
   1  -8 -12    9.15    1.61
  -1   8  11    1.57    1.05
  -1   8  11    1.63    1.15
  -1   8  10    1.36    1.13
   1  -8 -10    1.83    0.80
  -1   8  10    2.22    1.09
   1  -8 -10   -0.06    1.08
  -1   8   9    9.82    1.85
  -1   8   9   25.45    2.07
   1  -8  -9   19.97    2.04
   1  -8  -9   13.69    2.10
   1  -8  -9   15.16    1.84
   1  -8  -8   14.53    2.04
   1  -8  -8   16.34    1.82
  -1   8   8   18.76    1.85
   1  -8  -8   12.45    1.66
  -1   8   7    6.13    1.26
   1  -8  -7    4.33    1.06
  -1   8   7    2.82    1.00
  -1   8   6    2.17    0.85
   1  -8  -6    3.70    1.02
  -1   8   6    5.00    1.04
  -1   8   5    4.23    0.96
   1  -8  -5   10.52    1.54
  -1   8   4    0.24    0.96
  -1   8   4    0.64    0.83
  -1   8   4    0.03    0.65
   1  -8  -4   -0.19    0.99
   1  -8  -3   22.01    2.90
  -1   8   3   28.45    2.58
  -1   8   2    0.41    0.88
   1  -8  -2   -0.47    1.08
   1  -8  -1    2.71    1.33
  -1   8   1    5.60    1.10
  -1   8   0    1.85    0.91
   1  -8   1    4.37    1.62
  -1   8  -1    7.13    1.06
   1  -8   2   -0.64    1.31
  -1   8  -2    0.44    0.81
  -1   8  -3    2.23    0.90
   1  -8   3    3.58    1.56
  -1   8  -4    1.25    0.81
   1  -8   4    3.03    1.66
  -1   8  -5   17.58    2.09
   1  -8   5   30.68    3.10
  -1   8  -6    1.20    0.93
   1  -8   6    0.09    1.68
   1  -8   7   11.68    2.28
  -1   8  -7    8.28    1.33
   1  -8   8    4.45    2.02
   1  -8   9   38.60    3.76
  -1   8  -9   23.98    2.69
   1  -8  10    1.12    1.61
  -1   8 -10    0.11    1.00
  -1   7  20    0.26    0.98
   1  -7 -19    9.10    1.57
  -1   7  19    4.01    1.16
  -1   7  18    1.44    0.96
   1  -7 -18    4.39    1.42
  -1   7  17    0.83    0.94
   1  -7 -17   -0.80    1.41
   1  -7 -16    0.99    1.21
  -1   7  16    0.44    0.93
  -1   7  15   15.20    1.95
   1  -7 -15   19.65    2.37
   1  -7 -14    1.09    1.31
  -1   7  14    1.05    1.00
  -1   7  13   -0.40    1.08
   1  -7 -13    0.67    1.28
   1  -7 -12    9.53    1.66
  -1   7  12    8.47    1.46
  -1   7  12    6.24    1.34
  -1   7  11   12.09    1.79
   1  -7 -11   15.97    2.17
  -1   7  11   18.04    1.93
  -1   7  10    3.20    1.22
  -1   7  10    5.52    1.24
   1  -7 -10    2.65    1.25
   1  -7 -10    3.24    0.87
   1  -7 -10    4.45    1.02
   1  -7  -9    1.02    0.72
   1  -7  -9    1.74    1.16
  -1   7   9    0.82    1.04
  -1   7   9    0.40    0.98
   1  -7  -9    2.34    0.90
   1  -7  -8   19.80    2.71
  -1   7   8   22.15    2.53
  -1   7   8   27.35    2.51
   1  -7  -8   27.25    2.58
   1  -7  -7    1.34    1.06
   1  -7  -7    1.62    0.83
  -1   7   7    0.79    0.87
  -1   7   7    1.03    1.05
   1  -7  -6  178.25   14.01
   1  -7  -6  209.77   13.85
   1  -7  -5   24.65    2.16
  -1   7   5   25.71    2.11
  -1   7   4    8.43    1.47
  -1   7   4   11.34    1.36
   1  -7  -4    9.53    1.63
   1  -7  -4    9.12    1.35
  -1   7   3    3.32    1.10
   1  -7  -3    5.23    1.33
   1  -7  -3    5.40    1.12
   1  -7  -2   55.61    4.62
  -1   7   2   64.60    4.17
  -1   7   2   52.50    4.40
   1  -7  -2   57.33    4.29
  -1   7   1   -0.10    0.83
   1  -7  -1    0.90    0.76
   1  -7  -1    0.33    1.11
  -1   7   1    0.73    0.78
  -1   7   1    0.29    0.29
  -1   7   0   19.13    1.80
   1  -7   0   16.46    2.06
   1  -7   0   20.55    1.66
  -1   7  -1    1.39    0.85
   1  -7   1    0.58    1.33
  -1   7  -1    1.83    0.93
  -1   7  -2   -0.10    0.86
  -1   7  -2    1.76    0.82
   1  -7   2    2.30    1.45
   1  -7   3    9.05    1.88
  -1   7  -3    7.36    1.16
  -1   7  -4    0.03    0.77
   1  -7   4   -1.11    1.66
  -1   7  -5    0.87    0.83
   1  -7   5    0.98    1.64
  -1   7  -6    3.32    0.98
   1  -7   7    3.65    1.99
   1  -7   8    1.39    1.77
  -1   7  -8    1.09    0.91
   1  -7   9    2.04    1.92
  -1   7  -9    0.89    0.91
  -1   7 -10    4.15    1.23
   1  -7  10    8.68    2.22
   1  -7  11   24.75    3.42
  -1   6  21    3.32    1.04
  -1   6  20    0.53    0.91
  -1   6  19    3.59    1.16
   1  -6 -19    8.55    1.36
   1  -6 -18    8.71    1.42
  -1   6  18    5.18    1.23
  -1   6  17   22.40    2.80
   1  -6 -17   37.35    3.19
  -1   6  16    0.04    0.86
   1  -6 -16   -1.03    1.18
  -1   6  15   11.81    1.57
  -1   6  14   19.45    2.17
  -1   6  14   18.57    2.19
   1  -6 -13   26.69    2.69
  -1   6  13   21.73    2.41
  -1   6  13   21.33    2.42
  -1   6  12    3.22    1.08
   1  -6 -12    3.75    1.39
  -1   6  12    4.04    1.20
  -1   6  11    0.39    1.02
   1  -6 -11    0.36    0.62
   1  -6 -11    0.48    1.11
   1  -6 -11    1.10    0.79
  -1   6  11    0.31    0.83
   1  -6 -10   73.74    6.81
   1  -6 -10   70.03    6.39
  -1   6  10   74.62    6.54
  -1   6  10   77.34    6.45
   1  -6 -10   74.12    6.54
   1  -6  -9    4.01    0.92
   1  -6  -9    2.80    0.81
  -1   6   9    3.44    1.12
   1  -6  -9    3.00    1.28
  -1   6   9    2.96    1.05
  -1   6   8    0.16    0.98
   1  -6  -8    0.61    0.66
   1  -6  -8   -0.06    1.03
   1  -6  -8    0.85    0.70
  -1   6   7    2.64    0.92
   1  -6  -7    2.22    1.17
   1  -6  -7    1.59    0.75
  -1   6   6   18.39    2.20
   1  -6  -6   25.13    2.33
   1  -6  -6   24.19    2.56
  -1   6   6   19.52    2.37
  -1   6   6   26.62    2.29
  -1   6   5    2.60    0.92
  -1   6   5    1.27    0.70
   1  -6  -5    2.01    1.04
   1  -6  -5    1.64    0.79
  -1   6   5    1.07    0.90
  -1   6   4   49.11    4.85
   1  -6  -4   63.19    4.82
  -1   6   4   42.27    4.61
  -1   6   4   69.86    4.82
  -1   6   3    8.81    1.37
  -1   6   3    8.43    1.23
   1  -6  -3    9.75    1.59
  -1   6   3   10.28    1.10
   1  -6  -3    9.15    1.22
  -1   6   2   25.65    2.45
  -1   6   2   17.56    2.10
  -1   6   2   29.81    2.27
   1  -6  -2   22.78    2.30
   1  -6  -2   22.57    2.60
   1  -6  -1   13.53    1.96
  -1   6   1   10.13    1.15
   1  -6   0  128.06    9.00
  -1   6   0  128.09    8.89
   1  -6   0  145.94    9.56
  -1   6   0  142.61    9.20
  -1   6  -1    6.93    0.82
  -1   6  -1    8.99    1.31
   1  -6   1   11.21    1.91
   1  -6   1    8.75    1.13
  -1   6  -1   10.60    1.14
  -1   6  -2   18.10    1.63
   1  -6   2   16.59    2.24
  -1   6  -2   13.18    1.35
   1  -6   2   14.19    1.57
  -1   6  -2   13.78    1.73
  -1   6  -3   59.58    4.47
  -1   6  -3   42.78    4.29
   1  -6   3   61.38    5.19
   1  -6   3   54.49    4.47
  -1   6  -3   49.95    4.62
  -1   6  -4   12.21    1.48
   1  -6   4   15.43    2.39
  -1   6  -4   13.19    1.34
   1  -6   4   13.33    1.44
   1  -6   5    9.20    1.98
   1  -6   5   11.62    1.25
  -1   6  -5   10.56    1.35
  -1   6  -5    9.89    1.19
  -1   6  -6   21.87    2.15
  -1   6  -7    9.35    1.28
  -1   6  -7    9.10    1.35
   1  -6   7   10.10    2.23
  -1   6  -8    1.33    0.95
   1  -6   8    0.10    1.67
  -1   6  -9   -1.05    0.99
   1  -6  10   12.51    2.48
  -1   6 -10   11.75    1.64
  -1   6 -11    1.19    1.07
   1  -6  11    0.95    1.72
   1  -6  12   11.17    2.37
  -1   5  21    3.10    1.05
   1  -5 -19    0.68    0.90
   1  -5 -18    2.24    1.00
   1  -5 -16    3.74    1.12
  -1   5  15   32.21    3.50
   1  -5 -15   46.73    3.86
   1  -5 -14    2.81    1.13
  -1   5  14    2.41    1.11
   1  -5 -13    2.69    1.20
  -1   5  13    3.09    1.07
   1  -5 -12    0.80    0.68
   1  -5 -12    0.84    1.07
  -1   5  12    0.28    0.92
   1  -5 -11  191.69   13.35
   1  -5 -11  142.15   12.90
  -1   5  11  152.75   12.91
   1  -5 -11  148.68   13.02
  -1   5  10    6.17    1.19
   1  -5 -10    5.16    0.97
   1  -5 -10    6.67    1.34
   1  -5 -10    5.69    0.93
  -1   5   9   15.19    1.66
   1  -5  -9   12.63    1.47
   1  -5  -9   11.78    1.50
   1  -5  -8  112.92    9.22
  -1   5   8  103.31    9.28
   1  -5  -8  102.48    9.26
   1  -5  -8  116.47    9.55
  -1   5   7    4.57    0.92
   1  -5  -7    3.39    1.17
  -1   5   7    3.63    1.00
   1  -5  -6   16.48    2.02
  -1   5   6   18.02    1.79
  -1   5   6   15.85    1.74
  -1   5   5    5.64    0.97
   1  -5  -5    5.93    1.17
  -1   5   5    5.63    1.08
  -1   5   5    4.54    0.88
   1  -5  -5    5.91    0.99
  -1   5   4   62.99    5.06
   1  -5  -4   49.02    5.27
  -1   5   3    9.59    1.33
  -1   5   3   11.82    1.24
   1  -5  -3    8.20    1.25
   1  -5  -3    8.54    1.49
  -1   5   3    9.78    1.08
  -1   5   2   25.35    2.56
  -1   5   2   25.97    2.29
   1  -5  -2   24.47    2.73
   1  -5  -2   25.36    2.46
  -1   5   1   16.32    1.74
  -1   5   1   13.98    1.45
   1  -5  -1   15.23    1.66
   1  -5  -1   15.08    2.01
  -1   5   0    0.47    0.63
   1  -5   0    0.64    1.13
   1  -5   0    0.02    0.53
  -1   5   0    0.35    0.24
  -1   5   0    0.31    0.60
  -1   5  -1   16.64    1.69
  -1   5  -1   22.45    1.91
   1  -5   1   21.04    2.47
   1  -5   1   22.26    1.92
  -1   5  -1   24.13    2.09
   1  -5   2   10.81    1.18
  -1   5  -2   11.14    1.32
  -1   5  -2   12.91    1.25
  -1   5  -2    8.72    0.99
   1  -5   3   15.64    1.54
   1  -5   3   14.79    2.34
  -1   5  -3   14.45    1.44
  -1   5  -3   15.39    1.59
  -1   5  -3   14.47    1.68
  -1   5  -4   10.36    1.18
   1  -5   4   10.36    2.14
   1  -5   4   10.61    1.18
  -1   5  -4    9.71    1.35
  -1   5  -4   11.33    1.28
   1  -5   5   55.89    4.64
   1  -5   5   54.35    5.44
  -1   5  -5   50.47    4.65
  -1   5  -6    5.88    1.04
   1  -5   6    5.34    1.89
   1  -5   6    4.46    0.73
  -1   5  -7   22.97    1.99
  -1   5  -7   19.15    1.93
  -1   5  -8    0.16    0.89
  -1   5  -8    0.55    0.93
   1  -5   8    0.18    1.44
   1  -5   8    0.03    0.34
  -1   5  -9    2.03    0.93
   1  -5   9    0.67    0.18
  -1   5  -9    0.81    1.03
   1  -5   9    1.33    1.59
  -1   5 -10   -0.11    0.98
   1  -5  10    0.30    1.63
  -1   5 -10    0.55    1.03
   1  -5  11   24.23    3.00
  -1   5 -11   15.75    2.09
   1  -5  12    2.98    1.83
   1  -5  13    3.32    1.74
   1  -5  16   10.72    2.32
   1  -4 -18    3.72    1.04
   1  -4 -17    0.58    0.83
  -1   4  16    5.53    1.33
   1  -4 -16    7.95    1.23
  -1   4  15    0.12    1.12
   1  -4 -15   -0.12    0.80
   1  -4 -14    2.72    0.97
   1  -4 -13    0.36    0.66
  -1   4  13    0.71    0.94
   1  -4 -13   -0.04    0.93
   1  -4 -12    2.52    0.75
   1  -4 -12    4.63    1.07
   1  -4 -12    2.15    0.69
  -1   4  12    2.62    0.98
   1  -4 -11    0.07    0.35
   1  -4 -11   -0.05    0.55
   1  -4 -11    0.97    1.02
  -1   4  11    0.25    0.94
   1  -4 -10   15.89    1.55
   1  -4 -10   13.60    1.59
  -1   4  10   13.04    1.68
   1  -4 -10   16.28    1.88
   1  -4  -9  246.13   19.65
   1  -4  -9  210.52   19.67
   1  -4  -9  259.17   19.90
  -1   4   8   18.46    2.04
   1  -4  -8   21.88    2.02
   1  -4  -8   21.21    2.05
   1  -4  -7   13.75    1.53
  -1   4   7   14.89    1.58
   1  -4  -7   14.29    1.81
   1  -4  -7   14.47    1.58
   1  -4  -6   71.17    6.84
  -1   4   6   90.12    6.88
   1  -4  -6   79.46    7.03
  -1   4   5   18.97    1.91
  -1   4   5   18.65    1.87
   1  -4  -5   21.00    2.12
   1  -4  -5   18.61    1.92
   1  -4  -4   32.63    3.12
  -1   4   4   25.62    2.90
   1  -4  -4   29.13    2.87
  -1   4   4   32.62    2.78
  -1   4   4   35.32    2.86
   1  -4  -3    1.86    0.69
  -1   4   3    2.12    0.53
  -1   4   3    2.54    0.68
   1  -4  -3    1.80    1.00
  -1   4   2   92.96    7.61
   1  -4  -2   92.55    7.99
   1  -4  -2   93.00    7.75
  -1   4   2   81.91    7.78
  -1   4   2   91.28    7.69
   1  -4  -1   26.94    2.80
  -1   4   1   26.61    2.41
  -1   4   1   23.02    2.47
  -1   4   1   27.51    2.30
  -1   4   0  108.14    7.01
   1  -4   0  104.03    7.44
  -1   4   0  102.41    7.12
   1  -4   0   96.26    7.06
  -1   4  -1    1.98    0.64
   1  -4   1    1.49    1.04
  -1   4  -1    1.56    0.30
   1  -4   1    2.41    0.37
  -1   4  -1    0.94    0.60
   1  -4   1    1.25    0.49
   1  -4   2    6.71    0.85
   1  -4   2    7.54    0.78
   1  -4   2    7.28    1.48
  -1   4  -2    7.53    0.93
  -1   4  -2    6.50    0.72
  -1   4  -3    7.45    0.96
  -1   4  -3    5.74    0.92
   1  -4   3    7.14    0.83
  -1   4  -3    8.25    0.83
   1  -4   4    3.24    1.58
  -1   4  -4    5.20    0.86
   1  -4   4    5.49    0.74
  -1   4  -5    0.41    0.63
   1  -4   5   -0.01    0.39
  -1   4  -5   -0.44    0.75
   1  -4   5   -0.49    1.34
  -1   4  -6   92.21    7.68
   1  -4   6   92.17    7.50
   1  -4   6   76.34    7.54
   1  -4   6  109.64    8.45
  -1   4  -6  102.89    7.71
   1  -4   7   16.11    1.61
  -1   4  -7   24.06    1.96
  -1   4  -7   21.68    1.98
   1  -4   7   19.99    2.63
   1  -4   7   17.35    1.59
  -1   4  -8    4.27    1.05
   1  -4   8    1.93    0.32
   1  -4   8    2.15    0.28
  -1   4  -8    3.53    1.06
  -1   4  -9   12.61    1.75
  -1   4  -9   13.59    1.64
   1  -4   9   12.38    2.17
  -1   4 -10    8.22    1.44
  -1   4 -10    6.06    1.36
   1  -4  10    8.51    1.92
  -1   4 -11   25.91    2.70
   1  -4  11   24.20    3.19
   1  -4  12    4.98    1.68
  -1   4 -12    4.32    1.31
   1  -4  13   13.86    2.23
  -1   4 -13    5.77    1.53
   1  -4  14    0.98    1.62
   1  -4  16   27.05    3.28
   1  -4  17    3.31    1.84
  -1   3  17    9.74    1.63
   1  -3 -17    8.05    1.30
  -1   3  16   -0.07    1.17
   1  -3 -16   -0.04    0.79
   1  -3 -15    0.67    0.77
   1  -3 -15    0.98    0.86
  -1   3  14    2.69    1.20
   1  -3 -14    3.82    0.87
   1  -3 -14    4.32    0.93
   1  -3 -14    3.92    1.05
   1  -3 -13   75.27    5.87
  -1   3  13   54.97    5.77
   1  -3 -13   66.90    5.80
   1  -3 -13   69.28    5.88
   1  -3 -12    1.51    0.65
   1  -3 -12    1.39    0.59
  -1   3  12    2.18    1.22
   1  -3 -12    3.30    0.95
   1  -3 -11  143.29   10.88
  -1   3  11  127.51   10.79
   1  -3 -11  114.71   10.76
   1  -3 -11  124.05   10.70
   1  -3 -11  132.66   10.88
   1  -3 -10   30.52    2.68
   1  -3 -10   35.36    2.89
   1  -3 -10   23.98    2.69
   1  -3 -10   29.74    2.82
   1  -3  -9    3.00    0.80
   1  -3  -9    3.61    0.89
  -1   3   9    2.83    0.85
   1  -3  -9    3.22    0.63
   1  -3  -9    1.26    0.45
   1  -3  -8   40.88    3.65
   1  -3  -8   42.07    3.78
  -1   3   8   39.95    3.67
  -1   3   7   84.24    6.67
   1  -3  -7   71.95    6.65
   1  -3  -7   78.22    6.70
   1  -3  -6    8.56    1.27
   1  -3  -6    6.10    0.96
   1  -3  -6    7.64    1.07
  -1   3   6    7.48    1.04
   1  -3  -6    8.41    0.96
   1  -3  -5   14.88    1.73
  -1   3   5   16.43    1.59
   1  -3  -5   16.48    1.61
   1  -3  -5   13.75    1.56
   1  -3  -4    0.20    0.68
   1  -3  -4    0.42    0.90
  -1   3   3  179.88   14.47
  -1   3   3  150.41   14.56
  -1   3   3  177.07   14.52
   1  -3  -3  177.51   14.74
   1  -3  -3  182.64   14.58
  -1   3   2   38.33    3.30
   1  -3  -2   44.64    3.32
  -1   3   2   44.44    3.26
  -1   3   2   44.54    3.13
   1  -3  -1   35.17    3.29
   1  -3  -1   40.25    3.03
  -1   3   1   41.76    2.84
  -1   3   1   42.94    3.01
  -1   3   1   40.22    3.06
  -1   3   0   10.25    1.11
   1  -3   0   10.67    1.04
  -1   3   0   12.33    1.08
  -1   3   0    7.14    0.72
   1  -3   0   11.52    1.55
   1  -3   1   73.09    5.86
  -1   3  -1   78.20    5.85
   1  -3   1   75.37    6.26
  -1   3  -1   69.25    5.88
  -1   3  -1   64.69    5.71
   1  -3   2    1.95    0.35
   1  -3   2    1.53    1.14
  -1   3  -2    1.52    0.36
  -1   3  -2    1.66    0.61
  -1   3  -2    1.34    0.54
   1  -3   2    1.27    0.44
   1  -3   3    2.03    0.43
  -1   3  -3    2.64    0.54
   1  -3   3    2.30    1.18
  -1   3  -3    2.65    0.46
  -1   3  -4    2.33    0.60
  -1   3  -4    2.47    0.66
  -1   3  -5    1.22    0.69
   1  -3   5    1.60    0.37
   1  -3   5    1.92    0.34
   1  -3   5    2.74    1.21
   1  -3   6   16.62    2.30
   1  -3   6   16.75    1.47
  -1   3  -6   17.21    1.73
   1  -3   6   16.26    1.49
  -1   3  -6   17.88    1.74
  -1   3  -7   39.63    2.81
   1  -3   7   28.73    2.45
   1  -3   7   27.32    2.44
   1  -3   7   40.89    3.45
   1  -3   8   10.24    1.86
  -1   3  -8   10.00    1.34
  -1   3  -8    8.70    1.44
  -1   3  -9    0.50    0.99
  -1   3  -9    0.50    1.01
   1  -3   9   -0.21    1.19
   1  -3  10    0.66    1.24
  -1   3 -10    0.12    1.05
  -1   3 -10    0.24    0.95
   1  -3  11    3.27    1.45
  -1   3 -11    1.36    1.13
   1  -3  12    1.75    1.36
  -1   3 -12    0.52    1.19
  -1   3 -13    6.74    1.55
   1  -3  13    9.72    1.97
  -1   3 -14    2.73    1.33
   1  -3  14    2.65    1.64
   1  -3  16    1.83    1.70
   1  -3  18    9.68    2.07
   1  -3  19    0.90    1.60
   1  -2 -17    8.93    1.39
   1  -2 -17    9.24    1.40
  -1   2  17   12.57    1.74
   1  -2 -16    0.23    0.71
  -1   2  16    2.62    1.25
   1  -2 -15   15.41    1.84
  -1   2  15   15.33    1.97
   1  -2 -15   16.76    1.85
  -1   2  14   13.12    1.65
   1  -2 -14   14.82    1.58
   1  -2 -14   10.45    1.37
   1  -2 -14   13.01    1.66
  -1   2  13    1.57    1.21
   1  -2 -13    1.85    0.96
   1  -2 -13    3.13    0.70
   1  -2 -13    2.33    0.80
  -1   2  12   25.33    2.72
   1  -2 -12   29.97    2.84
   1  -2 -12   32.55    2.74
   1  -2 -12   27.52    2.57
   1  -2 -11   93.68    7.90
   1  -2 -11   88.04    7.80
   1  -2 -11   98.31    8.01
   1  -2 -10    0.56    0.48
  -1   2  10    1.23    0.87
   1  -2 -10   -0.05    0.52
   1  -2 -10    0.21    0.63
   1  -2 -10    0.19    0.72
   1  -2  -9   18.00    1.67
   1  -2  -9   16.70    1.63
   1  -2  -9   20.70    1.81
  -1   2   9   15.65    1.71
  -1   2   8   15.46    1.66
   1  -2  -8   17.55    1.57
   1  -2  -8   17.71    1.69
   1  -2  -8   15.78    1.61
   1  -2  -8   12.41    1.49
   1  -2  -7    0.23    0.59
   1  -2  -7   -0.07    0.44
   1  -2  -7   -0.14    0.69
  -1   2   7    0.20    0.84
   1  -2  -7    0.16    0.44
   1  -2  -6   22.35    2.25
   1  -2  -6   20.81    2.22
   1  -2  -6   24.83    2.13
   1  -2  -6   21.15    2.12
  -1   2   6   24.62    2.30
   1  -2  -5    1.79    0.65
   1  -2  -5    2.49    0.58
   1  -2  -5    2.58    0.76
   1  -2  -5    2.34    0.89
   1  -2  -4    3.61    0.63
  -1   2   4    2.28    0.75
   1  -2  -4    3.73    0.73
   1  -2  -4    2.33    0.69
   1  -2  -4    4.40    0.83
   1  -2  -3    0.44    0.44
   1  -2  -3    0.20    0.77
  -1   2   3    0.26    0.60
   1  -2  -2   91.65    7.65
  -1   2   2   92.55    7.60
   1  -2  -2   74.41    7.75
   1  -2  -2   96.14    7.63
  -1   2   1    3.64    0.64
  -1   2   1    2.93    0.35
   1  -2   0    2.99    0.53
  -1   2   0    2.54    0.63
   1  -2   0    1.41    0.97
   1  -2   1   76.60    6.45
   1  -2   2  177.67   15.26
   1  -2   2  183.34   15.30
   1  -2   2  207.22   15.65
  -1   2  -2  189.03   15.26
   1  -2   3    0.96    0.37
   1  -2   3    0.83    0.36
   1  -2   3    0.19    1.00
  -1   2  -3    0.93    0.65
  -1   2  -3    1.20    0.44
  -1   2  -4   75.96    6.07
   1  -2   4   71.58    5.99
   1  -2   4   75.65    6.43
  -1   2  -4   76.01    6.11
   1  -2   4   67.82    5.99
   1  -2   5    0.70    0.20
   1  -2   5    0.35    0.93
  -1   2  -5    0.25    0.58
   1  -2   5    0.88    0.23
  -1   2  -5    0.48    0.62
  -1   2  -6   22.59    1.73
   1  -2   6   17.07    1.38
   1  -2   6   14.63    1.37
  -1   2  -6   22.32    1.72
  -1   2  -7    1.59    0.78
  -1   2  -7    1.90    0.90
  -1   2  -8   30.32    2.96
  -1   2  -8   31.06    2.91
  -1   2  -9   12.91    1.64
  -1   2  -9   13.37    1.70
  -1   2 -10    0.33    0.92
  -1   2 -10    0.47    1.12
  -1   2 -11    7.32    1.43
  -1   2 -13    2.20    1.20
  -1   2 -14    3.25    1.32
   1  -2  14    7.88    1.88
   1  -2  15   -0.51    1.51
   1  -2  15    2.26    1.68
   1  -2  16    0.05    1.49
   1  -2  18    1.25    1.47
   1  -2  19    7.55    1.79
  -1   1  19    3.51    1.48
   1  -1 -18    5.06    1.21
  -1   1  18    9.25    1.67
   1  -1 -17    6.00    1.22
  -1   1  16    0.45    1.24
   1  -1 -16    0.24    0.77
   1  -1 -16   -0.30    0.90
   1  -1 -15   -0.21    0.89
  -1   1  15   -0.81    1.29
   1  -1 -15   -0.39    0.74
   1  -1 -15   -0.11    0.45
   1  -1 -14   -0.16    0.93
  -1   1  14   -0.17    1.16
   1  -1 -14   -0.14    0.52
   1  -1 -13    0.38    0.68
   1  -1 -13    0.29    0.49
  -1   1  13   -0.06    1.11
   1  -1 -13    1.24    0.99
   1  -1 -12   68.45    6.21
   1  -1 -12   73.64    6.14
   1  -1 -12   75.26    6.29
   1  -1 -11   13.32    1.29
   1  -1 -11   11.59    1.21
   1  -1 -11   12.75    1.35
   1  -1 -10   29.09    2.89
   1  -1 -10   32.65    2.77
  -1   1  10   28.11    2.85
   1  -1  -9   -0.36    0.68
  -1   1   9   -0.02    0.77
   1  -1  -9   -0.02    0.42
   1  -1  -9    0.13    0.45
   1  -1  -9    0.17    0.37
   1  -1  -8    5.55    0.91
   1  -1  -8    5.86    0.74
   1  -1  -8    5.89    0.79
  -1   1   8    6.32    0.99
   1  -1  -7  127.34   10.12
   1  -1  -7  103.30   10.08
  -1   1   7  127.50   10.14
   1  -1  -7  131.54   10.19
   1  -1  -7  120.91   10.11
   1  -1  -6   75.20    7.08
   1  -1  -6   93.08    7.12
   1  -1  -6   83.50    7.18
   1  -1  -6   86.33    7.12
   1  -1  -5   37.92    3.12
   1  -1  -5   36.10    3.14
  -1   1   5   34.58    3.17
   1  -1  -5   33.75    3.16
  -1   1   4  184.84   15.08
   1  -1  -4  187.85   15.14
   1  -1  -4  179.50   15.12
  -1   1   4  174.08   15.11
  -1   1   3   96.44    7.92
  -1   1   3   98.13    7.99
   1  -1  -3   99.14    7.90
   1  -1  -3   89.64    7.94
   1  -1  -3   89.28    7.89
  -1   1   2  124.21   11.13
  -1   1   2  147.03   11.11
   1  -1  -2  142.27   11.15
  -1   1   2  135.23   11.26
   1  -1  -2  128.39   11.12
   1  -1  -2  119.00   11.22
  -1   1   2  132.61   11.15
   1  -1  -1   58.31    5.11
   1  -1  -1   55.08    4.90
  -1   1   1   65.85    4.95
   1  -1  -1   59.93    4.97
  -1   1   1   62.52    4.90
  -1   1   1   46.78    5.04
  -1   1   1   57.32    4.97
   1  -1   0    0.79    0.37
  -1   1   0    0.26    0.56
   1  -1   1    7.48    0.85
   1  -1   1   12.64    1.29
  -1   1  -2   12.99    1.20
   1  -1   2   14.37    1.20
   1  -1   2   13.51    1.19
  -1   1  -2   13.33    1.29
   1  -1   3   12.36    1.19
  -1   1  -3   13.31    1.28
   1  -1   3   12.85    1.13
  -1   1  -3   13.78    1.23
   1  -1   4    4.93    0.46
   1  -1   4    4.78    0.46
  -1   1  -5    0.31    0.48
  -1   1  -5    0.93    0.64
  -1   1  -6   80.59    6.67
  -1   1  -6   79.04    6.68
  -1   1  -6   75.55    6.64
  -1   1  -7    4.06    0.82
  -1   1  -7    3.18    0.81
  -1   1  -7    3.20    0.67
  -1   1  -8   68.84    5.95
  -1   1  -8   67.55    5.93
  -1   1  -8   69.17    5.95
  -1   1  -9   23.71    2.48
  -1   1  -9   26.75    2.56
  -1   1  -9   25.43    2.41
  -1   1 -10   12.75    1.44
  -1   1 -10   10.97    1.57
  -1   1 -11   14.75    1.86
  -1   1 -12    3.11    1.15
  -1   1 -13    0.73    1.04
   1  -1  14   23.94    2.68
  -1   1 -14   25.87    2.77
   1  -1  15    2.61    1.34
   1  -1  17    3.03    1.41
   1  -1  18    1.38    1.38
   1   0 -19    2.10    1.07
  -1   0  19    3.02    1.48
  -1   0  18    0.79    1.41
   1   0 -17   18.96    2.33
  -1   0  17   25.08    2.55
   1   0 -16    0.54    0.91
  -1   0  15   -0.15    1.27
   1   0 -15    2.29    1.01
   1   0 -15    0.45    0.81
   1   0 -15    0.20    0.18
  -1   0  14   22.19    2.01
   1   0 -14   20.64    1.66
   1   0 -14   19.23    1.82
   1   0 -13    0.08    0.86
   1   0 -13    0.15    0.37
   1   0 -12   24.49    2.06
   1   0 -12   18.19    2.34
   1   0 -12   22.05    2.03
   1   0 -12   22.32    2.17
  -1   0  12   25.32    2.46
  -1   0  11   25.22    2.53
   1   0 -11   22.64    2.20
   1   0 -11   23.59    2.12
   1   0 -11   22.05    2.37
   1   0 -11   23.90    2.09
   1   0 -10   32.35    3.00
   1   0 -10   35.21    3.04
  -1   0  10   37.25    3.33
   1   0 -10   38.81    3.30
   1   0 -10   34.84    3.10
  -1   0   9    1.04    0.97
   1   0  -9    0.40    0.69
   1   0  -9    0.13    0.34
   1   0  -8   23.62    2.15
   1   0  -8   24.51    2.30
  -1   0   8   25.91    2.39
   1   0  -8   22.45    2.11
   1   0  -7   68.57    5.60
   1   0  -7   67.11    5.60
  -1   0   7   63.59    5.56
   1   0  -6   44.04    3.77
   1   0  -6   44.52    3.79
  -1   0   6   47.59    3.97
  -1   0   6   43.41    3.77
   1   0  -5  397.80   32.79
  -1   0   5  386.50   32.80
  -1   0   5  401.08   32.81
   1   0  -5  417.49   32.82
  -1   0   5  378.95   32.87
   1   0  -5  393.98   32.87
  -1   0   4   85.48    6.94
  -1   0   4   83.46    7.01
   1   0  -4   91.29    6.93
  -1   0   4   83.72    6.94
   1   0  -4   75.18    6.95
   1   0  -4   75.93    6.98
  -1   0   3    0.36    0.28
  -1   0   3    0.80    0.70
   1   0  -3    0.90    0.29
   1   0  -3    0.36    0.43
   1   0  -3    0.24    0.34
   1   0  -2   15.12    1.45
  -1   0   2   17.40    1.42
   1   0  -2   16.20    1.43
  -1   0   2   16.92    1.46
  -1   0   2   16.49    1.44
  -1   0   2   15.65    1.56
   1   0  -2   14.20    1.42
   1   0  -1   63.74    5.89
   1   0  -1   73.65    5.91
  -1   0   1   71.71    5.89
  -1   0   1   70.06    5.87
  -1   0   1   74.98    5.91
   1   0  -1   70.82    5.88
   1   0   0    1.61    0.32
   1   0   0    1.63    0.30
  -1   0   0    1.45    0.30
   1   0   0    2.02    0.30
   1   0   0    1.72    0.48
  -1   0   0    2.18    0.34
   1   0   1   60.76    4.48
   1   0   1   52.47    4.48
  -1   0  -1   52.35    4.47
  -1   0  -1   58.90    4.50
  -1   0  -1   53.77    4.46
  -1   0  -1   52.21    4.46
   1   0   1   46.53    4.47
   1   0   2   19.02    1.46
  -1   0  -2   17.32    1.48
   1   0   2   15.37    1.41
   1   0   2   15.91    1.48
  -1   0  -3   85.45    6.37
  -1   0  -3   85.65    6.32
  -1   0  -4    3.91    0.64
  -1   0  -4    5.01    0.71
  -1   0  -4    5.77    0.65
  -1   0  -5  272.96   22.25
  -1   0  -5  264.15   22.21
  -1   0  -6  183.10   16.15
  -1   0  -6  203.89   16.15
  -1   0  -7    0.06    0.49
  -1   0  -7    0.02    0.58
  -1   0  -7   -0.19    0.72
  -1   0  -8   17.20    1.64
  -1   0  -8   14.96    1.70
  -1   0  -9    1.78    0.65
  -1   0  -9    2.33    0.76
  -1   0 -10   -0.03    0.64
  -1   0 -11   94.00    7.55
  -1   0 -11   80.05    7.54
  -1   0 -12   24.65    2.45
   1   0  12   22.27    2.41
  -1   0 -13    0.12    0.82
  -1   0 -13    0.51    0.98
   1   0  13   -0.47    1.06
  -1   0 -14   11.34    1.58
   1   0  14   10.59    1.59
  -1   0 -15    2.58    1.01
   1   0  15    4.11    1.30
   1   0  16    3.11    1.33
  -1   0 -16    2.03    0.96
   1   0  17   22.77    2.62
   1   0  18    2.75    1.39
  -1  -1  20    2.85    1.53
  -1  -1  19    2.99    1.56
   1   1 -19    2.24    1.13
   1   1 -18    1.33    1.08
  -1  -1  17    4.10    1.60
   1   1 -17    0.05    1.03
  -1  -1  16   25.84    2.50
   1   1 -16   15.89    2.32
   1   1 -13   14.23    1.53
  -1  -1  13   18.34    1.67
  -1  -1  12    0.53    1.21
   1   1 -12    0.04    0.22
   1   1 -12    0.26    0.29
   1   1 -12    0.84    0.88
   1   1 -11    0.67    0.51
  -1  -1  11    0.13    1.16
   1   1 -11    0.11    0.83
   1   1 -11    0.83    0.30
   1   1 -10    2.28    0.58
   1   1 -10    2.13    0.40
   1   1 -10    3.19    0.94
  -1  -1  10    2.72    1.29
   1   1  -9   75.43    6.56
  -1  -1   9   74.71    6.32
  -1  -1   9   78.33    6.60
   1   1  -8   16.85    2.03
   1   1  -8   23.31    1.92
   1   1  -7   10.19    0.95
  -1  -1   7    9.02    0.88
  -1  -1   7    8.37    1.39
   1   1  -7    8.48    0.89
   1   1  -7    9.17    1.16
  -1  -1   6   84.74    6.68
  -1  -1   6   75.81    6.87
   1   1  -6   79.90    6.80
   1   1  -6   74.50    6.68
   1   1  -6   81.78    6.69
  -1  -1   5   33.17    2.83
   1   1  -5   28.10    2.85
  -1  -1   5   29.22    3.17
  -1  -1   5   34.61    2.87
   1   1  -5   38.77    2.86
   1   1  -5   34.88    2.98
  -1  -1   4    3.24    0.34
   1   1  -4    2.37    0.58
  -1  -1   4    2.57    0.41
  -1  -1   4    2.67    0.91
   1   1  -3   43.67    3.29
  -1  -1   3   39.15    3.34
   1   1  -3   34.36    3.21
  -1  -1   2   11.26    1.26
  -1  -1   2   11.79    1.02
   1   1  -2   10.18    1.02
  -1  -1   1    8.79    0.92
   1   1  -1    9.60    0.92
  -1  -1   1   11.67    0.96
   1   1   0   11.99    1.29
   1   1   0   13.14    1.31
  -1  -1   0   15.32    1.34
  -1  -1   0   14.01    1.29
  -1  -1   0   16.75    1.29
   1   1   0   18.90    1.29
   1   1   0   11.25    1.32
  -1  -1  -1   17.94    1.64
   1   1   1   20.24    1.69
  -1  -1  -1   21.94    1.68
   1   1   1   23.80    1.68
  -1  -1  -2    1.70    0.32
  -1  -1  -2    2.14    0.43
   1   1   2    2.28    0.47
  -1  -1  -2    1.88    0.42
  -1  -1  -3  236.06   17.58
  -1  -1  -3  210.51   17.49
  -1  -1  -3  208.68   17.52
   1   1   3  200.77   17.57
  -1  -1  -4  350.25   26.74
  -1  -1  -4  317.26   26.66
   1   1   4  305.83   26.66
   1   1   4  331.48   26.65
   1   1   5   42.38    3.76
  -1  -1  -5   45.76    3.76
  -1  -1  -5   49.04    3.88
   1   1   6    1.04    0.32
  -1  -1  -6    1.02    0.26
  -1  -1  -7  150.52   11.84
  -1  -1  -7  149.28   11.84
  -1  -1  -7  136.78   11.66
  -1  -1  -8    1.94    0.26
  -1  -1  -8    1.86    0.31
  -1  -1  -8    2.29    0.66
  -1  -1  -9    2.19    0.72
   1   1   9    1.59    0.82
  -1  -1  -9    1.79    0.64
  -1  -1  -9    1.03    0.25
  -1  -1  -9    1.03    0.19
  -1  -1 -10   41.70    3.32
  -1  -1 -10   46.84    3.29
  -1  -1 -11   58.24    2.33
   1   1  11   59.60    2.29
  -1  -1 -11   50.49    2.29
   1   1  12   12.30    1.62
  -1  -1 -12   11.26    1.47
   1   1  13   22.00    2.31
   1   1  14    1.74    1.02
  -1  -1 -14    1.38    0.87
   1   1  15   -0.42    1.05
  -1  -1 -15    0.18    0.86
  -1  -1 -16    0.64    0.94
   1   1  16    0.47    1.20
  -1  -1 -17   -0.43    1.01
   1   1  17    0.92    1.17
  -1  -1 -18   25.45    2.79
  -1  -2  20   16.47    2.28
   1   2 -19    1.17    1.14
  -1  -2  19    2.46    1.53
   1   2 -18    2.33    1.32
  -1  -2  18    7.23    1.64
  -1  -2  17   14.76    2.22
   1   2 -16    2.65    1.27
  -1  -2  16    3.65    1.56
   1   2 -15    2.92    1.18
   1   2 -14    4.66    1.30
   1   2 -13    0.48    1.00
  -1  -2  13    0.87    1.17
  -1  -2  13   -1.49    1.46
  -1  -2  12   13.34    1.91
   1   2 -12   11.27    1.60
  -1  -2  12   14.01    1.90
   1   2 -11    0.03    0.17
  -1  -2  11   -1.00    1.38
  -1  -2  11    1.28    1.07
  -1  -2  10    5.85    0.66
  -1  -2  10    6.39    1.48
   1   2 -10    7.79    0.68
   1   2  -9    0.24    0.73
  -1  -2   9    0.16    0.26
   1   2  -9    0.05    0.26
  -1  -2   8   49.58    4.02
   1   2  -8   41.69    3.67
   1   2  -8   42.21    3.89
  -1  -2   8   43.92    3.67
   1   2  -7   26.18    2.71
  -1  -2   7   35.37    2.85
  -1  -2   6   10.67    1.06
  -1  -2   6   10.88    1.32
   1   2  -6   11.69    1.05
   1   2  -6   10.93    1.23
  -1  -2   5    0.16    0.33
   1   2  -5   -0.05    0.54
  -1  -2   5   -0.18    0.68
   1   2  -5    0.26    0.31
   1   2  -4  116.51    8.74
  -1  -2   4  104.88    8.64
   1   2  -4  108.91    8.65
  -1  -2   4  104.52    8.74
  -1  -2   4   93.25    8.62
  -1  -2   3  138.03   12.07
   1   2  -3  144.88   12.00
   1   2  -3  157.10   12.05
  -1  -2   3  139.63   11.99
   1   2  -2  122.57    9.48
   1   2  -2  107.98    9.50
   1   2  -2  118.07    9.51
  -1  -2   2  117.98    9.57
  -1  -2   2  105.91    9.47
  -1  -2   1  197.20   14.81
   1   2  -1  185.19   14.77
   1   2  -1  166.38   14.74
   1   2  -1  175.39   14.74
   1   2  -1  172.57   14.80
  -1  -2   0   67.45    6.02
   1   2   0   73.46    6.05
   1   2   0   72.97    6.08
  -1  -2   0   82.25    6.13
   1   2   0   70.81    6.06
   1   2   0   72.18    6.10
  -1  -2   0   74.41    6.06
   1   2   1    2.85    0.50
   1   2   1    3.37    0.48
  -1  -2  -1    3.11    0.50
  -1  -2  -1    3.79    0.67
   1   2   1    4.03    0.61
  -1  -2  -1    3.09    0.44
   1   2   2    0.52    0.54
  -1  -2  -2    0.15    0.36
  -1  -2  -2    0.08    0.22
  -1  -2  -2    0.36    0.51
   1   2   2   -0.02    0.39
   1   2   3   23.98    2.13
  -1  -2  -3   28.13    2.24
  -1  -2  -3   22.86    2.12
   1   2   4    1.37    0.40
   1   2   4    1.24    0.54
  -1  -2  -4    1.91    0.37
  -1  -2  -4    1.91    0.57
  -1  -2  -5    5.00    0.78
  -1  -2  -5    3.78    0.53
   1   2   5    4.77    0.53
   1   2   5    5.04    0.57
   1   2   6   79.53    7.25
  -1  -2  -6   88.66    7.39
  -1  -2  -6   78.31    7.26
   1   2   6  103.57    7.26
  -1  -2  -7    0.64    0.50
   1   2   7    0.28    0.38
   1   2   7    0.54    0.62
  -1  -2  -8   37.75    3.11
   1   2   8   32.73    2.97
  -1  -2  -8   34.40    2.94
   1   2   8   34.31    3.01
  -1  -2  -9    7.80    0.78
  -1  -2 -10   25.09    2.60
  -1  -2 -10   28.95    2.40
   1   2  10   26.96    2.55
  -1  -2 -10   27.58    2.44
  -1  -2 -11   19.62    1.70
   1   2  11   19.86    1.95
  -1  -2 -11   18.43    1.76
  -1  -2 -11   19.66    2.01
  -1  -2 -12   35.50    3.18
  -1  -2 -12   39.26    3.53
   1   2  12   39.26    3.43
  -1  -2 -12   39.94    3.25
   1   2  13   16.43    1.41
  -1  -2 -13    9.79    0.93
  -1  -2 -13   17.19    1.52
  -1  -2 -14   11.87    1.28
   1   2  14   12.69    1.22
   1   2  15   26.13    2.68
  -1  -2 -15   27.81    2.76
  -1  -2 -16    0.23    0.87
   1   2  16   -0.40    1.08
  -1  -2 -18    5.06    1.29
  -1  -2 -19    0.69    1.01
   1   2  21    3.49    1.23
   1   3 -19    1.39    1.11
   1   3 -18   -0.10    1.15
  -1  -3  18    0.05    1.51
  -1  -3  17   47.34    3.93
   1   3 -17   29.74    3.71
  -1  -3  16    3.51    1.68
   1   3 -16    1.52    1.25
  -1  -3  15    9.06    1.84
   1   3 -15    6.67    1.53
  -1  -3  14   -0.09    1.41
   1   3 -14   -0.49    1.13
   1   3 -13    5.85    1.31
  -1  -3  13    7.39    1.66
  -1  -3  12   -0.62    1.47
  -1  -3  12   -0.30    1.17
   1   3 -12    0.30    1.05
   1   3 -11    5.62    0.53
   1   3 -11    8.21    1.27
  -1  -3  11    8.20    1.62
  -1  -3  11    5.10    0.50
  -1  -3  11    6.84    1.46
   1   3 -10    3.33    1.01
  -1  -3  10    2.76    0.35
   1   3 -10    2.92    0.39
   1   3  -9    0.69    0.92
  -1  -3   9    0.91    0.32
  -1  -3   9    0.59    0.94
   1   3  -9    1.07    0.32
  -1  -3   8   23.05    1.98
   1   3  -8   20.79    1.96
  -1  -3   8   23.45    2.48
   1   3  -8   24.06    2.29
  -1  -3   7    8.96    0.91
  -1  -3   7   10.55    1.38
   1   3  -7    7.20    1.11
   1   3  -6   43.45    3.67
  -1  -3   6   42.53    3.69
  -1  -3   5    2.51    0.45
   1   3  -5    2.28    0.40
  -1  -3   5    1.32    0.79
  -1  -3   4    0.09    0.33
   1   3  -4   -0.08    0.32
   1   3  -4   -0.20    0.67
  -1  -3   4   -0.37    0.77
   1   3  -4   -0.11    0.50
   1   3  -3    0.27    0.75
   1   3  -3    0.30    0.35
  -1  -3   3    0.01    0.39
   1   3  -3    0.40    0.54
  -1  -3   3    0.49    0.78
   1   3  -2   58.85    4.85
  -1  -3   2   61.76    5.03
   1   3  -2   54.41    4.79
  -1  -3   2   56.50    4.81
   1   3  -2   54.93    4.85
   1   3  -1   98.79    7.55
  -1  -3   1   84.94    7.50
   1   3  -1   87.21    7.50
   1   3   0    9.40    1.02
   1   3   0   12.05    1.11
  -1  -3   0   11.69    1.29
  -1  -3   0    9.29    1.04
   1   3   1   70.60    6.26
  -1  -3  -1   78.53    6.39
  -1  -3  -1   76.07    6.26
   1   3   1   77.95    6.28
   1   3   1   71.84    6.20
   1   3   2   88.65    7.92
  -1  -3  -2   99.13    8.06
   1   3   2   94.05    7.85
   1   3   2   99.20    7.96
   1   3   3  118.79    9.23
   1   3   3   95.38    9.21
  -1  -3  -3  113.44    9.11
   1   3   3  109.40    9.10
  -1  -3  -3  108.58    9.19
   1   3   4   18.52    1.68
  -1  -3  -4   18.82    1.78
   1   3   4   17.22    1.49
   1   3   4   16.18    1.63
  -1  -3  -4   17.47    1.50
  -1  -3  -4   15.18    1.60
   1   3   5  115.96    9.93
   1   3   5  124.37   10.08
  -1  -3  -5  118.44    9.94
  -1  -3  -5  119.14   10.03
   1   3   5  132.46   10.11
  -1  -3  -5  135.65   10.19
   1   3   6   17.42    1.66
   1   3   6   19.08    1.54
  -1  -3  -6   18.30    1.62
  -1  -3  -6   14.87    1.52
   1   3   6   20.63    1.82
  -1  -3  -6   16.00    1.75
  -1  -3  -7   37.70    3.11
  -1  -3  -7   31.90    2.93
   1   3   7   36.27    3.11
   1   3   7   32.31    2.97
  -1  -3  -8    0.03    0.33
  -1  -3  -8    0.11    0.57
   1   3   8   -0.02    0.40
   1   3   8    0.11    0.55
  -1  -3  -9   80.94    7.11
  -1  -3  -9   83.92    7.25
   1   3   9   87.88    7.10
  -1  -3 -10    3.96    0.56
   1   3  10    4.00    0.78
   1   3  11  125.07   10.16
  -1  -3 -11  128.08   10.31
  -1  -3 -11  113.62   10.15
  -1  -3 -12   61.87    5.67
   1   3  12   61.34    5.53
  -1  -3 -12   70.05    5.46
  -1  -3 -12   60.86    5.50
  -1  -3 -13   21.61    2.23
   1   3  13   25.04    2.17
  -1  -3 -13   19.88    1.99
   1   3  14    5.98    1.05
  -1  -3 -14    5.50    1.05
  -1  -3 -14    4.42    0.71
  -1  -3 -15    4.15    0.69
   1   3  15    6.19    1.07
  -1  -3 -15    5.01    1.13
  -1  -3 -16    1.22    0.84
  -1  -3 -16    1.43    0.43
  -1  -3 -17    0.64    0.84
  -1  -3 -18    2.57    1.02
  -1  -3 -19    5.29    1.24
   1   3  21    3.00    1.13
   1   4 -18    1.62    1.19
  -1  -4  18    5.05    1.77
  -1  -4  17   22.54    2.52
   1   4 -17   14.41    2.25
   1   4 -16    3.43    1.39
  -1  -4  15   12.87    2.02
   1   4 -15   10.04    1.81
   1   4 -14    3.72    1.27
  -1  -4  14    3.76    1.60
   1   4 -13   23.31    2.70
  -1  -4  13   26.39    2.86
  -1  -4  12    4.42    1.45
   1   4 -11   17.11    1.57
   1   4 -11    9.75    0.69
  -1  -4  11   15.81    1.92
   1   4 -10   15.90    1.85
  -1  -4  10   14.49    1.33
   1   4 -10   14.51    1.37
  -1  -4  10   18.23    2.15
   1   4  -9    0.95    0.92
   1   4  -9    0.55    0.39
  -1  -4   8   23.15    2.73
   1   4  -8   24.28    2.27
  -1  -4   8   27.65    2.30
   1   4  -8   25.84    2.61
   1   4  -7   -0.03    0.72
  -1  -4   7    0.82    1.06
   1   4  -7    0.31    0.37
  -1  -4   7    0.42    0.44
  -1  -4   6  117.94   11.56
  -1  -4   6  143.82   11.30
   1   4  -6  127.90   11.39
   1   4  -6  137.26   11.29
   1   4  -5    6.52    0.75
   1   4  -5    5.54    0.95
   1   4  -5    4.96    0.88
  -1  -4   5    5.93    0.74
   1   4  -4    3.06    0.74
  -1  -4   4    1.73    0.45
   1   4  -4    2.31    0.66
  -1  -4   4    1.76    0.90
  -1  -4   3   10.18    1.38
   1   4  -3    9.31    1.08
  -1  -4   3    8.27    0.95
   1   4  -3    7.89    1.01
   1   4  -3    8.57    0.93
   1   4  -2    1.51    0.68
  -1  -4   2    0.90    0.47
   1   4  -2    1.62    0.46
  -1  -4   2    1.95    1.02
   1   4  -2    2.08    0.63
   1   4  -1    0.06    0.63
  -1  -4   1    0.05    0.47
  -1  -4   1   -0.25    1.00
   1   4  -1    0.05    0.45
   1   4   0   76.84    6.70
  -1  -4   0   80.57    6.70
   1   4   0   78.19    6.66
  -1  -4   0   82.75    6.94
  -1  -4  -1  178.94   15.24
   1   4   1  171.81   15.24
   1   4   1  198.41   15.28
  -1  -4  -1  187.81   15.43
   1   4   2    3.75    0.72
   1   4   2    4.35    0.68
  -1  -4  -2    5.48    1.09
  -1  -4  -2    4.26    0.75
  -1  -4  -3    0.66    0.52
   1   4   3    0.75    0.64
  -1  -4  -3    1.26    0.91
   1   4   3    1.06    0.58
   1   4   3    0.53    0.52
  -1  -4  -4  136.76   11.38
   1   4   4  133.14   11.11
   1   4   4  133.54   11.24
   1   4   5    5.75    0.73
  -1  -4  -5    4.36    0.66
  -1  -4  -5    6.00    0.77
   1   4   5    6.35    0.87
   1   4   5    6.37    0.89
  -1  -4  -6    0.18    0.62
   1   4   6   -0.05    0.62
  -1  -4  -6    0.31    0.51
   1   4   6   -0.12    0.53
  -1  -4  -7  142.93   11.23
  -1  -4  -7  140.15   11.08
   1   4   7  139.57   10.97
   1   4   7  145.15   11.14
  -1  -4  -7  113.36   10.94
   1   4   7  148.25   11.19
  -1  -4  -8   63.54    5.94
  -1  -4  -8   63.88    5.80
   1   4   8   71.12    5.96
   1   4   8   61.87    5.86
   1   4   8   74.14    5.72
  -1  -4  -9   97.86    8.33
  -1  -4  -9   95.38    8.49
   1   4   9   97.57    8.25
   1   4   9   98.52    8.38
   1   4   9  107.74    8.53
   1   4  10    2.38    0.83
   1   4  10    1.78    0.66
   1   4  10    1.44    0.57
  -1  -4 -10    1.66    0.48
  -1  -4 -10    1.31    0.72
  -1  -4 -11    0.53    0.45
   1   4  11    0.35    0.75
  -1  -4 -11    0.17    0.69
   1   4  11   -0.06    0.51
  -1  -4 -12    7.58    0.91
   1   4  12    6.62    1.06
  -1  -4 -12    7.29    1.11
  -1  -4 -12    8.69    0.96
  -1  -4 -13    1.24    0.73
  -1  -4 -13    0.36    0.46
   1   4  13    0.03    0.78
  -1  -4 -14    1.71    0.55
   1   4  14    1.52    0.87
  -1  -4 -14    3.22    0.90
   1   4  16   11.55    1.71
  -1  -4 -16   16.62    1.78
  -1  -4 -17    2.59    0.99
   1   4  17    0.85    0.83
  -1  -4 -18    5.98    1.19
   1   4  18    4.99    1.14
  -1  -4 -19   22.75    2.53
   1   4  19   22.46    2.48
   1   4  20   -0.10    0.96
  -1  -4 -20    0.21    0.91
   1   4  21   18.98    2.22
   1   5 -17    7.55    1.60
  -1  -5  17    9.19    2.00
   1   5 -16    5.64    1.49
  -1  -5  16    7.87    1.89
   1   5 -15    1.11    1.17
  -1  -5  15    0.69    1.60
  -1  -5  14   -1.91    1.56
   1   5 -14    0.38    1.15
   1   5 -13    9.98    1.65
  -1  -5  13    9.70    1.96
  -1  -5  11   23.98    2.86
   1   5 -11   25.92    2.74
   1   5 -10    3.38    0.62
  -1  -5  10    3.53    0.52
  -1  -5  10    3.74    1.24
   1   5  -9    2.51    0.96
  -1  -5   9    1.76    1.10
   1   5  -9    1.06    0.53
  -1  -5   9    1.42    0.49
  -1  -5   8    0.08    0.52
   1   5  -8    0.13    0.51
   1   5  -8    1.00    0.89
  -1  -5   8   -0.29    1.04
  -1  -5   7   52.83    4.51
  -1  -5   7   48.49    4.86
   1   5  -6   10.26    1.31
   1   5  -6    7.96    1.19
   1   5  -6    7.80    1.02
  -1  -5   6    8.29    1.56
  -1  -5   5    4.55    1.26
   1   5  -5    4.26    0.71
   1   5  -5    4.57    0.89
   1   5  -5    4.69    0.95
  -1  -5   5    4.57    0.75
   1   5  -4   53.35    4.51
  -1  -5   4   46.96    4.70
   1   5  -4   50.86    4.42
  -1  -5   4   55.81    4.43
   1   5  -4   44.41    4.44
  -1  -5   3   12.15    1.19
   1   5  -3   10.48    1.23
   1   5  -3    9.98    1.15
  -1  -5   3    7.84    1.60
   1   5  -3   11.01    1.32
   1   5  -2    8.20    1.05
  -1  -5   2    6.78    1.37
   1   5  -2    7.51    0.94
  -1  -5   2    8.52    0.96
   1   5  -2    7.54    1.07
  -1  -5   1   19.93    2.10
   1   5  -1   19.27    1.80
   1   5  -1   17.20    1.76
  -1  -5   1   16.17    1.71
   1   5   0   21.93    2.23
   1   5   0   29.37    2.33
  -1  -5   0   22.03    2.47
  -1  -5   0   22.24    2.19
   1   5   1    3.45    0.72
   1   5   1    4.36    0.76
  -1  -5  -1    4.46    1.11
   1   5   1    4.46    0.86
  -1  -5  -2  133.60   11.49
  -1  -5  -2  130.43   11.75
   1   5   2  126.20   11.51
   1   5   2  150.14   11.45
   1   5   2  135.69   11.55
  -1  -5  -3    6.96    0.97
   1   5   3    8.91    1.06
  -1  -5  -3    8.56    1.36
   1   5   3    6.92    0.92
   1   5   3    8.77    1.10
  -1  -5  -4  157.27   13.56
  -1  -5  -4  150.48   13.32
   1   5   4  171.87   13.40
  -1  -5  -5    0.70    0.79
   1   5   5    0.01    0.45
  -1  -5  -5    0.18    0.52
   1   5   5   -0.15    0.57
   1   5   6   15.86    1.62
   1   5   6   15.40    1.63
  -1  -5  -6   14.28    1.54
   1   5   6   15.41    1.43
   1   5   7    9.42    1.15
   1   5   7    7.87    0.95
  -1  -5  -7    9.61    1.31
  -1  -5  -7    8.91    1.02
   1   5   7    9.17    1.17
  -1  -5  -8   80.05    7.27
   1   5   8   91.73    7.24
  -1  -5  -8   81.19    7.09
   1   5   8   82.66    6.98
   1   5   9    2.10    0.59
  -1  -5  -9    2.05    0.56
   1   5   9    3.18    0.90
   1   5   9    1.51    0.65
  -1  -5  -9    2.63    0.90
  -1  -5 -10   91.81    7.65
  -1  -5 -10   83.77    7.82
   1   5  10   86.70    7.69
   1   5  10   98.25    7.85
  -1  -5 -11  174.28   13.88
   1   5  11  171.87   13.71
   1   5  11  144.87   13.56
   1   5  11  198.32   13.91
  -1  -5 -12   -0.63    0.87
   1   5  12    1.20    0.67
   1   5  12    0.46    0.84
  -1  -5 -13   14.48    1.71
  -1  -5 -13   13.41    1.50
   1   5  13   13.98    1.73
  -1  -5 -14    1.11    0.79
   1   5  14    0.93    0.89
  -1  -5 -15   23.86    2.33
   1   5  15   20.07    2.31
   1   5  16    1.57    0.84
  -1  -5 -17    0.41    0.87
   1   5  17    0.48    0.77
  -1  -5 -18    2.20    0.95
   1   5  19    1.72    0.94
   1   5  20   -0.05    0.91
  -1  -5 -20    0.58    0.95
   1   5  21   25.14    2.69
  -1  -6  15   17.04    2.49
   1   6 -14    0.78    1.24
  -1  -6  14   -1.57    1.74
   1   6 -13    1.72    1.24
   1   6 -12   18.98    2.27
  -1  -6  10    1.34    1.23
   1   6 -10    1.80    1.00
   1   6  -9    0.53    0.95
  -1  -6   9    0.99    1.16
   1   6  -8    2.87    0.76
   1   6  -8    3.06    1.02
  -1  -6   8    4.25    1.31
  -1  -6   7    5.96    1.41
   1   6  -7    4.37    1.10
   1   6  -7    5.98    1.18
  -1  -6   7    5.58    0.92
   1   6  -7    6.02    0.89
   1   6  -6   20.19    2.07
  -1  -6   6   17.33    2.33
  -1  -6   6   21.34    1.95
   1   6  -6   16.44    2.01
   1   6  -6   19.59    1.93
   1   6  -5  112.90    9.21
  -1  -6   5  110.64    9.56
   1   6  -5  112.21    9.26
  -1  -6   5  107.62    9.18
   1   6  -5   98.79    9.20
  -1  -6   4    2.72    1.28
   1   6  -4    1.12    0.84
  -1  -6   4    1.30    0.68
   1   6  -4    0.72    0.76
   1   6  -3   34.68    3.45
   1   6  -3   37.63    3.54
   1   6  -3   41.94    3.53
  -1  -6   3   38.32    3.84
  -1  -6   3   40.09    3.50
  -1  -6   2    0.92    0.58
   1   6  -2    0.83    0.65
   1   6  -2    1.02    0.81
  -1  -6   2    0.27    1.16
   1   6  -1   31.44    3.00
   1   6  -1   32.63    3.05
  -1  -6   1   34.41    3.39
  -1  -6   1   32.48    3.00
   1   6   0  172.38   14.57
  -1  -6   0  131.88   14.68
   1   6   0  189.07   14.61
   1   6   0  184.57   14.49
  -1  -6   0  173.61   14.53
   1   6   1    0.03    0.59
   1   6   1    0.27    0.79
  -1  -6  -1   -0.05    0.47
   1   6   1   -0.53    0.69
  -1  -6  -2    1.66    1.02
   1   6   2    1.19    0.69
   1   6   2    0.85    0.80
   1   6   2    0.88    0.72
  -1  -6  -2    0.97    0.58
   1   6   3   13.08    1.34
   1   6   3   11.28    1.44
  -1  -6  -3   10.80    1.72
   1   6   3   14.20    1.49
  -1  -6  -3   13.30    1.40
  -1  -6  -4   51.79    4.27
  -1  -6  -4   48.37    4.59
   1   6   4   56.10    4.38
   1   6   4   43.35    4.13
   1   6   4   46.03    4.28
  -1  -6  -5   24.68    2.90
   1   6   5   30.39    2.76
  -1  -6  -5   27.86    2.61
   1   6   5   28.98    2.52
   1   6   5   27.18    2.66
  -1  -6  -6   -0.05    0.90
   1   6   6    0.18    0.71
   1   6   6    0.24    0.75
   1   6   6    0.43    0.53
   1   6   7    5.91    1.04
  -1  -6  -7    5.60    0.87
   1   6   7    5.63    1.08
   1   6   7    5.73    0.82
  -1  -6  -8    3.38    0.70
   1   6   8    3.24    0.88
   1   6   8    2.16    0.99
  -1  -6  -8    3.85    1.11
  -1  -6  -9    9.77    1.16
   1   6   9    9.82    1.33
  -1  -6  -9   10.45    1.47
   1   6  10  178.71   13.53
  -1  -6 -10  153.41   13.52
   1   6  10  150.08   13.37
  -1  -6 -10  156.83   13.30
   1   6  10  157.97   13.18
  -1  -6 -11   -0.07    0.50
   1   6  11    0.40    0.64
   1   6  11   -0.35    0.68
   1   6  11    0.78    0.86
  -1  -6 -11   -0.18    0.91
   1   6  12   50.45    3.98
   1   6  12   37.99    3.57
  -1  -6 -13   63.98    5.56
   1   6  13   57.78    5.47
  -1  -6 -14   10.33    1.51
   1   6  14   10.05    1.47
  -1  -6 -15    0.23    0.85
   1   6  15    0.29    0.82
   1   6  16    0.17    0.82
  -1  -6 -16    0.59    0.75
  -1  -6 -17   47.07    3.90
   1   6  17   34.61    3.73
  -1  -6 -18   -0.35    0.91
   1   6  18    0.69    0.85
  -1  -6 -19    5.59    1.22
   1   6  19    2.96    1.08
   1   6  20   -0.18    0.90
  -1  -6 -20    1.52    1.02
  -1  -6 -21    2.57    1.15
   1   6  21    1.20    0.99
  -1  -7  14   -1.07    1.78
  -1  -7  13   -0.11    1.71
   1   7 -11    0.81    1.07
   1   7 -10   14.76    1.95
   1   7  -9    7.37    1.36
  -1  -7   9    6.74    1.65
  -1  -7   8    1.22    1.23
   1   7  -8    0.36    0.95
   1   7  -7   -0.11    0.84
   1   7  -7   -0.03    0.94
   1   7  -6    5.61    1.16
  -1  -7   6    6.96    1.60
   1   7  -5    2.89    1.02
   1   7  -5    2.12    0.89
   1   7  -5    3.63    0.84
  -1  -7   5    2.81    1.35
   1   7  -4    0.67    0.77
   1   7  -4    1.30    0.76
   1   7  -4   -0.03    0.97
  -1  -7   4    0.73    1.29
  -1  -7   4    1.76    0.77
  -1  -7   3    0.30    0.67
   1   7  -3    0.31    0.82
   1   7  -3    1.00    0.71
   1   7  -3   -0.14    0.76
  -1  -7   2    3.45    1.34
   1   7  -2    3.11    0.96
  -1  -7   2    4.77    0.91
   1   7  -2    4.75    0.94
  -1  -7   1   27.58    2.47
   1   7  -1   29.81    2.55
   1   7  -1   22.86    2.48
   1   7  -1   25.45    2.55
  -1  -7   0   22.61    2.06
   1   7   0   19.79    2.06
   1   7   0   17.20    2.10
  -1  -7   0   18.91    2.41
   1   7   1   52.91    4.63
  -1  -7  -1   44.80    4.81
   1   7   1   51.13    4.47
  -1  -7  -1   49.65    4.52
   1   7   1   52.91    4.61
   1   7   2  209.97   17.75
   1   7   2  205.55   17.88
   1   7   2  224.58   17.93
  -1  -7  -3   15.58    2.14
   1   7   3   17.68    1.74
  -1  -7  -4   33.65    2.96
   1   7   4   32.46    2.86
  -1  -7  -4   30.35    3.34
   1   7   4   33.51    3.07
   1   7   4   26.11    2.93
   1   7   5    0.15    0.77
   1   7   5   -0.20    0.66
  -1  -7  -5    0.71    0.61
  -1  -7  -5   -0.12    1.08
   1   7   5   -0.36    0.80
  -1  -7  -6  276.68   20.56
   1   7   6  280.37   20.68
   1   7   6  255.62   20.41
  -1  -7  -6  231.47   20.78
  -1  -7  -7   54.05    4.68
   1   7   7   57.10    4.83
   1   7   7   54.88    4.57
   1   7   7   50.55    4.80
  -1  -7  -7   43.06    4.91
   1   7   8   11.90    1.39
  -1  -7  -8    8.20    1.56
   1   7   8    8.04    1.39
  -1  -7  -8    8.52    1.14
   1   7   9    0.53    0.61
   1   7   9   -0.04    0.91
  -1  -7  -9   -0.33    0.64
  -1  -7  -9    1.00    1.07
   1   7  10    0.90    1.01
  -1  -7 -10   -0.32    0.59
   1   7  10    0.03    0.63
   1   7  10    0.93    0.78
  -1  -7 -10   -0.16    0.92
  -1  -7 -11    0.62    0.96
   1   7  11    0.38    0.62
   1   7  11    0.55    0.83
   1   7  11   -0.28    1.05
   1   7  12    9.09    1.57
  -1  -7 -12   10.53    1.52
   1   7  13   14.31    1.91
  -1  -7 -14   -0.16    0.90
  -1  -7 -15   13.11    1.82
   1   7  16    0.05    0.83
  -1  -7 -16    0.32    0.93
   1   7  17    3.01    1.06
  -1  -7 -18   17.27    1.88
   1   7  18   10.35    1.66
  -1  -7 -19   20.30    2.02
   1   7  19    9.74    1.67
   1   7  20    0.71    0.91
  -1  -7 -21    0.35    1.08
   1   7  21    0.36    0.93
  -1  -8   8   -0.60    1.31
   1   8  -7    0.08    0.91
  -1  -8   7    0.51    1.32
   1   8  -6   -0.17    0.87
   1   8  -6    0.44    0.82
   1   8  -5   19.05    1.99
  -1  -8   5   18.99    2.37
   1   8  -5   13.25    1.80
  -1  -8   4    7.03    1.51
   1   8  -4    3.36    0.94
   1   8  -3    0.76    0.98
  -1  -8   3    0.82    1.34
   1   8  -3    0.43    0.77
   1   8  -2    2.13    1.03
   1   8  -2    0.44    0.80
   1   8  -1   25.89    2.31
  -1  -8   1   15.13    2.50
   1   8  -1   18.40    2.22
   1   8  -1   27.90    2.50
   1   8   0    1.18    1.01
   1   8   0    1.18    0.79
  -1  -8   0    0.89    0.77
   1   8   0    0.93    0.93
  -1  -8   0    0.18    1.17
  -1  -8  -1   17.73    2.00
  -1  -8  -1   15.59    2.30
   1   8   1   21.19    2.00
   1   8   1   23.14    2.20
   1   8   1   14.12    2.06
  -1  -8  -2   11.81    1.44
  -1  -8  -2    6.60    1.62
   1   8   2   12.95    1.59
   1   8   2   11.65    1.64
   1   8   2   11.41    1.41
   1   8   3    1.07    1.02
   1   8   3    0.49    0.82
   1   8   3    0.47    0.78
  -1  -8  -3    0.85    0.76
  -1  -8  -4   13.44    2.43
  -1  -8  -4   26.54    2.24
   1   8   4   20.91    2.08
   1   8   4   27.60    2.43
   1   8   4   15.90    2.17
  -1  -8  -5   28.63    2.57
   1   8   5   24.80    2.59
   1   8   5   30.67    2.48
  -1  -8  -6    1.58    0.74
   1   8   6    1.23    0.99
   1   8   6   -0.04    0.85
   1   8   6    1.13    0.78
  -1  -8  -6    0.51    1.23
  -1  -8  -7   -0.69    1.16
   1   8   7   -0.50    0.76
   1   8   7    0.92    0.92
   1   8   8   57.17    5.30
  -1  -8  -8   63.58    5.18
   1   8   8   66.78    5.36
   1   8   8   60.15    5.05
  -1  -8  -9   11.49    1.32
   1   8   9   11.16    1.48
   1   8   9    8.97    1.18
   1   8   9   12.64    1.57
  -1  -8  -9    7.04    1.58
   1   8  10    2.13    1.13
  -1  -8 -10    1.79    1.04
   1   8  10    2.39    0.96
  -1  -8 -10    2.08    0.74
   1   8  10    1.23    0.65
  -1  -8 -11    1.26    1.13
   1   8  11    3.22    1.20
  -1  -8 -12    7.65    1.38
   1   8  12    7.26    1.52
   1   8  13   22.18    2.43
  -1  -8 -13   19.11    2.34
  -1  -8 -14   15.01    1.84
   1   8  14    8.24    1.70
  -1  -8 -15   12.50    1.77
   1   8  15    8.63    1.61
  -1  -8 -16   20.39    2.28
   1   8  16   14.09    2.03
  -1  -8 -17    4.13    1.22
   1   8  17    1.13    1.08
   1   8  18    3.67    1.18
  -1  -8 -18    9.12    1.45
   1   8  19    5.52    1.33
  -1  -8 -19   12.60    1.62
   1   8  20   -0.18    0.93
  -1  -8 -20    1.12    1.17
  -1  -8 -21    0.06    1.03
  -1  -9   7   48.95    4.92
  -1  -9   6    7.35    1.70
   1   9  -6    6.73    1.28
   1   9  -4   -0.38    1.02
  -1  -9   4    0.69    1.19
   1   9  -3   81.05    7.09
   1   9  -2    3.15    1.13
   1   9  -2    1.87    0.84
  -1  -9   2    2.88    1.24
   1   9  -1   16.37    1.83
   1   9  -1   12.21    1.63
   1   9   0    2.76    0.91
   1   9   0    3.05    1.09
  -1  -9   0    1.98    1.20
   1   9   1    2.40    0.97
   1   9   1    1.71    1.03
  -1  -9  -1    0.06    1.13
   1   9   2    0.38    0.95
   1   9   2    0.59    0.91
  -1  -9  -2    0.19    1.21
  -1  -9  -3    2.57    1.34
   1   9   3    5.17    1.06
  -1  -9  -4    0.56    1.21
   1   9   4    0.40    0.88
   1   9   4   -0.11    0.90
   1   9   4   -0.18    0.99
   1   9   5    5.32    1.14
   1   9   5    6.05    1.09
   1   9   5    3.65    1.13
   1   9   6    8.19    1.27
   1   9   6    9.40    1.49
   1   9   6    7.55    1.37
  -1  -9  -6    8.21    1.24
  -1  -9  -7    7.93    1.58
  -1  -9  -7    8.27    1.19
   1   9   7    8.41    1.51
   1   9   7    6.72    1.33
   1   9   7    8.89    1.20
   1   9   8    2.68    1.10
   1   9   8    1.55    1.07
  -1  -9  -8    0.73    1.08
  -1  -9  -8    2.54    0.86
   1   9   8    2.29    0.89
  -1  -9  -9    0.65    0.65
   1   9   9    0.29    1.06
   1   9   9    0.14    0.98
   1   9   9    1.01    0.73
   1   9  10    0.10    1.08
  -1  -9 -10    0.49    1.02
  -1  -9 -11    3.55    1.22
   1   9  11    8.68    1.51
  -1  -9 -12    1.80    1.11
   1   9  12    1.29    1.24
  -1  -9 -13    1.85    1.00
   1   9  15    4.91    1.44
  -1  -9 -15   12.34    1.65
  -1  -9 -16   30.78    2.68
   1   9  16   11.75    2.19
  -1  -9 -17    3.96    1.36
   1   9  17    2.00    1.24
   1   9  18   -0.47    1.11
  -1  -9 -19   14.04    1.70
   1   9  19    3.73    1.32
  -1  -9 -20    3.51    1.15
   1   9  20    0.39    0.99
  -1 -10   6    2.82    1.36
  -1 -10   5    1.50    1.27
   1  10  -5    1.11    1.07
  -1 -10   4    1.89    1.38
   1  10  -4    2.85    1.14
  -1 -10   3    1.16    1.29
   1  10  -3    0.04    1.01
   1  10  -2   -0.71    1.07
  -1 -10   2    0.81    1.24
  -1 -10   1    6.18    1.51
   1  10  -1    5.73    1.23
   1  10   1    0.44    1.12
  -1 -10  -1    0.54    1.17
  -1 -10  -2    2.41    1.38
   1  10   2    3.87    1.21
   1  10   3    0.27    1.01
  -1 -10  -3    0.29    1.23
   1  10   3    1.23    1.12
  -1 -10  -4   12.38    2.45
   1  10   4    7.93    1.82
   1  10   5   12.37    1.54
  -1 -10  -5    4.19    1.61
   1  10   6    7.34    1.20
  -1 -10  -6    2.73    1.34
   1  10   6    4.52    1.26
   1  10   7    2.13    0.98
   1  10   7    1.25    1.08
  -1 -10  -7    1.16    1.20
  -1 -10  -8   -0.07    1.12
   1  10   8   -0.08    0.86
   1  10   8   -0.05    1.01
  -1 -10  -9   11.24    1.84
   1  10  10    1.85    1.16
   1  10  11    0.46    1.24
  -1 -10 -11    0.87    1.08
   1  10  12    7.61    1.51
  -1 -10 -12    7.33    1.59
   1  10  13   -0.36    1.26
  -1 -10 -13    0.30    1.08
  -1 -10 -14   11.42    1.68
   1  10  14    6.05    1.67
   1  10  15    2.17    1.33
  -1 -10 -15    4.44    1.32
  -1 -10 -16    1.56    1.22
   1  10  16    0.36    1.20
  -1 -10 -17    2.85    1.35
   1  10  17    1.62    1.22
  -1 -10 -18    0.13    1.18
   1  10  18   -0.61    1.19
   1  10  19    1.98    1.17
  -1 -10 -19    5.71    1.34
  -1 -11   5    4.54    1.51
   1  11  -4    1.06    1.04
  -1 -11   4    0.79    1.31
   1  11  -3    1.53    1.13
  -1 -11   3    0.78    1.29
  -1 -11   2    1.68    1.39
  -1 -11   1   13.22    1.97
   1  11  -1    9.15    1.66
  -1 -11   0    3.37    1.49
   1  11   0    2.56    1.22
   1  11   1    8.57    1.53
  -1 -11  -2    3.28    1.33
   1  11   2    7.21    1.39
   1  11   3    2.23    1.15
  -1 -11  -3    2.25    1.40
  -1 -11  -4    1.28    1.23
   1  11   4    4.14    1.26
  -1 -11  -5    0.35    1.15
   1  11   5    0.99    1.05
  -1 -11  -6    6.49    1.49
   1  11   7   -0.06    1.00
  -1 -11  -7    0.14    1.10
  -1 -11  -8   -0.48    1.12
   1  11   8    1.35    1.09
  -1 -11  -9    3.60    1.34
   1  11  10   15.91    1.91
  -1 -11 -10   10.11    1.74
   1  11  11    3.81    1.33
  -1 -11 -11    4.57    1.37
   1  11  12   -0.06    1.14
  -1 -11 -12    1.04    1.00
   1  11  13   -0.06    1.24
  -1 -11 -13    1.02    1.12
  -1 -11 -14    1.07    1.13
   1  11  14    1.35    1.23
  -1 -11 -15    1.62    1.15
   1  11  15    0.19    1.16
   1  11  16    0.62    1.35
  -1 -11 -16    0.18    1.05
  -1 -11 -17    2.66    1.17
   1  11  17    0.66    1.14
   1  11  18   -0.06    1.08
  -1 -12   3    2.05    1.52
   1  12  -3    1.14    1.17
   1  12  -2    1.62    1.17
  -1 -12   2    1.27    1.31
  -1 -12   1    6.60    1.77
   1  12  -1    5.15    1.43
   1  12   0   11.55    1.88
  -1 -12   0   20.32    2.43
   1  12   1    2.53    1.30
  -1 -12  -1    6.08    1.59
  -1 -12  -2   -0.07    1.31
   1  12   3    1.11    1.19
  -1 -12  -3    1.36    1.36
   1  12   4    3.05    1.20
  -1 -12  -4    1.53    1.30
  -1 -12  -5    1.88    1.27
   1  12   5    2.87    1.18
  -1 -12  -6    0.89    1.26
  -1 -12  -7    0.07    1.23
  -1 -12  -8   -0.47    1.12
  -1 -12  -9    3.37    1.34
  -1 -12 -10    0.37    1.15
  -1 -12 -11    9.04    1.58
  -1 -12 -12   16.02    2.08
  -1 -12 -13    2.63    1.22
  -1 -12 -14    1.95    1.10
   1  13   1   16.63    2.60
  -1 -13  -1   39.51    3.30
   1  13   2    7.32    1.66
  -1 -13  -2   16.92    2.15
  -1 -13  -3    3.70    1.46
   1  13   3    1.50    1.22
  -1 -13  -4    2.16    1.33
  -1 -13  -5    2.69    1.30
  -1 -13  -6    0.07    1.21
  -1 -13  -7    2.59    1.28
  -1 -13  -8    2.00    1.25
  -1 -13  -9    0.56    1.14
  -2  12   7    1.44    1.10
  -2  12   6    1.13    1.11
  -2  12   5    1.04    1.16
   2 -11 -13    7.48    1.60
   2 -11 -12   -0.20    1.21
   2 -11 -11    2.80    1.29
   2 -11 -10    6.03    1.57
  -2  11   9    1.08    1.09
   2 -11  -9    1.03    1.21
   2 -11  -8    0.14    1.23
  -2  11   8    0.52    1.07
  -2  11   7    0.86    1.16
   2 -11  -6    1.76    1.30
  -2  11   5    5.82    1.37
   2 -11  -5    7.94    1.65
  -2  11   4    2.86    1.19
   2 -11  -4    2.33    1.33
   2 -11  -3    2.14    1.25
  -2  11   3    0.03    1.07
  -2  11   2   -0.71    1.11
   2 -11  -1    2.10    1.40
   2 -11   0    5.23    1.62
  -2  11   0    2.89    1.10
   2 -11   1   23.39    2.51
  -2  11  -1   10.61    1.70
   2 -10 -16    6.98    1.62
   2 -10 -15    1.03    1.30
   2 -10 -14    3.95    1.41
   2 -10 -13    2.64    1.32
   2 -10 -12    4.09    1.40
   2 -10 -10    0.41    1.16
  -2  10  10    2.19    1.16
  -2  10   9    2.27    1.21
   2 -10  -9    0.64    1.23
   2 -10  -8    0.21    1.05
  -2  10   8   -0.35    1.12
  -2  10   7    8.58    1.49
   2 -10  -7    7.45    1.62
  -2  10   6    0.78    1.07
  -2  10   5    0.98    1.11
   2 -10  -5    0.62    1.12
  -2  10   4    1.03    1.11
   2 -10  -4    0.42    1.06
   2 -10  -3    6.19    1.56
   2 -10  -2    0.38    1.28
  -2  10   2    0.63    1.03
  -2  10   1    0.74    0.99
  -2  10   0   -0.73    1.03
   2 -10   0    0.08    1.44
  -2  10  -1    2.91    1.05
   2 -10   1    7.61    1.80
   2 -10   2    3.57    1.66
  -2  10  -2    2.07    1.03
   2 -10   4    1.96    1.66
  -2  10  -4   -0.10    0.89
  -2  10  -5    3.40    1.09
   2 -10   5    7.08    2.01
  -2   9  19    2.69    1.19
   2  -9 -19   13.49    1.88
  -2   9  18    0.87    1.09
   2  -9 -18    3.36    1.57
  -2   9  17    4.78    1.43
   2  -9 -17   14.19    2.04
   2  -9 -16    4.13    1.47
  -2   9  16    1.35    1.14
   2  -9 -15    0.51    1.29
  -2   9  15   -0.06    1.03
  -2   9  14    7.17    1.75
   2  -9 -14   21.31    2.37
   2  -9 -13    1.26    1.25
  -2   9  12    0.51    1.20
   2  -9 -12    0.50    1.25
  -2   9  11   -0.56    1.26
   2  -9 -11   -0.41    1.21
   2  -9 -10    0.83    1.23
  -2   9  10    1.45    1.27
   2  -9  -9    0.91    1.13
   2  -9  -8    1.64    1.21
  -2   9   8    2.75    1.24
   2  -9  -7    0.85    1.17
  -2   9   7    0.17    1.19
  -2   9   6    1.24    1.16
   2  -9  -6    0.07    1.03
  -2   9   5    0.53    1.08
   2  -9  -4   -0.48    1.09
   2  -9  -3   -0.58    1.20
  -2   9   3    1.81    1.02
   2  -9  -2   -0.08    1.18
  -2   9   2   -0.25    0.95
   2  -9  -1    1.10    1.18
  -2   9   1    0.47    0.95
  -2   9   0    0.70    0.90
  -2   9  -1    0.49    0.83
   2  -9   1   -1.19    1.37
   2  -9   2    7.43    1.94
   2  -9   3    3.60    1.63
  -2   9  -3    1.82    0.93
  -2   9  -4    2.74    1.01
  -2   9  -5    9.44    1.51
   2  -9   5   24.24    2.83
   2  -9   6    1.84    1.80
  -2   9  -6    0.32    0.87
  -2   9  -7   19.19    2.36
   2  -9   7   39.40    3.58
   2  -9   8    6.28    1.96
   2  -9   9   22.12    3.08
  -2   8  19   -0.18    0.91
   2  -8 -19    2.41    1.47
  -2   8  18    1.31    0.98
   2  -8 -18    4.37    1.52
   2  -8 -16    8.87    1.90
   2  -8 -15   -0.08    1.38
  -2   8  14    1.07    1.10
  -2   8  13    6.45    1.45
  -2   8  13    3.10    1.16
   2  -8 -13    4.47    1.48
   2  -8 -12   -1.51    1.30
  -2   8  12    0.97    1.26
  -2   8  12    0.34    1.06
  -2   8  11    0.77    1.05
  -2   8  11    2.25    1.28
   2  -8 -11    1.31    1.27
  -2   8  10    0.92    1.19
   2  -8 -10    0.14    1.11
  -2   8  10   -0.23    1.00
  -2   8   9    0.50    1.16
  -2   8   9    0.66    0.94
   2  -8  -9    0.76    1.15
   2  -8  -8    7.39    1.47
   2  -8  -8    9.93    1.45
   2  -8  -7   11.60    1.63
   2  -8  -7    8.37    1.69
   2  -8  -6    0.69    0.90
   2  -8  -6    0.06    0.99
  -2   8   5    0.85    1.08
   2  -8  -5   -0.58    1.11
   2  -8  -4    3.54    1.37
  -2   8   4    5.54    1.23
   2  -8  -3   -0.29    1.05
   2  -8  -2   31.34    3.59
  -2   8   2   32.78    3.10
   2  -8  -1   13.36    2.26
  -2   8   1   13.70    1.61
   2  -8   0    8.67    1.92
  -2   8  -1    2.80    0.89
  -2   8  -2    1.01    0.75
   2  -8   2    2.32    1.66
  -2   8  -3    1.06    0.87
   2  -8   3   -0.74    1.63
  -2   8  -4    2.82    0.96
   2  -8   4    3.93    1.90
  -2   8  -5   15.95    1.90
   2  -8   5   24.43    3.07
  -2   8  -6    1.49    0.89
   2  -8   6    1.23    1.78
   2  -8   7   16.54    2.84
  -2   8  -8    1.38    1.03
   2  -8   8    2.42    2.05
   2  -8   9   45.29    4.03
  -2   8  -9   23.17    2.69
  -2   8 -10    3.26    1.20
   2  -8  10    7.40    2.12
  -2   7  20    2.29    0.97
  -2   7  19    0.88    1.00
  -2   7  18    2.43    1.06
   2  -7 -18    4.17    1.46
   2  -7 -17   16.40    2.19
  -2   7  17    6.96    1.39
   2  -7 -16    8.85    1.81
  -2   7  16    3.85    1.14
   2  -7 -15   -0.08    1.38
  -2   7  15    0.35    0.95
  -2   7  14    0.74    0.91
   2  -7 -14   -0.23    1.38
  -2   7  14   -0.66    1.28
  -2   7  13    0.21    1.21
  -2   7  13    1.04    0.91
   2  -7 -13    0.15    1.32
  -2   7  12    0.38    1.01
  -2   7  12    0.81    1.31
   2  -7 -12    0.51    1.37
  -2   7  11   13.69    1.77
   2  -7 -11   15.65    2.01
  -2   7  10   11.19    1.60
  -2   7  10    8.78    1.43
   2  -7 -10    7.76    1.57
   2  -7 -10    6.33    1.26
   2  -7  -9    3.04    0.99
  -2   7   9    2.83    1.26
   2  -7  -9    2.29    0.93
   2  -7  -8    1.47    1.22
   2  -7  -8    0.90    0.94
   2  -7  -8    0.75    0.86
  -2   7   8    0.28    0.95
  -2   7   8    2.12    1.20
   2  -7  -7   56.02    4.32
   2  -7  -7   49.71    4.26
   2  -7  -7   60.62    4.55
   2  -7  -6    6.83    1.28
   2  -7  -6    7.42    1.43
  -2   7   6   10.81    1.44
   2  -7  -6   10.57    1.35
  -2   7   6    3.98    0.92
  -2   7   5   10.12    1.35
   2  -7  -5    7.45    1.10
  -2   7   5    1.21    0.66
   2  -7  -5    5.01    1.38
   2  -7  -5    4.46    1.09
   2  -7  -4   51.86    3.26
   2  -7  -4   42.93    3.55
   2  -7  -4   48.81    3.35
   2  -7  -3    1.09    1.14
   2  -7  -3    0.47    0.79
   2  -7  -3    0.99    0.86
  -2   7   3    1.19    0.94
  -2   7   2  169.20   13.05
   2  -7  -2  124.91   13.35
   2  -7  -1   20.10    2.67
   2  -7   0   80.45    8.03
  -2   7   0   89.79    7.50
   2  -7   1   -0.08    1.40
  -2   7  -1    0.28    0.76
  -2   7  -2    4.40    0.94
  -2   7  -3    0.16    0.80
   2  -7   3    0.09    1.63
   2  -7   4    4.51    1.93
  -2   7  -4    3.42    0.94
  -2   7  -5   -0.03    0.78
   2  -7   5    0.10    1.69
   2  -7   6    1.61    1.87
   2  -7   7   16.63    2.65
  -2   7  -7   10.91    1.52
  -2   7  -8    1.10    0.95
   2  -7   8    4.37    2.02
   2  -7   9    1.90    1.93
  -2   7  -9    0.88    1.03
   2  -7  10   16.88    2.56
  -2   7 -10    7.52    1.51
   2  -7  11   42.66    4.10
  -2   7 -11   23.88    2.80
  -2   6  20    2.26    1.06
  -2   6  19   -0.40    0.92
  -2   6  18    6.24    1.34
   2  -6 -18   12.24    1.71
   2  -6 -17   12.67    2.10
   2  -6 -16   -0.43    1.33
   2  -6 -15    7.12    1.72
  -2   6  15    4.77    1.38
   2  -6 -14    0.72    1.40
  -2   6  14   -0.75    1.24
  -2   6  13    7.86    1.63
  -2   6  12    0.78    1.24
  -2   6  12    1.32    1.03
   2  -6 -12   -0.07    1.38
   2  -6 -11    3.43    1.46
  -2   6  11    2.15    1.16
  -2   6  11    2.40    1.13
   2  -6 -10   12.02    2.02
   2  -6 -10   13.39    1.74
  -2   6  10   17.19    1.89
   2  -6 -10   12.61    1.61
  -2   6  10   14.34    1.79
   2  -6  -9    4.23    0.97
   2  -6  -9    4.65    1.46
  -2   6   9    4.10    1.06
   2  -6  -9    5.11    1.05
  -2   6   9    3.16    1.29
   2  -6  -8    9.80    1.41
   2  -6  -8    8.06    1.59
   2  -6  -8   11.59    1.46
  -2   6   8    8.83    1.39
   2  -6  -7   15.53    2.12
   2  -6  -7   17.51    1.94
  -2   6   7   13.40    1.78
  -2   6   7   20.81    2.09
   2  -6  -7   17.83    1.93
   2  -6  -6    0.73    0.98
   2  -6  -6    1.04    0.79
  -2   6   6    0.18    0.67
  -2   6   6    0.88    1.10
   2  -6  -5   34.20    3.06
  -2   6   5   42.61    3.14
  -2   6   5   24.75    2.81
   2  -6  -5   28.48    3.25
   2  -6  -5   34.39    3.17
   2  -6  -4    0.20    0.76
   2  -6  -4    0.73    1.09
   2  -6  -4    0.33    0.87
  -2   6   4    0.14    1.01
  -2   6   4    0.02    0.45
   2  -6  -3   37.61    2.31
   2  -6  -3   37.25    2.50
  -2   6   3   44.45    2.39
   2  -6  -2   16.18    1.73
   2  -6  -2   15.17    2.21
   2  -6  -2   16.29    1.87
   2  -6  -1    3.04    0.72
  -2   6   1    1.45    0.79
   2  -6  -1    3.14    1.29
   2  -6  -1    3.18    0.90
   2  -6   0  153.97   14.30
  -2   6   0  175.76   14.24
   2  -6   0  161.13   14.74
   2  -6   0  178.27   14.24
   2  -6   1   84.09    8.48
   2  -6   1  103.06    9.04
  -2   6  -1   99.56    8.41
   2  -6   1  107.65    8.41
   2  -6   2    5.49    1.70
   2  -6   2    4.85    0.90
  -2   6  -2    4.28    0.94
  -2   6  -3   23.47    2.35
   2  -6   3   28.68    3.30
  -2   6  -4   37.13    3.45
   2  -6   4   41.75    4.38
   2  -6   5   -1.15    1.83
  -2   6  -6    1.15    0.77
  -2   6  -7    0.89    0.92
   2  -6   7    1.82    1.76
  -2   6  -8    0.55    0.92
   2  -6   8    1.56    2.02
  -2   6  -9    3.78    1.11
   2  -6   9    2.02    2.01
  -2   6 -10    0.77    1.02
   2  -6  10    2.61    2.12
   2  -6  11   12.15    2.65
   2  -6  12   23.40    3.21
  -2   6 -12   16.80    2.12
  -2   5  16    9.40    1.73
   2  -5 -16   16.27    1.98
  -2   5  15   18.47    2.27
   2  -5 -15   25.23    2.60
   2  -5 -14    9.28    1.66
  -2   5  14    8.05    1.41
  -2   5  13    8.19    1.55
   2  -5 -13   14.39    1.96
  -2   5  12    1.37    1.14
  -2   5  11  158.79   12.10
   2  -5 -11  121.96   12.00
   2  -5 -11  133.76   12.17
   2  -5 -10   79.69    7.66
   2  -5 -10   78.55    7.54
  -2   5  10   98.00    7.61
   2  -5 -10  104.57    8.07
   2  -5  -9   12.69    2.08
   2  -5  -9   13.88    1.58
   2  -5  -8   -0.36    0.79
  -2   5   8    0.76    0.98
   2  -5  -8    0.63    0.75
   2  -5  -8    0.38    1.05
   2  -5  -7    6.95    1.18
  -2   5   7    7.84    1.31
   2  -5  -7    6.36    1.16
   2  -5  -7    7.91    1.47
  -2   5   7    6.65    1.13
   2  -5  -6   50.94    5.01
   2  -5  -6   55.29    4.85
  -2   5   6   50.04    4.70
   2  -5  -6   52.99    4.83
  -2   5   6   61.65    4.91
  -2   5   5    8.68    1.26
  -2   5   5    4.98    0.86
   2  -5  -5    6.07    1.31
   2  -5  -5    7.63    1.15
  -2   5   4   21.75    2.18
   2  -5  -4   26.96    2.43
  -2   5   4   27.34    2.48
   2  -5  -4   23.69    2.70
   2  -5  -3    0.65    0.71
   2  -5  -3    0.14    0.73
   2  -5  -3    0.29    0.99
  -2   5   3    0.25    0.34
  -2   5   2    0.49    0.17
   2  -5  -2    2.23    0.83
   2  -5  -2    3.23    0.70
  -2   5   2    0.29    0.15
  -2   5   2    1.81    0.88
   2  -5  -1   28.50    2.87
   2  -5  -1   29.95    2.75
   2  -5  -1   27.61    3.21
  -2   5   1   31.23    2.83
   2  -5   0   47.65    4.17
  -2   5   0   46.99    4.18
   2  -5   0   46.12    4.69
   2  -5   1   15.94    1.89
   2  -5   1   18.45    2.47
  -2   5  -1   19.93    1.87
   2  -5   1   19.05    1.80
   2  -5   2   52.06    4.35
  -2   5  -2   49.80    4.39
   2  -5   2   50.79    5.13
   2  -5   2   47.08    4.42
   2  -5   3   25.58    3.15
   2  -5   3   20.67    2.25
   2  -5   3   25.23    2.18
  -2   5  -3   24.48    2.28
   2  -5   4  132.75    9.82
   2  -5   4   98.81    8.81
   2  -5   5   14.04    1.47
  -2   5  -5   14.15    1.60
   2  -5   6   76.57    7.12
  -2   5  -6   90.25    7.25
   2  -5   7    4.87    0.72
   2  -5   7    9.01    2.13
   2  -5   8    2.38    0.44
  -2   5  -8    3.62    0.95
  -2   5  -9    2.70    1.06
   2  -5  10   14.64    2.63
  -2   5 -11    9.28    1.51
   2  -5  11   11.19    2.51
  -2   5 -12    9.74    1.65
   2  -5  12   10.95    2.40
   2  -5  13    7.27    2.26
  -2   4  17    5.28    1.38
   2  -4 -17    7.14    1.20
  -2   4  16   17.77    2.08
   2  -4 -16   17.74    2.02
  -2   4  15    0.84    1.15
   2  -4 -14    3.00    1.11
  -2   4  14    2.40    1.19
   2  -4 -13    1.20    0.96
   2  -4 -13    1.00    1.04
  -2   4  13    1.04    1.10
  -2   4  12    9.31    1.54
   2  -4 -12    9.81    1.45
   2  -4 -12   15.70    1.90
   2  -4 -12   14.60    1.64
   2  -4 -11   25.94    2.80
   2  -4 -11   38.04    3.19
   2  -4 -11   26.81    2.69
  -2   4  11   22.89    2.79
   2  -4 -11   37.34    2.95
   2  -4 -10   14.67    1.95
   2  -4 -10   11.51    1.38
   2  -4 -10   11.20    1.49
   2  -4 -10   12.70    1.55
   2  -4  -9  219.99   20.28
   2  -4  -9  219.07   20.20
   2  -4  -9  276.32   20.59
  -2   4   9  237.63   20.20
   2  -4  -9  280.63   20.31
   2  -4  -8   78.42    7.14
  -2   4   8   84.28    7.16
   2  -4  -8   85.23    7.52
   2  -4  -8   85.40    7.23
  -2   4   7   43.45    3.78
   2  -4  -7   38.91    3.76
   2  -4  -7   41.24    3.76
   2  -4  -6   42.87    4.42
  -2   4   6   51.98    4.34
   2  -4  -5   48.44    4.19
  -2   4   5   49.51    4.22
   2  -4  -5   39.82    4.36
   2  -4  -4  216.45   20.00
   2  -4  -4  255.09   19.83
   2  -4  -4  230.83   19.86
  -2   4   3    2.73    0.47
   2  -4  -3    2.15    0.83
   2  -4  -3    3.12    1.08
  -2   4   3    3.92    0.89
   2  -4  -3    3.30    0.72
   2  -4  -2    0.16    0.56
  -2   4   2   -0.02    0.74
   2  -4  -2    0.17    1.01
  -2   4   2    0.25    0.20
   2  -4  -2    0.58    0.63
  -2   4   2    0.35    0.21
   2  -4  -1   18.68    2.26
   2  -4  -1   17.47    1.88
  -2   4   1   18.40    1.82
   2  -4   0    6.46    0.98
   2  -4   0    5.59    1.44
   2  -4   0    5.40    0.81
  -2   4   0    6.73    0.97
   2  -4   1    0.43    0.44
   2  -4   1    0.12    0.58
  -2   4  -1    0.22    0.59
   2  -4   1    0.14    1.24
   2  -4   2  113.50    9.58
   2  -4   2  109.92    9.01
   2  -4   2  111.10    8.93
  -2   4  -2   95.60    8.94
   2  -4   3   70.03    6.24
   2  -4   3   76.30    6.97
   2  -4   3   74.86    6.20
   2  -4   4    0.97    0.42
   2  -4   4    1.89    1.60
   2  -4   4    0.32    0.39
   2  -4   4    0.73    0.48
  -2   4  -4    0.64    0.72
   2  -4   5   68.51    6.51
  -2   4  -5   72.74    5.67
   2  -4   5   57.40    5.54
   2  -4   5   66.85    5.51
  -2   4  -6   44.91    4.15
   2  -4   6   45.69    3.95
  -2   4  -7    8.22    1.20
   2  -4   7    7.26    0.81
   2  -4   7    8.99    2.05
  -2   4  -8   53.75    5.00
   2  -4   8   64.77    5.76
  -2   4 -10    0.27    0.94
   2  -4  10    0.76    1.50
  -2   4 -11    0.63    1.14
  -2   4 -12   15.90    2.08
   2  -4  12   20.83    2.89
   2  -4  13   13.31    2.59
   2  -4  14    8.33    2.33
   2  -4  17    3.32    2.00
  -2   3  18   -0.60    1.35
   2  -3 -17    0.04    0.86
  -2   3  17    1.38    1.28
  -2   3  16    2.30    1.35
   2  -3 -16    3.39    1.02
   2  -3 -16    3.12    0.83
   2  -3 -15   15.11    1.80
  -2   3  15   19.27    2.06
   2  -3 -15   15.37    1.94
   2  -3 -14    6.57    1.30
   2  -3 -14    8.74    1.28
  -2   3  14    8.87    1.45
   2  -3 -13   -0.59    0.88
  -2   3  13    0.61    1.14
   2  -3 -13    0.32    0.72
   2  -3 -12   48.56    4.85
   2  -3 -12   60.78    4.92
  -2   3  12   51.96    4.84
   2  -3 -11    0.15    0.54
   2  -3 -11    0.23    0.88
   2  -3 -11   -0.07    0.94
   2  -3 -11    0.08    0.58
   2  -3 -10    0.48    0.92
   2  -3 -10    0.14    0.93
   2  -3 -10    0.84    0.70
  -2   3  10    0.11    1.03
   2  -3 -10    0.43    0.63
   2  -3  -9   12.25    1.60
   2  -3  -9   11.41    1.36
   2  -3  -9    9.59    1.27
  -2   3   9    8.35    1.40
   2  -3  -9   14.28    1.55
   2  -3  -8   84.00    7.13
   2  -3  -8   79.51    6.90
  -2   3   8   75.81    6.89
   2  -3  -8   75.84    6.93
   2  -3  -8   88.87    7.00
   2  -3  -7    5.75    1.23
   2  -3  -7    5.87    0.97
   2  -3  -7    5.44    0.95
  -2   3   7    5.28    1.10
   2  -3  -7    7.74    1.05
  -2   3   6   13.70    1.45
   2  -3  -6    9.68    1.36
   2  -3  -6   10.36    1.35
   2  -3  -6   14.13    1.40
   2  -3  -5  212.44   18.17
   2  -3  -5  197.54   18.02
   2  -3  -5  230.20   17.96
   2  -3  -5  215.24   18.02
   2  -3  -4    0.60    0.64
   2  -3  -4   -0.54    0.95
  -2   3   4    0.46    0.83
   2  -3  -4    0.46    0.71
   2  -3  -4    0.53    0.53
   2  -3  -3  159.38   13.42
  -2   3   3  172.49   13.42
   2  -3  -3  143.88   13.62
   2  -3  -3  155.36   13.46
   2  -3  -2   62.64    5.12
  -2   3   2   65.79    5.07
   2  -3  -2   54.99    5.30
  -2   3   2   55.49    4.85
   2  -3  -1  101.14    9.31
   2  -3  -1   99.30    9.56
   2  -3  -1  123.23    9.28
  -2   3   1  108.59    9.27
  -2   3   0    2.42    0.77
   2  -3   0    2.20    0.53
   2  -3   0    2.72    1.21
  -2   3  -1   24.28    2.14
   2  -3   1   19.35    2.09
   2  -3   1   25.75    2.64
   2  -3   1   21.60    2.01
   2  -3   2  257.28   21.81
   2  -3   2  276.09   22.25
   2  -3   2  261.92   21.76
   2  -3   3    0.05    0.41
   2  -3   3    0.34    0.19
   2  -3   3   -0.04    0.20
  -2   3  -3    0.51    0.64
   2  -3   3   -0.25    1.18
   2  -3   4   32.74    3.16
  -2   3  -4   37.49    3.25
   2  -3   4   37.13    3.15
   2  -3   5    3.51    0.55
  -2   3  -5    3.05    0.79
   2  -3   5    3.43    0.50
   2  -3   6    0.72    0.34
  -2   3  -6    1.51    0.79
   2  -3   6    0.27    1.45
   2  -3   6    0.97    0.33
   2  -3   7    0.27    0.22
  -2   3  -7   -0.02    0.76
   2  -3   7    0.50    1.44
   2  -3   7    0.64    0.21
   2  -3   8   36.26    4.12
  -2   3  -8   38.22    3.51
  -2   3  -9   96.94    8.84
   2  -3   9  124.12    9.55
  -2   3 -10    3.66    1.12
  -2   3 -11    6.66    1.37
   2  -3  11    4.85    1.73
  -2   3 -12    0.89    1.25
   2  -3  12   -0.67    1.33
   2  -3  13    1.24    1.59
   2  -3  14    3.54    1.82
   2  -3  15   44.57    5.13
   2  -3  17    1.55    1.82
   2  -3  18    5.37    1.79
   2  -2 -19   -0.13    0.91
  -2   2  19    1.23    1.42
  -2   2  18   66.36    5.65
   2  -2 -18   58.03    5.54
  -2   2  17   55.51    4.56
   2  -2 -17   42.49    4.43
  -2   2  16    9.88    1.58
   2  -2 -16    6.79    1.30
   2  -2 -15   12.84    1.40
  -2   2  15   13.78    1.81
   2  -2 -14    2.53    0.76
   2  -2 -14    0.41    0.99
  -2   2  14    2.64    1.38
   2  -2 -13   18.45    2.01
   2  -2 -13   21.03    1.93
   2  -2 -13   17.88    2.15
  -2   2  13   16.07    2.16
   2  -2 -12   69.58    6.40
   2  -2 -12   77.05    6.54
   2  -2 -12   78.10    6.58
   2  -2 -11    0.06    0.68
   2  -2 -11    0.02    0.51
  -2   2  11    0.78    1.06
   2  -2 -11   -0.25    0.90
   2  -2 -10   44.32    4.52
  -2   2  10   51.86    4.65
   2  -2 -10   62.51    4.77
   2  -2 -10   52.09    4.62
   2  -2 -10   56.29    4.69
   2  -2  -9   61.79    4.29
  -2   2   9   61.35    4.24
   2  -2  -9   51.62    4.09
   2  -2  -9   61.78    4.23
   2  -2  -8    4.67    1.07
  -2   2   8    6.93    1.19
   2  -2  -8    7.73    0.98
   2  -2  -7   18.38    1.65
   2  -2  -7   14.18    1.57
   2  -2  -7   13.32    1.56
  -2   2   7   16.12    1.75
   2  -2  -7   15.06    1.77
   2  -2  -6   70.03    5.69
   2  -2  -6   61.56    5.69
   2  -2  -6   70.15    5.70
   2  -2  -6   60.42    5.74
   2  -2  -5   18.77    1.93
   2  -2  -5   20.55    1.99
   2  -2  -5   21.30    1.99
  -2   2   5   20.58    2.03
   2  -2  -4  299.32   25.84
   2  -2  -4  322.54   25.66
   2  -2  -4  335.95   25.73
   2  -2  -4  310.36   25.74
  -2   2   4  275.94   25.69
   2  -2  -3    4.32    0.73
   2  -2  -3    4.56    0.79
   2  -2  -3    3.91    1.18
  -2   2   3    5.95    1.08
   2  -2  -3    4.59    0.91
   2  -2  -2   30.91    2.63
   2  -2  -2   30.13    2.83
   2  -2  -2   26.55    3.02
   2  -2  -2   30.37    2.73
  -2   2   2   30.02    2.60
  -2   2   2   32.86    2.81
   2  -2  -1  164.10   12.12
  -2   2   1  130.37   11.63
  -2   2   1  163.28   11.80
   2  -2  -1  158.17   11.85
   2  -2  -1  167.05   11.80
   2  -2  -1  134.70   11.63
  -2   2   0    0.84    0.82
   2  -2   0    0.35    0.47
   2  -2   0    0.53    0.68
   2  -2   0    0.09    1.19
   2  -2   1    8.68    1.59
   2  -2   1    6.77    0.99
   2  -2   1    7.99    0.88
  -2   2  -2    0.06    0.76
   2  -2   2   -0.10    0.53
   2  -2   2    0.80    1.05
   2  -2   3    1.70    0.36
  -2   2  -3    1.71    0.67
   2  -2   3    2.49    0.43
   2  -2   3    3.12    0.55
   2  -2   3    2.81    1.22
   2  -2   4  528.73   44.29
  -2   2  -4  534.75   44.34
   2  -2   4  522.77   44.30
   2  -2   4  661.17   44.87
   2  -2   5   52.58    4.42
  -2   2  -5   48.98    4.56
  -2   2  -6   15.34    1.60
   2  -2   7   50.80    4.45
   2  -2   7   52.78    4.45
  -2   2  -8  159.08   13.40
  -2   2  -9  139.13   11.79
  -2   2 -10   77.39    6.79
  -2   2 -11    1.93    1.24
  -2   2 -12   13.89    1.92
   2  -2  13    0.71    1.55
   2  -2  15    0.12    1.79
   2  -2  16   14.49    2.94
   2  -2  17   12.94    2.21
   2  -2  18   20.56    2.67
   2  -1 -20    3.18    1.09
   2  -1 -19    1.43    0.97
  -2   1  19    0.17    1.38
   2  -1 -18    0.79    0.88
  -2   1  18   -0.37    1.44
  -2   1  17    0.81    1.41
  -2   1  16    4.96    1.47
   2  -1 -15    5.90    1.26
  -2   1  15    7.30    1.58
   2  -1 -15    6.11    1.00
   2  -1 -14    0.55    0.60
   2  -1 -14    0.44    0.59
  -2   1  14    1.19    1.29
   2  -1 -13    0.59    0.57
   2  -1 -13    0.35    0.59
   2  -1 -13    0.04    0.87
   2  -1 -12   74.44    6.39
   2  -1 -12   69.44    6.54
  -2   1  12   72.86    6.55
   2  -1 -12   80.38    6.51
   2  -1 -11   11.22    1.49
  -2   1  11    9.48    1.64
   2  -1 -11   13.75    1.36
   2  -1 -11   12.22    1.24
   2  -1 -11   10.44    1.22
   2  -1 -10   17.02    1.89
   2  -1 -10   18.00    1.71
   2  -1 -10   17.03    1.70
   2  -1 -10   19.64    1.85
  -2   1  10   16.27    1.98
   2  -1  -9   -0.05    0.54
  -2   1   9    0.26    1.00
   2  -1  -9   -0.03    0.70
   2  -1  -9    0.79    0.59
   2  -1  -8    4.89    0.93
   2  -1  -8    5.26    0.82
  -2   1   8    4.22    1.09
   2  -1  -8    4.52    0.75
   2  -1  -7  386.76   23.12
  -2   1   7  312.86   23.01
   2  -1  -7  359.64   23.03
   2  -1  -6  145.22   11.52
   2  -1  -6  140.61   11.50
  -2   1   6  115.10   11.44
  -2   1   6  133.77   11.52
   2  -1  -6  162.01   11.55
   2  -1  -5    0.11    0.55
  -2   1   5    0.31    0.42
   2  -1  -5   -0.02    0.70
  -2   1   5    0.65    1.08
   2  -1  -5    0.03    0.63
   2  -1  -4   22.31    1.97
  -2   1   4   24.05    2.19
  -2   1   4   18.13    1.93
   2  -1  -4   21.09    1.96
  -2   1   3    2.56    0.55
  -2   1   3    2.29    0.91
   2  -1  -3    2.33    0.90
   2  -1  -2  293.93   25.40
   2  -1  -2  308.25   25.20
   2  -1  -2  304.02   25.26
  -2   1   1  748.65   61.19
   2  -1  -1  701.28   61.20
  -2   1   1  779.46   61.27
   2  -1  -1  749.57   61.27
   2  -1  -1  785.33   61.46
  -2   1   1  747.00   61.26
   2  -1   0  183.80   14.11
   2  -1   0  156.66   13.77
   2  -1   0  168.13   13.86
  -2   1   0  173.35   13.85
  -2   1   0  171.53   13.78
  -2   1  -1    4.82    0.58
  -2   1  -1    3.81    0.42
   2  -1   1    4.42    0.47
  -2   1  -2  115.84    9.29
   2  -1   2  103.48    9.26
  -2   1  -2  119.10    9.35
   2  -1   2  112.46    9.25
   2  -1   3   34.99    3.08
   2  -1   3   37.18    3.09
  -2   1  -3   38.28    3.21
   2  -1   3   34.75    3.07
   2  -1   4  145.87   11.52
  -2   1  -4  135.97   11.56
   2  -1   4  134.29   11.48
   2  -1   4  138.42   11.54
  -2   1  -5   62.03    5.18
   2  -1   5   60.04    5.05
   2  -1   6  116.05    8.93
   2  -1   6  100.16    8.93
  -2   1  -7  158.80   13.30
  -2   1  -8   10.76    1.30
  -2   1  -9    5.96    1.14
  -2   1 -10  232.61   19.54
  -2   1 -11  315.16   26.38
   2  -1  16   -0.28    1.39
   2  -1  17    0.63    1.40
   2  -1  18    5.25    1.24
   2  -1  19    0.84    1.01
   2  -1  20    1.30    1.12
   2   0 -20    1.26    1.03
  -2   0  20    1.74    1.48
   2   0 -19    2.04    1.10
  -2   0  19    2.80    1.55
   2   0 -18   17.48    2.10
   2   0 -17    3.90    1.14
  -2   0  17    7.28    1.76
  -2   0  16   13.37    1.97
   2   0 -16   10.57    1.60
   2   0 -15    8.25    1.44
  -2   0  15   13.33    1.88
   2   0 -14    2.03    0.63
   2   0 -14    2.01    0.63
   2   0 -14    0.99    0.91
   2   0 -13    3.72    1.12
   2   0 -13    6.62    0.86
  -2   0  13    5.48    1.45
   2   0 -13    5.50    0.80
   2   0 -12    6.60    0.88
  -2   0  12    4.58    1.48
   2   0 -12    5.28    0.76
  -2   0  11    7.10    1.51
  -2   0  10   45.24    3.80
   2   0 -10   47.08    3.87
  -2   0  10   37.22    3.98
   2   0 -10   43.73    3.96
   2   0 -10   42.10    3.75
   2   0  -9    3.23    0.51
  -2   0   9    3.17    0.56
   2   0  -9    3.44    0.63
  -2   0   9    3.43    1.09
   2   0  -9    1.94    0.75
   2   0  -8   21.20    1.79
  -2   0   8   19.59    1.85
   2   0  -8   19.97    1.91
   2   0  -8   18.07    1.97
  -2   0   7    1.88    0.48
   2   0  -7    1.84    0.51
   2   0  -7    2.04    0.40
  -2   0   7    2.33    0.95
   2   0  -7    2.23    0.68
  -2   0   6   69.92    5.51
   2   0  -6   63.83    5.39
   2   0  -6   64.88    5.50
   2   0  -6   65.52    5.52
  -2   0   6   59.83    5.44
  -2   0   6   62.94    5.56
  -2   0   5  413.60   34.95
   2   0  -5  437.60   34.93
   2   0  -5  430.79   34.95
  -2   0   5  416.66   34.92
   2   0  -5  403.43   34.85
  -2   0   5  439.92   34.91
  -2   0   4  328.49   29.05
  -2   0   4  349.39   29.06
   2   0  -4  363.60   29.04
  -2   0   4  343.16   29.10
   2   0  -4  355.39   29.08
   2   0  -4  363.35   29.08
  -2   0   3    2.25    0.57
  -2   0   3    2.23    0.48
   2   0  -3    2.87    0.53
  -2   0   3    1.10    0.84
   2   0  -2 1780.07  147.34
   2   0  -2 1755.08  147.37
  -2   0   2 1759.03  147.34
   2   0  -2 1832.56  147.32
  -2   0   1 1936.29  162.94
   2   0  -1 1947.37  162.92
   2   0  -1 2103.45  163.04
   2   0  -1 1977.05  162.95
   2   0   0 9144.20  762.82
   2   0   0 9999.00  762.80
  -2   0   0 9555.57  762.80
  -2   0   0 8720.25  762.81
  -2   0   0 8619.24  762.83
  -2   0  -1  858.09   72.33
   2   0   1  835.08   72.33
  -2   0  -1  838.42   72.36
  -2   0  -1  940.39   72.33
  -2   0  -1  894.27   72.30
  -2   0  -2   43.34    4.08
  -2   0  -2   46.48    4.14
  -2   0  -2   51.19    4.07
   2   0   2   50.64    4.10
  -2   0  -3  103.52    7.31
   2   0   3   90.75    7.30
  -2   0  -4   17.36    1.35
  -2   0  -4   15.01    1.47
   2   0   4   12.58    1.45
   2   0   4   13.82    1.34
  -2   0  -4   17.51    1.56
  -2   0  -5   10.97    0.91
   2   0   5    8.99    0.90
  -2   0  -5   12.51    1.19
   2   0   6    3.06    0.33
  -2   0  -6    3.29    0.68
  -2   0  -6    3.85    0.35
  -2   0  -7   61.18    5.75
  -2   0  -7   76.91    5.86
  -2   0  -8    0.17    0.77
  -2   0  -8    0.14    0.56
  -2   0  -9    8.21    1.29
  -2   0  -9    7.56    1.07
  -2   0 -10    3.18    1.18
  -2   0 -10    1.59    0.75
  -2   0 -11   34.03    3.26
  -2   0 -12   66.36    5.91
  -2   0 -13  100.54    8.76
  -2   0 -14    6.41    1.29
   2   0  15   18.73    2.22
  -2   0 -15   17.09    2.06
   2   0  16   -0.54    1.27
   2   0  17   57.35    5.32
   2   0  18    1.11    1.01
   2   0  19    1.29    1.11
   2   0  20    2.36    1.13
   2   1 -20    5.36    1.28
  -2  -1  20    8.72    1.76
   2   1 -19    1.29    1.04
  -2  -1  19    2.75    1.56
  -2  -1  18    2.44    1.56
  -2  -1  17    3.71    1.49
   2   1 -17    2.09    1.10
   2   1 -16   34.21    3.69
  -2  -1  16   44.80    3.88
   2   1 -15   36.60    3.56
   2   1 -14    0.08    0.87
   2   1 -14    0.31    0.40
   2   1 -13   19.23    2.25
  -2  -1  13   25.01    2.55
   2   1 -13   21.04    1.96
   2   1 -12   19.42    2.44
  -2  -1  12   27.60    2.70
   2   1 -12   24.35    2.18
   2   1 -11  157.30   12.99
  -2  -1  11  171.63   13.21
  -2  -1  11  147.32   12.92
   2   1 -11  153.78   13.13
   2   1 -10    0.22    0.75
  -2  -1  10    0.20    0.40
   2   1 -10   -0.08    0.46
  -2  -1  10    0.36    1.19
   2   1  -9    0.33    0.27
   2   1  -9    0.47    0.71
  -2  -1   9    0.43    0.42
   2   1  -9    0.06    0.41
   2   1  -8    1.47    0.28
  -2  -1   8    0.83    1.08
   2   1  -8    1.64    0.48
   2   1  -8    2.20    0.70
  -2  -1   8    1.26    0.34
  -2  -1   8    1.80    0.45
  -2  -1   7   59.21    5.56
  -2  -1   7   77.96    5.67
  -2  -1   7   73.41    5.86
   2   1  -7   71.87    5.68
   2   1  -7   65.82    5.54
   2   1  -6  200.26   16.33
  -2  -1   6  195.85   16.32
  -2  -1   6  193.04   16.42
  -2  -1   6  195.27   16.23
  -2  -1   5    1.30    1.05
   2   1  -5    1.11    0.46
   2   1  -5    1.99    0.61
  -2  -1   5    1.43    0.48
   2   1  -4  139.27    7.87
  -2  -1   4  133.80    7.77
  -2  -1   4  138.80    7.89
  -2  -1   3  109.40    9.15
  -2  -1   2   89.09    7.00
   2   1  -2   93.45    7.02
   2   1  -2   79.06    6.89
   2   1  -2   85.90    6.99
   2   1  -1   14.67    1.20
   2   1  -1   12.82    1.30
   2   1  -1   14.28    1.34
  -2  -1   1   11.74    1.41
  -2  -1   1   12.94    1.30
  -2  -1   0  340.79   29.52
   2   1   0  347.97   29.53
   2   1   0  350.97   29.49
   2   1   0  365.46   29.54
  -2  -1   0  373.26   29.52
  -2  -1   0  363.88   29.50
   2   1   1 2464.44  205.43
  -2  -1  -1 2482.78  205.41
   2   1   1 2505.95  205.45
   2   1   1 2432.98  205.44
  -2  -1  -1 2506.31  205.43
  -2  -1  -1 2552.12  205.43
  -2  -1  -2 3550.58  337.56
   2   1   2 4440.32  337.63
   2   1   2 4196.20  337.57
  -2  -1  -2 4218.66  337.55
   2   1   2 4048.89  337.55
  -2  -1  -2 4361.83  337.61
  -2  -1  -3  145.58   12.23
   2   1   3  153.36   12.29
   2   1   3  138.96   12.20
  -2  -1  -3  154.27   12.22
  -2  -1  -3  151.31   12.30
   2   1   4  391.03   32.30
   2   1   4  390.61   32.38
   2   1   5    9.11    0.90
  -2  -1  -5   11.02    0.93
  -2  -1  -5    9.21    1.05
   2   1   5   10.47    1.15
  -2  -1  -5    9.70    1.12
  -2  -1  -6  416.74   35.38
  -2  -1  -6  482.28   35.44
   2   1   6  417.76   35.37
   2   1   6  420.39   35.53
  -2  -1  -6  423.64   35.52
  -2  -1  -7   30.19    2.27
   2   1   7   24.78    2.04
  -2  -1  -7   21.79    2.04
  -2  -1  -7   26.00    2.26
  -2  -1  -8    7.53    1.04
  -2  -1  -8    6.15    0.59
  -2  -1  -8    8.82    0.97
  -2  -1  -9   19.69    1.91
  -2  -1  -9   25.69    1.92
  -2  -1 -10   54.10    4.81
  -2  -1 -11    1.22    0.71
  -2  -1 -12   -0.04    0.72
  -2  -1 -13   61.94    5.30
   2   1  13   54.90    5.18
   2   1  14    4.34    1.26
  -2  -1 -15    1.60    1.02
   2   1  15    1.11    1.11
   2   1  16    3.62    1.21
  -2  -1 -17    5.54    1.29
  -2  -1 -18    1.72    1.05
   2   1  18    2.56    1.22
   2   1  19    2.63    1.21
   2   1  20    0.67    1.15
   2   1  21    0.46    1.03
  -2  -2  20    1.71    1.47
   2   2 -19    2.24    1.16
  -2  -2  18   19.25    2.33
   2   2 -18   13.81    2.00
  -2  -2  17   21.96    2.39
   2   2 -17   15.21    2.12
   2   2 -16    0.19    1.00
  -2  -2  16    2.68    1.49
  -2  -2  15    4.95    1.56
   2   2 -14    7.81    1.33
   2   2 -14    7.64    0.78
   2   2 -13   25.51    2.20
  -2  -2  13   25.76    2.85
   2   2 -13   22.62    2.55
  -2  -2  12    7.78    0.82
   2   2 -12    7.21    0.83
   2   2 -12    5.22    1.16
   2   2 -11   42.60    4.37
   2   2 -11   49.81    4.17
  -2  -2  11   52.91    4.61
  -2  -2  11   54.82    4.39
  -2  -2  11   46.27    4.14
  -2  -2  10  145.11   11.90
  -2  -2  10  160.02   12.04
   2   2 -10  124.25   12.07
   2   2 -10  139.34   11.91
   2   2  -9  939.85   83.35
   2   2  -9 1029.33   83.21
  -2  -2   9 1004.48   83.39
  -2  -2   9 1021.25   83.20
  -2  -2   8   26.81    2.30
  -2  -2   8   24.70    2.57
   2   2  -8   25.37    2.26
  -2  -2   8   26.98    2.20
   2   2  -8   21.02    2.38
  -2  -2   8   23.19    2.28
  -2  -2   7    0.27    0.40
  -2  -2   7    0.21    0.20
  -2  -2   7    0.41    0.40
   2   2  -7   -0.03    0.61
  -2  -2   7   -0.26    0.98
   2   2  -6   61.19    5.62
  -2  -2   6   67.89    5.53
  -2  -2   6   65.20    5.57
  -2  -2   6   76.75    5.85
   2   2  -6   64.20    5.73
   2   2  -5  321.10   25.76
   2   2  -5  298.83   25.66
  -2  -2   5  335.52   25.80
  -2  -2   5  300.11   25.67
  -2  -2   4   12.67    1.30
   2   2  -4   12.77    1.28
  -2  -2   4   16.73    1.69
   2   2  -4   13.86    1.41
   2   2  -3    0.23    0.59
   2   2  -3    0.03    0.22
  -2  -2   3    0.40    0.46
  -2  -2   2    2.02    0.49
   2   2  -2    2.19    0.38
  -2  -2   2    2.10    0.33
  -2  -2   2    2.34    0.89
  -2  -2   1  295.66   25.85
  -2  -2   1  328.64   25.92
  -2  -2   1  327.21   25.92
   2   2  -1  324.03   25.93
   2   2  -1  304.16   25.89
  -2  -2   0    0.62    0.40
   2   2   0    1.02    0.52
   2   2   0    1.00    0.42
  -2  -2   0    1.03    0.67
   2   2   0    0.64    0.40
   2   2   1  227.28   21.08
  -2  -2  -1  254.03   21.08
   2   2   1  275.76   21.12
   2   2   1  256.36   21.17
  -2  -2  -1  270.41   21.13
  -2  -2  -1  260.47   21.14
  -2  -2  -2  279.07   22.64
  -2  -2  -2  266.73   22.61
   2   2   2  267.16   22.61
   2   2   2  260.21   22.56
   2   2   2  291.96   22.70
  -2  -2  -2  284.24   22.56
  -2  -2  -3   35.04    2.98
   2   2   3   33.63    2.91
  -2  -2  -3   35.42    2.85
   2   2   3   33.05    2.86
  -2  -2  -3   32.22    2.93
   2   2   3   32.68    3.00
   2   2   4    0.06    0.30
  -2  -2  -4    0.12    0.22
  -2  -2  -4    0.78    0.47
   2   2   4   -0.29    0.60
   2   2   4    0.28    0.28
  -2  -2  -4    0.19    0.35
  -2  -2  -5  136.14   11.04
  -2  -2  -5  138.77   11.10
   2   2   5  130.02   11.03
   2   2   5  126.85   11.19
   2   2   6    0.46    0.62
  -2  -2  -6   -0.19    0.55
   2   2   6    0.24    0.40
   2   2   6   -0.11    0.31
  -2  -2  -6   -0.13    0.41
  -2  -2  -6    0.01    0.29
  -2  -2  -7   14.06    1.52
   2   2   7   13.48    1.60
   2   2   7   14.89    1.33
  -2  -2  -7   14.77    1.32
  -2  -2  -8  296.99   23.14
  -2  -2  -8  274.18   22.94
   2   2   8  272.73   22.95
   2   2   8  279.25   23.15
  -2  -2  -9   51.34    4.21
   2   2   9   47.37    4.22
   2   2   9   46.45    3.97
  -2  -2  -9   45.74    3.95
  -2  -2 -10   24.46    2.14
   2   2  10   26.62    2.39
   2   2  10   24.58    2.16
  -2  -2 -10   25.84    2.45
  -2  -2 -11   68.71    5.75
  -2  -2 -11   62.73    5.73
   2   2  11   86.63    5.96
  -2  -2 -11   84.54    6.16
  -2  -2 -12    3.17    0.38
  -2  -2 -12    2.54    0.34
  -2  -2 -13    4.52    1.00
   2   2  13    3.54    0.98
   2   2  14    9.77    1.38
  -2  -2 -14    9.90    1.43
   2   2  15    4.72    1.17
   2   2  16    6.08    1.31
  -2  -2 -16    8.42    1.39
   2   2  17   24.17    2.59
  -2  -2 -17   23.99    2.66
   2   2  18    8.67    1.52
   2   2  19   28.78    3.10
  -2  -2 -19   30.52    3.18
  -2  -2 -20    4.46    1.31
   2   2  20    3.97    1.24
   2   2  21    5.98    1.44
  -2  -3  19    7.76    1.70
   2   3 -19    3.33    1.30
  -2  -3  18   14.24    2.18
   2   3 -17    1.34    1.15
  -2  -3  17    3.30    1.64
   2   3 -16   52.11    5.39
  -2  -3  16   67.52    5.53
   2   3 -15   10.86    1.73
  -2  -3  15   14.10    2.06
   2   3 -14    0.27    0.90
  -2  -3  14    0.26    1.43
   2   3 -13    2.98    0.40
   2   3 -13    3.54    1.05
  -2  -3  13    3.86    1.48
  -2  -3  12    6.93    0.71
   2   3 -12    5.90    0.70
   2   3 -12    6.60    1.21
  -2  -3  12    7.04    1.63
  -2  -3  11   45.69    3.88
  -2  -3  11   41.08    3.60
   2   3 -11   41.65    3.60
  -2  -3  10    0.61    0.43
  -2  -3  10    1.12    0.78
   2   3 -10    0.65    0.39
  -2  -3  10    0.71    1.36
   2   3  -9    8.32    0.89
  -2  -3   9    8.51    0.92
  -2  -3   9    6.94    1.10
   2   3  -9    7.25    1.19
  -2  -3   9    7.47    1.62
  -2  -3   8  161.26   12.75
   2   3  -8  141.35   12.62
  -2  -3   7  262.63   22.86
  -2  -3   7  292.51   22.86
  -2  -3   7  254.29   22.98
   2   3  -7  250.89   22.92
   2   3  -7  296.76   22.83
   2   3  -6   11.24    1.34
  -2  -3   6   11.42    1.21
   2   3  -6   13.37    1.22
  -2  -3   6   11.10    1.63
  -2  -3   6   11.83    1.27
   2   3  -5   10.68    1.34
  -2  -3   5   12.60    1.27
  -2  -3   5   12.49    1.23
  -2  -3   5   12.23    1.12
   2   3  -5   12.42    1.22
  -2  -3   5   13.93    1.59
  -2  -3   4   16.92    1.60
   2   3  -4   18.19    1.60
   2   3  -4   14.95    1.68
   2   3  -3 1072.71   82.97
   2   3  -3  973.50   82.92
  -2  -3   3 1062.27   82.91
  -2  -3   3 1006.80   82.92
   2   3  -3  905.93   82.94
   2   3  -2  239.45   18.58
  -2  -3   2  224.60   18.57
  -2  -3   2  197.78   18.56
   2   3  -2  237.37   18.62
   2   3  -1   44.46    3.72
   2   3  -1   47.71    3.79
  -2  -3   1   41.03    3.75
  -2  -3   1   40.48    3.70
  -2  -3   0  189.75   16.94
  -2  -3   0  201.70   16.93
   2   3   0  224.05   16.99
  -2  -3  -1   24.94    2.04
   2   3   1   21.52    2.03
  -2  -3  -1   21.84    2.10
  -2  -3  -1   21.37    2.09
  -2  -3  -2    0.06    0.32
   2   3   2    0.11    0.43
   2   3   2   -0.35    0.64
  -2  -3  -2    0.42    0.58
  -2  -3  -2    0.38    0.56
  -2  -3  -3   12.20    1.19
   2   3   3   11.60    1.18
  -2  -3  -3   12.81    1.33
  -2  -3  -3   11.47    1.03
  -2  -3  -3   11.35    1.07
   2   3   4  307.48   25.58
  -2  -3  -4  317.85   25.70
   2   3   4  288.76   25.65
  -2  -3  -4  319.04   25.59
  -2  -3  -5    8.89    0.93
   2   3   5    9.94    1.11
  -2  -3  -5    9.96    1.15
   2   3   5    7.45    0.94
  -2  -3  -6  447.36   34.31
  -2  -3  -6  390.27   34.17
   2   3   6  423.10   34.28
   2   3   6  413.90   34.18
  -2  -3  -7    1.11    0.36
   2   3   7    0.83    0.39
  -2  -3  -7    1.31    0.59
   2   3   7    0.66    0.66
  -2  -3  -8   20.75    1.92
  -2  -3  -8   17.47    1.71
   2   3   8   18.87    1.64
   2   3   8   19.30    1.65
   2   3   8   22.15    2.00
  -2  -3  -9   19.01    1.93
   2   3   9   18.83    1.75
   2   3   9   18.48    1.69
   2   3   9   21.30    2.01
  -2  -3 -10   51.72    5.22
   2   3  10   65.83    5.08
  -2  -3 -10   61.23    5.03
   2   3  10   55.30    5.02
   2   3  10   61.97    5.32
  -2  -3 -11   17.30    1.56
   2   3  11   17.09    1.59
   2   3  11   16.82    1.91
   2   3  12   27.98    2.67
  -2  -3 -12   24.56    2.60
   2   3  12   27.83    2.41
  -2  -3 -12   25.41    2.28
   2   3  13   37.55    3.58
   2   3  13   39.22    3.35
  -2  -3 -13   34.44    3.57
   2   3  14   29.37    2.71
   2   3  14   35.27    2.51
  -2  -3 -14   32.31    2.77
   2   3  15    6.61    1.22
  -2  -3 -15    3.56    0.52
  -2  -3 -15    7.03    1.10
  -2  -3 -16    1.17    0.90
   2   3  17   23.35    2.72
  -2  -3 -17   28.99    2.80
  -2  -3 -18   16.42    1.96
   2   3  18   13.42    1.89
   2   3  19   21.17    2.49
  -2  -3 -19   24.28    2.60
   2   3  20    2.50    1.14
  -2  -3 -20    2.00    1.14
   2   3  21    1.15    1.12
   2   4 -18   88.01    9.12
  -2  -4  18  126.09    9.27
   2   4 -17    1.24    1.21
   2   4 -16    3.55    1.37
  -2  -4  16    5.68    1.73
  -2  -4  15    0.59    1.57
   2   4 -14   35.60    3.71
  -2  -4  14   41.26    3.85
   2   4 -13    9.66    1.61
  -2  -4  13   11.67    1.87
  -2  -4  12    3.85    0.50
   2   4 -12    3.68    0.51
   2   4 -11    1.50    0.96
  -2  -4  11    1.33    0.44
   2   4 -11    1.61    0.42
  -2  -4  10   18.73    1.63
  -2  -4  10   14.84    2.21
   2   4 -10   17.07    1.60
  -2  -4  10   16.41    1.90
   2   4 -10   14.92    1.90
  -2  -4   9   10.64    1.80
   2   4  -9    8.23    1.37
  -2  -4   9    9.21    1.37
  -2  -4   9   12.98    1.20
  -2  -4   8   15.89    1.48
   2   4  -8   12.90    1.61
   2   4  -8   13.49    1.38
  -2  -4   8   13.16    1.91
  -2  -4   7  139.53   10.96
  -2  -4   7  137.17   11.08
   2   4  -7  116.38   11.02
   2   4  -7  127.79   10.92
   2   4  -6    1.86    0.48
  -2  -4   6    2.27    0.76
  -2  -4   6    2.45    0.59
  -2  -4   5  183.46   14.94
  -2  -4   5  175.79   14.81
   2   4  -5  174.72   14.79
  -2  -4   4    8.98    1.21
  -2  -4   4    8.86    0.99
   2   4  -4    8.86    1.08
  -2  -4   3    0.62    0.71
   2   4  -3    0.78    0.44
  -2  -4   3    0.49    0.42
   2   4  -3    1.16    0.64
   2   4  -2   41.71    3.73
   2   4  -2   47.79    3.80
  -2  -4   2   41.46    3.72
  -2  -4   2   40.59    3.84
   2   4  -1  392.64   32.62
   2   4  -1  399.47   32.57
  -2  -4   1  400.95   32.68
  -2  -4   1  381.45   32.56
  -2  -4   0    0.25    0.54
   2   4   0    0.26    0.64
   2   4   0    0.53    0.43
  -2  -4  -1    7.38    1.02
   2   4   1    9.66    1.14
   2   4   1    9.37    0.99
  -2  -4  -2    0.96    0.81
   2   4   2    1.22    0.69
   2   4   2    0.90    0.50
  -2  -4  -2    0.90    0.56
   2   4   3  307.07   24.90
  -2  -4  -3  289.25   24.94
  -2  -4  -3  299.50   24.84
   2   4   4  363.79   29.03
  -2  -4  -4  343.05   28.95
   2   4   4  365.50   28.95
  -2  -4  -4  365.09   29.06
  -2  -4  -4  339.31   28.83
   2   4   5    1.42    0.62
   2   4   5    0.90    0.51
  -2  -4  -5    0.98    0.70
   2   4   6   18.50    1.88
   2   4   6   19.49    1.73
  -2  -4  -6   17.05    1.69
  -2  -4  -6   17.92    1.90
  -2  -4  -7    5.79    0.73
   2   4   7    6.65    0.97
   2   4   7    5.22    0.75
  -2  -4  -7    6.28    0.96
  -2  -4  -8   13.19    1.29
   2   4   8   13.87    1.34
  -2  -4  -8   11.27    1.49
  -2  -4  -9   15.89    1.89
   2   4   9   19.09    1.76
  -2  -4  -9   17.90    1.70
   2   4   9   20.31    1.95
  -2  -4 -10   56.64    3.06
  -2  -4 -10   51.36    3.34
   2   4  10   63.03    3.17
   2   4  10   34.75    2.85
   2   4  10   63.38    3.48
  -2  -4 -11   22.44    2.27
  -2  -4 -11   27.29    2.06
   2   4  11   19.93    1.96
   2   4  11   21.21    1.93
   2   4  11   29.89    2.42
   2   4  12    7.51    0.88
   2   4  12    5.15    0.81
  -2  -4 -13    7.44    1.15
   2   4  13    8.56    1.18
   2   4  14    1.70    0.90
  -2  -4 -14   -0.27    0.72
  -2  -4 -14    0.39    0.45
  -2  -4 -15    9.41    1.41
  -2  -4 -15    8.77    1.06
   2   4  16    6.13    1.23
  -2  -4 -16    6.28    1.22
   2   4  17   10.68    1.58
  -2  -4 -17   13.99    1.68
  -2  -4 -18    2.56    1.02
   2   4  18    2.04    1.01
   2   4  19    0.95    0.92
  -2  -4 -19    1.17    1.04
  -2  -4 -20   12.00    1.79
  -2  -4 -21    2.53    1.10
   2   4  21    2.60    1.11
  -2  -5  17   14.51    2.24
   2   5 -16   23.14    2.70
  -2  -5  16   24.46    2.80
   2   5 -15    5.60    1.38
  -2  -5  15    5.21    1.73
   2   5 -14    1.68    1.07
  -2  -5  14    1.26    1.49
   2   5 -13   -0.05    1.04
   2   5 -12   22.58    2.53
  -2  -5  12   23.61    2.67
   2   5 -11   73.79    6.07
   2   5 -11   63.02    5.70
  -2  -5  11   77.12    6.23
   2   5 -10    1.98    0.51
   2   5 -10    1.75    0.97
  -2  -5  10    1.16    1.43
   2   5  -9    0.71    0.48
   2   5  -9    0.87    0.83
  -2  -5   9    0.72    0.77
  -2  -5   9    0.55    0.57
  -2  -5   8    4.02    0.75
   2   5  -8    2.96    0.59
   2   5  -8    2.84    0.97
  -2  -5   8    2.33    0.95
   2   5  -7   34.93    2.94
   2   5  -7   28.64    3.05
  -2  -5   6   47.13    3.95
   2   5  -6   40.85    3.99
   2   5  -6   45.23    3.90
  -2  -5   6   42.11    4.11
  -2  -5   5  125.43   10.88
   2   5  -5  128.36   10.68
  -2  -5   5  131.77   10.70
   2   5  -5  118.89   10.76
  -2  -5   4   21.33    2.23
   2   5  -4   20.87    1.95
  -2  -5   4   19.65    1.95
   2   5  -4   19.96    2.05
   2   5  -3   66.27    5.78
   2   5  -3   69.17    5.85
  -2  -5   3   66.64    5.77
  -2  -5   2   18.41    1.91
   2   5  -2   20.47    1.90
   2   5  -2   22.49    2.00
   2   5  -2   22.53    2.02
  -2  -5   1    0.77    0.52
  -2  -5   1    1.99    0.91
  -2  -5   0    8.48    1.15
   2   5   0   10.43    1.11
  -2  -5   0   11.30    1.51
   2   5   0   10.86    1.21
   2   5   1   45.40    4.20
  -2  -5  -1   45.00    4.19
  -2  -5  -1   50.48    4.45
   2   5   1   51.01    4.29
   2   5   1   50.76    4.20
  -2  -5  -2   27.18    2.82
   2   5   2   26.51    2.61
  -2  -5  -2   29.60    2.62
   2   5   2   30.13    2.59
   2   5   2   29.48    2.73
   2   5   3   29.20    2.72
  -2  -5  -3   28.39    2.84
   2   5   3   31.20    2.57
   2   5   3   25.85    2.63
  -2  -5  -4   45.56    4.00
   2   5   4   46.06    4.02
  -2  -5  -4   47.02    4.19
   2   5   4   44.13    4.08
   2   5   5  350.46   28.48
  -2  -5  -5  320.96   28.55
   2   5   5  359.50   28.43
   2   5   5  334.78   28.28
  -2  -5  -5  351.57   28.42
   2   5   6   68.62    5.14
  -2  -5  -6   69.00    5.21
  -2  -5  -6   58.95    4.84
   2   5   6   68.18    5.06
   2   5   6   49.84    4.83
  -2  -5  -6   64.90    5.03
  -2  -5  -7    2.21    0.54
   2   5   7    2.62    0.79
  -2  -5  -8  105.70    8.34
   2   5   8  104.98    8.50
   2   5   8  113.35    8.39
   2   5   9   57.75    4.93
  -2  -5  -9   53.28    5.05
   2   5   9   58.60    5.10
  -2  -5 -10  280.62   27.49
  -2  -5 -10  337.33   27.35
   2   5  10  319.56   27.53
   2   5  10  361.81   27.41
   2   5  11   32.78    2.81
   2   5  11   29.99    3.01
  -2  -5 -11   30.92    2.72
  -2  -5 -11   26.34    2.92
  -2  -5 -12    4.26    0.90
  -2  -5 -13    0.94    0.78
  -2  -5 -14    0.80    0.74
   2   5  15    5.30    1.11
  -2  -5 -15    4.93    1.02
   2   5  16    0.13    0.82
  -2  -5 -16    1.06    0.85
   2   5  17   15.88    1.90
  -2  -5 -18   -0.10    0.87
   2   5  18    0.54    0.91
  -2  -5 -19    0.34    0.87
   2   5  19    1.01    0.96
   2   5  20    2.83    1.11
   2   5  21    1.10    1.00
  -2  -5 -21    1.66    1.08
   2   6 -16    0.71    1.23
  -2  -6  16    2.34    1.60
   2   6 -15    0.11    1.17
  -2  -6  15   -0.24    1.62
   2   6 -13    2.09    1.15
  -2  -6  13    2.94    1.44
  -2  -6  12   -0.39    1.35
   2   6 -12    1.29    1.06
   2   6 -11    4.43    1.26
  -2  -6  11    5.76    1.63
   2   6 -10    9.23    1.48
   2   6  -9    5.25    1.17
   2   6  -8    2.35    1.04
  -2  -6   8    0.91    0.97
   2   6  -8    1.57    0.57
   2   6  -7    2.50    0.62
  -2  -6   7    3.27    0.81
   2   6  -6    0.97    0.53
  -2  -6   6    0.09    1.05
   2   6  -6    1.38    0.94
  -2  -6   6    1.10    0.65
   2   6  -5  141.76   11.99
   2   6  -5  137.78   12.06
  -2  -6   5  146.56   12.21
  -2  -6   5  142.22   11.99
  -2  -6   4   30.32    2.81
  -2  -6   4   32.69    3.11
   2   6  -4   28.23    2.87
   2   6  -3    1.52    0.87
   2   6  -3    1.15    0.91
  -2  -6   3    1.89    1.12
   2   6  -3    1.26    0.60
   2   6  -2    6.43    1.06
  -2  -6   2    4.84    0.86
   2   6  -2    4.60    0.80
  -2  -6   2    5.54    1.19
   2   6  -1  189.31   17.34
  -2  -6   1  197.35   17.53
   2   6  -1  222.05   17.34
   2   6  -1  214.76   17.42
  -2  -6   1  209.02   17.36
   2   6   0   12.25    1.47
   2   6   0   14.04    1.51
   2   6   0   14.50    1.62
  -2  -6   0   13.70    1.86
  -2  -6   0   13.95    1.48
  -2  -6  -1    4.16    0.76
   2   6   1    3.00    0.72
   2   6   1    3.49    0.81
  -2  -6  -1    2.89    1.26
   2   6   1    4.59    0.94
  -2  -6  -2   47.28    4.29
   2   6   2   49.83    4.38
   2   6   2   47.18    4.21
  -2  -6  -2   52.36    4.62
   2   6   3    1.65    0.65
   2   6   3    0.95    0.70
   2   6   3    1.16    0.67
  -2  -6  -3    0.65    0.58
  -2  -6  -3    1.18    1.07
   2   6   4    0.20    0.60
  -2  -6  -4   -0.28    0.92
   2   6   4    0.23    0.65
   2   6   5   22.77    2.11
   2   6   5   23.98    2.27
  -2  -6  -5   24.29    2.52
  -2  -6  -5   24.42    2.24
   2   6   5   21.73    2.31
   2   6   6   44.15    4.04
   2   6   6   54.94    4.08
   2   6   6   37.83    3.80
  -2  -6  -6   54.89    4.26
  -2  -6  -6   49.09    3.98
   2   6   7    0.42    0.60
   2   6   7    0.97    0.80
   2   6   7    0.08    0.38
  -2  -6  -7   -0.05    0.49
  -2  -6  -7    0.34    0.80
  -2  -6  -8    2.60    0.65
   2   6   8    3.75    0.98
   2   6   8    3.29    0.76
   2   6   8    1.49    0.32
  -2  -6  -8    2.09    0.35
  -2  -6  -9   23.57    2.42
   2   6   9   21.80    2.41
   2   6   9   24.07    2.27
  -2  -6  -9   21.88    2.17
  -2  -6 -10    3.86    0.70
  -2  -6 -10    3.04    1.01
   2   6  10    3.95    0.81
   2   6  10    3.72    1.07
   2   6  11   21.87    2.31
  -2  -6 -11   19.46    1.97
  -2  -6 -11   22.08    2.26
  -2  -6 -12   68.05    6.46
   2   6  12   78.97    6.55
  -2  -6 -13   30.79    3.05
   2   6  13   30.96    3.12
  -2  -6 -14   10.07    1.38
   2   6  14    9.39    1.48
   2   6  15    0.63    0.93
  -2  -6 -15   -0.16    0.69
  -2  -6 -16   14.57    1.67
   2   6  16   10.14    1.59
  -2  -6 -17    7.83    1.28
   2   6  17    6.11    1.23
  -2  -6 -18    1.47    0.86
  -2  -6 -19    7.19    1.30
   2   6  19    4.86    1.24
  -2  -6 -20    1.82    1.09
   2   6  20    1.86    1.04
   2   6  21    3.14    1.11
  -2  -6 -21    3.26    1.13
  -2  -6 -22    0.81    1.04
   2   7 -14    3.40    1.28
  -2  -7  14    4.55    1.79
   2   7 -13    2.79    1.26
  -2  -7  13    1.96    1.66
   2   7 -12    0.15    1.01
  -2  -7  12   -0.05    1.57
   2   7 -11    7.26    1.46
  -2  -7  11    9.77    1.88
   2   7 -10    0.41    1.05
   2   7  -9    1.09    1.02
   2   7  -8    0.89    0.88
  -2  -7   8    1.68    1.12
   2   7  -7    1.31    0.95
  -2  -7   7    0.37    1.06
  -2  -7   6    0.42    1.07
   2   7  -6    0.19    0.99
  -2  -7   5    1.42    1.16
   2   7  -5    1.69    0.72
   2   7  -5    1.97    0.92
  -2  -7   4    4.16    1.25
   2   7  -4    3.90    0.86
   2   7  -4    4.92    1.10
  -2  -7   4    5.38    0.96
   2   7  -4    5.15    1.14
  -2  -7   3   42.58    3.98
   2   7  -3   38.01    3.69
   2   7  -3   41.59    3.73
  -2  -7   3   39.23    3.70
  -2  -7   2   10.31    1.36
   2   7  -2   10.19    1.31
   2   7  -2   12.13    1.50
  -2  -7   2   10.26    1.72
  -2  -7   1   84.01    7.08
   2   7  -1   88.19    7.08
   2   7  -1   79.60    7.11
  -2  -7   1   68.97    7.24
   2   7   0    6.74    1.18
  -2  -7   0    5.28    0.97
  -2  -7   0    5.14    1.43
   2   7   0    5.58    0.98
   2   7   0    6.05    1.13
   2   7   1  741.32   58.93
  -2  -7  -1  632.73   59.13
   2   7   1  756.38   58.84
   2   7   1  667.49   58.94
  -2  -7  -2   97.98    7.96
  -2  -7  -2   72.91    8.18
   2   7   2   86.47    7.86
   2   7   2   97.94    8.04
   2   7   2  102.56    8.01
   2   7   3   19.27    2.05
  -2  -7  -3   20.30    2.00
   2   7   3   17.40    2.07
   2   7   3   19.92    1.92
   2   7   4    0.21    0.67
  -2  -7  -4    0.58    0.69
  -2  -7  -4    0.11    1.12
   2   7   4    0.69    0.86
   2   7   4    0.22    0.70
   2   7   5   11.98    1.67
  -2  -7  -5   19.29    1.68
  -2  -7  -5   14.57    2.07
   2   7   5   18.45    1.80
   2   7   5   12.90    1.53
  -2  -7  -6  115.46    8.91
  -2  -7  -6  120.49    8.62
   2   7   6  121.21    8.68
   2   7   6   86.21    8.41
   2   7   6   87.14    8.61
   2   7   7   12.33    1.55
  -2  -7  -7   13.12    1.43
  -2  -7  -7   11.00    1.72
   2   7   8   11.40    1.36
   2   7   8    7.42    0.96
   2   7   8   10.41    1.42
  -2  -7  -8    9.89    1.49
  -2  -7  -8   11.00    1.22
   2   7   9   18.93    1.61
   2   7   9   10.42    1.09
  -2  -7 -10   -0.29    0.82
   2   7  10    1.09    1.08
  -2  -7 -10    0.08    0.59
   2   7  10    0.32    0.74
  -2  -7 -11    4.83    1.09
   2   7  11    3.08    1.12
   2   7  12    5.59    1.29
  -2  -7 -12    6.14    1.21
   2   7  13    0.05    0.98
   2   7  14    2.77    1.08
   2   7  15    2.47    1.08
  -2  -7 -15    5.60    1.03
   2   7  16    2.29    1.01
  -2  -7 -16    4.34    1.08
  -2  -7 -17   12.50    1.55
   2   7  17    7.81    1.43
   2   7  18    1.03    0.93
  -2  -7 -19    8.91    1.42
   2   7  19    6.22    1.30
   2   7  20    0.56    1.00
  -2  -7 -20    1.55    1.06
  -2  -7 -21    6.71    1.39
   2   7  21    2.69    1.13
  -2  -7 -22    3.55    1.26
  -2  -8  13   -0.35    1.66
  -2  -8  12    3.04    1.72
  -2  -8  11    4.67    1.70
   2   8 -10   65.88    6.00
   2   8  -9   36.69    3.63
   2   8  -8   -0.17    0.96
   2   8  -7   -0.30    0.91
  -2  -8   7    0.76    1.12
  -2  -8   6    4.51    1.40
   2   8  -5    6.02    1.24
  -2  -8   5    7.51    1.52
  -2  -8   4    0.51    1.15
   2   8  -4    0.37    0.97
  -2  -8   3    2.56    1.26
   2   8  -3    4.70    1.23
   2   8  -3    2.57    1.02
   2   8  -2    1.81    1.18
   2   8  -2    2.32    1.03
  -2  -8   2    0.75    1.24
   2   8  -2    1.60    0.84
   2   8  -1   34.56    3.33
   2   8  -1   30.26    3.30
   2   8  -1   35.98    3.30
  -2  -8   1   34.57    3.28
  -2  -8   0    4.54    0.92
   2   8   0    3.81    1.09
   2   8   0    3.85    1.25
  -2  -8   0    3.94    1.43
   2   8   0    3.27    0.95
  -2  -8  -1   56.54    4.87
   2   8   1   58.79    4.97
   2   8   1   55.83    4.83
   2   8   1   59.32    5.02
  -2  -8  -2    8.09    1.86
   2   8   2    8.61    1.24
  -2  -8  -2    7.10    1.13
   2   8   2    8.88    1.28
   2   8   3  132.37    9.57
   2   8   3   97.87    9.29
   2   8   3  103.11    9.48
  -2  -8  -3  126.07    9.46
  -2  -8  -3   94.69    9.68
  -2  -8  -4   18.68    1.77
   2   8   4   15.06    1.76
   2   8   4   13.29    1.63
   2   8   4   13.37    1.83
  -2  -8  -5    1.36    1.21
   2   8   5    0.39    0.91
   2   8   5    0.91    0.84
   2   8   5    0.11    0.75
  -2  -8  -6    4.94    1.44
  -2  -8  -6    7.61    1.03
   2   8   6    5.24    1.09
   2   8   6    6.02    1.19
  -2  -8  -7    5.70    1.33
   2   8   7    2.40    0.80
   2   8   7    4.80    1.16
   2   8   7    3.75    0.95
  -2  -8  -7    4.74    0.86
  -2  -8  -8   35.87    2.80
   2   8   8   37.12    2.90
  -2  -8  -8   27.95    3.04
   2   8   8   22.36    2.54
   2   8   8   27.45    2.88
   2   8   9   -0.50    1.03
  -2  -8  -9    0.39    0.67
   2   8   9    0.41    0.78
  -2  -8  -9    0.06    0.99
  -2  -8 -10    6.69    1.04
   2   8  10    7.61    1.42
   2   8  10    7.79    1.25
  -2  -8 -10    7.64    1.39
   2   8  11    9.24    1.50
  -2  -8 -12    2.40    1.02
  -2  -8 -13   -0.21    0.86
   2   8  13   -0.49    1.07
  -2  -8 -14    2.07    0.99
  -2  -8 -15    1.17    0.90
   2   8  16    1.05    1.13
  -2  -8 -16    1.99    1.01
  -2  -8 -17   16.46    1.75
   2   8  17    7.01    1.50
  -2  -8 -18    0.10    0.96
   2   8  18    0.55    0.99
  -2  -8 -19    0.05    0.94
   2   8  19   -0.19    1.05
  -2  -8 -20    0.89    1.11
   2   8  20    0.67    1.00
  -2  -8 -21    0.51    1.05
   2   9  -7   49.37    4.61
   2   9  -6   16.48    2.01
  -2  -9   6   17.20    2.22
  -2  -9   5   -0.68    1.14
   2   9  -5    0.04    0.91
  -2  -9   4    0.74    1.21
   2   9  -4    1.38    0.98
   2   9  -3   24.90    2.77
  -2  -9   3   21.12    2.93
   2   9  -2    5.43    1.32
  -2  -9   2    4.76    1.45
   2   9  -1    1.29    1.06
  -2  -9   1    0.59    1.15
   2   9  -1    1.07    1.22
   2   9   0    5.83    1.33
   2   9   1    4.09    1.31
  -2  -9  -1    3.72    1.62
   2   9   1    4.85    1.28
   2   9   2    0.38    1.00
   2   9   2    0.57    1.17
  -2  -9  -2    0.50    1.45
   2   9   3    0.61    0.84
   2   9   3   -0.21    0.97
  -2  -9  -3    0.93    1.49
   2   9   3    1.46    1.04
   2   9   4    1.92    0.99
   2   9   4   -0.05    0.97
  -2  -9  -4    0.87    0.75
   2   9   4    1.35    0.86
  -2  -9  -4    1.85    1.39
  -2  -9  -5    1.46    0.83
   2   9   5    1.03    1.00
   2   9   5    3.47    1.00
   2   9   6    0.62    0.95
  -2  -9  -6    0.41    0.75
   2   9   6    0.65    0.99
  -2  -9  -6    0.56    1.30
   2   9   6    0.76    0.85
   2   9   7   -0.50    0.75
   2   9   7    0.31    0.90
  -2  -9  -7    0.13    1.17
  -2  -9  -7   -0.32    0.72
   2   9   8    3.17    1.09
   2   9   8    2.41    0.81
  -2  -9  -8    1.32    1.13
  -2  -9  -8    4.11    0.88
  -2  -9  -9    3.54    1.26
   2   9   9    4.21    1.19
  -2  -9  -9    5.07    0.98
  -2  -9 -10    0.59    1.11
   2   9  10    0.83    1.08
  -2  -9 -11    0.81    0.99
   2   9  12    1.47    1.17
  -2  -9 -12   -0.57    0.95
   2   9  13    2.55    1.25
  -2  -9 -13    3.44    1.11
   2   9  14   12.57    2.11
  -2  -9 -14   19.29    2.10
   2   9  15    9.65    1.94
  -2  -9 -15   19.29    2.04
   2   9  16    0.40    1.12
  -2  -9 -16    1.65    1.01
  -2  -9 -17    0.65    0.98
   2   9  17    0.33    1.15
  -2  -9 -18   27.04    2.36
   2   9  18   10.93    2.10
   2   9  19    1.22    1.10
  -2  -9 -20   11.14    1.71
  -2 -10   5    4.34    1.41
  -2 -10   4    9.01    1.73
  -2 -10   3    7.36    1.65
  -2 -10   2   14.99    2.23
   2  10  -2   13.06    1.97
   2  10  -1   10.29    1.60
  -2 -10   1   12.44    2.01
   2  10   0    0.43    0.99
   2  10   0    0.30    1.23
  -2 -10   0    0.15    1.37
   2  10   1    0.38    1.03
   2  10   2    1.94    1.13
  -2 -10  -2    1.25    1.46
   2  10   2    3.59    1.26
  -2 -10  -3    1.17    1.37
   2  10   3    2.10    1.13
  -2 -10  -4   -0.07    1.28
   2  10   4    0.51    1.18
   2  10   5    0.21    0.99
  -2 -10  -5    0.37    1.31
   2  10   5    0.25    1.01
   2  10   6    5.64    1.40
   2  10   6   10.41    1.36
   2  10   7    0.94    1.08
   2  10   7    2.38    0.97
  -2 -10  -7    1.28    1.22
  -2 -10  -8    3.67    1.32
   2  10   8    6.51    1.32
  -2 -10  -9    0.07    1.11
   2  10   9   -0.82    1.16
  -2 -10 -10    0.32    1.09
   2  10  10   -0.49    1.11
   2  10  11   11.13    1.80
  -2 -10 -12    0.96    1.00
   2  10  12    1.45    1.24
  -2 -10 -13    7.78    1.42
   2  10  13    7.44    1.62
  -2 -10 -14    2.12    1.04
  -2 -10 -15    6.78    1.37
   2  10  16    0.84    1.26
   2  10  17    2.08    1.29
  -2 -10 -17    6.09    1.32
  -2 -10 -18   24.31    2.14
   2  10  18    6.05    1.73
   2  10  19    0.32    1.03
  -2 -10 -19    0.61    1.01
  -2 -11   4    1.87    1.31
  -2 -11   3    6.52    1.64
  -2 -11   2   11.92    2.12
   2  11  -1    1.89    1.27
  -2 -11   1    1.17    1.37
  -2 -11   0   17.11    2.71
   2  11   0   28.41    2.70
  -2 -11  -1    2.26    1.50
   2  11   1    3.89    1.36
   2  11   2   -0.31    1.21
   2  11   3    1.47    1.15
  -2 -11  -3    2.85    1.43
   2  11   4    2.07    1.20
  -2 -11  -4    3.36    1.41
  -2 -11  -5    5.75    1.62
   2  11   5    2.47    1.26
   2  11   6   -0.32    1.08
   2  11   6    0.86    1.02
  -2 -11  -6    0.07    1.17
   2  11   7    0.89    1.11
  -2 -11  -8    0.07    1.07
   2  11   8    0.49    1.10
  -2 -11  -9    3.02    1.29
  -2 -11 -10    1.58    1.23
   2  11  10    2.59    1.20
   2  11  11    0.47    1.17
  -2 -11 -11   -1.00    1.06
   2  11  12    5.97    1.56
  -2 -11 -13    1.14    0.99
   2  11  13    3.44    1.35
  -2 -11 -14    1.84    1.14
   2  11  14    0.71    1.26
  -2 -11 -15    0.94    1.10
   2  11  15   -0.32    1.21
  -2 -11 -16    0.24    1.00
   2  11  16   -0.57    1.25
   2  11  17    0.12    1.20
  -2 -11 -17    2.08    1.09
   2  11  18    0.81    1.19
  -2 -12   2    0.66    1.38
  -2 -12   1    7.63    1.76
  -2 -12   0   11.29    1.95
  -2 -12  -1    0.36    1.26
  -2 -12  -2   12.98    1.95
   2  12   2    9.12    1.72
  -2 -12  -3    0.64    1.33
   2  12   3    2.34    1.33
   2  12   4   -0.08    1.24
  -2 -12  -4    1.01    1.30
  -2 -12  -5    4.84    1.49
  -2 -12  -6    2.46    1.31
  -2 -12  -7    1.47    1.31
   2  12   9    1.48    1.26
  -2 -12  -9    1.80    1.32
  -2 -12 -10    4.24    1.39
   2  12  10    1.79    1.29
   2  12  11    1.82    1.29
  -2 -12 -11    9.17    1.51
   2  12  12    0.82    1.19
  -2 -12 -12    2.00    1.10
  -2 -12 -13    1.42    1.12
   2  12  13    0.57    1.30
  -2 -12 -14    0.29    0.99
   2  12  14   -0.52    1.17
   2  12  15    0.72    1.29
  -2 -12 -15    6.95    1.33
   2  12  16    0.06    1.26
  -2 -13   1    1.69    1.41
  -2 -13   0    6.24    1.59
  -2 -13  -2    1.31    1.33
  -2 -13  -3    0.56    1.33
  -2 -13  -4    3.20    1.46
  -2 -13  -5    1.87    1.35
  -2 -13  -6    0.20    1.23
  -2 -13  -7    1.39    1.15
  -2 -13  -8    2.91    1.34
  -2 -13 -10    4.18    1.28
  -2 -13 -11    0.36    1.08
  -3  11   9    0.21    1.08
  -3  11   8    2.46    1.23
   3 -11  -8    8.32    1.67
  -3  11   7    1.72    1.14
   3 -11  -7    0.43    1.25
  -3  11   6    0.57    1.12
   3 -11  -6    1.50    1.26
   3 -11  -5    1.30    1.25
  -3  11   5    0.14    1.13
  -3  11   4    1.67    1.10
  -3  11   3    0.98    1.05
  -3  11   2   -0.03    1.04
   3 -10 -14    3.06    1.34
   3 -10 -13    1.42    1.25
   3 -10 -12   -0.28    1.26
   3 -10 -11   10.95    1.74
  -3  10  11    4.13    1.37
   3 -10 -10    5.82    1.51
  -3  10  10    3.83    1.28
   3 -10  -9   25.96    2.83
  -3  10   9   17.66    2.30
   3 -10  -8    6.10    1.52
  -3  10   7   17.21    2.16
   3 -10  -7   20.33    2.50
  -3  10   6    7.85    1.51
   3 -10  -6   12.11    1.86
  -3  10   5    3.08    1.14
   3 -10  -5    2.10    1.33
  -3  10   4    2.33    1.13
   3 -10  -4    0.52    1.25
  -3  10   3    0.73    1.04
   3 -10  -3    1.40    1.45
   3 -10  -2    1.45    1.36
  -3  10   2    1.37    1.08
  -3  10   1    2.83    1.15
   3 -10  -1    4.60    1.60
  -3  10   0    0.19    1.00
   3 -10   1    7.32    1.87
  -3  10  -1    3.00    1.14
   3 -10   2    1.86    1.57
   3 -10   3    4.98    1.84
   3  -9 -17    7.40    1.69
   3  -9 -15    5.27    1.60
   3  -9 -14    0.43    1.25
   3  -9 -12    2.30    1.37
  -3   9  12    1.53    1.25
   3  -9 -11   -0.44    1.19
  -3   9  11    1.33    1.26
   3  -9 -10    2.95    1.44
  -3   9   9    2.09    1.36
  -3   9   8    7.50    1.57
   3  -9  -8    5.94    1.50
  -3   9   7    5.64    1.47
   3  -9  -7    3.72    1.29
   3  -9  -6    5.43    1.49
  -3   9   6    5.59    1.40
   3  -9  -5    6.47    1.55
  -3   9   4    0.55    1.03
  -3   9   3    5.33    1.23
   3  -9  -3    6.98    1.67
  -3   9   2    0.51    0.98
   3  -9  -2   -0.33    1.21
  -3   9   1    7.61    1.28
   3  -9  -1    8.40    2.00
   3  -9   0   -0.09    1.38
  -3   9   0    1.22    0.97
   3  -9   2   23.85    2.95
  -3   9  -2   15.66    1.94
   3  -9   3    1.73    1.69
  -3   9  -3    0.22    0.90
  -3   9  -4    3.43    1.05
   3  -9   4    4.86    1.85
  -3   9  -5    1.84    0.92
  -3   9  -6    0.10    0.97
   3  -9   6    0.29    1.66
   3  -9   7    2.07    1.83
  -3   8  19    2.77    1.07
  -3   8  18   14.10    1.85
   3  -8 -17    0.71    1.32
  -3   8  17    1.05    0.96
   3  -8 -16   37.27    2.97
  -3   8  16    8.69    1.92
  -3   8  15    3.02    1.17
   3  -8 -15    6.56    1.75
  -3   8  14    7.20    1.47
  -3   8  14    7.18    1.58
   3  -8 -13    4.40    1.62
  -3   8  13    2.20    1.42
   3  -8 -12    1.91    1.26
  -3   8  12    1.58    1.35
   3  -8 -11   -0.07    1.34
   3  -8 -10    8.07    1.70
  -3   8  10    6.53    1.55
   3  -8  -9    9.34    1.78
  -3   8   9    7.60    1.73
   3  -8  -8    0.20    1.15
  -3   8   8   -0.04    1.24
  -3   8   7   19.75    2.16
   3  -8  -7   11.88    2.00
   3  -8  -6    0.35    1.17
  -3   8   6    1.09    1.35
  -3   8   5    0.36    1.10
   3  -8  -5    0.65    1.28
   3  -8  -4    0.90    1.18
  -3   8   4    0.94    1.09
  -3   8   3   11.41    1.54
  -3   8   2   -0.09    0.97
   3  -8  -2    0.33    1.41
   3  -8  -1   20.88    2.86
  -3   8   1   20.14    2.12
  -3   8   0    2.68    0.91
   3  -8   0    1.82    1.48
  -3   8  -1    0.06    0.88
   3  -8   1    0.84    1.55
  -3   8  -2    0.42    0.89
  -3   8  -3    0.88    0.83
   3  -8   3    3.83    1.81
   3  -8   4   14.80    2.43
  -3   8  -4    7.17    1.25
  -3   8  -5    7.59    1.27
   3  -8   5   10.45    2.48
   3  -8   7   10.21    2.37
  -3   8  -7    5.21    1.19
   3  -8   8    3.85    2.17
  -3   8  -8    2.49    1.05
   3  -8   9    0.75    1.94
  -3   7  19    1.26    0.93
  -3   7  18    0.64    1.01
   3  -7 -17   16.91    2.48
   3  -7 -16    5.36    1.67
   3  -7 -15    1.15    1.62
  -3   7  15    0.30    1.19
  -3   7  14    3.99    1.18
   3  -7 -14    5.96    1.74
  -3   7  14    2.99    1.37
   3  -7 -13    1.85    1.52
  -3   7  13    1.73    1.37
  -3   7  12   17.44    2.01
  -3   7  12   10.93    1.68
  -3   7  11   13.11    1.87
   3  -7 -11   20.39    2.51
  -3   7  10    3.99    1.15
   3  -7 -10    5.68    1.67
  -3   7  10    7.65    1.49
   3  -7  -9    0.60    1.14
  -3   7   9    0.81    1.30
  -3   7   9    0.04    0.88
   3  -7  -8   14.00    1.76
   3  -7  -8   10.98    1.53
   3  -7  -7   33.73    3.72
   3  -7  -7   36.67    3.93
  -3   7   7   45.86    3.85
   3  -7  -6   41.65    4.55
   3  -7  -6   45.03    4.76
  -3   7   5   32.20    2.85
   3  -7  -5   22.13    2.69
   3  -7  -5   27.99    3.09
   3  -7  -4   31.84    3.79
  -3   7   4   39.89    3.61
   3  -7  -3   -1.10    1.41
   3  -7  -2    0.82    1.40
   3  -7  -1   11.97    2.15
  -3   7   1   10.86    1.45
  -3   7   0    0.54    0.84
   3  -7   0    1.55    1.57
   3  -7   1   11.19    2.30
  -3   7  -1   13.61    1.56
  -3   7  -2    0.08    0.81
   3  -7   2   -0.30    1.64
  -3   7  -3    2.77    0.93
  -3   7  -4    0.37    0.85
   3  -7   4    2.16    1.76
   3  -7   5    1.04    1.73
  -3   7  -6   -0.27    0.89
   3  -7   6    0.94    2.03
  -3   7  -7    4.76    1.09
   3  -7   7    4.97    1.98
  -3   7  -8   -0.30    0.95
   3  -7   8    0.65    1.93
   3  -7   9    4.95    2.14
  -3   7  -9    4.63    1.19
   3  -7  10    0.22    1.74
   3  -7  11   13.25    2.65
  -3   7 -11    8.43    1.51
   3  -7  12    5.76    2.18
  -3   6  20    0.48    0.97
   3  -6 -17    4.41    1.55
   3  -6 -16    4.27    1.59
  -3   6  16    1.75    1.32
  -3   6  15   11.69    1.84
   3  -6 -14    3.48    1.63
  -3   6  13    0.80    1.23
   3  -6 -12   48.39    4.54
  -3   6  12   37.80    3.92
  -3   6  11   -0.55    0.90
  -3   6  11    0.04    1.19
   3  -6 -11    1.32    1.50
   3  -6 -10    0.41    0.89
   3  -6 -10    1.48    1.26
  -3   6  10    0.14    1.25
  -3   6  10    0.49    0.90
   3  -6  -9   26.19    2.65
   3  -6  -9   21.24    2.49
   3  -6  -9   24.34    2.86
  -3   6   8    1.44    1.28
   3  -6  -8    2.69    1.25
   3  -6  -8    1.16    0.96
  -3   6   8    1.17    0.88
   3  -6  -8    2.29    1.01
  -3   6   7    2.55    1.30
  -3   6   7    0.73    0.73
   3  -6  -7    2.80    1.03
   3  -6  -7    1.78    0.99
   3  -6  -6   22.00    2.68
  -3   6   6   22.04    2.40
   3  -6  -6   29.68    3.05
  -3   6   6   35.14    2.85
   3  -6  -6   27.66    2.71
   3  -6  -5   25.29    2.37
   3  -6  -5   21.99    1.89
   3  -6  -5   20.86    1.99
   3  -6  -4   20.55    2.65
   3  -6  -4   24.69    3.00
   3  -6  -4   22.89    2.57
   3  -6  -3    0.66    0.95
   3  -6  -3   -0.60    1.37
  -3   6   2   56.68    4.18
   3  -6  -2   55.92    4.79
   3  -6  -2   39.07    4.03
   3  -6  -2   35.47    4.15
   3  -6  -1   29.13    3.31
  -3   6   1   26.48    2.67
  -3   6   0   19.69    2.03
   3  -6   0   17.44    2.65
  -3   6  -1    0.11    0.75
   3  -6   1    0.64    1.43
  -3   6  -3   11.56    1.47
   3  -6   3   16.46    2.56
  -3   6  -5    2.74    0.92
   3  -6   5    4.58    2.01
  -3   6  -6    5.78    1.12
   3  -6   6    9.20    2.15
  -3   6  -7    2.96    0.90
   3  -6   7    3.64    2.03
  -3   6  -8    1.45    0.99
   3  -6   8    2.35    1.94
  -3   6  -9    0.44    1.02
   3  -6   9    0.11    1.90
  -3   6 -10    9.21    1.50
   3  -6  10   10.58    2.58
  -3   6 -11    0.82    1.10
   3  -6  11    3.28    2.30
   3  -6  12    0.73    1.99
  -3   6 -12    1.19    1.13
  -3   6 -13    4.36    1.32
   3  -6  13    4.75    2.28
  -3   5  17    2.88    1.27
  -3   5  16   13.08    1.94
   3  -5 -16   19.58    2.32
   3  -5 -15   23.70    2.90
   3  -5 -14    1.15    1.45
  -3   5  14    0.97    1.13
  -3   5  13   29.78    3.39
   3  -5 -13   47.08    4.05
   3  -5 -12    1.22    1.47
  -3   5  12    1.34    1.21
  -3   5  11   25.71    2.68
   3  -5 -10   15.75    1.96
   3  -5 -10   16.17    2.03
   3  -5  -9   20.60    2.24
   3  -5  -9   20.25    2.27
   3  -5  -9   22.39    2.69
  -3   5   9   20.82    2.38
   3  -5  -8   14.00    1.77
   3  -5  -8   13.15    1.77
   3  -5  -8   12.13    2.01
  -3   5   8   18.39    1.94
   3  -5  -7    0.93    0.86
   3  -5  -7    1.19    0.87
   3  -5  -7    1.45    1.21
  -3   5   7    0.91    1.21
   3  -5  -6   14.75    1.83
  -3   5   6   13.16    1.59
   3  -5  -5   13.31    2.22
   3  -5  -5   15.64    1.85
  -3   5   4    0.06    0.34
   3  -5  -4   -0.07    1.15
   3  -5  -4   -0.25    0.87
   3  -5  -3   10.34    1.36
   3  -5  -3    9.74    1.49
   3  -5  -3   10.50    1.92
  -3   5   3   13.62    1.57
  -3   5   2    0.31    1.05
   3  -5  -2    0.38    0.67
   3  -5  -2    0.45    1.39
   3  -5  -2    0.16    0.89
   3  -5  -1   19.47    2.22
  -3   5   1   24.62    2.26
   3  -5  -1   18.96    2.05
   3  -5   0    1.78    0.65
  -3   5   0    2.10    0.97
   3  -5   0    1.32    1.52
   3  -5   0    1.88    0.90
   3  -5   1   16.52    1.65
   3  -5   1   16.98    2.46
   3  -5   1   15.37    1.86
  -3   5  -1   15.91    1.77
   3  -5   2   23.99    2.45
  -3   5  -2   22.43    2.32
   3  -5   3    8.00    1.16
   3  -5   3   12.12    2.28
   3  -5   4    5.56    1.90
  -3   5  -4    4.60    1.00
  -3   5  -5   45.86    4.22
   3  -5   5   52.23    5.19
  -3   5  -6   14.25    1.60
  -3   5  -7   -0.21    0.84
   3  -5   7   -0.84    1.76
  -3   5  -8    0.22    0.88
   3  -5   8    1.84    1.96
  -3   5 -10    1.02    0.97
   3  -5  10    1.27    2.06
  -3   5 -11    3.28    1.26
   3  -5  11    6.95    2.27
  -3   5 -12   10.07    1.72
   3  -5  12   20.07    3.11
  -3   5 -13    1.88    1.20
   3  -5  13    3.76    2.22
   3  -5  14    3.52    2.36
  -3   4  18    1.50    1.33
  -3   4  17    2.25    1.27
   3  -4 -16    1.92    1.06
  -3   4  16    1.91    1.25
   3  -4 -16    1.67    1.00
   3  -4 -15   -0.28    1.03
   3  -4 -15   -0.04    0.92
  -3   4  15    0.60    1.15
  -3   4  14    6.33    1.51
   3  -4 -14   10.50    1.66
   3  -4 -14    9.09    1.49
   3  -4 -13    3.40    1.36
   3  -4 -13    2.78    1.12
  -3   4  13    2.36    1.28
   3  -4 -12    1.19    1.32
   3  -4 -12    0.12    0.99
  -3   4  12    0.21    1.20
   3  -4 -11    8.08    1.26
   3  -4 -11    5.04    1.08
   3  -4 -11    9.40    1.81
   3  -4 -11    6.45    1.19
   3  -4 -10   27.39    2.82
   3  -4 -10   28.84    2.75
  -3   4  10   26.71    2.79
   3  -4  -9  121.00   11.70
   3  -4  -9  153.53   12.14
   3  -4  -9  145.45   11.69
  -3   4   9  135.19   11.64
   3  -4  -9  137.24   11.65
   3  -4  -8    0.37    0.89
   3  -4  -8    1.07    1.19
  -3   4   8    0.33    1.18
   3  -4  -8    0.71    0.87
   3  -4  -8    0.65    0.79
   3  -4  -7   17.03    1.86
   3  -4  -7   16.36    1.78
  -3   4   7   16.97    1.87
   3  -4  -7   10.62    1.97
   3  -4  -7   14.16    1.67
   3  -4  -6   67.68    6.34
   3  -4  -6   73.17    6.42
  -3   4   6   81.73    6.43
   3  -4  -6   66.81    6.54
   3  -4  -5    5.25    1.03
   3  -4  -5    6.52    1.20
   3  -4  -5    4.92    1.30
   3  -4  -4    4.69    0.98
   3  -4  -4    3.93    1.04
  -3   4   4    4.74    1.24
   3  -4  -4    3.85    1.37
  -3   4   3    0.07    0.22
   3  -4  -3    0.34    0.63
  -3   4   3    0.47    0.29
   3  -4  -3    0.83    0.88
  -3   4   3    1.00    1.03
   3  -4  -3    0.64    1.23
   3  -4  -2   52.75    5.11
   3  -4  -2   55.09    5.43
  -3   4   2   63.33    5.07
   3  -4  -2   54.67    4.96
   3  -4  -1    1.36    0.64
   3  -4  -1    1.65    0.89
  -3   4   1    1.50    0.82
   3  -4  -1    1.44    1.40
   3  -4   0   27.39    2.87
  -3   4   0   29.90    2.83
   3  -4   0   31.31    2.76
   3  -4   1   -0.74    1.42
  -3   4  -1    0.27    0.76
   3  -4   1    0.49    0.51
   3  -4   2    7.16    0.89
   3  -4   2    6.63    1.08
   3  -4   2    6.40    1.91
   3  -4   3    1.01    0.72
  -3   4  -3    1.18    0.77
   3  -4   3    1.41    1.54
   3  -4   3    0.90    0.50
   3  -4   4   35.52    3.30
  -3   4  -4   36.13    3.32
   3  -4   4   40.88    4.34
   3  -4   5    5.14    0.83
   3  -4   5    7.93    1.95
  -3   4  -5    6.22    1.06
  -3   4  -6   12.58    1.46
   3  -4   6   14.57    2.46
   3  -4   6    9.55    1.15
   3  -4   7   29.57    2.95
  -3   4  -7   41.88    3.26
   3  -4   8    0.19    0.25
   3  -4   8    1.93    1.78
  -3   4  -9    8.68    1.37
   3  -4   9   11.02    2.36
  -3   4 -10    0.44    1.02
  -3   4 -11    7.13    1.35
   3  -4  11    7.09    2.45
  -3   4 -12   11.01    1.68
   3  -4  12   14.10    2.79
   3  -4  13    1.64    2.06
   3  -4  14    0.95    1.97
   3  -4  15    1.88    2.25
  -3   3  19    2.13    1.34
  -3   3  18    9.78    1.71
   3  -3 -18    8.66    1.48
  -3   3  17   11.09    1.86
   3  -3 -17   12.25    1.68
   3  -3 -16    1.13    1.04
  -3   3  16    0.90    1.25
  -3   3  15    3.49    1.35
   3  -3 -15    2.88    1.12
   3  -3 -15    2.84    0.87
   3  -3 -14    0.98    0.97
  -3   3  14    0.64    1.23
   3  -3 -14    0.17    0.83
  -3   3  13   61.33    5.77
   3  -3 -13   68.58    5.93
   3  -3 -12   14.36    1.85
   3  -3 -12   16.37    1.96
   3  -3 -12   14.36    1.88
   3  -3 -11   22.20    2.44
  -3   3  11   23.79    2.60
   3  -3 -11   31.22    2.88
   3  -3 -11   22.61    2.59
   3  -3 -11   29.98    2.69
   3  -3 -10   42.76    3.61
   3  -3 -10   30.91    3.13
  -3   3  10   33.62    3.31
   3  -3 -10   32.20    3.26
   3  -3 -10   32.77    3.27
   3  -3  -9   10.24    1.37
  -3   3   9   10.36    1.54
   3  -3  -9   11.25    1.81
   3  -3  -9    9.64    1.38
   3  -3  -9    9.69    1.48
   3  -3  -8   88.85    6.47
   3  -3  -8   75.91    6.65
   3  -3  -8   68.71    6.39
   3  -3  -8   68.34    6.41
  -3   3   8   67.58    6.38
   3  -3  -7   88.39    7.03
   3  -3  -7   70.24    7.01
  -3   3   7   83.67    7.04
   3  -3  -7   82.80    7.22
   3  -3  -6   -0.41    0.64
   3  -3  -6   -0.85    1.06
   3  -3  -5   11.33    1.74
   3  -3  -5   14.16    1.52
  -3   3   5   11.97    1.59
   3  -3  -5   11.22    1.56
   3  -3  -5   14.44    1.44
   3  -3  -4    1.50    0.61
  -3   3   4    1.32    0.96
   3  -3  -4    2.27    1.11
   3  -3  -4    0.54    0.65
   3  -3  -3   55.16    4.55
  -3   3   3   52.59    4.59
   3  -3  -3   51.44    4.89
   3  -3  -3   45.14    4.61
   3  -3  -3   51.38    4.38
   3  -3  -2    0.30    0.57
   3  -3  -2    0.51    0.74
  -3   3   2    0.05    0.22
  -3   3   2   -0.53    0.90
   3  -3  -2    0.06    1.26
   3  -3  -1    5.52    1.07
  -3   3   1    7.45    1.09
   3  -3  -1    7.48    1.59
   3  -3   0   46.25    4.52
  -3   3   0   53.59    4.51
   3  -3   0   51.92    4.45
   3  -3   0   53.36    5.09
   3  -3   1    7.82    0.99
   3  -3   1    9.54    1.20
   3  -3   2    7.03    1.04
   3  -3   2    6.85    0.87
   3  -3   2    6.69    1.62
  -3   3  -2    7.07    1.10
   3  -3   3    0.56    0.44
   3  -3   3    0.60    0.62
  -3   3  -3    0.35    0.75
   3  -3   3    0.52    1.25
   3  -3   4    0.90    1.44
   3  -3   4    0.23    0.55
   3  -3   4    0.13    0.16
  -3   3  -4    0.18    0.80
   3  -3   4    0.23    0.41
   3  -3   4   -0.19    0.20
   3  -3   5    4.19    0.62
   3  -3   5    4.81    0.77
  -3   3  -5    5.96    0.99
   3  -3   5    6.25    0.68
   3  -3   5    6.77    1.84
  -3   3  -6    1.56    0.81
   3  -3   6    1.71    0.39
   3  -3   6    1.57    0.54
   3  -3   6    1.97    1.46
   3  -3   7   28.52    2.30
   3  -3   7   22.39    2.10
   3  -3   8    0.18    0.16
  -3   3  -8   -0.28    0.84
   3  -3   8    1.90    0.70
   3  -3   8   -0.26    1.59
   3  -3   9    1.42    0.78
  -3   3  -9   -0.03    0.94
   3  -3   9   -0.45    1.66
   3  -3  10    1.38    0.84
  -3   3 -10    0.93    1.03
   3  -3  10   -0.19    1.78
  -3   3 -11    0.31    1.11
  -3   3 -12    0.04    1.12
   3  -3  12   -0.89    2.03
  -3   3 -13    1.39    1.20
   3  -3  13    1.80    1.96
   3  -3  14    0.52    2.21
   3  -3  15   11.84    2.97
   3  -3  16   23.60    3.71
   3  -2 -20    1.13    1.01
  -3   2  19   27.52    3.03
   3  -2 -19   28.29    2.88
  -3   2  18   28.61    2.85
   3  -2 -18   22.94    2.61
  -3   2  17   16.59    2.11
   3  -2 -17   11.54    1.73
   3  -2 -16    0.09    0.92
  -3   2  16    0.70    1.30
  -3   2  15    1.05    1.36
   3  -2 -15    0.36    0.91
   3  -2 -14    4.02    1.14
   3  -2 -14    2.89    0.72
  -3   2  14    2.16    1.41
   3  -2 -13    4.55    0.91
   3  -2 -12    2.34    0.86
  -3   2  12    2.42    1.30
   3  -2 -12    2.96    1.05
   3  -2 -11   76.73    5.96
  -3   2  11   86.70    6.13
   3  -2 -11   96.04    6.12
   3  -2 -10   16.94    2.16
   3  -2 -10   19.45    2.01
   3  -2 -10   22.10    2.17
  -3   2  10   20.49    2.30
   3  -2 -10   22.52    2.19
   3  -2  -9    6.25    1.20
   3  -2  -9    7.84    1.21
   3  -2  -9    5.57    1.01
   3  -2  -9    5.15    1.30
  -3   2   9    7.80    1.40
   3  -2  -8    1.02    0.73
   3  -2  -8    1.49    0.82
   3  -2  -8    0.98    1.04
   3  -2  -8    1.17    0.73
  -3   2   8    0.94    1.12
   3  -2  -7    5.01    0.92
   3  -2  -7    3.59    0.94
   3  -2  -7    4.49    1.16
   3  -2  -6    0.39    0.71
   3  -2  -6    0.20    0.90
  -3   2   6   -0.20    0.98
   3  -2  -5   24.79    2.50
   3  -2  -5   28.04    2.79
  -3   2   5   27.71    2.63
   3  -2  -5   30.05    2.63
   3  -2  -4    0.10    0.53
  -3   2   4    1.08    0.81
  -3   2   3    3.25    0.65
   3  -2  -3    3.18    0.78
   3  -2  -3    2.78    0.60
  -3   2   3    4.27    1.01
   3  -2  -3    4.08    1.24
  -3   2   2   32.33    2.96
   3  -2  -2   32.13    3.02
  -3   2   2   36.03    3.09
   3  -2  -2   33.77    3.42
  -3   2   1    0.71    0.30
   3  -2  -1    0.53    0.49
  -3   2   1    0.47    0.47
   3  -2  -1    0.17    0.28
  -3   2   1    0.49    0.74
   3  -2  -1    0.93    1.17
   3  -2   0   47.09    3.33
   3  -2   0   54.02    4.01
   3  -2   1   -0.12    0.42
  -3   2  -1   -0.12    0.80
   3  -2   1    0.06    1.16
   3  -2   2   45.96    3.93
   3  -2   2   43.90    4.01
   3  -2   2   46.86    4.50
  -3   2  -2   45.01    3.99
   3  -2   3   38.87    2.39
   3  -2   3   44.17    3.19
   3  -2   3   33.19    2.13
  -3   2  -3   39.18    2.41
   3  -2   4    6.36    0.78
   3  -2   4    5.77    0.90
  -3   2  -4    8.98    1.04
   3  -2   4    7.59    0.77
   3  -2   4    7.55    1.58
   3  -2   5    0.50    0.50
   3  -2   5   -0.24    0.49
  -3   2  -5    0.06    0.73
   3  -2   5    0.22    0.30
   3  -2   5    0.40    1.27
   3  -2   6    4.85    0.52
   3  -2   6    3.28    0.61
   3  -2   6    3.78    1.57
   3  -2   7   17.85    1.70
   3  -2   7   17.19    1.46
   3  -2   7   15.99    1.44
  -3   2  -7   14.45    1.74
   3  -2   8    0.29    0.09
   3  -2   8    0.19    0.08
  -3   2  -9    7.64    1.23
   3  -2  10    0.75    0.80
  -3   2 -10   -0.24    0.95
  -3   2 -11   10.67    1.66
   3  -2  11   12.08    1.57
   3  -2  12    0.65    0.84
   3  -2  13    0.61    0.88
  -3   2 -13    0.88    1.22
   3  -2  13   -0.24    1.84
   3  -2  14    2.19    0.98
   3  -2  14    6.13    2.29
   3  -2  15    1.62    2.46
   3  -2  16   -2.36    2.29
   3  -2  17   22.51    3.93
   3  -1 -20    4.33    1.18
  -3   1  20    5.10    1.55
   3  -1 -19    1.40    1.05
  -3   1  19    3.17    1.49
   3  -1 -18    1.75    1.07
  -3   1  17   27.27    2.74
   3  -1 -17   19.21    2.44
   3  -1 -16    3.35    1.15
  -3   1  16    5.20    1.58
   3  -1 -15    5.14    1.24
   3  -1 -14    0.13    0.89
   3  -1 -13    3.40    0.65
   3  -1 -13    2.54    1.00
  -3   1  13    3.07    1.39
   3  -1 -12   78.59    6.79
   3  -1 -12   80.82    7.04
   3  -1 -12   83.20    7.05
  -3   1  12   77.59    7.02
   3  -1 -11    0.80    0.71
   3  -1 -11    0.85    0.86
   3  -1 -11    0.46    0.59
  -3   1  11    0.32    1.27
   3  -1 -10   12.10    1.28
   3  -1 -10   10.75    1.51
  -3   1  10   12.00    1.75
   3  -1  -9    4.18    0.95
  -3   1   9    4.25    1.33
  -3   1   9    4.68    0.79
   3  -1  -9    4.43    0.81
   3  -1  -9    5.45    0.92
   3  -1  -8   16.40    1.62
  -3   1   8   13.04    1.50
   3  -1  -7    5.74    0.95
  -3   1   7    5.30    0.81
   3  -1  -7    6.39    0.95
  -3   1   7    6.62    1.18
   3  -1  -6   62.54    5.24
   3  -1  -6   65.48    5.27
  -3   1   6   59.29    5.28
  -3   1   6   54.02    5.16
   3  -1  -5   74.06    6.34
  -3   1   5   78.32    6.41
  -3   1   5   66.65    6.31
   3  -1  -5   79.79    6.39
  -3   1   4    0.23    0.53
   3  -1  -4    0.25    0.51
   3  -1  -4   -0.17    0.57
   3  -1  -4   -0.10    0.88
  -3   1   4   -0.78    0.99
  -3   1   3   -0.18    0.54
   3  -1  -3    0.06    0.59
   3  -1  -3   -0.03    0.46
  -3   1   3   -0.08    0.88
   3  -1  -2   35.42    3.41
  -3   1   2   33.20    3.11
   3  -1  -2   33.87    2.96
  -3   1   1   13.55    1.46
   3  -1  -1   14.27    1.37
   3  -1  -1   16.47    1.51
   3  -1  -1   16.66    1.96
   3  -1   0   39.64    3.10
   3  -1   0   29.24    2.97
   3  -1   0   44.15    3.63
  -3   1   0   40.87    3.22
  -3   1   0   30.47    3.04
  -3   1   0   39.04    3.00
  -3   1  -1    3.73    0.50
  -3   1  -1    3.69    0.60
   3  -1   1    4.34    0.60
  -3   1  -1    4.57    0.95
   3  -1   1    4.61    0.65
   3  -1   1    4.63    1.36
  -3   1  -2   14.65    1.51
   3  -1   2   14.69    1.35
   3  -1   2   12.77    1.35
  -3   1  -2   14.93    1.37
  -3   1  -3    6.88    1.02
  -3   1  -3    7.49    0.80
   3  -1   4    0.51    0.44
   3  -1   4    0.42    0.32
  -3   1  -4    0.78    0.62
   3  -1   5   -0.28    0.50
   3  -1   5   -0.05    0.25
  -3   1  -6   33.26    3.26
   3  -1   6   37.67    3.25
   3  -1   6   39.77    3.17
   3  -1   6   35.21    3.11
   3  -1   7    2.55    0.33
   3  -1   7    2.20    0.35
  -3   1  -7    2.40    0.75
   3  -1   7    3.29    0.75
  -3   1  -8   38.18    3.60
   3  -1   8   42.68    3.67
   3  -1   9    6.25    1.05
  -3   1  -9    3.92    0.97
   3  -1  10    3.47    0.93
  -3   1 -10    2.21    1.00
   3  -1  11    7.99    1.28
  -3   1 -12    3.62    1.20
   3  -1  12    4.87    1.09
   3  -1  13    9.51    1.41
   3  -1  14   11.32    1.60
   3  -1  15    2.53    1.04
   3  -1  16    1.51    1.01
   3  -1  17    3.29    1.18
   3  -1  17    3.99    2.85
   3  -1  18    1.47    2.61
  -3   0  20    3.24    1.52
   3   0 -20    2.54    1.11
   3   0 -19    4.69    1.27
  -3   0  19    7.89    1.67
   3   0 -18    0.60    1.03
  -3   0  18    0.44    1.54
  -3   0  17    9.72    1.85
  -3   0  16    3.45    1.58
   3   0 -15    0.73    0.91
   3   0 -14    8.33    1.38
  -3   0  14    9.80    1.80
   3   0 -13    0.85    0.64
   3   0 -13    1.01    0.88
  -3   0  13    0.15    1.33
   3   0 -12   11.49    1.70
  -3   0  12   14.60    2.11
   3   0 -12   17.98    1.67
   3   0 -12   13.57    1.32
  -3   0  11    2.26    0.63
   3   0 -11    1.62    0.85
   3   0 -11    2.37    0.72
   3   0 -11    1.97    0.39
  -3   0  11    2.22    1.32
  -3   0  10   41.69    3.75
  -3   0  10   38.16    3.94
   3   0 -10   41.25    3.86
   3   0 -10   47.77    3.90
   3   0  -9    0.39    0.30
  -3   0   9    0.81    0.54
   3   0  -9    0.06    0.73
   3   0  -9    0.09    0.58
   3   0  -8   11.35    1.34
   3   0  -8   13.03    1.34
   3   0  -8   11.10    1.08
  -3   0   8   10.41    1.22
  -3   0   8    8.81    1.53
  -3   0   7   81.43    6.71
   3   0  -7   86.80    6.80
  -3   0   7   81.13    6.83
   3   0  -7   72.84    6.60
   3   0  -7   78.65    6.77
   3   0  -6   23.49    2.13
   3   0  -6   21.41    2.19
   3   0  -6   23.56    2.21
  -3   0   6   23.66    2.32
  -3   0   6   23.04    2.16
   3   0  -5   85.78    6.45
  -3   0   5   69.86    6.41
   3   0  -5   76.22    6.45
   3   0  -5   74.18    6.45
  -3   0   5   70.52    6.48
  -3   0   4   98.18    8.90
   3   0  -4  110.84    8.93
   3   0  -4  100.76    8.97
  -3   0   4  108.44    8.99
   3   0  -4  110.80    8.94
   3   0  -3   33.65    2.88
   3   0  -3   27.82    2.98
  -3   0   3   32.67    2.87
  -3   0   3   32.53    2.99
  -3   0   2   10.23    1.04
   3   0  -2    7.27    0.98
  -3   0   1   70.11    5.79
   3   0  -1   62.56    5.74
  -3   0   1   65.08    5.83
   3   0  -1   66.72    5.78
  -3   0   0    4.31    0.68
   3   0   0    3.08    0.64
  -3   0   0    3.34    0.90
  -3   0  -1   18.46    1.63
   3   0   1   17.62    1.62
  -3   0  -1   16.62    1.79
   3   0   1   15.76    1.62
  -3   0  -2   11.80    1.32
   3   0   2   12.23    1.26
   3   0   2   11.98    1.18
  -3   0  -2   12.98    1.18
  -3   0  -2    9.78    1.26
  -3   0  -3   42.61    3.53
  -3   0  -3   37.76    3.59
  -3   0  -3   43.01    3.63
   3   0   3   40.28    3.59
  -3   0  -4   38.48    3.26
   3   0   4   37.57    3.26
   3   0   4   34.53    3.33
  -3   0  -4   43.64    3.44
  -3   0  -5   15.15    1.38
   3   0   5   15.44    1.52
  -3   0  -5   14.15    1.50
   3   0   5   15.49    1.39
  -3   0  -5   16.13    1.61
  -3   0  -6   79.50    6.20
  -3   0  -6   82.20    6.44
  -3   0  -6   64.23    6.27
   3   0   6   67.31    6.32
   3   0   6   74.77    6.19
  -3   0  -7   26.09    2.95
  -3   0  -7   37.62    2.83
   3   0   7   26.83    3.01
  -3   0  -7   34.70    3.11
   3   0   8    8.88    0.79
  -3   0  -8   10.08    1.12
   3   0   8   10.83    1.27
  -3   0  -8    9.12    1.22
  -3   0  -9    6.43    1.20
  -3   0  -9    8.76    1.19
   3   0  10   15.14    1.84
  -3   0 -11   41.23    4.18
   3   0  11   47.54    4.21
  -3   0 -11   46.75    4.19
  -3   0 -12   11.90    1.66
   3   0  12    9.96    1.42
  -3   0 -12    9.10    1.42
  -3   0 -13    0.31    0.78
   3   0  13    0.17    0.86
   3   0  14    1.63    1.01
   3   0  15   13.80    1.79
   3   0  16    2.48    1.02
   3   0  18    2.47    1.04
   3   0  19    0.88    1.03
   3   0  20    1.00    1.01
   3   1 -20    0.14    0.98
  -3  -1  20    1.42    1.49
   3   1 -19    2.18    1.09
  -3  -1  19    1.17    1.53
   3   1 -18    4.38    1.18
  -3  -1  18    3.48    1.70
   3   1 -17    0.79    0.95
  -3  -1  17    1.63    1.52
   3   1 -16    8.03    1.36
   3   1 -15    6.21    1.18
  -3  -1  15    5.75    1.72
   3   1 -14    0.38    0.91
  -3  -1  14    0.16    1.32
   3   1 -13   26.42    2.52
  -3  -1  13   25.22    2.91
   3   1 -12   -0.03    0.58
  -3  -1  12    0.31    0.52
  -3  -1  12   -0.67    1.42
   3   1 -11    3.66    0.79
  -3  -1  11    3.47    0.69
  -3  -1  11    3.02    1.39
  -3  -1  10    2.98    0.64
   3   1 -10    2.99    0.90
  -3  -1   9   28.67    2.61
   3   1  -9   30.21    2.67
  -3  -1   9   26.78    2.85
   3   1  -9   27.34    2.70
   3   1  -8   -0.03    0.69
   3   1  -8   -0.15    0.50
  -3  -1   8    0.42    0.48
  -3  -1   8    0.46    1.08
  -3  -1   7   21.21    2.27
  -3  -1   7   20.98    2.01
   3   1  -7   22.29    2.06
   3   1  -7   21.11    2.11
  -3  -1   6   31.19    2.67
   3   1  -6   27.10    2.68
  -3  -1   6   27.04    2.81
   3   1  -6   30.12    2.66
   3   1  -5   80.42    6.95
  -3  -1   5   79.01    7.00
   3   1  -5   83.96    6.93
   3   1  -4    9.60    1.03
   3   1  -4   10.32    1.11
   3   1  -4   10.28    0.92
  -3  -1   4    8.92    1.36
  -3  -1   4   10.68    1.03
   3   1  -4    7.85    0.78
   3   1  -3    4.94    0.87
   3   1  -3    7.11    0.81
   3   1  -3    6.16    0.87
  -3  -1   3    6.68    1.27
  -3  -1   3    5.95    0.80
   3   1  -3    5.15    0.57
   3   1  -2    5.73    0.88
  -3  -1   2    6.84    0.84
  -3  -1   2    4.28    1.20
   3   1  -2    6.84    0.85
   3   1  -1    6.06    0.81
  -3  -1   1    5.57    1.15
  -3  -1   1    6.12    0.79
  -3  -1   1    4.79    0.68
   3   1   0    0.01    0.51
   3   1   0    0.02    0.55
  -3  -1   0    0.58    0.85
  -3  -1  -1    1.44    0.53
   3   1   1    0.87    0.51
  -3  -1  -1    0.97    0.67
  -3  -1  -2   23.22    2.01
  -3  -1  -2   21.17    1.96
   3   1   2   23.97    1.98
  -3  -1  -2   18.23    2.02
   3   1   3    9.62    1.01
  -3  -1  -3    9.71    1.01
  -3  -1  -3   10.33    1.13
   3   1   3   11.52    1.23
  -3  -1  -4   41.32    3.52
  -3  -1  -4   39.38    3.56
   3   1   4   41.98    3.65
  -3  -1  -4   42.12    3.63
   3   1   5  123.37    9.81
   3   1   5  117.17    9.68
  -3  -1  -5  105.00    9.70
  -3  -1  -5  128.08    9.84
  -3  -1  -6   38.69    3.42
   3   1   6   42.02    3.63
  -3  -1  -6   37.60    3.47
   3   1   6   41.96    3.42
  -3  -1  -6   42.85    3.61
   3   1   7   25.26    2.04
  -3  -1  -7   22.44    2.15
   3   1   7   25.59    2.34
  -3  -1  -7   22.77    2.05
  -3  -1  -7   21.38    2.27
  -3  -1  -8    2.22    0.75
  -3  -1  -8    2.73    0.75
   3   1   8    3.85    0.90
  -3  -1  -8    2.68    0.36
  -3  -1  -9    5.39    0.54
   3   1   9    5.54    1.08
   3   1   9    5.74    0.54
  -3  -1  -9    5.15    1.00
  -3  -1 -10   12.29    1.69
   3   1  10   15.24    1.69
  -3  -1 -10   12.74    1.59
  -3  -1 -11   87.90    7.01
   3   1  11   72.19    6.97
   3   1  12   14.19    1.78
  -3  -1 -12   15.54    1.80
   3   1  13   40.64    4.05
  -3  -1 -13   46.06    4.12
  -3  -1 -14    9.03    1.46
   3   1  15    1.05    1.20
   3   1  15    1.56    1.05
  -3  -1 -16    0.59    0.96
   3   1  16    0.94    1.01
  -3  -1 -17    1.14    1.07
   3   1  17    0.39    0.98
   3   1  18   20.02    2.32
   3   1  19   -0.30    1.00
   3   1  20   -0.51    1.10
  -3  -2  20    3.05    1.59
   3   2 -19    0.52    0.96
  -3  -2  19    1.85    1.46
  -3  -2  18    8.16    1.83
   3   2 -17    1.36    1.09
  -3  -2  17    4.68    1.64
   3   2 -16    4.87    1.19
  -3  -2  16    5.35    1.59
   3   2 -15    5.69    1.21
  -3  -2  15    7.83    1.70
   3   2 -14    3.33    1.07
  -3  -2  14    5.21    1.51
   3   2 -13    3.17    0.98
   3   2 -12    2.22    0.91
   3   2 -12    4.25    0.69
  -3  -2  12    3.49    0.66
  -3  -2  12    3.62    1.52
  -3  -2  11    0.45    0.52
   3   2 -11    0.36    0.50
   3   2 -11    0.40    0.75
  -3  -2  10    7.23    0.96
   3   2 -10    9.07    1.00
   3   2 -10    6.01    1.15
  -3  -2  10    7.34    1.51
   3   2  -9   21.02    2.44
  -3  -2   9   25.40    2.76
   3   2  -9   26.98    2.40
  -3  -2   9   27.97    2.39
  -3  -2   8    4.64    0.75
   3   2  -8    3.23    0.67
   3   2  -8    3.33    0.80
  -3  -2   8    4.34    1.28
  -3  -2   7   47.61    4.25
   3   2  -7   46.46    4.08
  -3  -2   7   45.58    4.07
  -3  -2   6    0.43    0.48
   3   2  -6    0.51    0.45
   3   2  -6    0.51    0.57
  -3  -2   6    1.62    0.99
  -3  -2   5    9.63    1.12
   3   2  -5   11.24    1.21
   3   2  -5    9.64    1.11
   3   2  -4   14.33    1.49
  -3  -2   4   13.50    1.49
  -3  -2   4   16.26    1.76
   3   2  -4   16.55    1.56
   3   2  -3  141.94   11.94
   3   2  -3  147.86   11.80
   3   2  -3  136.97   11.95
  -3  -2   3  140.32   11.99
  -3  -2   3  131.40   11.93
  -3  -2   2    0.33    0.29
   3   2  -2    0.12    0.44
   3   2  -2    0.38    0.34
   3   2  -2    0.13    0.57
  -3  -2   2    0.58    0.95
  -3  -2   2    0.49    0.52
   3   2  -1   27.95    2.45
  -3  -2   1   29.10    2.42
  -3  -2   1   27.63    2.53
   3   2  -1   24.08    2.40
  -3  -2   1   25.87    2.30
  -3  -2   0   49.23    4.36
   3   2   0   50.49    4.35
   3   2   0   51.32    4.39
  -3  -2   0   49.29    4.37
  -3  -2   0   52.00    4.31
   3   2   1    0.54    0.53
   3   2   1    1.40    0.67
  -3  -2  -1    1.53    0.78
  -3  -2  -2   70.34    5.70
  -3  -2  -2   64.89    5.67
   3   2   2   64.97    5.74
  -3  -2  -3   25.00    2.23
   3   2   3   21.96    2.12
  -3  -2  -3   24.90    2.15
  -3  -2  -3   24.67    2.16
   3   2   3   24.37    2.28
  -3  -2  -4   64.21    5.33
  -3  -2  -4   62.25    5.24
   3   2   4   58.86    5.33
  -3  -2  -4   62.01    5.20
   3   2   4   61.11    5.22
  -3  -2  -5    0.30    0.36
   3   2   5    0.57    0.60
  -3  -2  -5    0.05    0.57
  -3  -2  -5    0.25    0.46
  -3  -2  -6   18.26    1.63
  -3  -2  -6   18.93    1.62
   3   2   6   15.01    1.77
  -3  -2  -7    1.33    0.35
   3   2   7    0.90    0.30
  -3  -2  -7    1.01    0.55
  -3  -2  -7    1.30    0.61
   3   2   8   29.50    2.52
  -3  -2  -8   30.82    2.69
   3   2   8   30.86    2.82
  -3  -2  -8   28.95    2.53
  -3  -2  -8   26.61    2.73
  -3  -2  -9    2.10    0.40
   3   2   9    3.18    0.42
  -3  -2  -9    3.28    0.82
   3   2   9    2.17    0.94
  -3  -2 -10   40.26    3.65
   3   2  10   46.88    3.67
   3   2  10   47.11    4.03
  -3  -2 -10   40.54    3.94
  -3  -2 -11    3.84    0.91
   3   2  11    4.19    1.06
   3   2  11    3.03    0.40
  -3  -2 -11    3.17    0.38
  -3  -2 -12    8.97    0.82
  -3  -2 -12    9.22    0.83
   3   2  13   11.39    1.66
   3   2  13   14.33    1.66
  -3  -2 -13   13.98    1.63
  -3  -2 -14    0.63    0.86
   3   2  14    0.09    0.99
   3   2  14    2.03    1.00
  -3  -2 -15    1.74    0.97
   3   2  15    5.03    1.17
   3   2  16    2.04    1.08
  -3  -2 -17   -0.27    0.98
   3   2  18    0.20    1.08
  -3  -2 -18    0.35    1.04
  -3  -2 -19    8.51    1.53
   3   2  19    8.05    1.52
  -3  -2 -20    2.67    1.12
   3   2  20    2.24    1.20
   3   2  21    0.15    1.04
   3   3 -19   -0.34    1.07
  -3  -3  19    0.98    1.50
   3   3 -18    5.22    1.36
  -3  -3  18    7.70    1.70
   3   3 -17   21.27    2.46
   3   3 -16   11.14    1.66
  -3  -3  16   11.12    1.90
   3   3 -15    1.10    1.00
  -3  -3  15    1.31    1.50
  -3  -3  14    0.64    1.35
   3   3 -13    2.17    0.91
  -3  -3  13    2.40    1.46
   3   3 -12    1.88    0.57
  -3  -3  11    2.67    0.63
   3   3 -11    3.26    0.63
   3   3 -11    2.37    0.91
  -3  -3  11    3.98    1.42
   3   3 -10    4.06    0.99
   3   3 -10    6.36    0.81
  -3  -3  10    5.31    0.83
  -3  -3  10    5.73    1.57
   3   3  -9    0.27    0.81
  -3  -3   9    0.96    0.60
  -3  -3   9    1.32    1.37
   3   3  -8   21.14    2.25
   3   3  -8   22.20    2.13
  -3  -3   8   26.06    2.48
   3   3  -7   11.29    1.38
  -3  -3   7   13.63    1.70
   3   3  -7   10.91    1.22
  -3  -3   7   12.19    1.29
   3   3  -6   30.46    2.76
   3   3  -6   28.00    2.62
  -3  -3   6   29.25    2.67
   3   3  -5    3.45    0.59
  -3  -3   5    3.54    0.65
   3   3  -5    3.91    0.76
  -3  -3   5    3.37    1.03
  -3  -3   4    6.63    0.89
  -3  -3   4    8.52    1.33
   3   3  -4    6.98    0.99
   3   3  -4    6.61    0.81
   3   3  -3   18.71    1.83
  -3  -3   3   19.09    1.88
   3   3  -3   21.31    1.94
   3   3  -3   18.68    1.80
  -3  -3   3   24.83    2.20
  -3  -3   2   23.28    2.17
  -3  -3   2   27.40    2.34
   3   3  -2   23.02    2.26
  -3  -3   2   30.57    2.49
   3   3  -2   25.87    2.22
   3   3  -1    0.74    0.47
   3   3  -1    0.63    0.60
  -3  -3   1    1.34    0.59
  -3  -3   1    0.97    0.98
  -3  -3   1    0.83    0.42
  -3  -3   0   27.10    2.69
  -3  -3   0   33.53    2.81
   3   3   0   32.79    2.81
   3   3   0   31.88    2.74
  -3  -3  -1   17.09    1.66
  -3  -3  -1   20.19    1.72
   3   3   1   15.09    1.77
  -3  -3  -2   25.43    2.21
   3   3   2   24.97    2.19
  -3  -3  -2   22.64    2.18
   3   3   2   22.63    2.32
  -3  -3  -3    1.40    0.57
  -3  -3  -3    1.01    0.52
   3   3   3    1.12    0.48
   3   3   3    0.67    0.76
  -3  -3  -3    1.62    0.66
   3   3   3    0.99    0.61
   3   3   4   52.97    4.76
  -3  -3  -4   58.33    4.75
   3   3   4   52.36    4.64
  -3  -3  -4   57.80    4.56
   3   3   4   50.14    4.58
  -3  -3  -4   56.12    4.68
  -3  -3  -5   38.69    3.21
  -3  -3  -5   40.33    3.11
   3   3   5   37.44    3.07
  -3  -3  -5   30.49    2.97
   3   3   5   34.75    3.22
   3   3   5   37.73    2.98
  -3  -3  -6    1.08    0.53
   3   3   6    1.04    0.34
   3   3   6    0.80    0.65
  -3  -3  -6    1.40    0.40
  -3  -3  -6    0.50    0.25
   3   3   6    1.11    0.26
  -3  -3  -7    2.93    0.50
   3   3   7    3.10    0.48
   3   3   7    3.42    0.40
   3   3   7    2.73    0.81
  -3  -3  -8   20.53    2.07
   3   3   8   20.74    2.11
  -3  -3  -8   20.64    1.87
  -3  -3  -9  123.75   10.97
  -3  -3  -9  126.29   10.75
   3   3   9  134.23   10.70
   3   3   9  135.80   11.01
   3   3   9  133.56   10.76
   3   3   9  121.07   10.71
  -3  -3 -10    4.41    0.56
  -3  -3 -10    3.67    0.90
   3   3  10    5.03    0.64
   3   3  10    4.06    1.01
   3   3  10    4.61    0.72
   3   3  11   34.75    2.86
  -3  -3 -11   31.20    2.82
   3   3  11   34.93    2.90
  -3  -3 -11   28.26    3.12
   3   3  12   77.27    7.10
  -3  -3 -12  120.38    7.60
  -3  -3 -13   -0.19    0.71
   3   3  13   -0.78    0.80
   3   3  13    1.27    1.04
  -3  -3 -14    1.97    0.90
  -3  -3 -14    2.19    0.34
   3   3  15    4.12    1.09
  -3  -3 -15    2.60    1.03
  -3  -3 -16    3.70    1.07
   3   3  16    4.11    1.11
   3   3  17    6.54    1.38
  -3  -3 -17    9.75    1.47
   3   3  18    6.43    1.36
  -3  -3 -18    8.98    1.53
  -3  -3 -19    3.65    1.16
   3   3  19    2.10    1.15
  -3  -3 -20    4.16    1.24
  -3  -3 -21    7.05    1.44
   3   3  21    6.34    1.43
  -3  -4  18    1.04    1.40
   3   4 -17   17.45    2.29
  -3  -4  17   22.54    2.49
   3   4 -16    3.43    1.19
  -3  -4  16    4.17    1.61
   3   4 -15    3.19    1.15
  -3  -4  15    4.58    1.55
   3   4 -14    2.08    1.08
  -3  -4  14    3.16    1.48
   3   4 -13   16.31    1.94
  -3  -4  12   35.92    3.39
   3   4 -12   29.88    3.16
   3   4 -11    0.52    0.46
   3   4 -11    1.45    0.95
  -3  -4  11    1.47    1.32
   3   4 -10    8.24    0.98
  -3  -4  10    8.53    1.08
  -3  -4  10    7.62    1.66
  -3  -4   9    6.46    0.96
   3   4  -9    6.71    0.84
   3   4  -9    5.57    1.13
  -3  -4   9    5.50    1.46
   3   4  -8   38.69    3.40
  -3  -4   8   29.54    3.68
  -3  -4   8   43.77    3.49
   3   4  -8   36.91    3.55
  -3  -4   7    2.33    0.29
  -3  -4   7    2.96    0.35
   3   4  -7    5.38    0.69
   3   4  -7    3.35    0.88
  -3  -4   7    5.48    0.81
  -3  -4   6   46.08    4.01
  -3  -4   6   62.01    4.25
   3   4  -6   57.89    4.35
  -3  -4   6   67.16    4.53
   3   4  -6   65.07    4.23
  -3  -4   6   39.81    3.95
  -3  -4   5   26.75    2.43
  -3  -4   5   23.18    2.27
   3   4  -5   28.41    2.53
  -3  -4   5   28.06    2.74
   3   4  -5   29.35    2.43
   3   4  -4    3.96    0.78
   3   4  -4    1.73    0.45
  -3  -4   4    4.44    0.70
  -3  -4   4    3.27    0.54
  -3  -4   4    5.15    1.23
  -3  -4   3    3.92    0.70
  -3  -4   3    3.36    0.63
   3   4  -3    5.14    0.81
  -3  -4   3    3.12    1.11
  -3  -4   2    6.56    0.86
   3   4  -2    6.90    0.81
   3   4  -2    7.01    0.94
  -3  -4   2    6.11    1.20
  -3  -4   2    4.98    0.79
  -3  -4   1    7.36    1.01
   3   4  -1   10.01    0.99
  -3  -4   1    8.80    1.26
   3   4  -1    8.50    1.11
  -3  -4   1    8.35    0.99
   3   4   0    0.82    0.49
  -3  -4   0    0.33    0.54
   3   4   0    1.49    0.66
   3   4   1  145.61   12.89
  -3  -4  -1  160.49   12.95
   3   4   1  154.62   12.99
  -3  -4  -1  158.13   12.92
   3   4   2   31.15    2.90
  -3  -4  -2   33.62    2.90
   3   4   2   32.82    3.05
  -3  -4  -3   -0.15    0.50
  -3  -4  -3   -0.22    0.58
  -3  -4  -3    0.15    0.54
  -3  -4  -4   54.03    4.43
  -3  -4  -4   54.57    4.53
  -3  -4  -4   47.42    4.27
  -3  -4  -4   55.22    4.30
   3   4   4   50.37    4.40
   3   4   4   48.06    4.52
  -3  -4  -5    4.14    0.78
   3   4   5    4.06    0.61
   3   4   5    3.75    0.85
  -3  -4  -6   30.53    2.99
   3   4   6   33.67    2.90
   3   4   6   29.51    3.01
  -3  -4  -6   35.69    2.92
  -3  -4  -7  118.83    9.09
   3   4   7  110.86    9.06
   3   4   7  113.72    9.23
   3   4   8   45.79    3.98
   3   4   8   46.88    4.19
  -3  -4  -8   45.93    3.98
  -3  -4  -9    0.15    0.64
   3   4   9    0.74    0.42
  -3  -4  -9    0.46    0.38
   3   4   9   -0.04    0.77
  -3  -4 -10   33.03    3.39
   3   4  10   35.26    3.49
  -3  -4 -10   38.86    3.20
  -3  -4 -11    3.87    0.94
   3   4  11    5.79    0.76
   3   4  11    5.49    1.17
  -3  -4 -12    5.36    1.04
   3   4  12    4.89    1.15
   3   4  13    1.09    0.92
  -3  -4 -14    2.15    0.97
  -3  -4 -15    1.36    0.41
   3   4  15    1.32    0.91
  -3  -4 -15    1.50    0.90
  -3  -4 -16   12.47    1.69
  -3  -4 -17    0.83    0.90
   3   4  17    1.66    0.92
   3   4  18    0.44    0.97
  -3  -4 -18    1.07    0.98
   3   4  19    0.70    1.01
  -3  -4 -19    0.36    0.97
   3   4  20    3.55    1.21
   3   4  21   16.25    2.12
  -3  -4 -21   18.71    2.24
   3   5 -17    6.63    1.53
  -3  -5  17   10.28    1.77
   3   5 -16    1.42    1.24
  -3  -5  16    2.29    1.46
  -3  -5  15    3.95    1.50
   3   5 -14    2.24    1.13
   3   5 -13   12.60    1.75
  -3  -5  13   12.67    2.02
   3   5 -12    9.64    1.52
  -3  -5  12    9.90    1.85
   3   5 -11    9.81    1.47
  -3  -5  11    9.27    1.71
   3   5 -10    8.05    1.40
  -3  -5  10   12.12    1.82
   3   5  -9    0.90    0.86
   3   5  -9    0.67    0.46
  -3  -5   9    0.25    1.24
   3   5  -8    0.76    0.90
  -3  -5   8    1.79    0.71
  -3  -5   7   18.50    1.88
   3   5  -7   18.39    1.81
   3   5  -7   17.67    1.99
  -3  -5   7   17.76    1.80
  -3  -5   7   19.72    2.28
  -3  -5   6   51.15    4.81
  -3  -5   6   57.16    4.87
  -3  -5   6   60.85    5.13
  -3  -5   5   10.23    1.33
   3   5  -5   12.02    1.47
   3   5  -5   12.93    1.32
  -3  -5   5   11.58    1.78
  -3  -5   4   22.07    2.21
   3   5  -4   24.54    2.18
   3   5  -4   23.37    2.31
  -3  -5   4   23.82    2.52
  -3  -5   4   20.50    2.22
  -3  -5   3    0.42    0.50
   3   5  -3    0.21    0.71
   3   5  -3    0.24    0.41
  -3  -5   3   -0.25    1.18
  -3  -5   2   41.53    3.66
  -3  -5   2   40.76    3.70
   3   5  -2   41.12    3.73
   3   5  -2   40.83    3.66
  -3  -5   1    1.57    0.54
  -3  -5   1    1.56    0.72
   3   5  -1    1.70    0.72
  -3  -5   0  114.90    9.94
   3   5   0  110.00    9.88
   3   5   0  133.40    9.99
  -3  -5   0  113.77    9.88
  -3  -5   0  117.89    9.92
   3   5   1    5.09    0.81
  -3  -5  -1    5.42    1.00
   3   5   1    7.14    1.03
  -3  -5  -1    5.57    0.99
  -3  -5  -2   73.27    6.57
   3   5   2   78.51    6.60
   3   5   3   55.32    4.75
  -3  -5  -3   52.61    4.79
  -3  -5  -3   56.68    4.72
   3   5   3   54.07    4.88
  -3  -5  -4   45.52    4.35
  -3  -5  -4   52.06    4.29
   3   5   4   48.86    4.22
   3   5   4   46.35    4.34
  -3  -5  -5   -0.19    0.69
  -3  -5  -5    0.05    0.21
   3   5   5    0.13    0.46
  -3  -5  -5   -0.24    0.50
   3   5   5    0.34    0.72
  -3  -5  -5    0.48    0.27
   3   5   6   58.63    5.66
  -3  -5  -6   72.78    5.62
  -3  -5  -6   61.44    5.72
   3   5   7    2.90    0.61
  -3  -5  -7    3.74    0.64
  -3  -5  -7    2.66    0.80
  -3  -5  -8    0.68    0.66
   3   5   8    0.62    0.47
  -3  -5  -9   24.39    2.70
   3   5   9   29.94    2.54
   3   5   9   28.58    2.78
  -3  -5  -9   27.26    2.51
  -3  -5 -10   80.85    8.39
  -3  -5 -10  100.80    8.28
   3   5  10  106.74    8.31
   3   5  10   98.43    8.53
   3   5  11   26.23    2.25
   3   5  11   21.25    2.47
  -3  -5 -11   26.97    2.20
  -3  -5 -12    2.18    0.79
   3   5  12    1.84    0.99
  -3  -5 -13   18.71    2.19
   3   5  13   24.22    2.38
   3   5  14    0.05    0.89
  -3  -5 -15    3.23    0.96
   3   5  15    3.82    1.07
  -3  -5 -16    3.34    1.02
   3   5  16    3.76    1.10
  -3  -5 -17    1.80    0.99
   3   5  17    2.57    0.99
   3   5  18    4.40    1.17
  -3  -5 -19    3.83    1.11
   3   5  19    3.88    1.14
  -3  -5 -20    1.11    0.97
   3   5  21   20.38    2.34
  -3  -5 -21   18.45    2.46
  -3  -5 -22    4.28    1.30
   3   6 -16    0.91    1.23
  -3  -6  16    0.33    1.59
   3   6 -15    9.24    1.69
  -3  -6  15   11.43    2.01
   3   6 -14    0.88    1.11
  -3  -6  14   -0.28    1.49
   3   6 -13    8.71    1.62
  -3  -6  13   10.29    1.86
   3   6 -12    4.76    1.24
  -3  -6  12    2.92    1.53
  -3  -6  11   17.69    2.30
   3   6 -10    2.47    1.04
  -3  -6  10    1.74    1.46
   3   6  -9    0.47    0.99
   3   6  -8   12.28    1.67
  -3  -6   7    2.83    0.89
   3   6  -7    2.12    1.03
   3   6  -7    2.28    0.66
  -3  -6   7    0.39    1.49
  -3  -6   6    0.78    0.74
   3   6  -6    0.27    0.52
  -3  -6   6    0.93    0.84
   3   6  -6    0.77    0.96
  -3  -6   6    0.46    1.44
  -3  -6   5  143.01   12.78
   3   6  -5  157.81   12.87
   3   6  -5  152.54   12.74
  -3  -6   4   11.39    1.59
   3   6  -4   12.71    1.37
  -3  -6   4   11.25    1.40
   3   6  -4   12.79    1.56
   3   6  -3    0.39    0.82
   3   6  -3    0.34    0.54
  -3  -6   3    0.04    0.90
  -3  -6   3    0.38    0.63
   3   6  -2   20.30    2.22
   3   6  -2   21.52    2.10
  -3  -6   2   23.32    2.30
  -3  -6   2   20.87    2.08
   3   6  -1   22.93    2.16
  -3  -6   1   21.28    2.17
  -3  -6   0   23.83    2.50
  -3  -6   0   21.95    2.64
   3   6   0   29.86    2.54
   3   6   0   30.44    2.67
  -3  -6  -1   30.09    3.01
  -3  -6  -1   31.29    2.85
   3   6   1   31.08    2.93
   3   6   1   29.25    2.83
  -3  -6  -2    0.14    0.62
   3   6   2    0.36    0.75
  -3  -6  -2    0.11    0.82
   3   6   3    3.23    0.93
   3   6   3    4.37    0.79
  -3  -6  -3    4.38    0.82
  -3  -6  -3    2.69    0.95
   3   6   4    6.63    0.93
   3   6   4    7.72    1.18
  -3  -6  -5   21.26    2.11
  -3  -6  -5   22.35    1.93
   3   6   5   16.89    1.90
  -3  -6  -5   17.89    1.80
   3   6   5   19.43    2.05
  -3  -6  -6   39.11    2.76
   3   6   6   36.29    2.74
  -3  -6  -6   31.81    2.89
  -3  -6  -6   31.94    2.49
   3   6   6   32.58    2.84
   3   6   7   17.01    1.98
  -3  -6  -7   19.99    2.07
  -3  -6  -7   18.71    1.85
   3   6   7   18.75    1.85
   3   6   8   33.65    3.38
  -3  -6  -8   32.23    3.45
  -3  -6  -8   39.68    3.28
   3   6   8   36.69    3.27
  -3  -6  -9   25.97    2.34
   3   6   9   25.62    2.56
   3   6   9   29.49    2.42
  -3  -6 -10   39.73    3.75
   3   6  10   38.17    3.78
  -3  -6 -10   40.40    3.53
  -3  -6 -11    2.11    0.81
   3   6  11    2.21    1.06
  -3  -6 -12  125.11   10.74
  -3  -6 -13   29.82    2.91
  -3  -6 -14   -0.04    0.65
   3   6  14    0.15    0.99
  -3  -6 -15   15.19    1.80
   3   6  15   14.04    1.86
   3   6  16    1.55    1.04
  -3  -6 -16    1.52    0.85
  -3  -6 -17   18.29    2.04
   3   6  17   15.34    2.02
   3   6  18    2.82    1.12
  -3  -6 -18    3.50    1.08
   3   6  19    1.32    1.00
  -3  -6 -19    1.87    1.05
  -3  -6 -20    1.11    0.95
   3   6  20    0.60    1.02
  -3  -6 -21    0.56    1.02
   3   6  21    0.70    1.11
  -3  -6 -22    0.69    1.01
   3   7 -15    2.97    1.25
   3   7 -14   -0.16    1.18
  -3  -7  14    0.53    1.59
   3   7 -13    0.99    1.12
  -3  -7  13   -0.82    1.57
   3   7 -12    3.85    1.31
  -3  -7  12    6.83    1.78
   3   7 -11   16.63    2.19
  -3  -7  11   18.38    2.39
   3   7 -10   16.20    2.05
   3   7  -9    9.17    1.58
  -3  -7   9    8.28    1.91
   3   7  -8    4.02    1.25
  -3  -7   8    1.97    1.56
  -3  -7   7    3.55    1.44
  -3  -7   6    0.13    0.96
   3   7  -6    0.76    0.95
  -3  -7   5    5.13    1.25
   3   7  -5    4.38    0.87
   3   7  -5    3.53    1.10
   3   7  -4    0.04    0.57
  -3  -7   4    0.18    1.01
  -3  -7   4    0.38    0.74
   3   7  -4   -0.21    0.96
  -3  -7   3   24.82    2.60
   3   7  -3   22.68    2.49
   3   7  -3   23.50    2.37
  -3  -7   3   23.74    2.40
  -3  -7   2    9.05    1.17
   3   7  -2    6.50    1.29
   3   7  -2    7.84    1.15
  -3  -7   2    8.73    1.52
  -3  -7   1    4.07    0.92
  -3  -7   1    4.03    1.32
   3   7  -1    4.62    1.14
  -3  -7   0    0.93    0.76
   3   7   0    0.74    0.65
  -3  -7   0    0.25    1.14
   3   7   0   -0.35    0.87
   3   7   1  150.93   12.32
   3   7   1  159.66   12.44
  -3  -7  -1  161.24   12.36
   3   7   2   90.47    7.62
  -3  -7  -2   96.41    7.65
   3   7   2   97.07    7.73
  -3  -7  -3   16.09    1.78
   3   7   3   16.27    1.76
   3   7   3   16.06    1.92
  -3  -7  -3   17.70    2.08
  -3  -7  -4  162.14   12.31
  -3  -7  -4  121.80   12.42
   3   7   4  145.14   12.29
  -3  -7  -5   59.33    5.11
   3   7   5   60.93    5.12
   3   7   5   53.01    5.18
  -3  -7  -5   57.43    5.33
  -3  -7  -6   91.27    7.08
  -3  -7  -6   77.38    7.22
   3   7   6   74.34    7.14
  -3  -7  -7  114.49    7.81
   3   7   7   99.79    7.79
  -3  -7  -7   78.41    7.52
  -3  -7  -7   96.46    7.55
  -3  -7  -7   78.22    7.88
   3   7   7  101.54    7.91
   3   7   8    3.07    0.83
  -3  -7  -8    1.74    0.88
   3   7   8    1.89    0.89
   3   7   9    0.25    0.85
  -3  -7  -9    0.14    0.84
  -3  -7  -9    0.08    0.58
   3   7   9   -0.19    0.64
   3   7  10    1.69    0.91
  -3  -7 -10    1.00    0.61
   3   7  10    0.77    0.64
  -3  -7 -11   12.41    1.75
   3   7  11   15.06    1.80
  -3  -7 -12   42.37    4.07
   3   7  12   44.99    4.22
  -3  -7 -13   45.94    4.02
   3   7  13   38.80    4.11
  -3  -7 -14   10.45    1.32
   3   7  14    7.13    1.52
  -3  -7 -15    0.21    0.68
   3   7  15    0.42    0.98
  -3  -7 -16    3.18    1.00
   3   7  16    2.52    1.15
  -3  -7 -17    1.29    0.91
   3   7  17    1.06    0.99
  -3  -7 -18   19.71    2.28
   3   7  19    4.02    1.22
  -3  -7 -20    4.09    1.24
   3   7  20    2.52    1.10
  -3  -7 -21    0.78    0.98
   3   8 -13   13.52    2.08
  -3  -8  13   19.97    2.37
   3   8 -12    2.95    1.29
  -3  -8  12    5.34    1.65
   3   8 -11    0.63    1.20
  -3  -8  10   18.24    2.49
  -3  -8   9   24.85    2.88
   3   8  -9   21.90    2.58
   3   8  -8    8.68    1.63
  -3  -8   8   11.08    1.84
   3   8  -7    2.21    1.09
  -3  -8   6    4.71    1.31
   3   8  -6    4.93    1.27
  -3  -8   5    1.57    1.15
   3   8  -5    1.28    1.16
  -3  -8   4   11.50    1.74
   3   8  -4    9.40    1.55
  -3  -8   3    3.37    1.34
   3   8  -2    5.89    1.30
   3   8  -2    4.60    1.02
  -3  -8   2    6.85    1.50
  -3  -8   1    4.03    0.96
   3   8  -1    2.76    0.87
  -3  -8   1    4.42    1.43
   3   8  -1    3.34    1.17
   3   8   0    4.70    0.92
  -3  -8   0    2.37    1.34
  -3  -8   0    2.41    0.87
   3   8   0    1.13    1.01
  -3  -8  -1   79.76    6.25
   3   8   1   77.74    6.21
   3   8   1   64.18    6.21
  -3  -8  -2    9.94    1.89
  -3  -8  -2   13.97    1.59
   3   8   2   13.52    1.52
   3   8   2   10.72    1.63
  -3  -8  -3   52.27    4.90
  -3  -8  -3   55.63    4.55
   3   8   3   41.87    4.55
  -3  -8  -4   77.40    6.11
   3   8   4   67.40    6.08
   3   8   4   60.32    6.12
  -3  -8  -4   70.93    6.36
  -3  -8  -5    8.76    1.12
   3   8   5    5.21    1.19
   3   8   5    5.74    1.07
  -3  -8  -5    6.21    1.49
  -3  -8  -6   31.73    3.99
  -3  -8  -6   50.44    3.88
   3   8   6   45.93    3.90
   3   8   6   36.87    3.89
   3   8   7   22.57    2.08
  -3  -8  -7   13.21    2.14
  -3  -8  -7   21.58    2.01
   3   8   7   16.54    2.12
  -3  -8  -8   50.69    4.76
  -3  -8  -8   61.94    4.55
   3   8   8   62.20    4.59
  -3  -8  -8   42.59    4.27
   3   8   8   47.86    4.64
  -3  -8  -9    0.78    0.97
  -3  -8  -9    0.67    0.70
   3   8   9    0.45    0.72
   3   8  10    8.67    1.42
  -3  -8 -10    7.68    1.36
   3   8  11    6.02    1.33
  -3  -8 -12    1.95    0.92
   3   8  12    1.33    1.03
  -3  -8 -13    2.27    0.94
   3   8  13    1.55    1.10
  -3  -8 -14    8.46    1.28
   3   8  14    6.26    1.41
  -3  -8 -15   20.19    2.07
   3   8  15   14.77    2.14
   3   8  16   17.16    2.14
  -3  -8 -17    0.42    0.85
   3   8  17    0.27    1.02
  -3  -8 -18   -0.39    0.91
   3   8  18    0.83    1.02
  -3  -8 -19   23.55    2.21
   3   8  19   10.73    1.93
  -3  -8 -20    3.38    1.14
   3   8  20    1.54    1.13
  -3  -8 -21    0.33    1.03
  -3  -9  11   22.16    2.76
   3   9 -10    8.07    1.61
  -3  -9  10   11.85    2.03
   3   9  -9   -0.36    1.13
  -3  -9   9    0.76    1.64
   3   9  -8   39.33    4.31
  -3  -9   8   54.08    4.59
   3   9  -7   51.48    4.87
   3   9  -5   24.91    2.53
  -3  -9   5   17.03    2.47
  -3  -9   4    5.72    1.49
   3   9  -4    7.22    1.41
  -3  -9   3   56.38    5.58
   3   9  -3   62.36    5.53
  -3  -9   2   10.93    1.86
   3   9  -2   10.02    1.66
   3   9  -1    7.17    1.49
  -3  -9   1    8.96    1.78
   3   9   0    0.30    0.98
  -3  -9   0   -0.85    1.20
   3   9   1   21.42    2.20
  -3  -9  -1   11.58    2.23
   3   9   2    2.11    0.95
  -3  -9  -2    1.94    1.47
  -3  -9  -3   15.93    1.79
   3   9   3   17.11    1.88
  -3  -9  -3   10.22    2.07
   3   9   3   12.49    1.80
  -3  -9  -4   13.39    1.62
   3   9   4   15.13    1.75
  -3  -9  -4   12.39    2.07
   3   9   4   11.25    1.80
  -3  -9  -5    0.93    0.78
   3   9   5    0.18    0.84
  -3  -9  -5    0.33    1.32
   3   9   5    0.47    1.07
   3   9   6    2.29    0.91
  -3  -9  -6    1.36    0.82
   3   9   6    1.71    1.01
   3   9   7    7.31    1.32
  -3  -9  -7    6.85    1.12
   3   9   7    6.51    1.22
  -3  -9  -7    4.22    1.39
   3   9   8    1.78    1.07
  -3  -9  -8    2.24    0.83
  -3  -9  -9    3.51    0.84
   3   9   9    2.81    0.96
  -3  -9  -9    4.26    1.21
   3   9   9    2.17    1.11
  -3  -9 -10    9.38    1.59
   3   9  11    6.31    1.46
  -3  -9 -11    9.01    1.50
  -3  -9 -12    0.94    1.01
   3   9  12    1.68    1.19
  -3  -9 -13    2.44    1.04
   3   9  13    1.27    1.09
   3   9  14    1.12    1.10
  -3  -9 -14    0.38    0.92
  -3  -9 -15   20.36    2.28
  -3  -9 -16   10.49    1.48
  -3  -9 -17    0.73    0.85
   3   9  17    1.01    1.13
  -3  -9 -18    3.30    1.04
   3   9  18    0.97    1.10
  -3  -9 -19    1.02    0.96
   3   9  19    1.56    1.14
  -3 -10   9    1.79    1.55
  -3 -10   8    8.04    1.91
   3  10  -6    5.96    1.36
   3  10  -5    1.37    1.10
  -3 -10   4    0.26    1.22
  -3 -10   3   -0.26    1.28
   3  10  -3    0.05    1.12
  -3 -10   2    1.07    1.30
   3  10  -2    0.44    1.15
  -3 -10   1   23.55    2.84
   3  10   0    6.30    1.42
  -3 -10   0    3.54    1.45
  -3 -10  -1    1.06    1.32
   3  10   1   -0.64    1.16
   3  10   2   -0.05    1.10
  -3 -10  -2   -0.95    1.44
   3  10   3    2.93    1.21
  -3 -10  -4   28.16    2.68
   3  10   4   11.86    2.02
  -3 -10  -5    0.58    1.20
   3  10   5   -0.05    1.09
   3  10   6    5.96    1.36
  -3 -10  -6    1.56    1.29
   3  10   7   28.50    2.79
   3  10   7   23.90    2.78
  -3 -10  -8    0.33    1.11
   3  10   8    2.29    1.00
   3  10   9    0.52    1.13
  -3 -10  -9    0.45    1.14
  -3 -10 -10   32.51    3.16
   3  10  10   25.04    3.04
  -3 -10 -11    0.49    1.05
   3  10  11   -0.92    1.19
  -3 -10 -12    7.67    1.37
   3  10  12    5.96    1.46
  -3 -10 -13    4.69    1.28
   3  10  13    2.66    1.38
   3  10  14    4.53    1.39
  -3 -10 -14    2.55    1.07
  -3 -10 -15    1.07    1.01
   3  10  15    0.74    1.28
  -3 -10 -16    0.68    1.00
   3  10  16    0.24    1.19
   3  10  17    3.39    1.34
   3  10  18    0.78    1.09
  -3 -10 -18    1.10    0.93
  -3 -10 -19    0.76    0.93
   3  10  19    0.43    1.08
  -3 -11   7    3.86    1.70
  -3 -11   3    1.63    1.26
  -3 -11   2    2.60    1.39
   3  11  -2    2.25    1.20
  -3 -11   1   21.79    2.65
  -3 -11   0    8.94    1.69
   3  11   0    6.47    1.46
   3  11   1    0.05    1.10
  -3 -11  -1    1.23    1.34
   3  11   2    4.96    1.47
  -3 -11  -2   11.47    1.90
   3  11   3    0.49    1.06
  -3 -11  -3    0.45    1.41
  -3 -11  -4    2.02    1.44
  -3 -11  -5    2.76    1.40
  -3 -11  -6   11.75    2.01
   3  11   6    8.67    1.68
   3  11   7    0.23    1.09
  -3 -11  -7    1.10    1.28
   3  11   8    1.56    1.18
   3  11   9    0.45    1.20
  -3 -11  -9    0.07    1.12
   3  11  10    8.52    1.47
  -3 -11 -10    4.67    1.40
   3  11  11    0.70    1.22
  -3 -11 -11   -0.51    1.01
  -3 -11 -12    6.45    1.48
   3  11  12    5.67    1.55
   3  11  13    0.45    1.33
  -3 -11 -14    1.49    1.06
   3  11  14    2.14    1.45
  -3 -11 -15    2.93    1.10
  -3 -11 -16   -0.17    0.99
   3  11  17   -0.25    1.17
  -3 -11 -17    1.09    0.93
   3  11  18    1.29    1.21
  -3 -12   1    1.41    1.31
  -3 -12   0    0.43    1.30
  -3 -12  -1   17.40    2.45
  -3 -12  -2   -0.44    1.32
  -3 -12  -3    1.75    1.44
   3  12   4   -0.29    1.02
  -3 -12  -4    2.23    1.38
  -3 -12  -5    2.58    1.45
   3  12   5    5.40    1.35
  -3 -12  -6    1.31    1.24
   3  12   6    0.41    1.10
  -3 -12  -7    2.33    1.45
   3  12   7    1.76    1.24
  -3 -12  -8    0.50    1.28
   3  12   8    0.12    1.21
   3  12   9    0.18    1.20
  -3 -12 -10    0.20    1.11
  -3 -12 -11   10.48    1.78
   3  12  11   12.27    1.88
   3  12  12    5.47    1.70
  -3 -12 -12   15.85    1.95
  -3 -12 -13    2.81    1.21
   3  12  13   -0.19    1.20
   3  12  14    0.33    1.26
  -3 -12 -15   -0.47    1.11
   3  12  15   -0.13    1.21
   3  12  16    1.23    1.36
  -3 -13   0    0.34    1.14
  -3 -13  -1   27.17    3.24
  -3 -13  -3    3.20    1.39
  -3 -13  -4    0.95    1.33
  -3 -13  -5    0.55    1.41
  -3 -13  -7    0.07    1.27
  -3 -13  -8    0.34    1.20
  -3 -13  -9    2.73    1.34
   3  13  10    2.13    1.37
   3  13  11   -0.53    1.35
  -3 -13 -11    2.40    1.21
  -3 -13 -12   -0.12    1.13
   3  13  12    0.67    1.30
   3  13  13    1.14    1.24
   3  13  14    0.86    1.28
   3  13  15    0.71    1.26
   4 -10 -11    1.31    1.32
  -4  10  11   -0.60    1.16
   4 -10 -10   -0.76    1.40
  -4  10  10   -0.41    1.17
   4 -10  -9    0.38    1.31
  -4  10   9   -0.51    1.14
  -4  10   8    2.79    1.22
  -4  10   7    4.01    1.31
   4 -10  -7    6.80    1.55
  -4  10   6   -0.04    1.06
   4 -10  -6   -0.89    1.29
  -4  10   5    1.22    1.05
   4 -10  -5   -1.82    1.36
   4 -10  -4    2.66    1.45
  -4  10   3    2.20    1.07
   4 -10  -3    3.60    1.54
  -4  10   2    0.45    1.00
   4 -10  -2   -0.08    1.39
  -4  10   1    0.70    0.99
   4  -9 -16    5.04    1.48
   4  -9 -15    4.22    1.35
   4  -9 -14    6.61    1.71
   4  -9 -13    3.09    1.45
  -4   9  13    0.38    1.23
   4  -9 -12    0.73    1.36
  -4   9  12    1.86    1.27
   4  -9 -11    0.07    1.36
  -4   9  11   -0.24    1.26
   4  -9 -10    1.99    1.40
   4  -9  -9    1.46    1.25
  -4   9   9    0.84    1.29
  -4   9   8    0.36    1.29
   4  -9  -8    0.57    1.25
  -4   9   7   -0.54    1.27
   4  -9  -7    0.88    1.26
   4  -9  -6   -1.12    1.29
  -4   9   5    2.34    1.21
   4  -9  -5    3.06    1.46
  -4   9   4    1.31    1.12
   4  -9  -4    0.25    1.29
  -4   9   3   -0.17    1.00
   4  -9  -3   -0.51    1.40
  -4   9   2    0.95    1.00
   4  -9  -2    1.32    1.50
  -4   9   1    0.68    1.00
   4  -9  -1    0.09    1.51
   4  -9   0   -1.12    1.55
  -4   9  -1   -0.39    0.95
   4  -9   1    0.48    1.58
  -4   9  -2    2.96    1.01
  -4   9  -3   -0.06    1.00
   4  -9   3    0.77    1.62
   4  -9   4    3.68    1.97
   4  -8 -16    3.61    1.47
   4  -8 -15   -0.08    1.38
   4  -8 -14    0.31    1.37
  -4   8  14    0.48    1.26
   4  -8 -13    3.52    1.59
  -4   8  13    1.37    1.32
   4  -8 -12    0.76    1.27
  -4   8  12   -0.08    1.27
  -4   8  11    1.03    1.33
  -4   8  10    1.23    1.32
   4  -8  -9    2.48    1.37
  -4   8   9    3.31    1.40
   4  -8  -8    0.14    1.22
  -4   8   8   -0.63    1.32
  -4   8   6   -0.28    1.26
   4  -8  -6   -1.15    1.27
  -4   8   5    3.62    1.33
   4  -8  -5    4.64    1.45
  -4   8   4    1.19    1.15
   4  -8  -4    1.25    1.41
  -4   8   3    0.72    1.08
   4  -8  -3    2.10    1.59
  -4   8   2   21.47    2.26
  -4   8   1    3.78    1.07
   4  -8  -1    1.04    1.63
  -4   8   0    6.42    1.22
   4  -8   0   11.35    2.15
  -4   8  -1    0.43    0.79
   4  -8   1    1.40    1.75
  -4   8  -2    1.29    0.92
   4  -8   2    0.81    1.82
  -4   8  -3   -0.22    0.92
  -4   8  -4    2.76    0.99
   4  -8   4    3.48    2.00
   4  -8   5    0.53    1.81
  -4   8  -6    1.48    0.93
   4  -8   6    3.39    2.00
  -4   7  19   -0.05    0.85
  -4   7  18    1.65    1.04
  -4   7  17    0.18    0.97
   4  -7 -16    4.11    1.59
  -4   7  16    1.99    1.11
   4  -7 -15    2.21    1.48
  -4   7  15   -0.04    1.21
  -4   7  15    1.53    0.97
  -4   7  14    0.14    0.92
  -4   7  14   -0.86    1.29
   4  -7 -13    0.72    1.51
   4  -7 -12    5.75    1.62
  -4   7  12    2.74    1.42
   4  -7 -11    1.47    1.38
  -4   7  11    1.61    1.37
   4  -7 -10    4.54    1.52
  -4   7  10    7.70    1.62
   4  -7  -9   -0.20    1.17
  -4   7   9   -1.10    1.37
   4  -7  -8   -0.28    1.15
  -4   7   8    0.04    1.24
   4  -7  -7   44.30    4.79
  -4   7   7   51.85    4.61
  -4   7   6    0.95    1.24
  -4   7   5    3.07    1.22
   4  -7  -5    1.18    1.35
   4  -7  -4   27.78    3.39
  -4   7   4   30.10    3.01
   4  -7  -3    9.90    1.98
  -4   7   2   55.72    5.33
   4  -7  -2   74.74    6.19
  -4   7   1   13.57    1.71
  -4   7   0   64.60    6.03
   4  -7   0   84.53    7.02
  -4   7  -1   -0.63    0.87
   4  -7   1    0.62    1.61
  -4   7  -2    0.91    0.88
   4  -7   2    0.85    1.61
  -4   7  -3   -0.58    0.90
   4  -7   3    0.53    1.79
  -4   7  -5    0.36    0.88
   4  -7   5    1.49    1.81
  -4   7  -6    4.58    1.12
   4  -7   6    5.89    2.03
  -4   7  -7    8.76    1.37
   4  -7   7   11.93    2.52
  -4   7  -8    3.68    1.10
   4  -7   9    3.60    2.20
   4  -7  10    4.84    2.13
  -4   6  16    2.81    1.39
   4  -6 -15    2.23    1.62
  -4   6  15    2.57    1.34
   4  -6 -14    3.11    1.60
   4  -6 -13    1.00    1.58
  -4   6  13    1.14    1.24
   4  -6 -12    7.64    1.86
  -4   6  12    6.11    1.53
   4  -6 -11    1.39    1.61
  -4   6  11    2.87    1.51
  -4   6  10   15.26    1.82
   4  -6  -9    0.20    1.26
  -4   6   9    1.34    0.82
  -4   6   9   -0.08    1.43
   4  -6  -8    8.63    1.43
  -4   6   8    9.58    1.62
  -4   6   8    5.18    1.05
   4  -6  -7    7.47    1.34
   4  -6  -6    1.04    0.96
   4  -6  -5   19.36    2.14
   4  -6  -4    1.05    1.46
   4  -6  -3   40.80    4.31
  -4   6   3   39.24    3.80
  -4   6   2   23.07    2.49
   4  -6  -2   24.67    3.13
  -4   6   1    4.91    1.22
   4  -6  -1    6.03    1.91
   4  -6   0   91.11    7.83
  -4   6   0   76.37    6.92
  -4   6  -1    1.68    0.88
   4  -6   1    2.01    1.89
  -4   6  -2    0.66    0.82
   4  -6   2   -1.15    1.65
   4  -6   3    1.39    1.95
  -4   6  -4   15.51    1.82
   4  -6   4   20.37    3.00
  -4   6  -5    7.45    1.18
  -4   6  -6    1.05    0.91
   4  -6   6    0.44    1.73
  -4   6  -7    0.13    0.96
   4  -6   7    2.23    1.96
  -4   6  -8    2.16    0.98
   4  -6   8    1.70    1.95
  -4   6  -9    5.25    1.23
  -4   6 -10    0.42    1.06
   4  -6  10    3.46    2.20
  -4   6 -11    2.85    1.16
   4  -6  11    4.35    2.52
  -4   5  17   -0.29    1.17
  -4   5  16    9.01    1.62
   4  -5 -15   15.53    2.33
   4  -5 -14    1.68    1.51
  -4   5  14    2.23    1.26
  -4   5  13   11.33    1.79
   4  -5 -12    4.25    1.73
  -4   5  12    1.61    1.38
   4  -5 -11   71.31    6.86
   4  -5 -10    0.23    0.92
   4  -5 -10    0.21    1.30
  -4   5  10    1.33    1.32
   4  -5  -9   27.14    2.93
   4  -5  -9   27.83    3.24
   4  -5  -9   21.65    2.79
   4  -5  -8    1.04    1.03
   4  -5  -8   -0.57    1.11
  -4   5   8    0.29    1.39
   4  -5  -7    0.05    0.97
   4  -5  -7   -0.41    1.03
   4  -5  -7   -0.13    1.21
  -4   5   7    1.46    1.30
   4  -5  -6    7.41    1.26
   4  -5  -6    7.77    1.46
   4  -5  -6    8.32    1.65
  -4   5   6    9.57    1.64
  -4   5   6    5.60    0.93
   4  -5  -5   13.88    1.81
  -4   5   5   10.20    1.16
   4  -5  -5   14.30    1.58
   4  -5  -4    1.45    0.88
   4  -5  -4    1.76    1.12
  -4   5   4    3.98    1.19
   4  -5  -4    1.76    1.44
   4  -5  -3    0.97    0.78
   4  -5  -3    0.71    0.95
  -4   5   3    1.10    1.02
   4  -5  -3    0.99    1.43
   4  -5  -2   25.53    2.63
   4  -5  -2   22.24    2.86
   4  -5  -2   26.82    3.37
  -4   5   2   33.91    2.82
   4  -5  -1   13.05    2.33
  -4   5   1   10.83    1.53
  -4   5   0    5.76    1.22
   4  -5   0    5.65    1.95
  -4   5  -1    1.24    0.88
   4  -5   1    0.70    1.78
  -4   5  -3   28.55    2.76
   4  -5   3   27.92    3.76
  -4   5  -4   94.27    8.38
   4  -5   4  115.90    9.44
  -4   5  -5    0.37    0.81
   4  -5   5    0.33    1.77
  -4   5  -6   27.01    2.66
  -4   5  -7    0.81    0.84
   4  -5   7    1.23    1.93
   4  -5   8   -0.11    1.81
  -4   5  -9    1.18    0.96
   4  -5   9    1.54    1.84
  -4   5 -10   11.81    1.65
  -4   5 -11    1.97    1.11
   4  -5  11    1.16    2.37
   4  -5  12   14.23    3.17
  -4   5 -13    6.47    1.38
   4  -5  14    4.75    2.97
  -4   4  18    2.44    1.27
   4  -4 -17   -0.47    1.13
  -4   4  17    0.39    1.22
   4  -4 -16   10.97    1.78
   4  -4 -15    0.79    1.15
  -4   4  15    1.28    1.21
   4  -4 -14    1.46    1.18
   4  -4 -14    2.85    1.39
  -4   4  14    3.24    1.30
   4  -4 -13    3.67    1.51
  -4   4  13    4.38    1.34
   4  -4 -12   46.70    4.06
   4  -4 -12   30.21    3.38
  -4   4  11   35.70    3.60
   4  -4 -11   34.62    3.63
   4  -4 -10   16.34    2.11
   4  -4 -10   22.57    2.71
   4  -4 -10   15.12    2.03
  -4   4  10   20.32    2.19
   4  -4 -10   18.25    2.07
   4  -4  -9  110.16   10.67
   4  -4  -9  110.74   10.61
  -4   4   9  136.71   10.62
   4  -4  -9  134.21   10.62
   4  -4  -8   13.02    2.01
   4  -4  -8   11.42    1.74
   4  -4  -8   12.36    1.72
  -4   4   8   16.08    1.83
   4  -4  -8   15.16    1.71
   4  -4  -7   23.49    2.74
  -4   4   7   27.77    2.62
   4  -4  -7   20.49    2.42
   4  -4  -7   22.42    2.32
   4  -4  -6   16.45    1.94
   4  -4  -6   17.08    2.32
   4  -4  -5   31.74    3.23
   4  -4  -5   34.62    3.38
   4  -4  -5   28.02    3.60
  -4   4   5   38.89    3.33
   4  -4  -4   21.16    2.23
   4  -4  -4   20.23    2.45
  -4   4   4   24.88    2.48
   4  -4  -3    3.07    0.88
   4  -4  -3    3.79    1.09
   4  -4  -3    3.95    1.63
  -4   4   3    1.59    0.28
  -4   4   3    4.48    1.15
  -4   4   3    1.92    0.33
   4  -4  -2    0.21    0.60
   4  -4  -2    0.86    1.00
  -4   4   2    0.79    0.99
   4  -4  -2   -0.48    1.46
   4  -4  -1    2.38    0.78
   4  -4  -1    3.74    1.04
  -4   4   1    3.87    1.04
   4  -4  -1    2.49    1.68
   4  -4   0   17.49    2.07
  -4   4   0   17.57    1.90
   4  -4   0   18.46    2.67
   4  -4   0   17.05    1.78
   4  -4   1    6.16    1.27
   4  -4   1    4.96    1.88
   4  -4   1    5.99    0.89
   4  -4   2   67.10    6.48
  -4   4  -2   76.24    6.37
   4  -4   2   75.97    7.24
   4  -4   3   54.17    5.02
  -4   4  -3   56.13    4.94
   4  -4   3   57.36    5.82
  -4   4  -4    1.23    0.86
   4  -4   4    2.22    1.62
  -4   4  -5    2.20    0.86
   4  -4   5    3.02    1.85
  -4   4  -6   78.10    7.07
   4  -4   6   98.90    8.09
   4  -4   7   12.76    2.41
  -4   4  -8   10.56    1.51
   4  -4   8   13.03    2.50
  -4   4  -9   -0.09    0.93
   4  -4   9    0.22    1.96
  -4   4 -10    0.67    1.03
   4  -4  10    0.69    1.95
  -4   4 -11    1.73    1.11
   4  -4  12    5.56    2.63
  -4   4 -13    1.54    1.18
   4  -4  13    7.64    2.99
  -4   4 -14    0.79    1.15
   4  -4  15    6.77    3.06
   4  -3 -19    7.93    1.47
  -4   3  19    9.17    1.62
   4  -3 -18    5.99    1.32
  -4   3  18    4.42    1.41
   4  -3 -17    0.58    1.12
   4  -3 -16    0.05    1.01
  -4   3  16    1.01    1.28
   4  -3 -15    5.64    1.43
  -4   3  15    5.36    1.45
   4  -3 -14    0.81    1.10
   4  -3 -14    1.83    0.95
  -4   3  14    1.25    1.26
   4  -3 -13    2.24    1.10
   4  -3 -12   24.30    2.64
  -4   3  12   20.10    2.39
   4  -3 -12   19.99    2.39
   4  -3 -11   16.76    2.30
  -4   3  11   12.98    1.87
   4  -3 -10    2.57    0.96
   4  -3 -10    2.67    0.93
   4  -3 -10    2.22    1.47
  -4   3  10    2.16    1.33
   4  -3  -9    7.66    1.26
   4  -3  -9    7.61    1.37
   4  -3  -9    9.13    1.69
  -4   3   9    7.61    1.47
   4  -3  -8   56.37    5.03
   4  -3  -8   49.88    5.04
  -4   3   8   60.47    5.06
   4  -3  -7   14.64    1.67
   4  -3  -7   12.61    1.67
   4  -3  -7   12.71    1.77
   4  -3  -7   14.50    2.00
   4  -3  -6   56.44    4.51
   4  -3  -6   46.48    4.56
   4  -3  -6   49.61    4.66
  -4   3   6   52.38    4.59
   4  -3  -6   43.32    4.78
   4  -3  -5  179.30   14.40
   4  -3  -5  186.94   14.64
   4  -3  -5  169.85   14.80
  -4   3   5  167.28   14.51
   4  -3  -5  155.46   14.50
   4  -3  -4    0.21    0.61
   4  -3  -4   -0.12    0.90
  -4   3   4    0.12    1.08
   4  -3  -4   -0.64    1.35
   4  -3  -3   31.28    3.11
   4  -3  -3   28.20    3.42
  -4   3   3   37.57    3.09
   4  -3  -3   30.90    2.95
   4  -3  -3   30.05    2.77
   4  -3  -2   18.63    1.75
   4  -3  -2   16.94    1.91
   4  -3  -2   18.06    2.45
  -4   3   2   17.56    1.88
  -4   3   2   14.89    1.45
   4  -3  -2   15.08    1.44
   4  -3  -1   33.51    3.14
   4  -3  -1   32.14    3.31
   4  -3  -1   33.95    3.86
  -4   3   1   37.16    3.26
   4  -3   0    0.84    1.58
   4  -3   1    0.94    0.60
   4  -3   1    1.29    0.87
  -4   3  -1    1.17    0.93
   4  -3   1    1.30    1.66
  -4   3  -2   62.86    5.18
   4  -3   2   49.83    5.23
   4  -3   2   60.31    5.08
   4  -3   3   61.73    5.38
   4  -3   3   64.45    5.57
  -4   3  -3   62.01    5.52
   4  -3   3   62.60    6.21
   4  -3   4   58.46    5.60
  -4   3  -4   67.20    5.59
   4  -3   4   69.41    6.40
   4  -3   5   11.60    2.30
   4  -3   5   11.22    1.32
  -4   3  -5   10.78    1.40
   4  -3   6    3.00    0.70
   4  -3   6    3.19    1.63
   4  -3   7    0.51    0.44
  -4   3  -7   -0.66    0.85
   4  -3   7    0.09    1.64
   4  -3   8   23.68    2.29
  -4   3  -8   32.69    2.65
  -4   3  -9   29.05    3.14
   4  -3   9   48.54    4.21
  -4   3 -10    1.68    1.10
   4  -3  10    3.73    1.86
  -4   3 -11    1.33    1.05
   4  -3  11    1.62    2.00
  -4   3 -12    2.62    1.13
  -4   3 -13    1.14    1.14
   4  -3  13    2.20    2.48
  -4   3 -14    0.83    1.14
   4  -3  14    2.43    2.90
   4  -3  16    5.64    2.96
  -4   2  20    7.72    1.63
  -4   2  19    4.65    1.54
   4  -2 -18   51.84    4.88
  -4   2  17   16.57    2.12
   4  -2 -17   12.91    1.92
   4  -2 -16    0.87    1.04
  -4   2  16    0.35    1.40
  -4   2  15   30.24    3.14
   4  -2 -15   28.92    3.13
   4  -2 -14    1.91    1.09
   4  -2 -13   12.49    1.53
  -4   2  13   14.18    1.93
   4  -2 -12   33.84    3.47
   4  -2 -12   36.76    3.33
  -4   2  12   33.74    3.44
   4  -2 -11   14.48    1.84
   4  -2 -11   14.40    1.81
  -4   2  11   14.82    1.92
   4  -2 -11   12.92    1.77
   4  -2 -10    3.84    1.14
   4  -2 -10    2.75    0.85
   4  -2 -10    3.20    1.29
   4  -2 -10    3.88    1.05
  -4   2  10    4.06    1.26
   4  -2  -9   15.93    1.88
   4  -2  -9   15.28    1.87
   4  -2  -9   17.33    2.17
  -4   2   9   14.98    1.96
   4  -2  -8   40.82    3.88
   4  -2  -8   45.11    4.12
   4  -2  -8   41.00    3.94
   4  -2  -7   51.75    4.74
  -4   2   7   55.00    4.83
  -4   2   6  104.86    9.29
   4  -2  -6  114.51    9.39
   4  -2  -6  107.71    9.55
  -4   2   6  110.34    9.34
   4  -2  -5    4.59    0.95
   4  -2  -5    5.88    1.05
  -4   2   5    5.44    0.91
   4  -2  -5    5.75    1.39
  -4   2   5    7.12    1.26
  -4   2   4    7.72    1.04
   4  -2  -4    8.16    1.04
   4  -2  -4    8.55    1.13
  -4   2   4    7.26    1.24
   4  -2  -4    7.03    1.48
   4  -2  -3   14.67    1.50
  -4   2   3   11.47    1.37
   4  -2  -3   13.24    1.95
  -4   2   3   13.17    1.60
  -4   2   2   23.59    2.25
   4  -2  -2   22.37    2.16
   4  -2  -2   24.57    2.34
  -4   2   2   28.84    2.48
   4  -2  -2   29.46    3.00
  -4   2   1   60.52    4.86
   4  -2  -1   64.11    5.52
   4  -2  -1   50.42    4.71
   4  -2  -1   64.45    4.91
  -4   2   0    1.31    0.53
   4  -2   0    1.92    0.62
   4  -2   0    1.22    0.29
  -4   2   0    1.63    0.92
  -4   2   0    1.32    0.25
   4  -2   0    0.36    1.41
   4  -2   1    2.88    0.57
   4  -2   1    1.47    0.25
  -4   2  -1    2.63    1.00
   4  -2   1    2.32    1.48
   4  -2   2    1.14    0.20
  -4   2  -2    4.02    0.94
   4  -2   2    2.12    0.53
   4  -2   2    3.94    1.56
   4  -2   2    0.52    0.18
   4  -2   3   20.50    1.24
   4  -2   3   23.06    1.61
  -4   2  -3   22.32    1.57
  -4   2  -4  100.64    8.06
   4  -2   4  102.09    8.70
   4  -2   4   87.20    7.95
   4  -2   5    5.15    0.82
   4  -2   5    4.62    1.70
   4  -2   5    6.22    0.71
   4  -2   6   17.93    1.58
   4  -2   6   21.75    1.79
  -4   2  -6   17.00    1.82
   4  -2   6   21.42    2.63
   4  -2   7    7.36    1.06
   4  -2   7    9.66    1.03
  -4   2  -7   10.13    1.32
   4  -2   7   10.19    2.06
   4  -2   8   82.82    7.02
   4  -2   8   75.48    6.82
  -4   2  -8   91.15    7.08
  -4   2  -9    1.55    0.91
   4  -2   9   -0.28    0.70
   4  -2   9    1.77    1.76
   4  -2  10  123.25   10.43
  -4   2 -10  115.64   10.35
   4  -2  10  142.05   11.28
   4  -2  11    7.92    2.37
  -4   2 -12    0.63    1.07
   4  -2  12    1.98    2.12
  -4   2 -13    1.01    1.11
   4  -2  13    0.70    2.54
  -4   2 -14    0.15    1.11
   4  -2  14    0.16    2.78
   4  -2  15   -1.22    2.72
   4  -2  16    2.27    3.15
   4  -2  17   42.05    5.90
   4  -1 -20    3.22    1.16
  -4   1  20    2.62    1.48
   4  -1 -19    0.52    1.04
  -4   1  19    0.30    1.40
   4  -1 -18    1.63    1.10
  -4   1  18    0.99    1.50
   4  -1 -17    7.01    1.46
  -4   1  17    8.59    1.78
   4  -1 -16   20.92    2.64
  -4   1  16   32.09    2.95
   4  -1 -15    0.09    0.93
  -4   1  14   17.04    2.25
  -4   1  13    1.85    1.48
   4  -1 -12   25.45    2.67
   4  -1 -12   24.72    2.32
  -4   1  12   26.89    2.84
   4  -1 -11    2.13    0.91
   4  -1 -11    2.45    0.99
   4  -1 -11    3.29    0.66
  -4   1  11    2.69    1.22
   4  -1 -10   45.95    3.92
  -4   1  10   34.50    3.72
   4  -1 -10   42.72    3.73
  -4   1  10   39.83    3.98
   4  -1 -10   48.17    4.00
  -4   1   9    9.09    1.20
   4  -1  -9    6.81    1.32
   4  -1  -9   10.51    1.37
   4  -1  -9   10.37    1.32
   4  -1  -8    1.28    0.73
   4  -1  -8    1.77    0.85
   4  -1  -8    1.41    0.96
  -4   1   8    0.71    1.17
  -4   1   7   65.09    6.28
   4  -1  -7   80.88    6.53
   4  -1  -7   77.29    6.37
  -4   1   7   71.00    6.41
   4  -1  -7   75.63    6.41
  -4   1   6    4.49    0.84
   4  -1  -6    5.84    0.93
   4  -1  -6    4.47    0.90
   4  -1  -6    6.10    1.26
  -4   1   6    5.31    1.19
   4  -1  -5   21.87    2.36
   4  -1  -5   21.89    2.61
   4  -1  -4    1.22    0.68
   4  -1  -4    0.87    0.62
   4  -1  -4    1.37    1.12
  -4   1   4    0.15    0.86
   4  -1  -3   18.19    2.30
  -4   1   3   20.25    1.93
   4  -1  -3   16.85    1.76
   4  -1  -3   20.85    1.88
  -4   1   3   16.62    1.80
  -4   1   2    1.60    0.58
   4  -1  -2    1.67    0.62
  -4   1   2    1.93    0.86
   4  -1  -1  458.45   39.61
   4  -1  -1  525.11   40.07
  -4   1   1  521.28   39.65
  -4   1   1  447.51   39.59
   4  -1   0   88.16    7.54
   4  -1   0   85.74    7.46
  -4   1   0   95.55    7.62
   4  -1   0  103.80    8.10
  -4   1   0   85.29    7.52
  -4   1  -1   21.85    2.17
   4  -1   1   23.29    2.18
   4  -1   1   24.28    2.14
  -4   1  -1   24.62    2.32
   4  -1   1   26.75    2.81
  -4   1  -2   28.44    2.92
  -4   1  -2   31.14    3.05
   4  -1   2   31.62    2.93
   4  -1   2   36.78    3.64
   4  -1   3    6.83    0.99
  -4   1  -3    5.94    1.03
   4  -1   3    5.97    0.76
  -4   1  -3    5.85    0.75
  -4   1  -4    2.68    0.52
   4  -1   4    3.21    0.73
   4  -1   5   11.39    1.10
  -4   1  -5   10.23    1.37
   4  -1   6  178.29   14.01
   4  -1   6  162.12   14.11
  -4   1  -6  157.00   14.11
  -4   1  -7   61.09    6.01
   4  -1   7   77.56    5.90
   4  -1   7   60.50    6.03
   4  -1   7   72.39    5.97
   4  -1   8   46.94    3.94
   4  -1   8   48.29    3.98
   4  -1   8   48.43    4.22
  -4   1  -8   40.88    4.14
   4  -1   9    1.21    0.15
   4  -1   9    1.11    0.15
   4  -1  10  116.71   10.04
  -4   1 -11   17.65    2.26
   4  -1  11   26.92    2.40
   4  -1  12    1.73    0.95
  -4   1 -12    1.87    1.02
   4  -1  13    8.00    1.33
  -4   1 -13    4.95    1.38
   4  -1  14    2.16    1.01
   4  -1  16   -5.29    3.77
   4  -1  17   -0.65    3.21
   4  -1  18    2.43    3.35
  -4   0  20    3.37    1.58
   4   0 -19    0.24    1.07
  -4   0  19    1.82    1.53
   4   0 -18    5.94    1.33
  -4   0  18    7.78    1.74
   4   0 -17    7.53    1.43
  -4   0  17   10.69    1.90
   4   0 -16   15.73    1.98
   4   0 -15    0.85    0.99
  -4   0  15    0.97    1.45
   4   0 -14    1.63    0.98
  -4   0  14    2.05    1.45
   4   0 -13    5.69    1.27
  -4   0  13    9.85    1.70
   4   0 -12    3.50    1.04
  -4   0  12    3.98    1.44
   4   0 -11   36.27    3.67
  -4   0  11   35.82    3.57
   4   0 -11   46.80    3.82
  -4   0  11   41.71    3.83
   4   0 -10   27.99    2.47
  -4   0  10   32.46    2.36
   4   0  -9    2.91    0.49
  -4   0   9    2.71    0.76
   4   0  -9    4.39    0.97
  -4   0   9    3.59    1.33
   4   0  -8    3.63    0.89
   4   0  -8    3.38    0.60
  -4   0   8    3.39    1.29
   4   0  -7    5.11    0.87
  -4   0   7    4.38    0.84
   4   0  -7    5.08    0.92
   4   0  -7    4.46    0.93
  -4   0   7    4.48    1.26
  -4   0   6   44.19    4.19
   4   0  -6   50.93    4.27
   4   0  -6   46.73    4.24
  -4   0   6   46.81    4.31
   4   0  -6   49.18    4.27
   4   0  -5  177.78   14.22
   4   0  -5  168.05   14.29
  -4   0   5  158.73   14.22
  -4   0   5  170.85   14.21
   4   0  -4   30.49    2.67
   4   0  -4   26.07    2.64
   4   0  -3   88.99    7.75
   4   0  -3   94.67    8.00
  -4   0   3   91.89    7.81
  -4   0   2  483.28   41.02
   4   0  -2  506.10   41.24
  -4   0   2  532.39   41.04
   4   0  -2  451.74   40.99
   4   0  -2  519.34   41.05
  -4   0   1 1254.28  104.35
   4   0  -1 1253.63  104.37
   4   0  -1 1266.37  104.34
  -4   0   1 1278.09  104.36
  -4   0   0  220.53   18.64
  -4   0   0  219.98   18.67
   4   0   0  231.63   18.68
   4   0   1  910.03   76.32
  -4   0  -1  909.46   76.33
   4   0   1  949.91   76.32
  -4   0  -2   13.66    1.43
   4   0   2   15.43    1.44
  -4   0  -2   12.54    1.58
   4   0   2   17.75    1.60
  -4   0  -3    3.21    0.52
   4   0   3    3.08    0.53
  -4   0  -4    0.11    0.33
  -4   0  -4   -0.02    0.61
   4   0   4    0.01    0.33
   4   0   5    8.72    0.94
  -4   0  -5   10.22    0.95
  -4   0  -5    9.19    1.14
  -4   0  -5    7.17    1.08
   4   0   5    8.95    1.12
   4   0   6    0.81    0.64
  -4   0  -6    0.50    0.33
   4   0   6    0.51    0.33
  -4   0  -6    0.41    0.71
  -4   0  -7    5.88    1.07
   4   0   7    9.02    0.81
   4   0   7    6.61    1.08
  -4   0  -7    6.84    0.98
  -4   0  -7    8.15    0.82
  -4   0  -8   44.56    3.63
   4   0   8   42.37    3.92
   4   0   8   48.89    3.64
  -4   0  -8   46.17    3.96
   4   0   9   23.44    1.86
   4   0   9   21.96    1.89
   4   0   9   21.96    2.29
   4   0  10    3.37    1.05
  -4   0 -10    2.53    0.84
  -4   0 -10    2.49    0.95
   4   0  11   13.41    1.51
  -4   0 -11    6.41    1.37
  -4   0 -12   52.58    5.14
   4   0  12   63.83    5.30
   4   0  14   13.01    1.78
   4   0  15   29.03    3.02
   4   0  16    0.61    1.06
   4   0  17   11.40    1.73
  -4  -1  20    3.38    1.58
   4   1 -19    1.75    1.14
  -4  -1  19    2.69    1.56
   4   1 -18   -0.24    1.00
  -4  -1  18    0.36    1.54
  -4  -1  17    4.89    1.77
  -4  -1  16   35.10    3.66
   4   1 -15    2.93    1.05
  -4  -1  15    2.98    1.56
   4   1 -14    0.79    0.91
  -4  -1  14   -1.18    1.44
   4   1 -13   21.55    2.36
  -4  -1  13   23.01    2.61
   4   1 -12   19.24    2.23
  -4  -1  12   24.21    2.56
   4   1 -11    1.41    0.77
   4   1 -11    0.69    0.79
   4   1 -10   39.65    3.86
  -4  -1  10   40.88    3.80
  -4  -1  10   41.34    4.02
   4   1 -10   46.50    3.93
  -4  -1   9    7.75    1.11
   4   1  -9   10.67    1.23
   4   1  -9    6.87    1.17
  -4  -1   9    7.20    1.54
   4   1  -8   51.03    4.01
   4   1  -8   40.09    3.90
  -4  -1   8   38.91    4.04
  -4  -1   7    3.48    0.75
   4   1  -7    3.11    0.84
   4   1  -7    4.03    0.81
  -4  -1   7    2.79    1.08
  -4  -1   6  107.75    6.44
   4   1  -6  111.23    6.50
   4   1  -6   84.69    6.15
  -4  -1   6   90.46    6.45
   4   1  -6   95.16    6.42
  -4  -1   5   60.64    3.89
   4   1  -5   58.67    3.92
   4   1  -5   53.97    3.89
   4   1  -5   36.61    3.70
   4   1  -5   36.08    3.57
   4   1  -4   19.48    1.91
   4   1  -4   18.17    1.93
   4   1  -4   18.49    1.89
  -4  -1   4   20.99    2.07
  -4  -1   4   20.16    1.94
   4   1  -3   28.78    2.60
   4   1  -3   24.44    2.68
  -4  -1   3   28.79    2.69
  -4  -1   3   29.41    2.60
  -4  -1   2  178.63   14.34
   4   1  -2  172.23   14.35
   4   1  -2  166.25   14.33
  -4  -1   2  167.04   14.35
   4   1  -1  158.91   12.83
   4   1  -1  141.53   12.80
  -4  -1   1  152.07   12.83
  -4  -1   1  159.54   12.81
  -4  -1   0  292.06   23.85
   4   1   0  281.01   23.87
  -4  -1   0  290.23   23.85
  -4  -1   0  283.88   23.85
   4   1   1 1562.74  125.67
  -4  -1  -1 1487.06  125.66
   4   1   1 1518.45  125.71
  -4  -1  -2  475.88   42.76
   4   1   2  554.67   42.85
  -4  -1  -2  502.16   42.81
   4   1   2  545.99   42.77
  -4  -1  -3   28.12    2.59
   4   1   3   29.52    2.60
  -4  -1  -3   27.64    2.64
   4   1   3   31.27    2.74
  -4  -1  -3   30.74    2.71
   4   1   4  190.52   15.32
  -4  -1  -4  172.07   15.34
  -4  -1  -4  188.15   15.32
   4   1   4  181.68   15.43
  -4  -1  -4  184.82   15.44
   4   1   5   18.38    2.20
  -4  -1  -5   25.11    2.09
  -4  -1  -5   20.60    2.15
  -4  -1  -5   28.37    2.29
   4   1   6   44.81    4.33
  -4  -1  -6   47.88    4.24
   4   1   6   53.91    4.20
  -4  -1  -6   44.87    4.36
  -4  -1  -7    2.92    0.78
  -4  -1  -7    2.73    0.45
   4   1   7    2.63    0.78
  -4  -1  -7    3.07    0.65
   4   1   7    3.05    0.46
  -4  -1  -8    0.14    0.67
  -4  -1  -8    0.02    0.31
   4   1   8   -0.02    0.28
   4   1   8   -0.03    0.87
  -4  -1  -9    6.81    0.70
   4   1   9    6.89    0.68
  -4  -1  -9    5.68    1.00
  -4  -1  -9    7.82    1.17
  -4  -1 -10   30.15    2.48
   4   1  10   31.56    2.48
   4   1  10   26.14    2.89
  -4  -1 -10   26.15    2.89
  -4  -1 -11    1.07    0.78
   4   1  11    1.36    1.02
  -4  -1 -11    1.60    0.98
  -4  -1 -12   17.66    2.23
   4   1  12   21.85    2.31
   4   1  13   51.40    3.58
  -4  -1 -13   24.07    3.24
  -4  -1 -14    3.49    1.04
   4   1  14    5.05    1.26
  -4  -1 -15    9.70    1.58
   4   1  15   15.28    1.82
   4   1  16   -0.84    0.96
   4   1  18    0.88    1.06
   4   1  19    0.78    1.05
   4   1  20    0.51    1.04
  -4  -2  19   19.34    2.28
   4   2 -19   13.94    2.00
   4   2 -18    5.52    1.32
  -4  -2  18    5.85    1.75
   4   2 -17   17.28    2.08
   4   2 -16    1.06    1.04
  -4  -2  16    0.40    1.54
   4   2 -15    3.06    1.05
  -4  -2  15    4.40    1.60
   4   2 -14   39.81    3.99
  -4  -2  14   47.43    4.26
   4   2 -13   17.38    2.12
  -4  -2  13   22.40    2.45
   4   2 -11   85.03    8.37
  -4  -2  11   95.93    8.47
   4   2 -11  114.33    8.47
  -4  -2  10  202.56   16.93
   4   2 -10  173.08   16.94
   4   2 -10  236.50   17.06
  -4  -2  10  203.91   17.05
   4   2  -9  228.96   21.35
   4   2  -9  288.59   21.44
  -4  -2   9  239.94   21.41
  -4  -2   9  266.08   21.33
   4   2  -8   28.76    2.66
  -4  -2   8   29.84    2.63
   4   2  -8   25.62    2.62
  -4  -2   8   24.14    2.77
   4   2  -7   14.88    1.81
  -4  -2   7   19.11    1.81
  -4  -2   7   15.28    2.00
   4   2  -7   18.46    1.81
  -4  -2   6   -0.24    0.56
   4   2  -6    0.09    0.55
   4   2  -6   -0.12    0.71
   4   2  -5   96.78    7.72
   4   2  -5   85.71    7.69
  -4  -2   5   89.16    7.68
  -4  -2   5   87.94    7.75
   4   2  -4   17.71    1.58
   4   2  -4   14.65    1.32
   4   2  -4   16.91    1.61
   4   2  -4   12.70    1.39
  -4  -2   4   16.90    1.57
  -4  -2   4   15.49    1.81
   4   2  -3   20.93    2.13
  -4  -2   3   20.03    2.29
   4   2  -3   25.71    2.16
   4   2  -2   14.25    1.35
   4   2  -2   10.27    1.31
  -4  -2   2   13.78    1.54
  -4  -2   2   12.39    1.34
  -4  -2   2   12.38    1.21
  -4  -2   1   11.81    1.22
   4   2  -1    9.85    1.24
   4   2  -1    9.86    1.22
  -4  -2   1   11.50    1.38
  -4  -2   1   11.30    1.10
   4   2   0   11.30    1.26
   4   2   0   11.82    1.31
  -4  -2   0    9.81    1.36
  -4  -2   0   12.51    1.24
  -4  -2   0   12.12    1.22
  -4  -2  -1   71.86    6.56
  -4  -2  -1   82.19    6.56
   4   2   2  114.21    9.02
  -4  -2  -2  101.17    8.98
  -4  -2  -3  165.79   14.07
   4   2   3  155.23   14.04
   4   2   3  184.58   14.21
  -4  -2  -3  180.70   14.13
   4   2   4  192.67   15.41
  -4  -2  -4  178.76   15.42
   4   2   4  183.73   15.56
  -4  -2  -4  183.25   15.51
  -4  -2  -5  270.16   22.43
   4   2   5  287.67   22.43
  -4  -2  -5  250.86   22.53
   4   2   5  259.01   22.55
   4   2   6   32.23    2.97
  -4  -2  -6   32.72    2.80
  -4  -2  -6   29.98    2.94
   4   2   7    6.33    0.70
   4   2   7    5.12    1.04
  -4  -2  -7    6.35    0.82
  -4  -2  -7    6.99    0.96
   4   2   8  140.61   10.90
  -4  -2  -8  118.74   10.93
   4   2   8  124.73   11.14
  -4  -2  -8  118.33   11.09
  -4  -2  -8  138.41   10.92
  -4  -2  -9    2.03    0.75
   4   2   9    2.39    0.39
  -4  -2  -9    1.59    0.72
   4   2   9    1.50    0.93
  -4  -2  -9    1.88    0.40
  -4  -2 -10    0.63    0.31
   4   2  10    0.57    0.34
  -4  -2 -10    0.87    0.84
  -4  -2 -10    0.44    0.72
   4   2  10    0.67    1.00
   4   2  11   54.52    4.70
  -4  -2 -11   46.66    4.58
   4   2  12    1.78    1.07
  -4  -2 -12    1.70    0.87
  -4  -2 -13    1.76    0.91
   4   2  13    1.25    1.02
  -4  -2 -14   25.53    2.73
   4   2  15    0.70    1.10
  -4  -2 -15    1.07    0.96
  -4  -2 -16    2.43    1.14
   4   2  16    3.69    1.26
   4   2  17    9.64    1.61
  -4  -2 -17   10.59    1.67
   4   2  18   17.76    2.29
  -4  -2 -18   20.51    2.36
   4   2  19   13.80    1.93
  -4  -2 -19   13.89    1.88
   4   2  20    0.92    1.11
   4   3 -17   10.19    1.65
  -4  -3  17   14.95    2.07
   4   3 -16   18.72    2.31
  -4  -3  16   24.05    2.55
   4   3 -15   27.47    2.94
  -4  -3  15   29.41    3.08
   4   3 -14    4.01    1.10
  -4  -3  14    5.62    1.53
   4   3 -13    3.27    1.03
   4   3 -12    0.54    0.88
  -4  -3  12    0.04    1.36
   4   3 -11    2.53    0.91
  -4  -3  11    2.47    1.48
   4   3 -10   22.70    2.16
  -4  -3  10   21.25    2.48
   4   3 -10   20.44    2.24
  -4  -3   9    2.29    0.83
   4   3  -9    2.36    0.64
   4   3  -9    1.29    0.84
  -4  -3   9    2.18    1.41
  -4  -3   8  330.91   25.91
   4   3  -8  288.89   25.91
   4   3  -8  307.27   25.89
  -4  -3   8  314.40   25.98
  -4  -3   7  293.93   23.92
   4   3  -7  279.21   23.90
  -4  -3   6   20.59    2.04
   4   3  -6   22.59    2.04
   4   3  -6   18.14    2.06
  -4  -3   6   20.79    2.28
  -4  -3   5  138.78   10.83
   4   3  -5  125.96   10.80
   4   3  -5  117.99   10.81
  -4  -3   5  129.13   10.88
   4   3  -4    0.19    0.57
  -4  -3   4    0.03    0.56
   4   3  -4    0.32    0.49
  -4  -3   4    0.08    1.01
   4   3  -3  387.62   30.02
   4   3  -3  330.28   29.88
  -4  -3   3  414.62   30.07
   4   3  -3  352.06   30.03
  -4  -3   3  394.89   30.05
  -4  -3   3  354.70   29.84
   4   3  -2    3.73    0.63
   4   3  -2    3.72    0.72
  -4  -3   2    5.18    0.97
  -4  -3   2    3.14    0.49
  -4  -3   1    0.56    0.39
  -4  -3   1    0.49    0.55
   4   3  -1    0.10    0.49
   4   3  -1   -0.10    0.58
  -4  -3   1   -0.20    0.84
   4   3   0   32.95    3.04
  -4  -3  -1   58.67    4.83
   4   3   1   59.19    4.81
  -4  -3  -1   61.79    4.85
  -4  -3  -1   53.47    4.81
   4   3   1   44.47    4.87
  -4  -3  -2   13.80    1.34
  -4  -3  -2   12.82    1.33
   4   3   2    9.96    1.47
  -4  -3  -3  156.87   12.99
  -4  -3  -3  163.61   12.96
  -4  -3  -3  152.24   12.89
   4   3   3  154.00   12.91
   4   3   3  144.41   13.04
  -4  -3  -4  444.16   36.14
  -4  -3  -4  452.50   35.99
   4   3   4  422.24   36.04
  -4  -3  -4  432.61   36.07
   4   3   4  406.87   36.16
  -4  -3  -5   10.25    1.24
  -4  -3  -5   10.66    1.12
   4   3   5   10.80    1.07
   4   3   5    9.33    1.28
  -4  -3  -6   12.82    1.25
   4   3   6   12.04    1.19
  -4  -3  -6   11.82    1.17
  -4  -3  -6   13.14    1.43
  -4  -3  -7   13.74    1.31
   4   3   7   14.63    1.28
  -4  -3  -7   12.27    1.22
  -4  -3  -7   11.74    1.49
   4   3   8    9.87    1.43
  -4  -3  -8   13.01    1.17
  -4  -3  -8   10.26    1.15
  -4  -3  -9   27.95    2.36
   4   3   9   27.74    2.35
   4   3   9   23.97    2.69
  -4  -3  -9   22.59    2.43
  -4  -3  -9   26.99    2.62
  -4  -3 -10   61.66    5.50
   4   3  10   70.40    5.53
   4   3  10   66.16    5.87
  -4  -3 -10   60.92    5.76
   4   3  11   30.93    3.09
  -4  -3 -11   28.69    2.91
  -4  -3 -12    0.28    0.77
   4   3  12   -0.48    1.03
   4   3  13   40.10    3.95
  -4  -3 -13   41.18    3.88
   4   3  14   12.45    1.66
  -4  -3 -14    7.75    1.44
  -4  -3 -15    0.61    0.90
   4   3  15   -0.15    1.11
   4   3  16    1.39    1.14
  -4  -3 -16    1.64    1.00
  -4  -3 -17    7.14    1.42
   4   3  18   14.28    2.10
  -4  -3 -18   17.91    2.13
   4   3  19    1.01    1.23
  -4  -3 -19    1.59    1.16
  -4  -3 -20    1.67    1.07
   4   3  20    0.32    1.16
  -4  -3 -21    5.66    1.32
   4   4 -17    3.04    1.21
  -4  -4  17   -0.38    1.44
   4   4 -16   22.86    2.64
  -4  -4  16   25.70    2.82
   4   4 -15    2.33    1.07
  -4  -4  15    1.66    1.43
   4   4 -13    1.35    0.96
  -4  -4  13    3.14    1.53
   4   4 -12    4.34    1.07
  -4  -4  12    4.23    1.49
   4   4 -11    1.19    0.84
  -4  -4  11    3.22    1.42
   4   4 -10   22.59    2.40
  -4  -4  10   23.09    2.63
  -4  -4   9    3.57    0.85
   4   4  -9    3.40    0.76
   4   4  -9    3.11    0.97
  -4  -4   9    1.30    1.37
   4   4  -8    8.13    1.05
  -4  -4   8    8.56    1.15
   4   4  -8    6.61    1.19
   4   4  -7  233.68   19.90
  -4  -4   7  237.58   19.85
  -4  -4   7  248.04   19.96
   4   4  -7  230.55   19.80
  -4  -4   6    0.12    0.67
   4   4  -6    0.11    0.49
   4   4  -6    0.78    0.78
  -4  -4   6   -0.28    1.25
  -4  -4   5    3.10    0.75
   4   4  -5    2.76    0.63
  -4  -4   5    2.33    1.31
   4   4  -5    2.84    0.79
  -4  -4   4  108.58    7.41
   4   4  -4  112.74    7.40
   4   4  -4   98.13    7.40
  -4  -4   4  112.40    7.54
  -4  -4   3    8.79    0.95
  -4  -4   3   11.25    1.23
   4   4  -3   10.56    1.22
  -4  -4   3   12.49    1.52
   4   4  -3   11.33    1.17
  -4  -4   2   73.30    6.41
  -4  -4   2   76.56    6.56
  -4  -4   2   83.34    6.62
   4   4  -1  243.49   19.52
   4   4  -1  216.73   19.54
  -4  -4   1  240.27   19.55
  -4  -4   0    5.26    0.73
   4   4   0    5.21    0.77
  -4  -4   0    6.20    0.88
   4   4   0    4.38    0.87
  -4  -4   0    5.84    0.93
  -4  -4  -1    0.70    0.58
  -4  -4  -1    0.80    0.53
   4   4   1    1.24    0.56
   4   4   1    0.64    0.67
  -4  -4  -1    0.82    0.78
  -4  -4  -2   13.64    1.54
   4   4   2   16.11    1.53
   4   4   2   15.80    1.69
  -4  -4  -2   15.74    1.58
  -4  -4  -3   81.95    7.67
  -4  -4  -3   95.55    7.67
  -4  -4  -3   94.38    7.58
   4   4   3   81.93    7.75
   4   4   3   91.13    7.62
  -4  -4  -4   12.48    1.45
   4   4   4   11.32    1.55
  -4  -4  -5   26.84    2.70
  -4  -4  -5   34.24    2.65
   4   4   5   27.77    2.56
  -4  -4  -5   28.88    2.48
   4   4   5   25.49    2.75
  -4  -4  -6   27.80    2.34
   4   4   6   33.77    2.16
  -4  -4  -6   36.05    2.23
   4   4   6   29.00    2.34
  -4  -4  -7    5.92    1.07
   4   4   7    6.43    1.18
  -4  -4  -7    9.07    0.96
   4   4   7    8.70    0.89
   4   4   8    1.72    0.79
  -4  -4  -8    1.09    0.68
   4   4   8    1.24    0.42
  -4  -4  -8    1.29    0.48
  -4  -4  -9   11.43    1.17
   4   4   9    9.12    1.49
   4   4   9   11.89    1.16
  -4  -4 -10  109.07    9.84
   4   4  10  102.86    9.87
  -4  -4 -10  121.73    9.62
  -4  -4 -11   19.74    2.17
  -4  -4 -12    4.79    1.00
  -4  -4 -13    0.94    0.77
   4   4  13    0.65    1.07
  -4  -4 -14    0.21    0.77
   4   4  14    0.77    1.11
  -4  -4 -15    1.67    0.92
   4   4  15    3.83    1.25
   4   4  16   16.84    2.10
  -4  -4 -16   15.47    1.92
  -4  -4 -17    6.87    1.29
   4   4  17    4.39    1.32
   4   4  18    8.13    1.47
  -4  -4 -19    0.58    0.98
   4   4  19   -0.54    1.12
  -4  -4 -20    6.48    1.41
  -4  -4 -21    0.56    1.01
   4   5 -17   59.23    5.47
   4   5 -16   32.18    3.47
  -4  -5  16   36.80    3.58
   4   5 -15    1.20    1.15
   4   5 -14    7.94    1.43
  -4  -5  14    6.33    1.60
   4   5 -13   -0.19    1.02
  -4  -5  13    1.12    1.45
   4   5 -12   40.93    3.74
  -4  -5  12   35.30    3.80
   4   5 -11   33.67    3.46
  -4  -5  11   39.32    3.66
  -4  -5  10   11.09    1.88
   4   5  -9    0.09    0.88
   4   5  -8    2.06    0.68
   4   5  -8    1.36    0.88
  -4  -5   8    3.12    1.39
  -4  -5   7   14.52    1.55
   4   5  -7   12.51    1.40
   4   5  -7   10.97    1.60
  -4  -5   7   11.73    1.88
   4   5  -6   20.36    1.95
   4   5  -6   18.85    2.08
  -4  -5   6   17.13    2.35
  -4  -5   6   19.26    2.01
  -4  -5   5  143.96   13.10
  -4  -5   5  183.77   13.41
  -4  -5   5  191.67   13.50
   4   5  -5  171.30   13.41
   4   5  -4   49.16    4.29
   4   5  -4   45.67    4.21
  -4  -5   4   47.43    4.45
  -4  -5   3   23.53    2.25
   4   5  -3   25.19    2.45
  -4  -5   3   24.76    2.39
  -4  -5   3   27.01    2.64
   4   5  -3   25.72    2.37
  -4  -5   2   22.00    1.95
   4   5  -2   17.10    1.84
   4   5  -2   17.48    1.94
  -4  -5   1    7.61    1.10
  -4  -5   1    8.95    1.14
   4   5  -1   10.70    1.13
   4   5  -1    7.54    1.19
  -4  -5   1   12.22    1.40
  -4  -5   0   84.06    7.99
   4   5   0   94.74    8.10
  -4  -5   0   98.06    8.04
  -4  -5   0  101.61    8.06
  -4  -5  -1   31.25    3.33
   4   5   1   39.54    3.33
   4   5   1   37.16    3.44
  -4  -5  -1   37.72    3.35
  -4  -5  -1   39.61    3.37
  -4  -5  -2    5.71    0.88
   4   5   2    5.53    0.79
  -4  -5  -2    3.77    0.90
  -4  -5  -2    5.62    0.92
  -4  -5  -3   45.12    4.21
  -4  -5  -3   49.55    4.18
   4   5   3   46.52    4.14
   4   5   4   -0.14    0.50
  -4  -5  -4    0.16    0.52
   4   5   4   -0.28    0.76
  -4  -5  -4    0.27    0.58
  -4  -5  -5  273.39   21.94
  -4  -5  -5  319.69   21.90
   4   5   5  285.35   21.84
  -4  -5  -5  214.79   21.69
  -4  -5  -5  286.89   21.71
   4   5   5  254.98   21.97
  -4  -5  -6    5.52    0.77
  -4  -5  -6    2.69    0.85
   4   5   6    4.81    0.94
   4   5   7   27.13    2.97
  -4  -5  -7   28.38    2.96
   4   5   7   33.46    2.83
  -4  -5  -7   34.27    2.86
  -4  -5  -8   38.47    4.37
   4   5   8   41.73    4.40
  -4  -5  -9   59.40    6.15
  -4  -5  -9   80.01    6.02
   4   5   9   76.61    6.01
   4   5   9   55.09    6.14
  -4  -5 -10  100.04    8.35
   4   5  10   84.14    8.58
   4   5  10  104.61    8.36
  -4  -5 -11    2.80    0.85
   4   5  11    3.86    1.17
  -4  -5 -12   20.97    2.14
   4   5  12   16.96    2.20
  -4  -5 -14   -0.30    0.69
   4   5  14   -0.42    0.99
   4   5  15    1.58    1.05
  -4  -5 -16    2.22    0.94
   4   5  17    5.93    1.29
  -4  -5 -17    4.83    1.19
  -4  -5 -18    1.18    0.94
   4   5  18    2.39    1.14
  -4  -5 -19    1.51    1.01
   4   5  19    1.34    1.13
   4   5  20    2.69    1.24
  -4  -5 -20    3.29    1.07
  -4  -5 -21    2.35    1.12
   4   6 -16   15.64    2.08
   4   6 -15    5.23    1.45
  -4  -6  15    4.89    1.66
  -4  -6  14    4.85    1.51
   4   6 -13   -0.71    1.12
  -4  -6  13    0.57    1.54
   4   6 -12    1.80    1.13
  -4  -6  12    2.82    1.36
   4   6 -11   15.93    2.09
  -4  -6  11   18.75    2.37
   4   6 -10   24.94    2.70
   4   6  -9    5.22    1.14
  -4  -6   9    3.36    1.47
   4   6  -8    2.74    1.06
  -4  -6   8    2.06    1.35
   4   6  -7    0.75    0.86
  -4  -6   7    0.68    1.38
   4   6  -6    2.94    0.72
  -4  -6   6    2.63    1.28
  -4  -6   5   91.65    7.49
   4   6  -5   70.70    7.37
   4   6  -5   91.38    7.55
  -4  -6   5  105.65    7.68
  -4  -6   5   83.75    7.27
   4   6  -4    0.33    0.80
   4   6  -4    0.19    0.57
  -4  -6   4    0.55    0.62
  -4  -6   4    0.60    0.69
  -4  -6   4    0.92    1.19
   4   6  -3    0.04    0.78
  -4  -6   3   -0.33    0.61
  -4  -6   3    0.46    0.73
  -4  -6   2    7.54    1.06
   4   6  -2    6.55    0.99
   4   6  -2    7.28    1.17
  -4  -6   2    7.66    1.57
  -4  -6   1    9.80    1.23
   4   6  -1   10.27    1.18
   4   6  -1    8.96    1.30
  -4  -6   1    8.31    1.21
  -4  -6   1   10.22    1.53
  -4  -6   0   18.46    2.10
   4   6   0   22.87    2.09
   4   6   0   22.99    2.25
  -4  -6   0   20.42    2.20
  -4  -6  -1    9.29    1.41
   4   6   1   12.23    1.37
   4   6   1   13.86    1.57
  -4  -6  -1   11.20    1.51
  -4  -6  -1   12.50    1.37
  -4  -6  -2   74.83    7.47
  -4  -6  -2   92.12    7.46
   4   6   2   86.27    7.42
   4   6   2   88.03    7.58
  -4  -6  -2   91.01    7.43
  -4  -6  -3   14.08    1.85
  -4  -6  -3   17.31    1.76
   4   6   3   18.40    1.74
   4   6   3   17.77    1.93
  -4  -6  -3   17.17    1.79
  -4  -6  -4    6.10    1.13
   4   6   4    7.66    0.93
   4   6   4    5.55    1.10
  -4  -6  -4    5.73    0.90
  -4  -6  -5    1.98    0.66
   4   6   5    2.04    0.64
   4   6   5    1.11    0.78
  -4  -6  -5    0.94    0.52
  -4  -6  -6   22.20    2.04
   4   6   6   20.60    2.00
  -4  -6  -6   19.66    2.21
   4   6   6   18.85    2.14
  -4  -6  -7   17.87    2.26
   4   6   7   23.27    2.10
  -4  -6  -7   22.46    2.11
  -4  -6  -8   11.42    1.63
   4   6   8   13.55    1.46
  -4  -6  -8   16.91    1.53
  -4  -6  -9   53.42    4.99
   4   6   9   44.08    4.97
  -4  -6 -10    1.60    0.77
   4   6  10    2.34    0.99
  -4  -6 -11   34.96    3.33
   4   6  11   35.18    3.45
  -4  -6 -12   45.25    4.10
   4   6  12   42.10    4.18
  -4  -6 -13   17.45    1.96
   4   6  13   16.94    2.14
  -4  -6 -14    7.16    1.10
   4   6  14    5.31    1.33
  -4  -6 -15    1.76    0.87
   4   6  15    0.27    1.08
  -4  -6 -16    4.44    1.10
   4   6  16    5.71    1.30
  -4  -6 -17    3.73    1.07
   4   6  17    2.68    1.12
  -4  -6 -18    0.97    0.88
   4   6  18   -1.28    1.12
  -4  -6 -19    5.93    1.26
  -4  -6 -20   -0.63    0.93
   4   6  20    0.16    1.09
  -4  -6 -21    1.84    1.07
   4   7 -15   -0.06    1.23
   4   7 -14    2.46    1.34
  -4  -7  14    2.45    1.60
   4   7 -13    5.50    1.43
  -4  -7  13    7.62    1.76
   4   7 -12    2.20    1.23
  -4  -7  12    2.46    1.56
   4   7 -10   11.91    1.76
  -4  -7  10   10.21    1.94
   4   7  -9   14.25    1.97
  -4  -7   9   15.13    2.09
   4   7  -8    3.52    1.29
  -4  -7   8    5.13    1.59
   4   7  -7    1.70    1.13
  -4  -7   7    0.68    1.48
   4   7  -6    1.57    1.13
  -4  -7   6    1.57    1.58
  -4  -7   5    2.15    0.81
  -4  -7   5    1.82    1.45
   4   7  -5    2.38    1.04
  -4  -7   4   33.83    3.51
   4   7  -4   42.82    3.60
   4   7  -4   39.58    3.70
  -4  -7   3   31.64    3.04
   4   7  -3   31.52    2.96
   4   7  -3   30.50    3.09
  -4  -7   3   29.29    3.23
   4   7  -2    1.71    0.96
  -4  -7   2    2.83    0.85
   4   7  -2    2.03    0.72
  -4  -7   2    2.16    0.92
  -4  -7   2    0.29    1.25
  -4  -7   1  152.85   14.16
   4   7  -1  172.20   14.15
  -4  -7   1  168.00   14.18
  -4  -7   1  176.63   14.20
  -4  -7   0  102.48    8.66
  -4  -7   0   94.76    8.67
   4   7   0  103.90    8.64
   4   7   0   91.91    8.69
  -4  -7   0  108.35    8.68
   4   7   1  389.93   32.90
   4   7   1  385.52   33.00
  -4  -7  -1  407.55   32.90
  -4  -7  -2    2.35    0.78
   4   7   2    1.75    0.67
  -4  -7  -2    0.43    0.92
   4   7   2    1.78    0.96
  -4  -7  -2    1.34    1.06
  -4  -7  -3   20.20    2.02
   4   7   3   20.60    2.00
   4   7   3   17.85    2.17
  -4  -7  -3   23.82    2.16
   4   7   4    2.66    1.02
  -4  -7  -4    3.04    0.81
   4   7   4    3.12    0.78
  -4  -7  -4    3.11    1.04
  -4  -7  -4    3.09    0.93
   4   7   5    5.37    0.95
   4   7   5    7.55    1.20
  -4  -7  -5    4.03    1.14
  -4  -7  -5    6.39    1.04
  -4  -7  -5    7.14    0.95
  -4  -7  -6  105.66    8.95
   4   7   6   90.43    9.21
  -4  -7  -7   -0.03    0.61
  -4  -7  -7    0.44    0.81
   4   7   7   -0.29    0.59
   4   7   7    0.45    0.78
   4   7   8   15.40    1.55
  -4  -7  -8   16.24    1.63
  -4  -7  -8   11.67    1.77
   4   7   8   14.11    1.75
  -4  -7  -9    6.68    0.96
   4   7   9    6.79    0.93
   4   7   9    5.14    1.17
  -4  -7  -9    6.65    1.21
  -4  -7 -10    4.73    1.06
   4   7  10    5.54    1.17
   4   7  11    1.36    1.02
  -4  -7 -11    0.53    0.71
  -4  -7 -12    2.80    0.84
  -4  -7 -13    1.59    0.80
  -4  -7 -14    5.26    1.10
   4   7  14    7.73    1.43
  -4  -7 -15    0.30    0.77
   4   7  15    0.28    1.00
  -4  -7 -16   15.59    1.84
   4   7  16   13.68    1.93
  -4  -7 -17    1.77    0.84
   4   7  17    0.33    1.03
  -4  -7 -18    4.31    1.14
   4   7  18    2.30    1.14
  -4  -7 -19    4.48    1.18
   4   7  19    3.23    1.24
   4   7  20   -0.79    1.06
  -4  -7 -21    3.21    1.10
   4   8 -14   15.19    2.07
   4   8 -13    0.91    1.29
  -4  -8  13    1.22    1.47
   4   8 -12   14.52    2.07
   4   8 -11    6.92    1.56
  -4  -8  11    8.89    1.82
  -4  -8  10   37.89    3.64
   4   8 -10   30.73    3.49
   4   8  -9    0.83    1.19
  -4  -8   9    3.00    1.57
   4   8  -8    1.22    1.13
  -4  -8   8    0.39    1.51
  -4  -8   7    1.05    1.51
   4   8  -6    8.22    1.61
   4   8  -5    0.82    1.19
  -4  -8   5   -0.73    1.41
   4   8  -4   -0.15    1.03
  -4  -8   4    0.16    0.89
  -4  -8   4    0.04    1.50
   4   8  -3    1.75    1.05
  -4  -8   3    0.94    0.99
  -4  -8   3    1.30    1.45
   4   8  -2   -0.17    0.65
   4   8  -2    0.05    1.06
  -4  -8   2   -0.29    1.41
   4   8  -1    9.89    1.36
   4   8  -1   10.51    1.52
  -4  -8   1    8.35    1.40
  -4  -8   1   10.29    1.56
  -4  -8   1   11.09    1.86
  -4  -8   0   14.97    1.71
  -4  -8   0   14.10    1.88
   4   8   0   13.69    1.68
   4   8   0   14.29    1.83
  -4  -8   0   12.68    1.95
  -4  -8  -1   52.79    6.04
  -4  -8  -1   70.16    6.03
   4   8   1   72.16    6.03
   4   8   1   66.64    6.10
  -4  -8  -1   77.35    6.11
  -4  -8  -2   87.47    8.72
  -4  -8  -2  102.17    8.66
   4   8   2  104.88    8.65
   4   8   2   97.85    8.73
  -4  -8  -2  104.92    8.66
   4   8   3  138.27   11.32
  -4  -8  -3  155.22   11.24
  -4  -8  -3  146.63   11.18
   4   8   4   10.27    1.32
  -4  -8  -4    7.10    1.45
  -4  -8  -4   11.16    1.55
   4   8   5    1.22    0.99
  -4  -8  -5    2.24    0.80
   4   8   5    1.31    0.78
  -4  -8  -5    1.54    1.00
  -4  -8  -5    2.47    0.92
  -4  -8  -6   11.78    1.34
   4   8   6    8.93    1.27
   4   8   6    8.24    1.42
  -4  -8  -6    7.95    1.48
  -4  -8  -7   12.82    2.00
   4   8   7   18.43    1.84
  -4  -8  -7   16.97    1.54
   4   8   7   15.24    1.99
  -4  -8  -8   13.47    1.84
  -4  -8  -8   17.18    1.68
   4   8   8   16.30    1.59
  -4  -8  -9    0.77    0.73
  -4  -8  -9    0.45    0.86
   4   8   9    0.79    0.89
   4   8  10    0.83    0.96
  -4  -8 -11   10.15    1.41
   4   8  11    5.79    1.39
   4   8  12    1.76    1.05
   4   8  13    4.01    1.22
  -4  -8 -13    3.20    0.94
   4   8  14    1.18    1.05
  -4  -8 -14    0.86    0.74
   4   8  15    5.71    1.36
  -4  -8 -15    4.78    1.10
   4   8  16    0.17    1.03
  -4  -8 -16    0.31    0.73
  -4  -8 -18    2.02    0.95
   4   8  19    1.11    1.12
  -4  -8 -19    0.29    0.86
  -4  -8 -20   -0.10    0.97
   4   8  20    0.52    1.05
   4   9 -12    0.53    1.21
   4   9 -11    0.53    1.26
  -4  -9  11    1.07    1.57
   4   9 -10   22.24    2.85
  -4  -9  10   28.85    3.01
  -4  -9   9   20.26    2.65
   4   9  -8  146.04   14.30
  -4  -9   8  187.59   14.35
   4   9  -7   19.94    2.47
   4   9  -6   12.16    1.94
  -4  -9   6   11.66    2.10
   4   9  -5    7.60    1.57
  -4  -9   5    3.85    1.74
  -4  -9   4    3.75    1.18
  -4  -9   4    4.37    1.73
  -4  -9   3   12.09    1.76
   4   9  -3   14.03    1.94
  -4  -9   3   11.21    2.15
  -4  -9   2    7.00    1.38
  -4  -9   2    4.79    1.75
   4   9  -1    0.79    1.18
  -4  -9   1    0.90    1.13
  -4  -9   0   11.72    1.81
   4   9   0   13.51    1.80
  -4  -9  -1    3.23    1.31
   4   9   1    2.82    1.14
   4   9   2    1.76    0.78
  -4  -9  -2    0.82    1.20
   4   9   2    2.19    1.10
  -4  -9  -3    4.21    0.97
   4   9   3    4.62    0.95
  -4  -9  -3    3.92    1.34
   4   9   3    3.56    1.20
  -4  -9  -3    3.33    1.45
   4   9   4    3.89    0.95
  -4  -9  -4    4.90    1.40
  -4  -9  -4    4.07    1.03
   4   9   4    3.37    1.22
   4   9   5    0.35    0.99
  -4  -9  -5    0.53    0.81
   4   9   5   -0.04    0.76
  -4  -9  -5    0.17    1.06
  -4  -9  -5    0.03    1.16
   4   9   6    1.16    1.06
  -4  -9  -6    2.01    0.85
   4   9   6    1.00    0.76
  -4  -9  -6    0.69    1.08
  -4  -9  -6    1.93    1.03
   4   9   7    2.63    1.08
  -4  -9  -7    2.44    0.91
  -4  -9  -7    2.99    1.18
   4   9   8    0.73    0.83
   4   9   8    0.33    0.90
  -4  -9  -8    0.40    0.72
  -4  -9  -9   11.24    1.69
  -4  -9 -10   -0.84    0.98
  -4  -9 -11   -0.11    0.90
   4   9  11   -0.97    1.03
  -4  -9 -12    0.47    0.96
   4   9  12    0.51    1.07
   4   9  13    9.40    1.60
  -4  -9 -14    0.75    0.87
   4   9  14    3.82    1.24
  -4  -9 -15   16.51    1.73
   4   9  15    8.31    1.75
   4   9  16    3.85    1.22
  -4  -9 -16    6.59    1.18
  -4  -9 -17    8.08    1.24
   4   9  17    3.57    1.32
  -4  -9 -18   11.14    1.51
   4   9  18    5.57    1.45
   4   9  19    0.42    1.06
  -4  -9 -19    0.05    0.90
   4  10  -9   -0.29    1.24
   4  10  -8    6.90    1.61
  -4 -10   8    9.56    1.91
   4  10  -7    8.75    1.73
  -4 -10   7   12.20    2.08
   4  10  -6   66.60    7.06
  -4 -10   6   92.90    7.25
  -4 -10   5    1.25    1.66
   4  10  -4    0.54    1.33
  -4 -10   4    1.25    1.56
  -4 -10   3    3.25    1.30
  -4 -10   3    7.14    1.84
   4  10  -3    4.98    1.45
  -4 -10   2   29.86    3.46
   4  10  -2   38.60    3.56
  -4 -10   1    4.09    1.37
   4  10   0   -0.05    1.18
  -4 -10   0   -0.49    1.21
   4  10   1    0.54    1.19
  -4 -10  -1    0.31    1.24
  -4 -10  -2    2.01    1.26
   4  10   2    2.55    1.29
  -4 -10  -3    0.07    1.22
   4  10   4    0.42    1.06
  -4 -10  -5    2.05    1.36
   4  10   5    1.60    1.24
  -4 -10  -5    3.01    1.50
  -4 -10  -6   16.23    2.16
   4  10   6   13.65    1.89
   4  10   7    1.67    0.93
  -4 -10  -7   -0.06    1.08
   4  10   7    0.98    1.12
   4  10   8    4.70    1.26
  -4 -10  -8    6.39    1.37
   4  10   9    1.24    1.12
  -4 -10  -9    3.19    1.12
  -4 -10 -10    0.12    1.08
   4  10  10   -0.43    1.07
  -4 -10 -11    7.75    1.45
   4  10  11    5.79    1.46
  -4 -10 -12    4.27    1.15
   4  10  12    4.12    1.30
   4  10  13    2.85    1.41
  -4 -10 -13   10.48    1.44
  -4 -10 -14    0.10    0.92
   4  10  14   -0.31    1.11
  -4 -10 -15   16.82    1.97
  -4 -10 -16    2.04    0.93
  -4 -10 -17    0.70    0.82
   4  10  17    1.58    1.19
   4  10  18    4.79    1.38
  -4 -11   7    0.92    1.54
  -4 -11   6   15.69    2.38
   4  11  -5    1.16    1.28
  -4 -11   5    1.31    1.72
   4  11  -4    0.51    1.29
   4  11  -3    0.24    1.22
  -4 -11   3    1.52    1.69
  -4 -11   2   19.45    2.53
  -4 -11   2   25.26    2.87
   4  11  -2   19.79    2.52
  -4 -11   1    7.56    1.54
  -4 -11   0   21.30    2.39
   4  11   0   15.28    2.26
   4  11   1    1.60    1.19
  -4 -11  -1    2.64    1.39
   4  11   2    2.03    1.17
  -4 -11  -2    2.73    1.40
  -4 -11  -3    2.53    1.41
   4  11   3    2.50    1.23
  -4 -11  -4   15.35    2.22
   4  11   4   15.32    2.03
  -4 -11  -5    1.92    1.37
   4  11   5    2.46    1.24
  -4 -11  -6    0.21    1.25
   4  11   6    1.12    1.25
  -4 -11  -7    0.77    1.23
   4  11   7   -0.63    1.21
  -4 -11  -8    0.48    1.08
  -4 -11  -9    7.66    1.55
   4  11  10    1.60    1.17
  -4 -11 -10    0.20    1.15
  -4 -11 -11    3.62    1.13
   4  11  11    0.06    1.15
  -4 -11 -12   15.89    1.86
   4  11  12    6.05    1.70
  -4 -11 -13    0.12    0.94
   4  11  13    0.13    1.24
  -4 -11 -14    7.21    1.33
   4  11  14    3.08    1.50
   4  11  15    1.09    1.31
  -4 -11 -15    0.79    0.97
  -4 -11 -16    0.15    0.82
   4  11  16    1.07    1.34
  -4 -11 -17    1.35    0.96
   4  11  17    0.06    1.18
  -4 -12   5    0.24    1.63
  -4 -12   4    4.65    1.82
  -4 -12   3    2.18    1.71
  -4 -12   2   -0.31    1.72
  -4 -12   1    4.32    1.74
   4  12  -1    2.28    1.25
  -4 -12   0   16.39    2.11
  -4 -12   0   23.93    2.43
   4  12   1    2.36    1.29
  -4 -12  -1    6.36    1.48
   4  12   2    4.39    1.34
   4  12   3    0.64    1.13
  -4 -12  -3    0.21    1.24
  -4 -12  -4    4.84    1.54
   4  12   4    2.17    1.20
  -4 -12  -5    7.91    1.72
   4  12   6    4.22    1.28
  -4 -12  -7    1.01    1.39
   4  12   7    0.24    1.11
  -4 -12  -8    0.71    1.34
   4  12   8    0.06    1.18
   4  12   9    4.11    1.35
  -4 -12  -9    5.83    1.42
   4  12  10    1.60    1.23
  -4 -12 -10    0.48    1.19
  -4 -12 -11   21.57    2.39
   4  12  11   14.57    2.28
   4  12  12    1.39    1.34
  -4 -12 -12    2.31    1.21
   4  12  13    1.01    1.33
  -4 -12 -13    0.13    1.04
  -4 -12 -14    1.14    1.08
   4  12  14   -0.26    1.36
  -4 -12 -15    6.90    1.26
   4  12  15    2.01    1.45
   4  12  16    0.58    1.26
  -4 -13   2    0.25    1.63
  -4 -13   1    2.92    1.68
  -4 -13   0    1.19    1.63
  -4 -13  -1    0.20    1.13
  -4 -13  -1   -0.26    1.62
  -4 -13  -2    1.67    1.31
  -4 -13  -3    3.17    1.36
  -4 -13  -4    2.79    1.37
  -4 -13  -5   -0.76    1.34
   4  13   5    0.24    1.17
  -4 -13  -6    1.60    1.35
   4  13   6    0.78    1.23
   4  13   7    0.30    1.14
  -4 -13  -8    4.27    1.41
   4  13   8    1.50    1.20
  -4 -13  -9    0.21    1.22
   4  13   9    0.32    1.24
  -4 -13 -10    2.52    1.36
   4  13  10    1.91    1.44
   4  13  11    0.99    1.31
  -4 -13 -11    1.72    1.25
  -4 -13 -12    4.42    1.41
   4  13  14    0.87    1.33
  -4 -14  -3    2.22    1.28
  -4 -14  -4    4.02    1.41
  -4 -14  -5    0.96    1.27
  -4 -14  -6    0.58    1.24
  -4 -14  -7    1.11    1.27
  -5   9  13    0.60    1.13
   5  -9 -12    3.35    1.53
  -5   9  12    1.66    1.22
   5  -9 -11    0.61    1.31
  -5   9  11    0.46    1.25
   5  -9 -10    0.69    1.41
  -5   9  10    0.20    1.25
  -5   9   9    1.37    1.24
   5  -9  -9    0.37    1.38
  -5   9   8    3.70    1.41
   5  -9  -8    7.25    1.70
  -5   9   7    3.86    1.40
   5  -9  -7    8.17    1.72
   5  -9  -5   16.14    2.36
  -5   9   5   11.78    1.75
  -5   9   4    0.91    1.10
   5  -9  -4    0.43    1.49
  -5   9   3    0.58    1.06
   5  -9  -3   -0.36    1.61
  -5   9   2    0.69    1.01
   5  -9  -2    2.11    1.63
   5  -9  -1    1.97    1.71
   5  -8 -14    0.75    1.28
  -5   8  14    0.75    1.29
   5  -8 -13    1.27    1.38
  -5   8  13    1.10    1.28
   5  -8 -12    1.51    1.48
   5  -8 -11    0.46    1.21
  -5   8  11    0.95    1.28
   5  -8 -10    7.84    1.81
  -5   8  10    4.16    1.50
   5  -8  -9    0.80    1.35
  -5   8   9    0.95    1.28
   5  -8  -8    7.52    1.74
   5  -8  -7   17.15    2.28
  -5   8   7    9.05    1.82
  -5   8   6    1.28    1.32
   5  -8  -6    1.15    1.31
   5  -8  -5   17.50    2.44
  -5   8   5   11.84    1.88
  -5   8   4    0.49    1.06
   5  -8  -4    0.71    1.41
  -5   8   3    0.24    1.06
   5  -8  -3    0.65    1.52
   5  -8  -2    0.49    1.48
  -5   8   1    7.68    1.30
   5  -8  -1   11.89    2.38
  -5   8   0    0.10    0.93
   5  -8   0    0.51    1.62
  -5   8  -1    1.81    0.97
   5  -8   1    2.26    1.82
  -5   8  -2    0.38    0.94
   5  -8   2    1.04    1.83
  -5   8  -3    0.94    0.95
   5  -8   3    0.10    1.75
  -5   8  -4    3.93    1.10
  -5   7  16    1.43    1.27
  -5   7  15    2.30    1.37
   5  -7 -14   15.78    2.28
  -5   7  14   10.66    1.87
   5  -7 -13    0.62    1.43
  -5   7  13   -0.04    1.30
   5  -7 -12    4.16    1.61
  -5   7  12    4.65    1.43
   5  -7 -11    6.27    1.72
  -5   7  11    4.68    1.53
   5  -7 -10    0.29    1.36
  -5   7  10    1.49    1.32
   5  -7  -8    1.32    1.34
  -5   7   8    3.03    1.41
   5  -7  -7   36.71    3.73
  -5   7   7   30.36    3.33
  -5   7   6    0.71    1.26
   5  -7  -6    0.49    1.37
  -5   7   5   15.53    1.97
   5  -7  -4    4.79    1.74
  -5   7   3    5.02    1.24
   5  -7  -3    3.84    1.86
  -5   7   2    1.89    1.09
   5  -7  -2    4.39    1.85
  -5   7   1    3.80    1.09
   5  -7  -1    4.25    2.01
  -5   7   0    3.43    1.01
   5  -7   0    3.25    1.95
   5  -7   1   19.17    2.76
  -5   7  -1   12.63    1.69
  -5   7  -2    0.52    0.92
   5  -7   2    1.77    1.71
  -5   7  -3    1.20    0.94
   5  -7   3    1.10    1.77
  -5   7  -4   -0.03    0.93
   5  -7   4    1.09    1.79
  -5   7  -5    0.28    0.95
  -5   7  -6    1.94    1.04
   5  -7   6    2.16    1.91
  -5   7  -7    1.86    1.03
   5  -7   7    3.58    2.14
  -5   6  17    2.86    1.35
  -5   6  16    3.50    1.42
  -5   6  15    1.12    1.34
   5  -6 -14    7.37    1.90
  -5   6  14    5.41    1.49
   5  -6 -13    0.41    1.46
  -5   6  13    2.24    1.32
  -5   6  12    9.93    1.74
   5  -6 -11    0.24    1.43
  -5   6  11    0.63    1.40
   5  -6 -10    4.36    1.61
  -5   6  10    5.89    1.49
   5  -6  -9   19.91    2.74
  -5   6   9   24.96    2.64
   5  -6  -8    5.24    1.56
  -5   6   8    5.54    1.47
   5  -6  -7   -1.20    1.32
  -5   6   7    0.45    1.18
  -5   6   6   11.34    1.72
   5  -6  -6    9.90    1.96
   5  -6  -5   42.22    4.53
  -5   6   4    2.09    1.18
  -5   6   3    2.85    1.20
   5  -6  -3    4.52    1.77
   5  -6  -2   17.79    2.85
  -5   6   2   19.09    2.17
  -5   6   1   11.85    1.63
   5  -6  -1   13.47    2.55
  -5   6   0    2.57    0.95
   5  -6   0    6.08    2.07
  -5   6  -1    1.32    0.91
  -5   6  -2    2.04    0.93
   5  -6   2    1.88    1.73
  -5   6  -3    1.78    0.94
   5  -6   3    1.70    1.86
  -5   6  -4    7.43    1.22
   5  -6   4    7.82    2.18
  -5   6  -5    4.44    1.04
   5  -6   5    2.14    1.89
  -5   6  -6    0.66    0.88
   5  -6   7    3.67    1.97
  -5   6  -8    0.23    0.96
   5  -6   8    0.70    2.02
  -5   6  -9    1.18    1.06
   5  -6   9    3.24    2.28
   5  -6  10    1.13    2.23
  -5   5  18    0.69    1.18
  -5   5  17    1.83    1.25
  -5   5  16    7.39    1.52
  -5   5  15    1.83    1.25
   5  -5 -14    0.56    1.46
  -5   5  14    0.78    1.25
   5  -5 -13   24.22    2.85
  -5   5  13   14.32    2.16
   5  -5 -12    2.03    1.60
  -5   5  12    1.29    1.38
  -5   5  11    1.83    1.39
   5  -5 -10   32.82    3.64
  -5   5  10   31.67    3.29
   5  -5  -9    8.52    1.72
  -5   5   9    6.26    1.56
  -5   5   8    6.28    1.46
   5  -5  -7    1.40    1.07
   5  -5  -7    1.60    1.41
  -5   5   7   -0.19    1.23
   5  -5  -6    0.67    0.94
   5  -5  -6   -0.08    1.48
  -5   5   5   13.72    1.85
   5  -5  -5   10.55    2.12
  -5   5   4    1.97    1.20
  -5   5   3   -0.07    1.08
   5  -5  -3   -0.09    1.53
  -5   5   2    7.19    1.38
   5  -5  -2    8.91    2.21
   5  -5  -1   24.67    3.32
  -5   5   1   24.62    2.60
  -5   5   0    1.29    0.95
   5  -5   0    1.08    1.76
  -5   5  -1    2.74    1.09
   5  -5   1    3.44    1.80
  -5   5  -2    3.76    1.09
  -5   5  -3    1.24    0.88
   5  -5   3    0.69    1.79
  -5   5  -4   10.19    1.42
   5  -5   4   12.46    2.61
  -5   5  -5    6.98    1.12
   5  -5   5    6.68    2.32
  -5   5  -6    7.75    1.29
   5  -5   6    8.22    2.28
  -5   5  -7    2.85    1.03
  -5   5  -8   -0.83    1.06
   5  -5   8    0.71    1.82
  -5   5  -9   -0.39    0.98
   5  -5   9   -0.86    1.96
  -5   5 -10    0.48    1.10
   5  -5  10    2.98    2.29
   5  -5  11    1.24    2.55
  -5   5 -12    5.18    1.33
   5  -5  12    7.74    2.88
  -5   4  19    1.85    1.25
  -5   4  18    2.89    1.33
   5  -4 -17    1.87    1.26
  -5   4  17    3.83    1.34
   5  -4 -16    0.49    1.12
  -5   4  16    1.80    1.28
   5  -4 -15    1.56    1.12
  -5   4  15    1.46    1.29
  -5   4  14    9.08    1.66
   5  -4 -14    9.54    1.58
   5  -4 -13    3.66    1.19
   5  -4 -13    5.29    1.69
   5  -4 -12    7.75    1.51
   5  -4 -12   12.44    2.03
  -5   4  12    7.75    1.61
  -5   4  11   15.45    1.99
   5  -4 -10   17.38    2.39
  -5   4  10   16.73    2.12
   5  -4 -10   15.43    2.01
   5  -4  -9    6.38    1.28
   5  -4  -9    4.00    1.26
   5  -4  -9    6.63    1.61
  -5   4   9    8.88    1.56
   5  -4  -8   11.22    1.91
   5  -4  -8    8.44    1.62
  -5   4   8   12.34    1.82
   5  -4  -8   11.84    1.70
   5  -4  -8    8.93    1.46
   5  -4  -7   20.29    2.31
   5  -4  -7   16.55    2.22
   5  -4  -7   20.01    2.47
   5  -4  -7   17.78    2.05
   5  -4  -6    4.71    1.02
   5  -4  -6    3.11    1.31
   5  -4  -6    5.12    1.61
   5  -4  -6    5.73    1.20
  -5   4   6    6.78    1.40
   5  -4  -5    1.19    0.90
   5  -4  -5    1.00    1.13
  -5   4   5    1.00    1.19
   5  -4  -5    1.39    1.47
   5  -4  -4    5.47    1.11
  -5   4   4    5.43    1.39
   5  -4  -4    6.21    1.83
   5  -4  -4    2.49    1.25
   5  -4  -3    1.58    0.85
  -5   4   3    2.27    1.05
  -5   4   2   11.29    1.64
   5  -4  -2   11.41    2.42
  -5   4   1    7.78    1.33
   5  -4  -1    5.61    2.24
  -5   4   0    1.35    1.09
   5  -4   0    4.61    1.95
  -5   4  -1    0.29    0.97
   5  -4   1   -0.11    1.95
   5  -4   2   -0.11    1.71
  -5   4  -3    3.08    0.97
   5  -4   3    2.45    1.82
  -5   4  -4   31.66    2.97
   5  -4   4   28.08    3.79
  -5   4  -5    7.26    1.25
   5  -4   5   11.98    2.41
   5  -4   6    3.33    1.83
  -5   4  -7   21.04    2.21
   5  -4   7   19.38    3.18
  -5   4  -8    3.47    1.03
  -5   4  -9    1.49    1.06
   5  -4   9    3.45    1.98
  -5   4 -10    2.36    1.12
   5  -4  10    1.13    2.06
  -5   4 -11    1.76    1.12
   5  -4  11    1.49    2.54
  -5   4 -12    5.86    1.25
   5  -4  12    2.65    2.71
  -5   4 -13   -0.22    1.07
   5  -4  13    1.31    3.01
  -5   4 -14   -0.04    1.08
  -5   3  19    4.58    1.41
   5  -3 -18    7.17    1.48
  -5   3  18    4.01    1.44
   5  -3 -17    0.77    1.23
  -5   3  17    0.66    1.22
   5  -3 -16    1.90    1.27
  -5   3  16    0.48    1.27
   5  -3 -15    1.39    1.27
  -5   3  15    1.45    1.35
   5  -3 -14    5.57    1.45
  -5   3  13   23.63    2.58
   5  -3 -13   24.15    2.72
   5  -3 -12   18.51    2.30
  -5   3  12   13.12    1.90
   5  -3 -12   14.88    2.03
   5  -3 -11    2.04    1.10
   5  -3 -11    2.70    1.59
  -5   3  11    1.63    1.25
   5  -3 -10   25.88    2.87
   5  -3 -10   33.67    3.39
  -5   3  10   27.24    2.86
   5  -3  -9    7.65    1.39
   5  -3  -9    9.70    1.50
   5  -3  -9   11.59    1.83
  -5   3   9    9.41    1.60
   5  -3  -8   50.23    4.38
   5  -3  -8   45.03    4.45
   5  -3  -8   44.32    4.45
   5  -3  -8   49.83    4.66
   5  -3  -7   30.21    2.67
   5  -3  -7   21.71    2.67
   5  -3  -7   22.05    2.76
   5  -3  -7   28.71    3.05
  -5   3   7   28.94    2.77
   5  -3  -6    0.26    0.86
   5  -3  -6    0.48    0.96
   5  -3  -6   -0.07    1.36
  -5   3   6    1.43    1.07
   5  -3  -5   33.06    2.88
   5  -3  -5   26.29    3.13
   5  -3  -5   29.28    3.44
  -5   3   5   31.82    3.09
   5  -3  -5   29.93    2.98
   5  -3  -4    1.16    0.74
   5  -3  -4    0.55    0.65
   5  -3  -4   -0.69    1.06
  -5   3   4    0.24    1.13
   5  -3  -4    1.07    1.39
   5  -3  -3    4.72    0.77
  -5   3   3    4.77    1.18
   5  -3  -3    3.38    1.74
   5  -3  -2   11.08    1.43
   5  -3  -2   11.23    1.77
  -5   3   2   12.53    1.68
   5  -3  -2   11.89    1.15
   5  -3  -1    0.21    0.71
   5  -3  -1    0.15    1.08
  -5   3   1    0.03    1.10
   5  -3  -1    2.30    1.92
   5  -3   0   32.90    3.11
   5  -3   0   33.14    3.43
  -5   3   0   38.35    3.30
   5  -3   0   25.26    3.95
   5  -3   1   -0.05    1.05
  -5   3  -1    2.29    1.05
   5  -3   1    2.37    1.83
   5  -3   2    4.63    1.25
  -5   3  -2    4.41    1.09
   5  -3   2    2.98    1.96
  -5   3  -3    1.52    1.01
   5  -3   3   -0.81    1.76
  -5   3  -4    2.66    0.98
   5  -3   4    1.80    1.67
   5  -3   5    5.13    2.00
   5  -3   6   -0.20    1.51
  -5   3  -7   10.56    1.45
   5  -3   7    9.61    2.20
  -5   3  -8    1.43    1.01
   5  -3   8    4.01    1.75
  -5   3  -9   -0.28    0.99
   5  -3   9    0.65    1.74
   5  -3  10    3.34    2.01
  -5   3 -11    0.40    1.01
   5  -3  11   -2.01    2.17
  -5   3 -12    1.55    1.08
   5  -3  12    2.21    2.53
  -5   3 -13    0.53    1.07
   5  -3  13    0.15    2.72
  -5   3 -14   -0.33    1.06
   5  -3  14    3.16    3.10
  -5   3 -15    0.65    1.02
   5  -3  15    2.56    3.54
  -5   2  20    1.00    1.30
  -5   2  19   10.64    1.78
   5  -2 -19   10.88    1.71
   5  -2 -18    5.30    1.42
  -5   2  18    4.84    1.50
   5  -2 -17    4.24    1.34
  -5   2  17    3.45    1.46
   5  -2 -16    0.93    1.16
  -5   2  16    1.01    1.45
   5  -2 -15    0.36    1.12
   5  -2 -14    0.05    1.09
  -5   2  14   -0.19    1.22
   5  -2 -13   16.93    2.09
  -5   2  13   15.35    2.14
   5  -2 -12    7.26    1.45
   5  -2 -12    7.61    1.30
  -5   2  12    6.33    1.50
   5  -2 -11   39.54    3.93
  -5   2  11   38.89    3.79
   5  -2 -10   33.89    3.37
   5  -2 -10   33.41    3.59
  -5   2  10   33.29    3.29
   5  -2  -9    1.46    0.85
   5  -2  -9    0.85    0.93
   5  -2  -9    0.28    1.20
  -5   2   8    0.59    0.70
   5  -2  -8    1.49    0.83
   5  -2  -8    1.74    1.00
   5  -2  -8    0.83    1.19
  -5   2   8    0.46    1.18
   5  -2  -7    5.95    1.09
  -5   2   7    5.40    0.99
   5  -2  -7    6.73    1.49
  -5   2   7    3.76    1.28
   5  -2  -6   12.81    1.52
  -5   2   6   13.30    1.72
   5  -2  -6   11.53    1.53
  -5   2   5   31.57    2.98
   5  -2  -5   32.86    3.48
  -5   2   5   31.51    3.09
   5  -2  -5   32.62    2.98
   5  -2  -5   30.43    3.05
   5  -2  -4    3.67    0.93
   5  -2  -4    4.14    0.87
  -5   2   4    5.85    1.23
   5  -2  -4    4.36    1.67
  -5   2   4    4.46    0.85
  -5   2   3    0.10    0.60
   5  -2  -3   -0.08    0.66
   5  -2  -3   -0.60    1.61
   5  -2  -2    1.16    0.67
  -5   2   2    1.40    1.08
   5  -2  -2    0.73    1.64
  -5   2   1    0.09    0.56
   5  -2  -1   -0.14    0.65
   5  -2  -1    0.18    0.44
  -5   2   1    0.33    1.08
   5  -2  -1    0.17    1.72
  -5   2   0   18.72    1.72
   5  -2   0   18.23    1.77
  -5   2   0   17.03    1.99
   5  -2   0   17.50    2.80
   5  -2   0   15.80    1.52
  -5   2  -1    6.27    0.77
  -5   2  -1    5.31    1.19
   5  -2   1    3.25    0.46
   5  -2   1    3.98    2.00
   5  -2   2    0.25    0.55
  -5   2  -2    0.26    0.98
   5  -2   2    0.06    0.19
   5  -2   2    1.26    1.57
   5  -2   3   14.19    1.53
  -5   2  -3   14.06    1.33
   5  -2   3   13.76    0.97
   5  -2   4    0.25    0.94
   5  -2   5    2.04    0.96
  -5   2  -5    0.80    0.88
   5  -2   5    0.36    1.55
   5  -2   6    1.05    0.83
  -5   2  -6    0.40    0.90
   5  -2   6    1.09    1.57
   5  -2   7   12.42    1.40
  -5   2  -7   11.30    1.48
  -5   2  -8    0.42    0.90
   5  -2   8    2.04    1.75
   5  -2   9    1.23    1.72
  -5   2 -10   -0.82    0.99
   5  -2  10   -0.78    1.80
  -5   2 -11    3.33    1.09
   5  -2  11    7.06    2.46
  -5   2 -12    1.16    1.06
   5  -2  12    0.54    2.10
  -5   2 -13    0.10    1.01
   5  -2  13    0.15    2.43
  -5   2 -14    1.74    1.11
   5  -2  14   -0.87    2.95
  -5   2 -15    0.54    1.09
   5  -2  15    6.47    3.70
   5  -2  16   -0.22    3.68
  -5   1  20    1.93    1.46
   5  -1 -19    2.83    1.25
  -5   1  18   11.13    1.90
   5  -1 -18   11.78    1.77
   5  -1 -17   20.53    2.40
  -5   1  17   19.89    2.52
   5  -1 -16   13.40    1.87
  -5   1  16   11.56    2.02
   5  -1 -15   15.79    2.00
  -5   1  15   15.24    2.12
   5  -1 -14    2.19    1.06
  -5   1  14    1.24    1.45
   5  -1 -13    3.12    1.19
  -5   1  13    2.96    1.44
  -5   1  12   28.62    3.01
   5  -1 -11   14.49    1.85
  -5   1  11   17.09    2.00
   5  -1 -11   13.57    1.56
   5  -1 -10    1.32    0.94
   5  -1 -10    1.19    1.04
   5  -1 -10    0.84    0.87
  -5   1   9    8.40    1.29
   5  -1  -9    9.75    1.47
   5  -1  -9   10.91    1.56
   5  -1  -9   10.84    1.49
  -5   1   9    9.45    1.63
   5  -1  -8    3.22    0.92
   5  -1  -8    2.42    1.06
   5  -1  -8    4.13    1.17
  -5   1   8    3.05    1.30
  -5   1   7    9.04    1.20
   5  -1  -7    7.43    1.27
   5  -1  -7    8.08    1.25
  -5   1   7    8.80    1.36
   5  -1  -7    7.86    1.53
  -5   1   6   11.51    1.44
   5  -1  -6   13.51    1.55
   5  -1  -6   11.15    1.85
  -5   1   6   12.56    1.71
  -5   1   5   19.60    2.05
   5  -1  -5   19.50    2.08
  -5   1   5   19.21    2.20
   5  -1  -5   22.29    2.12
  -5   1   4   18.66    1.97
   5  -1  -4   22.12    2.03
   5  -1  -4   18.39    1.95
   5  -1  -4   15.50    2.34
  -5   1   3    2.38    0.68
   5  -1  -3    2.76    0.75
   5  -1  -3    2.07    0.74
  -5   1   3    1.97    0.99
   5  -1  -3    1.24    1.48
  -5   1   2    0.67    0.58
   5  -1  -2    0.42    0.67
  -5   1   2    0.95    0.98
   5  -1  -2    0.81    0.66
   5  -1  -2    0.85    1.45
  -5   1   1    0.07    0.53
   5  -1  -1   -0.29    0.60
  -5   1   1   -0.82    0.98
   5  -1  -1    0.15    1.58
   5  -1  -1    0.84    0.63
  -5   1   0    9.85    1.13
   5  -1   0   10.58    1.21
  -5   1   0   10.56    1.49
   5  -1   0    6.52    1.99
  -5   1  -1    0.12    0.45
  -5   1  -1   -0.79    0.95
   5  -1   1    0.04    0.58
   5  -1   1    0.08    1.57
   5  -1   2   10.65    1.21
   5  -1   2   10.70    1.32
  -5   1  -2   11.74    1.49
   5  -1   2    9.55    1.98
  -5   1  -3   10.00    1.08
   5  -1   3    9.61    1.09
   5  -1   3    7.26    1.96
  -5   1  -4    2.11    0.54
   5  -1   4    2.58    0.56
  -5   1  -4    2.63    0.94
   5  -1   4    1.06    1.53
   5  -1   5    0.18    0.97
  -5   1  -5    0.65    0.42
   5  -1   5   -0.13    0.37
  -5   1  -5    0.11    0.91
   5  -1   6    6.21    1.07
  -5   1  -6    6.56    1.13
  -5   1  -7   13.66    1.77
   5  -1   7   14.87    1.78
   5  -1   8    3.37    0.72
  -5   1  -8    2.04    0.88
   5  -1   8    1.81    0.75
   5  -1   9   13.87    1.72
   5  -1   9   15.87    1.44
  -5   1 -10    0.30    0.87
   5  -1  10    0.15    0.75
  -5   1 -11   -0.62    0.92
  -5   1 -12    2.07    1.00
  -5   1 -13    7.99    1.38
  -5   1 -14    0.77    1.04
   5  -1  14   -1.21    2.99
   5  -1  15    2.16    3.91
   5  -1  16    0.66    4.03
   5  -1  17   -0.24    4.11
   5   0 -19    4.58    1.31
  -5   0  19    4.97    1.64
   5   0 -18   -0.45    1.05
  -5   0  18    1.29    1.55
   5   0 -17    2.02    1.11
  -5   0  17    1.79    1.52
   5   0 -16   11.00    1.71
  -5   0  16   13.88    2.07
   5   0 -15   -0.48    0.99
  -5   0  15    0.30    1.43
  -5   0  14    0.79    1.35
  -5   0  13   10.42    1.73
   5   0 -12    4.29    1.22
  -5   0  12    8.18    1.57
   5   0 -11   19.43    2.19
   5   0 -10   15.99    2.05
   5   0 -10   21.21    2.15
  -5   0  10   16.17    2.12
   5   0  -9    1.04    0.83
  -5   0   9    1.11    0.72
   5   0  -9    0.60    0.46
   5   0  -9    0.04    0.92
  -5   0   9   -0.39    1.11
  -5   0   8    0.28    0.72
   5   0  -8    0.83    0.75
   5   0  -8    0.28    0.91
   5   0  -8    0.45    0.78
  -5   0   8   -0.03    1.22
  -5   0   7   22.36    2.24
   5   0  -7   26.50    2.33
  -5   0   7   23.38    2.41
   5   0  -7   26.94    2.37
   5   0  -6   51.58    4.08
  -5   0   6   55.91    4.12
  -5   0   5    1.05    0.68
   5   0  -5    0.69    0.71
   5   0  -5   -0.13    1.14
   5   0  -5    0.06    0.79
  -5   0   4   14.53    1.56
   5   0  -4   14.98    1.64
   5   0  -4   14.10    1.60
   5   0  -4   12.62    1.90
  -5   0   4   15.05    1.77
  -5   0   3    7.19    0.98
   5   0  -3    7.06    1.05
   5   0  -3    7.24    1.07
  -5   0   3    7.20    1.20
   5   0  -3    3.66    1.43
  -5   0   2    5.35    0.84
   5   0  -2    6.62    0.96
  -5   0   2    4.56    1.07
   5   0  -2    5.22    1.47
   5   0  -2    5.88    0.95
  -5   0   1   48.26    4.37
   5   0  -1   53.12    4.42
  -5   0   1   47.26    4.47
   5   0  -1   51.72    4.96
  -5   0   0   15.67    1.66
   5   0   0   16.37    1.69
   5   0   0   18.16    1.76
  -5   0   0   18.06    1.87
   5   0   0   15.68    2.31
  -5   0  -1   -0.14    0.48
   5   0   1   -0.19    0.75
  -5   0  -1    0.84    0.96
   5   0   2   13.78    1.47
   5   0   2   17.15    1.75
   5   0   3    1.49    0.50
  -5   0  -3    1.38    0.48
  -5   0  -3    2.28    0.96
   5   0   3    2.38    1.07
  -5   0  -4   17.61    1.69
   5   0   4   16.66    1.67
  -5   0  -4   18.16    1.88
   5   0   4   20.56    2.06
   5   0   5    1.89    0.90
  -5   0  -5    2.49    0.91
  -5   0  -5    3.56    0.57
   5   0   6    9.81    0.98
  -5   0  -6    8.18    1.27
   5   0   6    7.87    1.22
  -5   0  -7   18.68    1.93
   5   0   7   18.92    1.99
   5   0   8    4.91    0.97
  -5   0  -9    2.19    0.85
   5   0  10    9.48    1.43
   5   0  10   10.12    0.93
  -5   0 -10    9.40    1.30
   5   0  11    3.16    1.06
  -5   0 -11    3.42    1.02
   5   0  12    1.39    1.06
   5   0  13    2.74    1.17
  -5   0 -13    1.77    1.07
  -5  -1  19    1.21    1.40
   5   1 -18    1.74    1.16
  -5  -1  18    2.82    1.50
   5   1 -17    3.19    1.18
   5   1 -16    0.43    1.04
  -5  -1  16    0.36    1.49
   5   1 -15    7.94    1.38
  -5  -1  15    7.38    1.79
   5   1 -14    3.60    1.07
  -5  -1  14    1.44    1.48
   5   1 -13    5.73    1.21
  -5  -1  13    5.89    1.52
   5   1 -12   -0.13    0.90
   5   1 -11    2.13    0.94
  -5  -1  11    3.10    1.35
   5   1 -10    5.50    1.17
   5   1 -10    6.63    1.20
  -5  -1  10    6.52    1.48
  -5  -1   9    1.70    0.78
   5   1  -9    1.99    0.81
   5   1  -9    1.43    0.84
  -5  -1   9    1.34    1.32
   5   1  -8    1.59    0.80
  -5  -1   8    0.34    1.17
  -5  -1   8    1.03    0.75
  -5  -1   7   30.61    2.37
   5   1  -7   30.55    2.45
   5   1  -7   27.89    2.07
  -5  -1   7   25.59    2.48
   5   1  -6    0.62    0.64
  -5  -1   6    0.03    0.58
   5   1  -6   -0.16    0.65
   5   1  -6    0.03    0.79
  -5  -1   5   36.40    3.14
   5   1  -5   31.50    3.16
   5   1  -5   26.27    3.13
  -5  -1   5   34.22    3.27
   5   1  -5   41.68    3.25
   5   1  -4   34.34    3.01
   5   1  -4   34.24    3.00
   5   1  -4   24.42    3.05
  -5  -1   4   27.13    3.02
  -5  -1   4   36.21    2.98
   5   1  -3    3.75    0.92
  -5  -1   3    3.80    0.82
   5   1  -3    4.72    0.85
  -5  -1   3    3.87    1.16
   5   1  -3    3.98    1.21
   5   1  -2    0.19    0.68
   5   1  -2    0.82    0.74
  -5  -1   2    0.10    1.00
   5   1  -2   -0.05    1.07
   5   1  -1    0.38    0.69
  -5  -1   1    0.41    0.60
   5   1  -1    0.18    0.62
  -5  -1   1    0.14    0.86
  -5  -1   0    2.13    0.62
   5   1   0    2.21    0.60
   5   1   0    1.97    0.79
  -5  -1   0    1.89    0.85
  -5  -1  -1    2.80    0.58
   5   1   1    2.30    0.62
   5   1   1    3.06    0.81
  -5  -1  -2    3.13    0.75
  -5  -1  -2    4.72    0.67
   5   1   2    4.39    0.69
  -5  -1  -2    3.63    1.00
   5   1   2    5.17    1.03
   5   1   3    5.11    1.12
  -5  -1  -3    4.29    0.80
  -5  -1  -3    3.96    0.67
   5   1   3    4.87    0.71
  -5  -1  -3    4.34    0.97
  -5  -1  -4    0.31    0.64
  -5  -1  -4    0.41    0.46
   5   1   4    0.39    0.42
  -5  -1  -4   -0.25    0.79
  -5  -1  -5   41.00    3.37
   5   1   5   40.18    3.35
  -5  -1  -5   34.94    3.41
   5   1   5   36.43    3.53
  -5  -1  -5   35.54    3.51
  -5  -1  -6   34.61    3.38
  -5  -1  -6   44.61    3.35
   5   1   6   37.75    3.54
  -5  -1  -6   31.62    3.49
  -5  -1  -7    0.15    0.70
  -5  -1  -7    0.06    0.38
   5   1   7    0.38    0.38
   5   1   7   -0.27    0.74
   5   1   8    0.12    0.37
  -5  -1  -8    0.20    0.63
   5   1   8    0.32    0.82
  -5  -1  -9    4.12    0.89
  -5  -1  -9    3.26    0.84
   5   1   9    4.40    1.12
  -5  -1 -10    4.75    1.03
   5   1  10    4.82    1.21
  -5  -1 -10    3.57    0.88
   5   1  11   39.40    3.75
   5   1  11   38.26    3.23
  -5  -1 -11   37.07    3.66
   5   1  12   36.38    3.40
  -5  -1 -12   27.92    3.07
  -5  -1 -12   35.10    3.24
  -5  -1 -13   15.29    1.90
  -5  -1 -14    1.31    0.89
   5   1  14    8.80    1.48
   5   1  15    2.86    1.39
   5   1  16    2.89    1.24
   5   1  17    1.35    1.22
   5   2 -18    6.99    1.46
  -5  -2  17    0.50    1.58
  -5  -2  16    2.65    1.60
   5   2 -15    8.27    1.39
  -5  -2  15    8.67    1.82
   5   2 -14    1.21    0.95
  -5  -2  14    0.05    1.37
   5   2 -13    2.29    0.98
   5   2 -12   -0.30    0.91
  -5  -2  12    0.26    1.41
   5   2 -11   -0.40    0.85
  -5  -2  11    0.13    1.30
   5   2 -10    0.16    0.82
  -5  -2  10    0.45    1.34
  -5  -2   9   26.82    2.63
   5   2  -9   27.03    2.66
  -5  -2   9   21.16    2.80
   5   2  -9   31.20    2.80
  -5  -2   8    9.47    1.26
   5   2  -8   10.49    1.36
   5   2  -8    8.83    1.32
  -5  -2   8    8.20    1.62
  -5  -2   7    9.52    1.21
   5   2  -7    6.93    1.19
   5   2  -6    0.29    0.59
   5   2  -6    0.31    0.79
  -5  -2   6    1.07    1.08
   5   2  -5    8.11    0.80
  -5  -2   5   10.59    1.16
   5   2  -5   10.88    1.22
   5   2  -5    9.20    1.17
  -5  -2   5    7.49    1.38
  -5  -2   4    2.33    0.74
  -5  -2   4    2.27    1.12
   5   2  -4    1.86    0.73
   5   2  -4    3.01    0.75
   5   2  -4    1.89    0.73
  -5  -2   3   17.64    1.78
   5   2  -3   20.38    1.82
  -5  -2   3   15.84    1.91
   5   2  -2   14.14    1.39
   5   2  -2   10.02    1.30
  -5  -2   2    9.09    1.48
  -5  -2   2   11.51    1.30
  -5  -2   1    2.40    0.66
   5   2  -1    3.41    0.74
   5   2  -1    3.13    0.74
  -5  -2   1    2.92    0.94
  -5  -2   0    4.51    0.75
   5   2   0    4.75    0.87
   5   2   0    3.90    0.88
  -5  -2   0    5.88    0.79
  -5  -2  -1    0.10    0.57
   5   2   1    0.28    0.53
   5   2   1   -0.06    0.80
  -5  -2  -1   -0.02    0.46
  -5  -2  -1   -0.43    0.75
  -5  -2  -2   15.74    1.58
  -5  -2  -2   14.56    1.68
   5   2   2   17.75    1.84
  -5  -2  -2   15.85    1.66
   5   2   3    3.67    1.00
  -5  -2  -3    4.01    0.64
   5   2   3    5.20    0.69
  -5  -2  -3    3.35    0.93
  -5  -2  -4   44.78    3.86
   5   2   4   45.30    3.85
  -5  -2  -4   38.91    3.91
   5   2   4   42.35    4.05
  -5  -2  -4   49.87    4.02
  -5  -2  -5    1.38    0.73
  -5  -2  -5    1.70    0.49
   5   2   5    1.49    0.45
   5   2   5    1.75    0.88
  -5  -2  -5    1.40    0.79
  -5  -2  -6    4.01    0.84
  -5  -2  -6    4.22    0.62
   5   2   6    4.04    0.59
  -5  -2  -6    3.15    0.80
   5   2   6    3.48    0.94
  -5  -2  -7    2.62    0.77
  -5  -2  -7    1.62    0.46
  -5  -2  -7    1.17    0.68
   5   2   7    1.33    0.86
  -5  -2  -8    9.06    0.94
   5   2   8   10.06    0.93
  -5  -2  -8    5.69    1.02
   5   2   8    6.51    1.23
  -5  -2  -8    8.12    1.22
  -5  -2  -9    0.67    0.76
  -5  -2  -9    0.76    0.67
   5   2  10   19.98    2.50
  -5  -2 -10   27.08    2.49
   5   2  11   18.98    2.36
  -5  -2 -11   18.28    2.10
  -5  -2 -12    1.81    0.92
   5   2  12    1.12    1.14
  -5  -2 -12    0.47    0.95
  -5  -2 -13    2.39    0.96
   5   2  13    4.32    1.35
   5   2  14    0.64    1.22
  -5  -2 -15    1.05    0.99
   5   2  15    4.39    1.38
  -5  -2 -16    7.08    1.54
   5   2  16   15.02    1.83
  -5  -2 -17    2.19    1.07
   5   2  17    3.76    1.36
  -5  -2 -18   -0.53    0.92
   5   2  18    0.18    1.20
   5   2  19    6.90    1.53
  -5  -3  18    5.07    1.61
   5   3 -17    4.95    1.24
  -5  -3  17    3.85    1.60
   5   3 -16   15.04    1.89
  -5  -3  16   12.68    2.13
   5   3 -15    0.28    0.98
  -5  -3  15    0.05    1.46
   5   3 -14   -0.14    0.95
   5   3 -13    1.17    0.92
  -5  -3  13   -0.04    1.34
  -5  -3  12    5.64    1.59
   5   3 -11   -0.25    0.84
  -5  -3  11    0.64    1.22
   5   3  -9    1.61    0.76
   5   3  -9    1.36    0.85
  -5  -3   9    1.42    1.24
  -5  -3   8    9.24    1.28
   5   3  -8    9.01    1.19
   5   3  -8    6.48    1.15
  -5  -3   7   36.82    3.35
   5   3  -7   35.69    3.32
   5   3  -7   36.98    3.35
  -5  -3   7   29.90    3.46
  -5  -3   6    1.85    0.77
   5   3  -6    1.78    0.73
  -5  -3   6    0.90    1.20
   5   3  -6    0.97    0.74
  -5  -3   5   -0.06    0.64
   5   3  -5    0.29    0.60
  -5  -3   5    0.52    1.12
   5   3  -5   -0.19    0.73
   5   3  -4    2.03    0.75
  -5  -3   4    1.32    0.68
   5   3  -4    1.35    0.65
   5   3  -4    0.97    0.32
  -5  -3   4    1.00    1.09
   5   3  -4    0.79    0.42
  -5  -3   3   22.42    2.23
   5   3  -3   26.85    2.27
   5   3  -3   19.15    2.20
  -5  -3   3   22.70    2.43
  -5  -3   2    1.32    0.49
   5   3  -2    1.15    0.63
  -5  -3   2    1.64    0.65
  -5  -3   2    1.24    0.97
  -5  -3   1    1.90    0.53
  -5  -3   1    1.97    0.66
   5   3  -1    2.18    0.70
   5   3  -1    2.22    0.73
   5   3   0   12.02    1.27
  -5  -3   0   12.19    1.32
   5   3   0   10.79    1.35
  -5  -3   0   10.55    1.37
  -5  -3   0   11.05    1.23
  -5  -3  -1    0.47    0.54
  -5  -3  -1    0.25    0.53
   5   3   1    0.82    0.55
  -5  -3  -1    0.43    0.76
  -5  -3  -2    4.84    0.79
  -5  -3  -2    4.03    0.80
   5   3   2    5.41    0.72
  -5  -3  -2    4.91    0.98
  -5  -3  -3   35.85    3.18
  -5  -3  -3   34.78    3.19
   5   3   3   35.87    3.40
  -5  -3  -3   35.36    3.23
  -5  -3  -4   43.25    3.69
   5   3   4   43.59    3.65
  -5  -3  -4   38.42    3.69
   5   3   4   40.13    3.86
  -5  -3  -5    0.27    0.59
  -5  -3  -5   -0.12    0.46
   5   3   5    0.18    0.82
  -5  -3  -5   -0.05    0.71
   5   3   5   -0.02    0.42
  -5  -3  -6   31.27    3.13
   5   3   6   43.02    3.20
  -5  -3  -6   37.17    3.20
   5   3   6   37.75    3.41
  -5  -3  -6   30.51    3.34
  -5  -3  -7    2.15    0.52
   5   3   7    2.39    0.49
  -5  -3  -7    1.25    0.60
  -5  -3  -7    2.58    0.73
   5   3   7    2.35    0.96
   5   3   8   11.91    1.61
  -5  -3  -8   15.24    1.31
  -5  -3  -8   10.71    1.24
  -5  -3  -8   13.80    1.58
   5   3   9   33.98    3.70
  -5  -3  -9   44.40    3.71
   5   3  10   20.30    2.28
  -5  -3 -10   16.38    1.87
  -5  -3 -10   22.10    2.14
  -5  -3 -11    0.41    0.70
   5   3  11    0.90    1.19
  -5  -3 -11    0.50    0.87
   5   3  12   56.07    5.00
  -5  -3 -12   49.82    4.84
  -5  -3 -13   18.54    2.15
  -5  -3 -14    2.01    0.92
   5   3  14    3.77    1.34
  -5  -3 -15    0.45    0.83
   5   3  15    1.41    1.33
  -5  -3 -16    0.72    0.89
   5   3  16    1.59    1.34
  -5  -3 -17    1.19    0.98
   5   3  17    1.95    1.36
  -5  -3 -18    0.06    0.97
   5   3  18    2.36    1.30
  -5  -3 -19    2.26    1.09
  -5  -3 -20    1.29    1.05
   5   3  20    1.28    1.28
   5   4 -17    5.72    1.39
  -5  -4  17    7.33    1.74
   5   4 -16   12.29    1.81
  -5  -4  16   13.42    2.06
   5   4 -15    0.19    0.98
   5   4 -14    0.42    0.95
  -5  -4  14    2.31    1.40
   5   4 -13    1.95    0.99
  -5  -4  13    2.20    1.32
   5   4 -12   25.02    2.65
  -5  -4  12   26.32    2.85
   5   4 -11    3.24    1.05
  -5  -4  11    3.18    1.48
   5   4 -10    0.64    0.84
  -5  -4  10    0.71    1.22
   5   4  -9    7.62    1.27
   5   4  -8   22.12    2.09
   5   4  -8   19.65    2.13
  -5  -4   8   15.45    2.35
   5   4  -7   17.83    1.89
  -5  -4   7   17.42    2.19
  -5  -4   7   17.96    1.97
  -5  -4   6    4.79    0.89
   5   4  -6    3.14    0.78
  -5  -4   6    3.69    1.36
   5   4  -6    3.37    0.90
  -5  -4   5   51.88    4.39
   5   4  -5   44.17    4.32
  -5  -4   5   49.22    4.45
   5   4  -4    2.18    0.77
  -5  -4   4    2.22    0.74
   5   4  -4    2.24    0.60
   5   4  -4    1.34    0.44
  -5  -4   4    3.33    1.24
  -5  -4   3    0.52    0.35
   5   4  -3    0.81    0.63
  -5  -4   3    0.50    0.65
   5   4  -3    0.85    0.54
  -5  -4   3    1.03    1.13
  -5  -4   2    0.12    0.40
  -5  -4   2    0.33    0.67
   5   4  -2   -0.03    0.48
   5   4  -2   -0.21    0.63
  -5  -4   1    7.99    1.09
   5   4  -1    9.91    1.03
   5   4  -1    7.40    1.07
  -5  -4   1    5.93    1.22
  -5  -4   1    6.57    0.87
  -5  -4   0   23.80    2.18
   5   4   0   22.96    2.09
   5   4   0   21.76    2.20
  -5  -4   0   17.78    2.10
  -5  -4  -1   16.99    1.63
   5   4   1   16.20    1.55
   5   4   1   14.87    1.73
  -5  -4  -1   12.79    1.60
  -5  -4  -1   13.89    1.55
  -5  -4  -2   36.79    3.63
  -5  -4  -2   44.06    3.64
   5   4   2   47.54    3.62
  -5  -4  -2   35.69    3.59
   5   4   2   36.16    3.74
   5   4   3    0.35    0.88
  -5  -4  -3   -0.03    0.62
  -5  -4  -3   -0.15    0.56
   5   4   3    0.80    0.55
  -5  -4  -3    0.68    0.80
  -5  -4  -4    0.23    0.62
   5   4   4    0.19    0.84
  -5  -4  -4    0.52    0.52
   5   4   4    0.17    0.46
  -5  -4  -4    0.91    0.75
  -5  -4  -5   35.85    2.82
  -5  -4  -5   28.02    2.71
   5   4   5   26.69    2.92
   5   4   6   12.01    1.10
  -5  -4  -6    9.10    1.03
  -5  -4  -6    8.13    1.32
  -5  -4  -7    6.28    0.76
  -5  -4  -7    2.10    0.92
   5   4   7    5.69    0.70
  -5  -4  -7    3.10    0.54
   5   4   8   39.20    2.63
  -5  -4  -8   40.57    2.69
   5   4   8   33.69    2.96
  -5  -4  -9   14.39    1.25
   5   4   9   15.58    1.23
   5   4   9   13.31    1.60
  -5  -4  -9   12.64    1.54
   5   4  10   51.96    4.25
  -5  -4 -10   39.37    4.03
   5   4  11    7.49    1.43
  -5  -4 -11    5.62    1.08
  -5  -4 -12    1.82    0.89
   5   4  12    2.15    1.30
   5   4  13    4.52    1.44
  -5  -4 -13    5.08    1.10
  -5  -4 -14    0.94    0.75
   5   4  14    0.75    1.20
  -5  -4 -15    1.01    0.84
   5   4  15    2.81    1.26
  -5  -4 -16    4.27    1.09
   5   4  16    3.82    1.42
  -5  -4 -17    0.40    0.87
  -5  -4 -18   -0.93    0.94
   5   4  18    0.70    1.23
   5   4  19    2.60    1.32
  -5  -4 -20    2.28    1.20
   5   4  20    4.81    1.35
   5   5 -16    0.16    1.14
   5   5 -15    4.03    1.23
  -5  -5  15    3.45    1.53
  -5  -5  14    2.04    1.29
   5   5 -13    5.48    1.23
  -5  -5  13    3.87    1.51
   5   5 -12   18.63    2.21
  -5  -5  12   20.79    2.47
   5   5 -11    1.01    0.90
  -5  -5  11    0.58    1.26
   5   5 -10    7.37    1.29
   5   5  -9    0.13    0.83
  -5  -5   9    0.69    1.44
   5   5  -8    1.16    0.88
  -5  -5   8    1.08    1.39
   5   5  -7    0.53    0.39
   5   5  -7    0.37    0.86
  -5  -5   7    0.96    1.23
  -5  -5   6   72.17    6.45
   5   5  -6   74.55    6.42
  -5  -5   6   74.08    6.51
   5   5  -6   70.83    6.41
  -5  -5   5   13.24    1.60
   5   5  -5   15.83    1.61
   5   5  -5   11.48    1.60
  -5  -5   5   13.43    1.97
   5   5  -4    1.09    0.75
  -5  -5   4    0.31    0.24
  -5  -5   4    0.77    0.67
   5   5  -4    0.30    0.55
  -5  -5   4    1.72    1.27
  -5  -5   3    0.53    0.41
   5   5  -3    0.69    0.62
  -5  -5   2    7.64    0.90
  -5  -5   2    7.55    1.15
   5   5  -2    9.04    1.09
  -5  -5   2    6.83    1.43
  -5  -5   1    0.99    0.54
  -5  -5   1    1.14    0.67
   5   5  -1    0.65    0.55
   5   5  -1    0.93    0.70
  -5  -5   1    1.69    1.00
  -5  -5   0   66.13    6.08
  -5  -5   0   80.91    6.22
   5   5   0   81.38    6.18
   5   5   0   58.10    6.16
  -5  -5   0   71.53    6.19
  -5  -5  -1   20.34    2.12
  -5  -5  -1   27.22    2.26
   5   5   1   21.60    2.31
  -5  -5  -1   20.04    2.25
  -5  -5  -2    0.31    0.62
  -5  -5  -2    0.24    0.65
   5   5   2    0.38    0.57
  -5  -5  -2    0.71    0.86
   5   5   2    0.86    0.79
  -5  -5  -3   25.36    2.87
  -5  -5  -3   32.91    2.92
   5   5   3   33.79    2.84
  -5  -5  -3   32.56    2.83
   5   5   3   27.94    3.02
   5   5   4    0.99    0.81
  -5  -5  -4    1.00    0.64
  -5  -5  -4    1.81    0.68
   5   5   4    1.04    0.50
  -5  -5  -5    0.03    0.61
  -5  -5  -5    0.13    0.59
   5   5   5    0.43    0.82
   5   5   5    0.19    0.47
  -5  -5  -5    0.51    0.65
  -5  -5  -6   10.17    1.45
   5   5   6   12.80    1.30
   5   5   6    8.57    1.51
  -5  -5  -7    0.10    0.64
  -5  -5  -7   -0.37    0.55
   5   5   7   -0.94    0.80
  -5  -5  -8   27.44    3.22
   5   5   8   28.95    3.25
  -5  -5  -9    8.00    1.27
   5   5   9    7.31    1.27
  -5  -5 -10   23.33    2.44
   5   5  10   23.87    2.55
   5   5  12    6.89    1.46
  -5  -5 -12    5.29    1.05
  -5  -5 -13    1.96    0.82
   5   5  13    3.48    1.18
   5   5  14    3.76    1.26
  -5  -5 -14    1.86    0.84
   5   5  15    0.41    1.11
  -5  -5 -15    0.09    0.69
   5   5  16    0.35    1.15
   5   5  17    3.84    1.37
  -5  -5 -17    4.29    1.16
  -5  -5 -18    3.39    1.18
   5   5  18    6.41    1.48
  -5  -5 -19    1.78    1.07
   5   5  19    4.12    1.37
  -5  -5 -20    1.53    1.00
   5   5  20    1.41    1.20
   5   6 -15    3.03    1.28
  -5  -6  15    2.39    1.47
   5   6 -14    0.42    1.21
  -5  -6  14   -0.14    1.47
   5   6 -13    7.20    1.51
  -5  -6  13    6.81    1.70
   5   6 -12    0.99    1.07
  -5  -6  12    3.52    1.50
   5   6 -11    8.70    1.51
  -5  -6  10    6.71    1.63
   5   6  -9    0.66    0.93
  -5  -6   9    1.56    1.46
   5   6  -8    8.15    1.32
  -5  -6   8    7.12    1.69
   5   6  -7   21.94    2.41
   5   6  -6   13.22    1.62
  -5  -6   6   11.98    1.86
   5   6  -5   36.84    3.36
   5   6  -5   30.28    3.35
  -5  -6   5   42.38    3.66
  -5  -6   4   35.22    3.31
  -5  -6   4   41.76    3.67
   5   6  -4   45.84    3.63
   5   6  -4   38.94    3.62
  -5  -6   3    8.78    1.01
  -5  -6   3    9.53    1.33
   5   6  -3   10.83    1.26
   5   6  -3    7.13    1.27
  -5  -6   3   11.86    1.71
  -5  -6   2    5.22    0.85
  -5  -6   2    7.96    1.15
   5   6  -2    6.03    1.05
  -5  -6   2    7.80    1.46
  -5  -6   1    3.15    0.73
   5   6  -1    3.05    0.93
  -5  -6   1    3.23    1.26
  -5  -6   0    2.55    0.71
  -5  -6   0    2.91    0.86
   5   6   0    2.86    0.69
   5   6   0    2.02    0.93
  -5  -6   0    3.92    1.06
  -5  -6  -1   54.69    5.42
  -5  -6  -1   70.51    5.55
   5   6   1   63.62    5.45
   5   6   1   67.00    5.62
  -5  -6  -1   59.62    5.46
  -5  -6  -2    1.72    0.74
  -5  -6  -2    2.93    0.77
   5   6   2    2.53    0.66
  -5  -6  -2    2.84    1.04
  -5  -6  -3    0.03    0.67
  -5  -6  -3    0.30    0.83
  -5  -6  -3    0.46    0.75
   5   6   4   -0.04    0.85
  -5  -6  -4    0.03    0.66
  -5  -6  -4    0.86    0.63
   5   6   4    0.67    0.54
  -5  -6  -4    0.24    0.73
   5   6   5    2.12    0.93
  -5  -6  -5    1.45    0.81
   5   6   5    2.22    0.71
  -5  -6  -5    2.29    0.77
  -5  -6  -6   26.73    2.46
  -5  -6  -6   35.02    2.41
   5   6   6   32.95    2.31
  -5  -6  -6   17.23    2.03
  -5  -6  -6   22.80    2.04
   5   6   6   28.99    2.51
  -5  -6  -7   17.98    2.09
  -5  -6  -7   23.32    2.01
   5   6   7   21.22    1.94
   5   6   7   15.13    2.10
  -5  -6  -8   35.53    3.58
  -5  -6  -8   43.94    3.49
   5   6   8   40.21    3.43
   5   6   8   31.10    3.58
  -5  -6  -9   10.63    1.42
   5   6   9   10.70    1.51
  -5  -6 -10    6.46    1.14
   5   6  10    7.02    1.26
  -5  -6 -11    3.12    0.88
   5   6  11    2.27    1.06
   5   6  12   62.62    5.77
  -5  -6 -13   -0.34    0.77
   5   6  13    0.78    1.10
  -5  -6 -14   -0.13    0.76
   5   6  14    1.39    1.09
  -5  -6 -15   10.13    1.50
  -5  -6 -16    5.07    1.11
  -5  -6 -17    1.42    0.87
   5   6  17    3.66    1.26
  -5  -6 -18    3.08    1.01
   5   6  18    3.05    1.24
  -5  -6 -19    0.05    0.89
   5   6  19    2.89    1.21
  -5  -6 -20    1.63    0.99
   5   6  20    2.24    1.19
   5   7 -14    0.56    1.21
  -5  -7  14    0.55    1.33
   5   7 -13    1.12    1.25
  -5  -7  13    1.49    1.51
   5   7 -12    0.16    1.20
   5   7 -11   43.12    4.33
  -5  -7  11   45.06    4.30
   5   7 -10    3.04    1.19
  -5  -7  10    2.67    1.42
   5   7  -9   -0.05    1.04
  -5  -7   9    1.99    1.38
   5   7  -8    6.17    1.28
  -5  -7   8    4.27    1.53
   5   7  -7    5.75    1.28
  -5  -7   7    6.37    1.78
  -5  -7   6    3.12    1.38
   5   7  -4    6.50    1.19
  -5  -7   4    5.88    0.88
  -5  -7   4    6.74    1.70
  -5  -7   3   30.28    3.09
   5   7  -3   38.14    3.28
   5   7  -3   30.87    3.26
  -5  -7   3   40.88    3.53
   5   7  -2    3.99    1.00
  -5  -7   2    4.69    1.04
  -5  -7   2    4.68    0.90
   5   7  -2    5.28    0.91
  -5  -7   2    6.03    1.48
  -5  -7   1    6.83    1.09
   5   7  -1    6.73    1.22
  -5  -7   1    9.25    1.61
  -5  -7   0    1.34    0.80
  -5  -7   0   -0.16    0.76
   5   7   0    1.34    0.64
   5   7   0    0.13    0.89
  -5  -7   0   -0.37    1.12
  -5  -7  -1   66.50    6.72
  -5  -7  -1   79.67    6.77
   5   7   1   76.35    6.71
   5   7   1   74.19    6.83
  -5  -7  -1   90.70    6.79
  -5  -7  -2    1.58    0.82
  -5  -7  -2    0.69    0.86
   5   7   2    1.95    0.63
   5   7   2    0.60    0.91
  -5  -7  -2    2.62    1.13
  -5  -7  -3    1.56    0.93
  -5  -7  -3    3.54    0.90
   5   7   3    3.15    0.78
  -5  -7  -3    2.62    1.01
   5   7   3    4.07    1.16
  -5  -7  -4   61.90    6.32
  -5  -7  -4   83.41    6.34
   5   7   4   77.92    6.26
  -5  -7  -4   68.33    6.13
   5   7   4   68.80    6.42
  -5  -7  -5  105.01   10.60
  -5  -7  -5  143.28   10.61
   5   7   5  124.36   10.52
  -5  -7  -5  125.23   10.40
   5   7   5  119.94   10.69
  -5  -7  -6   -0.04    0.76
  -5  -7  -6    0.33    0.68
   5   7   6    1.28    0.89
  -5  -7  -6    0.46    0.49
  -5  -7  -7   45.35    4.00
   5   7   7   43.61    3.96
  -5  -7  -8   26.92    2.30
   5   7   8   25.12    2.26
  -5  -7  -9   10.08    1.31
   5   7   9    7.77    1.35
  -5  -7 -10    7.73    1.21
   5   7  10    7.05    1.28
  -5  -7 -11   15.20    1.73
   5   7  11   12.48    1.78
  -5  -7 -12   18.72    1.98
   5   7  12   14.47    2.04
  -5  -7 -13   34.91    3.16
   5   7  13   28.06    3.25
  -5  -7 -14   12.95    1.62
   5   7  14   10.47    1.77
  -5  -7 -15    6.27    1.22
   5   7  15    4.80    1.31
  -5  -7 -16    8.57    1.44
   5   7  16    9.52    1.60
   5   7  17   -0.17    1.09
  -5  -7 -17    0.09    0.79
   5   7  18    7.13    1.51
  -5  -7 -18    8.36    1.38
  -5  -7 -19    0.86    0.86
  -5  -7 -20    2.89    1.05
   5   8 -13    3.99    1.43
   5   8 -12    3.07    1.46
  -5  -8  12    1.93    1.50
   5   8 -11    0.74    1.22
  -5  -8  11   -0.25    1.57
  -5  -8  10    9.17    1.94
   5   8  -9    2.32    1.26
  -5  -8   9    4.61    1.68
   5   8  -8   14.34    2.02
  -5  -8   8   14.97    2.21
   5   8  -7    1.56    1.16
   5   8  -6   11.25    1.79
  -5  -8   6   12.73    2.06
  -5  -8   5    3.34    1.60
   5   8  -5    3.15    1.25
   5   8  -4    0.81    0.96
  -5  -8   3    6.75    1.11
   5   8  -3    6.11    1.32
  -5  -8   3    9.52    1.74
   5   8  -2    1.03    0.92
  -5  -8   2    1.59    0.86
  -5  -8   2    1.37    1.35
  -5  -8   1   16.39    2.15
  -5  -8   0    7.34    1.17
   5   8   0    5.44    0.96
  -5  -8   0    5.48    1.13
   5   8   0    3.92    1.18
  -5  -8   0    6.12    1.54
  -5  -8  -1   17.45    2.20
  -5  -8  -1   19.88    2.21
   5   8   1   19.67    2.12
   5   8   1   21.00    2.36
  -5  -8  -1   25.87    2.40
  -5  -8  -2    0.12    0.78
   5   8   2    0.92    0.70
  -5  -8  -2    1.00    0.93
   5   8   2    0.10    0.94
  -5  -8  -2    1.02    1.32
  -5  -8  -3  110.91    9.29
   5   8   3   93.10    9.33
  -5  -8  -3  116.59    9.25
  -5  -8  -4   19.08    1.91
   5   8   4   19.73    1.90
   5   8   4   16.88    2.08
   5   8   5    3.07    1.10
  -5  -8  -5    5.71    0.99
  -5  -8  -5    2.21    1.08
   5   8   5    5.20    0.91
  -5  -8  -5    5.04    0.94
  -5  -8  -6   41.90    4.75
  -5  -8  -6   62.44    4.73
   5   8   6   56.34    4.65
  -5  -8  -6   50.72    4.45
   5   8   6   47.70    4.78
  -5  -8  -7   43.72    4.92
  -5  -8  -7   64.09    4.84
   5   8   7   57.25    4.77
   5   8   7   46.24    4.89
   5   8   8    8.52    1.41
  -5  -8  -9    0.65    0.82
  -5  -8 -10    7.96    1.30
   5   8  10    7.91    1.38
  -5  -8 -11    0.60    0.82
   5   8  11   -0.26    0.96
  -5  -8 -12    1.59    0.86
  -5  -8 -13    3.10    0.92
  -5  -8 -14   54.32    4.57
   5   8  14   41.93    4.60
  -5  -8 -15   21.75    2.21
   5   8  15   15.78    2.24
  -5  -8 -16    0.90    0.86
   5   8  16    0.12    1.06
  -5  -8 -17   15.81    1.77
   5   8  17    6.99    1.66
   5   8  18    0.62    1.10
   5   8  19    5.17    1.39
  -5  -8 -19   10.54    1.47
   5   9 -12    9.54    1.84
   5   9 -11   14.59    2.29
  -5  -9  11   20.96    2.49
   5   9 -10    2.48    1.37
  -5  -9  10    3.51    1.72
   5   9  -9    3.69    1.39
  -5  -9   9    2.99    1.66
   5   9  -8   79.49    7.28
   5   9  -7    7.75    1.65
  -5  -9   7    6.61    1.84
  -5  -9   6   -1.63    1.64
   5   9  -5   26.57    3.08
  -5  -9   5   30.46    3.25
   5   9  -4   32.40    3.54
  -5  -9   4   36.89    3.70
   5   9  -3   15.05    2.01
  -5  -9   3   16.24    2.31
  -5  -9   2   16.52    1.93
   5   9  -2   14.76    1.99
  -5  -9   1    0.48    0.91
  -5  -9   1    1.37    1.56
   5   9   0   -0.65    1.02
  -5  -9   0   -0.12    1.40
  -5  -9  -1    9.45    1.46
  -5  -9  -1   12.27    1.80
   5   9   2    5.50    1.07
  -5  -9  -2    3.48    1.20
   5   9   2    6.13    1.36
  -5  -9  -2    5.91    1.63
  -5  -9  -3   42.99    4.42
  -5  -9  -3   50.35    4.38
   5   9   3   49.74    4.36
   5   9   3   42.97    4.42
  -5  -9  -4   30.43    2.87
   5   9   4   27.19    2.80
  -5  -9  -4   27.05    2.88
  -5  -9  -5   27.23    2.85
  -5  -9  -5   27.19    2.66
   5   9   5   27.12    2.65
  -5  -9  -5   31.86    2.70
  -5  -9  -6    3.67    0.94
  -5  -9  -6    2.34    1.16
   5   9   6    1.16    0.82
   5   9   7    1.13    0.90
  -5  -9  -7    1.16    0.82
  -5  -9  -7   -0.11    1.02
   5   9   8    0.29    0.91
  -5  -9  -8    0.42    0.89
   5   9   9    3.35    1.08
  -5  -9 -10   15.21    1.70
   5   9  10    8.55    1.59
  -5  -9 -11    0.24    0.78
   5   9  11    0.27    0.95
  -5  -9 -12    2.42    0.95
   5   9  12    2.74    1.13
  -5  -9 -13    0.04    0.76
   5   9  13    0.41    1.07
   5   9  14    2.94    1.22
  -5  -9 -15    5.14    1.11
   5   9  15    3.50    1.32
  -5  -9 -16    1.39    0.89
   5   9  16    1.12    1.19
  -5  -9 -17    1.92    0.87
  -5  -9 -18    0.74    0.89
  -5  -9 -19    0.85    0.89
   5  10 -10    2.02    1.46
   5  10  -9    1.23    1.44
  -5 -10   9    1.87    1.55
  -5 -10   8    6.49    1.81
   5  10  -7    1.28    1.41
  -5 -10   7    1.78    1.66
   5  10  -6   38.76    4.26
  -5 -10   6   45.64    4.29
   5  10  -5    7.03    1.58
  -5 -10   5    7.23    1.86
  -5 -10   4    9.30    1.95
   5  10  -4    7.00    1.57
   5  10  -3    4.78    1.52
  -5 -10   3    9.40    1.88
  -5 -10   2    6.35    1.87
  -5 -10   1   24.67    2.66
   5  10  -1   20.80    2.70
  -5 -10   1   30.34    3.05
   5  10   0    0.47    1.03
  -5 -10   0    0.93    1.03
  -5 -10   0    0.50    1.51
   5  10   1    0.38    1.18
  -5 -10  -1   -1.02    1.50
  -5 -10  -2    4.18    1.24
   5  10   2    4.55    1.31
  -5 -10  -2    5.77    1.69
  -5 -10  -3    7.57    1.54
   5  10   3    7.51    1.52
  -5 -10  -3   11.77    1.87
  -5 -10  -4    2.02    1.26
   5  10   4    2.01    1.16
  -5 -10  -4    4.72    1.55
   5  10   5   38.99    3.87
   5  10   6   10.69    1.35
  -5 -10  -6    6.72    1.49
   5  10   6    5.72    1.39
   5  10   7    6.69    1.36
  -5 -10  -7    5.58    1.44
  -5 -10  -8    0.66    1.13
   5  10   8    0.05    1.02
  -5 -10  -9    3.14    1.17
  -5 -10 -11    0.11    0.92
   5  10  11    0.33    1.01
  -5 -10 -12   -0.15    0.81
   5  10  12    0.11    1.07
  -5 -10 -13    6.53    1.20
   5  10  13    4.55    1.35
  -5 -10 -14    3.60    1.02
   5  10  14    2.27    1.28
   5  10  15    0.80    1.20
  -5 -10 -16    0.09    0.84
   5  10  16   -0.06    1.18
  -5 -10 -17   14.07    1.69
   5  10  17    6.85    1.70
  -5 -10 -18    0.70    0.92
   5  10  18    0.92    1.17
   5  11  -8    3.77    1.53
   5  11  -7    7.78    1.92
  -5 -11   7   14.53    2.09
   5  11  -6    3.49    1.53
  -5 -11   6    4.93    1.75
   5  11  -5    1.22    1.42
  -5 -11   4    0.74    1.55
  -5 -11   3    0.74    1.73
   5  11  -3    1.04    1.24
   5  11  -2    5.25    1.50
  -5 -11   2    7.69    1.86
  -5 -11   1   16.51    2.15
   5  11  -1    6.88    1.62
   5  11   0    6.77    1.47
  -5 -11   0    7.31    1.46
  -5 -11  -1   17.27    2.06
  -5 -11  -1   19.54    2.41
   5  11   2    3.27    1.23
  -5 -11  -2    5.17    1.76
  -5 -11  -3   -0.12    1.09
  -5 -11  -3   -0.48    1.70
  -5 -11  -4   -0.82    1.13
   5  11   4    1.06    1.13
  -5 -11  -5    3.28    1.37
   5  11   5    1.30    1.15
   5  11   6    5.22    1.31
  -5 -11  -7    0.72    1.08
   5  11   7    0.46    1.12
   5  11   8    1.31    1.15
  -5 -11  -8    3.12    1.33
   5  11   9    0.17    1.08
  -5 -11  -9    0.26    1.14
   5  11  10    0.86    1.15
  -5 -11 -10    0.06    1.01
   5  11  11    8.03    1.61
  -5 -11 -12   16.51    1.82
   5  11  12    6.01    1.63
  -5 -11 -13    2.64    1.06
   5  11  13    1.40    1.18
  -5 -11 -14   -0.26    0.87
   5  11  14   -0.06    1.22
  -5 -11 -15    3.97    1.06
   5  11  15    0.25    1.27
  -5 -12   5    1.51    1.66
   5  12  -4    0.73    1.23
  -5 -12   4    0.89    1.63
   5  12  -3    0.44    1.28
  -5 -12   3    1.69    1.65
   5  12  -2    3.01    1.43
   5  12  -1    1.82    1.23
  -5 -12   1    0.40    1.60
   5  12   0    5.17    1.59
  -5 -12   0   22.32    2.29
  -5 -12  -1   26.70    2.89
   5  12   1   19.24    2.74
   5  12   2   -0.11    1.16
  -5 -12  -2    0.38    1.13
  -5 -12  -2    1.44    1.83
   5  12   3   -0.06    1.22
  -5 -12  -4    0.20    1.27
   5  12   4    0.06    1.17
  -5 -12  -5   11.20    1.78
   5  12   5    4.90    1.50
  -5 -12  -6    1.03    1.25
   5  12   6    0.47    1.08
   5  12   7    5.40    1.45
  -5 -12  -8    4.48    1.46
   5  12   8    2.41    1.36
  -5 -12  -9   12.02    1.90
  -5 -12 -10    0.07    1.25
  -5 -12 -11   26.77    2.53
   5  12  11    9.98    2.18
   5  12  12   -0.06    1.18
   5  12  13   -0.25    1.20
  -5 -12 -13   -0.23    1.00
  -5 -12 -14    0.43    0.93
   5  12  14   -0.06    1.26
  -5 -12 -15    0.05    0.90
   5  12  15    0.13    1.24
  -5 -13   3    3.23    1.72
  -5 -13   2    0.99    1.58
  -5 -13   1    2.91    1.73
   5  13   1    4.06    1.38
   5  13   2    0.57    1.10
  -5 -13  -2    4.66    1.26
   5  13   3    0.84    1.09
  -5 -13  -3    6.29    1.36
   5  13   4    0.12    1.15
  -5 -13  -4    0.20    1.21
  -5 -13  -5    1.55    1.31
   5  13   5   -0.29    1.21
  -5 -13  -6    1.51    1.35
  -5 -13  -7    0.28    1.37
   5  13   7    0.06    1.18
  -5 -13  -8    0.90    1.25
   5  13   8    0.93    1.21
  -5 -13  -9   11.24    1.74
   5  13   9    2.06    1.33
  -5 -13 -10    7.44    1.56
   5  13  10    1.30    1.29
   5  13  11    0.20    1.29
  -5 -13 -11    0.61    1.26
   5  13  12    1.57    1.29
  -5 -13 -12    1.10    1.24
   5  13  13    6.63    1.61
  -5 -14  -4    1.96    1.22
  -5 -14  -5    2.37    1.24
  -5 -14  -7    8.45    1.49
   5  14   7    0.24    1.25
  -5 -14  -8    0.07    1.21
   5  14   8    1.85    1.27
   5  14   9    0.76    1.27
   5  14  10   -0.06    1.27
   6  -8 -13    1.80    1.34
   6  -8 -12    1.25    1.28
  -6   8  11    2.38    1.26
   6  -8 -10   -0.15    1.29
  -6   8  10    0.50    1.24
   6  -8  -9    3.11    1.41
  -6   8   9    1.66    1.21
  -6   8   7    3.03    1.37
   6  -8  -7    4.71    1.61
  -6   8   6    0.27    1.21
   6  -8  -6    0.17    1.43
  -6   8   5    3.17    1.29
   6  -8  -5    5.51    1.84
  -6   8   4    1.16    1.19
   6  -8  -4   -0.28    1.72
   6  -8  -3   -0.49    1.76
  -6   8   2    5.84    1.28
   6  -8  -2    4.29    1.93
  -6   8   1    0.52    0.96
   6  -8  -1    1.25    1.70
  -6   7  14   -0.35    1.25
   6  -7 -13    0.08    1.35
  -6   7  13    1.67    1.29
   6  -7 -12    2.22    1.46
  -6   7  12    0.72    1.33
  -6   7  11   -0.53    1.24
   6  -7 -10    1.32    1.34
   6  -7  -9    0.15    1.36
  -6   7   9    1.91    1.30
   6  -7  -8    5.58    1.56
  -6   7   8    5.43    1.46
   6  -7  -7   18.86    2.41
  -6   7   7    9.39    1.84
   6  -7  -6   17.53    2.52
  -6   7   6   12.36    1.94
  -6   7   5    0.12    1.19
   6  -7  -5   -0.28    1.67
  -6   7   4    2.38    1.19
   6  -7  -4    1.47    1.67
  -6   7   3   30.40    3.10
   6  -7  -2   18.69    2.82
  -6   7   2   12.21    1.76
   6  -7  -1   30.16    3.50
  -6   7   1   21.47    2.43
   6  -7   0   26.84    3.39
  -6   7   0   18.65    2.15
  -6   7  -1    0.54    0.97
   6  -7   1    2.51    1.98
  -6   7  -2    1.05    0.95
   6  -7   2    1.59    1.96
  -6   7  -3    1.09    0.94
   6  -7   3    1.34    1.93
  -6   7  -4    0.38    0.89
   6  -7   4    1.65    1.90
  -6   6  16    3.58    1.37
  -6   6  14    1.57    1.32
  -6   6  13    1.05    1.26
   6  -6 -12    2.27    1.55
  -6   6  12    0.20    1.32
   6  -6 -11    1.54    1.30
   6  -6 -10   10.97    2.01
  -6   6  10   13.36    1.90
   6  -6  -9    0.37    1.32
  -6   6   9    0.62    1.35
   6  -6  -8    3.67    1.58
  -6   6   8    3.81    1.47
  -6   6   7    3.75    1.39
   6  -6  -6    5.48    1.82
  -6   6   5    6.84    1.35
   6  -6  -5    2.72    1.81
  -6   6   4   -0.04    1.14
   6  -6  -4   -1.09    1.79
   6  -6  -3   20.39    2.84
  -6   6   3   16.18    2.02
  -6   6   2    3.50    1.26
   6  -6  -2    2.82    1.86
  -6   6   1   12.24    1.74
   6  -6  -1   12.11    2.54
  -6   6   0    9.60    1.49
   6  -6   0   14.74    2.69
  -6   6  -1    9.23    1.36
   6  -6   1   10.47    2.54
  -6   6  -2    1.48    0.88
   6  -6   2    2.78    2.01
  -6   6  -3    6.35    1.15
   6  -6   3    5.38    2.18
  -6   6  -4    5.80    1.09
   6  -6   4    1.74    1.88
  -6   6  -5    4.44    1.11
   6  -6   5    3.88    2.02
   6  -6   6   -1.14    2.08
  -6   6  -7   -0.13    0.98
  -6   5  17    1.60    1.29
  -6   5  15    1.35    1.34
  -6   5  14    0.44    1.35
  -6   5  13    0.96    1.40
   6  -5 -12   15.20    2.38
   6  -5 -11   14.33    2.23
  -6   5  11   11.67    1.86
  -6   5  10   15.81    2.11
   6  -5  -9   21.91    2.74
  -6   5   9   21.40    2.50
   6  -5  -8    1.94    1.37
  -6   5   8    3.11    1.27
   6  -5  -7    4.44    1.64
  -6   5   6    1.10    1.27
   6  -5  -6    1.37    1.40
  -6   5   5    9.43    1.57
   6  -5  -5    9.49    2.11
  -6   5   4    0.04    1.14
   6  -5  -4   -0.20    1.77
  -6   5   3    3.17    1.24
   6  -5  -3    2.88    2.00
  -6   5   2   25.56    2.65
   6  -5  -1    7.67    2.31
  -6   5   0    1.88    1.06
   6  -5   0    2.04    2.20
  -6   5  -1   -0.34    0.98
   6  -5   1   -0.98    1.84
  -6   5  -2    7.06    1.30
   6  -5   2    7.05    2.21
  -6   5  -3    7.51    1.30
  -6   5  -4   26.07    2.58
   6  -5   4   24.01    3.61
   6  -5   5    5.42    2.14
  -6   5  -6    2.63    1.02
   6  -5   6    2.86    2.12
  -6   5  -7    1.99    1.05
   6  -5   7    1.92    2.04
  -6   5  -8    0.10    1.03
  -6   5  -9   -0.92    0.98
   6  -5   9    0.51    2.23
  -6   5 -10    9.55    1.51
  -6   4  18    3.40    1.35
   6  -4 -17    2.63    1.25
   6  -4 -16    5.02    1.40
  -6   4  16    5.35    1.40
   6  -4 -15    1.46    1.20
  -6   4  15    1.10    1.19
   6  -4 -14    0.70    1.18
  -6   4  14    0.48    1.25
   6  -4 -13    3.54    1.27
  -6   4  13    4.65    1.38
   6  -4 -12   27.36    3.14
  -6   4  12   25.54    2.67
   6  -4 -12   21.35    2.59
   6  -4 -11   14.50    2.34
  -6   4  11   16.46    2.02
   6  -4 -11   13.81    1.92
   6  -4 -10   16.30    2.46
  -6   4  10   22.13    2.39
   6  -4 -10   19.75    2.25
   6  -4  -9   20.95    2.58
  -6   4   9   19.68    2.45
   6  -4  -8    1.99    1.39
   6  -4  -7    3.12    1.52
  -6   4   7    3.22    1.34
   6  -4  -6   -0.39    0.91
  -6   4   6    1.04    1.11
   6  -4  -5   23.43    3.07
  -6   4   5   23.05    2.59
  -6   4   4   -0.85    1.18
  -6   4   3    1.99    1.17
   6  -4  -3    0.30    1.62
   6  -4  -2   -1.64    1.83
  -6   4   1    2.07    1.20
   6  -4  -1    0.12    1.80
   6  -4   0   21.49    3.52
  -6   4   0   22.12    2.38
  -6   4  -1    4.51    1.22
   6  -4   1    2.00    2.17
  -6   4  -2   13.63    1.73
   6  -4   2   13.67    2.79
  -6   4  -3   10.51    1.51
   6  -4   3   11.60    2.72
  -6   4  -4    0.13    0.85
  -6   4  -5   27.10    2.69
   6  -4   5   25.26    3.77
  -6   4  -6   60.57    5.05
   6  -4   6   42.43    5.76
  -6   4  -7    3.63    1.08
   6  -4   7    2.37    2.06
  -6   4  -8   -0.32    1.02
   6  -4   8    0.24    1.91
  -6   4  -9    0.40    1.05
   6  -4   9    3.13    2.23
  -6   4 -10    1.17    1.02
   6  -4  10    0.26    2.15
  -6   4 -11    2.24    1.07
   6  -4  11    0.14    2.59
  -6   4 -12    2.45    1.11
   6  -3 -18    5.19    1.41
   6  -3 -17   -0.43    1.28
  -6   3  17    0.64    1.24
   6  -3 -16    4.17    1.37
  -6   3  16    4.02    1.34
   6  -3 -15    0.38    1.27
  -6   3  15    0.39    1.21
   6  -3 -14    1.38    1.22
  -6   3  14    0.61    1.25
   6  -3 -13    3.15    1.31
  -6   3  13    2.35    1.24
  -6   3  12    1.26    1.22
   6  -3 -11   33.56    3.18
   6  -3 -11   31.87    3.48
  -6   3  11   26.76    3.06
   6  -3 -10    8.94    1.51
   6  -3 -10    7.66    1.73
  -6   3  10    7.87    1.49
   6  -3  -9   -0.41    0.99
   6  -3  -8   11.65    1.55
   6  -3  -8   13.07    1.97
   6  -3  -8    7.02    1.63
  -6   3   8   10.24    1.65
   6  -3  -7    4.23    1.09
   6  -3  -7    4.01    1.21
   6  -3  -7    3.78    1.27
   6  -3  -7    2.56    1.43
  -6   3   7    3.92    1.26
   6  -3  -6   56.89    4.59
   6  -3  -6   43.09    4.63
   6  -3  -6   50.15    5.07
  -6   3   6   51.05    4.75
   6  -3  -5   76.05    6.11
   6  -3  -5   56.38    6.13
   6  -3  -5   68.39    6.67
  -6   3   5   77.70    6.25
   6  -3  -4    0.83    0.81
   6  -3  -4    1.95    1.64
   6  -3  -3    4.17    0.99
   6  -3  -3    4.32    1.75
  -6   3   2    0.58    1.15
   6  -3  -2    1.25    1.90
   6  -3  -1    3.42    2.17
   6  -3   0    0.83    1.93
  -6   3  -1   13.10    1.68
  -6   3  -2    6.61    1.21
   6  -3   2    8.22    2.45
  -6   3  -3   61.64    5.51
   6  -3   3   61.56    6.46
   6  -3   4   48.25    5.37
  -6   3  -5   24.69    2.48
   6  -3   5   20.09    3.26
  -6   3  -6   13.01    1.62
   6  -3   6   11.12    2.44
  -6   3  -7    4.59    1.08
   6  -3   7    4.80    2.08
  -6   3  -8    7.47    1.30
   6  -3   8    3.78    1.99
   6  -3   9    1.27    1.85
  -6   3 -10    1.36    1.07
   6  -3  10    3.07    2.16
  -6   3 -11    1.30    1.03
   6  -3  11    4.13    2.41
  -6   3 -12    0.51    1.03
   6  -3  12    1.18    2.36
  -6   3 -13    1.03    1.04
   6  -3  13    0.17    3.01
  -6   3 -14    0.42    1.01
  -6   2  18   21.25    2.61
   6  -2 -18   26.15    2.78
   6  -2 -17    0.38    1.25
  -6   2  17    1.56    1.36
   6  -2 -16    1.48    1.31
  -6   2  16    0.53    1.32
   6  -2 -15   14.12    2.13
   6  -2 -14    3.61    1.41
  -6   2  14    4.76    1.42
   6  -2 -13    6.37    1.51
  -6   2  13    7.51    1.54
   6  -2 -12    8.94    1.55
  -6   2  12    6.36    1.47
   6  -2 -11   16.11    1.96
  -6   2  11   11.70    1.82
   6  -2 -10    4.35    1.35
   6  -2 -10    5.29    1.48
   6  -2  -9    8.47    1.39
   6  -2  -9    6.04    1.54
  -6   2   9    5.65    1.40
   6  -2  -8   23.06    2.34
   6  -2  -8   18.05    2.34
   6  -2  -8   22.10    2.58
  -6   2   8   21.85    2.41
   6  -2  -7   44.22    3.61
  -6   2   7   33.27    3.49
   6  -2  -7   40.65    3.71
   6  -2  -7   30.20    3.81
  -6   2   7   38.14    3.64
  -6   2   6   40.96    4.10
   6  -2  -6   50.90    4.29
   6  -2  -6   41.77    4.49
  -6   2   6   47.16    4.20
  -6   2   5    0.29    0.61
   6  -2  -5    0.65    0.86
   6  -2  -5    0.29    0.77
  -6   2   5    0.58    1.03
   6  -2  -5    0.22    1.47
  -6   2   4   23.58    2.48
   6  -2  -4   28.92    2.54
   6  -2  -4   25.88    2.62
   6  -2  -4   24.63    3.22
  -6   2   3   21.94    2.39
   6  -2  -3   22.37    2.46
   6  -2  -3   27.18    2.40
   6  -2  -3   22.43    3.14
  -6   2   3   30.05    2.66
  -6   2   2    1.64    0.69
   6  -2  -2    2.27    0.82
   6  -2  -2    1.18    0.63
  -6   2   2    1.08    1.11
   6  -2  -2    0.10    1.75
  -6   2   1    5.41    0.87
   6  -2  -1    4.85    0.73
   6  -2  -1    5.40    1.00
  -6   2   1    5.27    1.30
   6  -2  -1    4.50    2.17
  -6   2   0    0.99    1.16
  -6   2  -1    0.71    1.10
   6  -2   1   -0.22    1.93
  -6   2  -2    0.29    1.04
   6  -2   2   -0.99    1.79
   6  -2   3   18.32    3.28
  -6   2  -4    3.14    1.17
   6  -2   4    0.52    1.64
  -6   2  -5   28.82    2.71
   6  -2   5   21.33    3.32
  -6   2  -6    0.33    0.97
   6  -2   6    0.20    1.69
  -6   2  -7   22.24    2.28
   6  -2   7   19.02    3.07
   6  -2   8   48.90    5.22
  -6   2  -9   19.72    2.12
   6  -2   9   19.14    2.93
  -6   2 -10   52.73    4.40
   6  -2  10   35.29    4.98
  -6   2 -11    0.49    0.95
   6  -2  11   -0.12    2.07
   6  -2  12    1.25    2.25
  -6   2 -13    0.50    1.04
   6  -2  13   -0.31    2.82
  -6   2 -14    0.31    0.99
   6  -2  14    0.18    3.36
   6  -1 -18    0.27    1.18
  -6   1  18   -0.45    1.37
   6  -1 -17   13.53    1.90
  -6   1  17    8.55    1.84
   6  -1 -16   18.75    2.38
   6  -1 -15    4.00    1.32
  -6   1  15    2.13    1.44
   6  -1 -14   34.76    3.20
  -6   1  14   24.73    3.09
   6  -1 -13    1.58    1.19
  -6   1  13    0.62    1.21
  -6   1  12    0.53    1.14
   6  -1 -10   22.42    2.38
  -6   1  10   19.52    2.31
   6  -1  -9   11.08    1.54
   6  -1  -9    7.04    1.52
  -6   1   9    7.74    1.52
   6  -1  -8   12.20    1.62
   6  -1  -8   10.90    1.56
  -6   1   8   11.08    1.60
   6  -1  -8    6.67    1.62
   6  -1  -7    1.27    0.81
   6  -1  -7    0.81    1.05
  -6   1   7    0.87    0.75
   6  -1  -7    0.97    1.26
  -6   1   7    0.70    1.11
  -6   1   6   35.58    3.39
   6  -1  -6   41.72    3.48
   6  -1  -6   39.80    3.55
  -6   1   6   36.27    3.47
  -6   1   5   58.39    5.14
   6  -1  -5   65.46    5.23
   6  -1  -5   62.64    5.25
  -6   1   4   38.50    3.55
   6  -1  -4   37.99    3.62
   6  -1  -4   40.51    3.61
  -6   1   4   37.72    3.66
   6  -1  -3   31.18    3.05
   6  -1  -3   33.40    3.02
   6  -1  -3   21.86    3.48
  -6   1   3   34.13    3.10
  -6   1   3   32.96    3.01
   6  -1  -2    8.06    1.09
  -6   1   2    5.77    1.39
  -6   1   2    6.25    1.01
   6  -1  -2    5.32    2.11
   6  -1  -1  104.37    8.87
   6  -1  -1  105.88    8.83
   6  -1  -1   88.75    9.50
  -6   1   1  105.31    8.95
  -6   1   0   19.33    1.93
   6  -1   0   20.80    2.02
   6  -1   0   19.45    1.99
  -6   1   0   19.23    2.24
   6  -1   0   21.98    3.16
   6  -1   1    6.89    1.01
   6  -1   1    8.68    1.10
  -6   1  -1    6.46    1.44
  -6   1  -1    7.83    0.97
   6  -1   2    1.88    0.83
  -6   1  -2    1.62    0.54
   6  -1   2    1.52    1.77
   6  -1   3   10.70    1.39
  -6   1  -3   12.19    1.56
   6  -1   4    5.35    1.24
  -6   1  -4    2.57    1.16
   6  -1   4    2.52    1.97
  -6   1  -5    0.68    1.03
   6  -1   5    0.47    1.70
  -6   1  -6   45.62    3.97
   6  -1   6   35.93    4.62
  -6   1  -7    7.09    1.20
   6  -1   7    4.64    1.73
  -6   1  -8   19.19    1.92
   6  -1   8   11.82    2.47
   6  -1   9    1.60    1.76
  -6   1 -10   28.61    2.81
   6  -1  10   32.70    3.79
  -6   1 -11    2.85    1.02
   6  -1  11    7.27    2.17
  -6   1 -12    8.29    1.35
   6  -1  12    7.05    2.82
  -6   1 -13    0.38    0.96
   6  -1  13    1.34    2.44
  -6   1 -14    5.02    1.24
   6  -1  14    9.39    3.53
   6   0 -18    0.92    1.16
  -6   0  18    1.03    1.43
   6   0 -17   21.96    2.57
   6   0 -16   16.10    2.05
  -6   0  16   14.61    2.18
   6   0 -15    5.10    1.31
  -6   0  15    6.98    1.76
   6   0 -14   10.81    1.69
  -6   0  14    9.67    1.82
   6   0 -13    0.29    1.00
  -6   0  13   -0.17    1.13
   6   0 -12    0.61    1.04
   6   0 -11   36.17    3.02
  -6   0  11   22.16    2.90
   6   0 -10    6.13    1.31
  -6   0  10    4.73    1.31
   6   0  -9    0.17    0.91
  -6   0   9   -0.37    1.23
  -6   0   8    0.08    0.75
   6   0  -8    0.53    0.89
   6   0  -8    0.24    0.94
   6   0  -8    0.33    0.85
  -6   0   8    0.14    1.04
  -6   0   7    1.76    0.79
   6   0  -7    1.53    0.87
   6   0  -7    2.46    1.06
   6   0  -7    1.45    0.97
  -6   0   7    0.54    1.12
  -6   0   6   23.46    2.30
   6   0  -6   28.60    2.43
   6   0  -5   11.77    1.47
   6   0  -5   14.75    1.64
  -6   0   5   12.34    1.65
  -6   0   4    5.76    1.00
   6   0  -4    6.10    1.03
  -6   0   4    5.29    1.26
   6   0  -4    6.58    1.16
   6   0  -4    4.68    1.59
  -6   0   3   37.65    3.54
   6   0  -3   36.72    3.55
   6   0  -3   42.07    3.65
  -6   0   3   39.05    3.62
  -6   0   2    4.60    0.82
  -6   0   2    2.69    1.06
   6   0  -2    3.38    1.80
   6   0  -2    5.60    1.07
   6   0  -1  496.41   41.63
   6   0  -1  551.09   41.68
  -6   0   1  498.26   41.63
   6   0  -1  414.98   42.07
  -6   0   0   83.82    7.48
   6   0   0   86.11    7.50
   6   0   0   98.19    7.62
  -6   0   0   85.91    7.63
   6   0   0   82.93    8.27
  -6   0  -1  323.87   28.19
   6   0   1  335.03   28.21
   6   0   1  265.85   28.77
  -6   0  -2    1.45    0.54
   6   0   2    1.01    0.57
   6   0   2    1.18    1.12
  -6   0  -2   -0.03    1.08
   6   0   2   -0.19    1.71
  -6   0  -3   16.59    1.67
   6   0   3   17.48    1.70
  -6   0  -3   18.06    2.04
  -6   0  -4    0.88    1.00
   6   0   4    0.88    1.39
  -6   0  -5    7.37    1.32
   6   0   5   10.30    1.76
  -6   0  -6   10.48    1.51
   6   0   6   12.11    1.73
   6   0   7   -1.08    1.09
  -6   0  -8   35.08    2.97
   6   0   8   26.13    3.04
  -6   0  -9   19.83    1.95
   6   0   9   15.67    1.96
  -6   0 -10   12.76    1.46
   6   0  10   10.66    1.54
  -6   0 -13    3.09    1.03
   6   1 -18    0.29    1.09
  -6  -1  18    1.34    1.51
   6   1 -17    3.93    1.23
  -6  -1  17    3.85    1.67
   6   1 -16    5.37    1.34
  -6  -1  16    6.75    1.72
  -6  -1  15   12.65    2.02
  -6  -1  14    1.24    1.48
   6   1 -13    0.56    1.06
   6   1 -12   23.52    2.57
  -6  -1  12   26.07    2.80
   6   1 -11   10.78    1.60
  -6  -1  11   11.73    1.77
  -6  -1  10   34.59    3.51
   6   1  -9   31.21    2.96
  -6  -1   9   26.47    3.00
   6   1  -8   49.18    4.57
   6   1  -8   59.39    4.73
  -6  -1   8   42.84    4.52
  -6  -1   7    3.44    0.94
   6   1  -7    4.01    0.97
   6   1  -7    2.69    0.77
   6   1  -7    2.82    1.03
  -6  -1   6   22.32    2.34
   6   1  -6   25.65    2.48
   6   1  -6   26.00    2.43
   6   1  -6   18.87    2.36
  -6  -1   6   21.21    2.49
  -6  -1   5   21.40    1.94
   6   1  -5   22.98    2.06
   6   1  -5   20.27    2.04
  -6  -1   5   16.07    1.99
  -6  -1   4    0.62    0.70
   6   1  -4    1.23    0.75
  -6  -1   4   -0.15    1.03
   6   1  -4    0.78    1.18
   6   1  -4    0.64    0.83
  -6  -1   3   39.41    3.29
   6   1  -3   38.29    3.31
  -6  -1   3   36.72    3.32
   6   1  -3   35.43    3.33
  -6  -1   2   60.30    4.98
   6   1  -2   57.39    4.99
   6   1  -2   58.68    5.03
   6   1  -2   48.68    5.39
  -6  -1   2   51.36    4.97
  -6  -1   1  231.73   18.81
   6   1  -1  228.10   18.82
  -6  -1   1  221.05   18.80
   6   1  -1  203.75   19.32
  -6  -1   0   24.71    2.36
   6   1   0   23.28    2.35
   6   1   0   26.52    2.56
  -6  -1  -1  457.88   37.38
   6   1   1  430.14   37.38
   6   1   1  549.68   37.62
  -6  -1  -1  409.00   37.39
  -6  -1  -2    4.17    0.76
   6   1   2    4.51    0.77
   6   1   2    3.99    1.30
  -6  -1  -2    2.88    1.25
   6   1   3   -0.51    0.53
  -6  -1  -3    0.53    0.52
  -6  -1  -3   -0.48    1.04
   6   1   3    0.09    1.20
  -6  -1  -4    4.51    0.72
   6   1   4    4.17    0.73
  -6  -1  -4    3.86    1.06
   6   1   4    6.31    1.54
  -6  -1  -5   38.78    3.44
   6   1   5   38.25    3.43
  -6  -1  -5   37.04    3.58
   6   1   5   46.69    3.92
   6   1   6    2.44    1.16
  -6  -1  -7    0.74    0.66
   6   1   7    1.78    1.00
  -6  -1  -7    0.95    0.83
  -6  -1  -8    2.14    0.79
   6   1   8    2.67    0.96
  -6  -1  -8    3.61    0.84
  -6  -1  -9    2.92    0.81
   6   1  10    0.23    0.94
  -6  -1 -11    6.86    1.18
   6   1  11    7.50    1.38
  -6  -1 -12    7.61    1.17
   6   1  12    7.61    1.47
   6   1  13    8.02    1.55
   6   1  14    3.35    1.31
   6   2 -17    9.08    1.56
  -6  -2  17    9.15    1.79
   6   2 -16    2.11    1.20
  -6  -2  16    1.49    1.51
   6   2 -15    2.32    1.02
  -6  -2  15    1.13    1.52
   6   2 -14   25.58    2.70
   6   2 -13    0.33    0.96
  -6  -2  13    1.78    1.25
   6   2 -12   34.55    3.28
  -6  -2  12   30.78    3.33
   6   2 -11   23.66    2.42
  -6  -2  11   20.27    2.53
   6   2 -10  116.33   10.15
  -6  -2  10  118.78   10.19
   6   2  -8   85.93    7.65
  -6  -2   7    1.40    0.84
   6   2  -7    0.72    0.80
   6   2  -7   -0.15    0.82
  -6  -2   7    0.22    1.29
   6   2  -6   30.15    2.59
  -6  -2   6   29.23    2.65
  -6  -2   5    7.23    1.12
   6   2  -5    7.71    1.15
   6   2  -5    7.51    1.20
   6   2  -5    4.21    1.03
  -6  -2   5    7.54    1.50
  -6  -2   4    3.97    0.92
   6   2  -4    2.86    0.82
  -6  -2   4    3.67    1.20
   6   2  -4    1.22    0.97
   6   2  -4    2.00    0.96
  -6  -2   3   16.49    1.70
   6   2  -3   17.50    1.69
   6   2  -3   15.44    1.69
  -6  -2   3   13.41    1.87
   6   2  -2    3.26    0.97
  -6  -2   2    4.92    0.89
   6   2  -2    3.48    0.86
  -6  -2   2    1.79    1.14
  -6  -2   1   42.50    3.34
   6   2  -1   29.07    3.33
   6   2   0   35.27    2.90
   6   2   0   30.04    2.98
  -6  -2   0   25.99    2.90
  -6  -2  -1    5.32    0.95
  -6  -2  -1    7.30    0.97
   6   2   1    5.87    0.94
   6   2   1    5.45    1.23
  -6  -2  -1    5.30    1.14
  -6  -2  -2    1.32    0.75
  -6  -2  -2    2.80    0.70
   6   2   2    3.46    0.67
   6   2   2    2.14    1.15
  -6  -2  -2    2.19    0.95
  -6  -2  -3   70.79    5.60
   6   2   3   69.38    5.58
  -6  -2  -3   62.18    5.66
   6   2   3   64.40    5.84
  -6  -2  -3   53.40    5.64
  -6  -2  -4  106.58    8.53
   6   2   4  106.45    8.51
  -6  -2  -4   88.13    8.55
  -6  -2  -4   97.48    8.64
  -6  -2  -5  145.23   11.19
   6   2   5  137.07   11.15
  -6  -2  -5  127.02   11.20
   6   2   5  131.41   11.41
  -6  -2  -5  115.20   11.30
  -6  -2  -6   16.81    1.52
   6   2   6   17.36    1.50
  -6  -2  -6   12.47    1.62
   6   2   6   15.22    1.91
  -6  -2  -6   10.55    1.66
  -6  -2  -7    5.10    1.01
  -6  -2  -7    5.29    1.03
  -6  -2  -8   15.73    1.77
   6   2   8   20.70    2.13
  -6  -2  -8   22.68    2.13
   6   2   9   12.15    1.60
  -6  -2  -9   10.57    1.47
  -6  -2 -10    6.01    0.94
   6   2  10    5.98    1.34
   6   2  11   11.58    1.69
  -6  -2 -11   11.25    1.31
  -6  -2 -11    9.69    1.50
  -6  -2 -12    2.38    0.94
  -6  -2 -12    2.60    0.94
   6   2  12    2.25    1.22
  -6  -2 -13    2.98    1.03
   6   2  14   23.23    2.46
  -6  -2 -14   15.09    2.05
   6   2  15    2.97    1.38
   6   2  16   16.64    2.34
   6   2  17    4.55    1.53
  -6  -3  17   39.17    3.94
  -6  -3  16    0.54    1.49
   6   3 -15   14.33    1.88
   6   3 -14    8.98    1.49
  -6  -3  14    8.68    1.76
   6   3 -13    1.99    1.02
  -6  -3  13    1.74    1.45
   6   3 -12    7.14    1.31
  -6  -3  12    7.77    1.67
   6   3 -11    7.51    1.30
  -6  -3  11    7.48    1.55
  -6  -3  10   87.28    7.37
   6   3 -10   78.67    7.28
   6   3  -9    0.59    0.81
   6   3  -8  133.89   12.37
  -6  -3   8  159.98   12.48
  -6  -3   7   37.25    3.24
   6   3  -7   34.85    3.21
   6   3  -7   28.67    3.07
  -6  -3   7   28.89    3.22
   6   3  -6    6.79    1.05
  -6  -3   6    5.69    1.08
  -6  -3   6    5.49    1.50
   6   3  -6    4.79    1.07
   6   3  -5   56.43    3.75
  -6  -3   5   56.13    3.86
  -6  -3   4   31.51    2.79
  -6  -3   4   27.58    2.89
   6   3  -4   33.31    2.82
  -6  -3   3   61.30    5.57
   6   3  -3   69.19    5.59
  -6  -3   3   58.52    5.58
  -6  -3   2   21.70    2.11
   6   3  -2   23.01    2.11
   6   3  -2   16.65    2.07
  -6  -3   1   25.87    2.33
   6   3  -1   27.80    2.35
   6   3  -1   20.45    2.35
  -6  -3   1   19.69    2.38
  -6  -3   1   22.59    2.23
  -6  -3   0    3.52    0.79
  -6  -3   0    4.59    0.83
   6   3   0    4.75    0.80
   6   3   0    3.21    0.96
  -6  -3   0    3.40    1.12
  -6  -3  -1    4.79    0.89
   6   3   1    4.43    0.86
   6   3   1    4.80    1.11
  -6  -3  -1    4.66    1.13
  -6  -3  -2    2.54    0.78
  -6  -3  -2    2.19    0.68
   6   3   2    3.08    0.72
   6   3   2    2.50    1.16
  -6  -3  -2    2.86    0.94
  -6  -3  -3  142.66   11.72
   6   3   3  135.07   11.66
  -6  -3  -3  125.45   11.70
   6   3   3  152.68   11.97
  -6  -3  -3  147.30   11.79
   6   3   4  151.52   12.31
  -6  -3  -4  147.01   12.38
   6   3   4  125.62   12.50
  -6  -3  -4  152.79   12.36
  -6  -3  -4  147.14   12.44
   6   3   5    0.22    1.02
  -6  -3  -5    0.70    0.53
   6   3   5    0.40    0.48
  -6  -3  -5   -0.13    0.98
  -6  -3  -6   44.14    3.63
   6   3   6   48.31    3.62
  -6  -3  -6   32.05    3.59
   6   3   6   33.60    3.83
  -6  -3  -6   43.61    3.80
  -6  -3  -7   30.43    2.82
   6   3   7   27.76    3.02
  -6  -3  -7   34.62    3.06
  -6  -3  -8    0.56    0.77
   6   3   8    1.21    1.03
  -6  -3  -9    7.63    1.05
  -6  -3  -9   12.51    1.40
  -6  -3 -10    6.69    0.96
  -6  -3 -10    6.71    1.16
   6   3  10   10.00    1.53
   6   3  11   24.80    2.74
   6   3  12    9.21    1.68
  -6  -3 -12    7.49    1.35
   6   3  13   15.58    2.11
  -6  -3 -13   13.53    1.87
   6   3  14    0.69    1.22
  -6  -3 -14   -0.51    0.94
   6   3  15    3.45    1.49
  -6  -3 -15    2.18    0.96
  -6  -3 -16    0.05    0.99
  -6  -3 -17    1.70    0.98
   6   3  17    1.22    1.33
   6   3  18   11.23    1.87
  -6  -3 -18    9.38    1.62
   6   3  19    0.83    1.21
   6   4 -16   11.72    1.71
   6   4 -15   13.12    1.80
  -6  -4  15   13.08    1.98
   6   4 -14    2.66    1.08
  -6  -4  14    1.17    1.43
   6   4 -13    1.44    0.97
  -6  -4  13   -0.37    1.47
  -6  -4  12    4.98    1.49
   6   4 -11   -0.49    0.88
  -6  -4  11    0.86    1.42
   6   4 -10    0.80    0.88
   6   4  -9    6.91    1.16
  -6  -4   9    6.69    1.61
   6   4  -8    8.20    1.25
   6   4  -7   71.14    7.09
  -6  -4   7   78.08    7.20
  -6  -4   6    1.22    0.79
   6   4  -6    1.49    0.73
  -6  -4   6    0.93    1.44
   6   4  -6    0.79    0.81
  -6  -4   5   91.90    7.46
   6   4  -5   99.08    7.44
   6   4  -5   75.11    7.33
  -6  -4   5   75.80    7.44
   6   4  -4   83.85    8.28
   6   4  -4   87.03    8.16
  -6  -4   4  109.15    8.44
  -6  -4   3   22.79    2.24
   6   4  -3   22.96    2.19
   6   4  -3   18.52    2.16
  -6  -4   2   42.28    3.60
   6   4  -2   42.72    3.52
   6   4  -2   31.47    3.50
  -6  -4   2   37.12    3.59
  -6  -4   2   38.03    3.38
   6   4  -1   34.67    2.94
  -6  -4   1   39.08    3.04
   6   4  -1   22.64    2.93
  -6  -4   1   27.43    3.00
  -6  -4   1   32.75    2.85
  -6  -4   0   15.03    1.58
   6   4   0   15.88    1.47
   6   4   0   13.01    1.61
  -6  -4   0   11.05    1.66
  -6  -4   0   10.51    1.38
  -6  -4  -1    8.86    1.11
  -6  -4  -1    5.71    1.18
  -6  -4  -2   11.80    1.46
   6   4   2   12.37    1.36
  -6  -4  -2   11.51    1.41
  -6  -4  -3    6.34    0.96
  -6  -4  -3    4.97    1.02
   6   4   3    5.99    0.87
  -6  -4  -3    4.43    1.11
   6   4   3    5.29    1.33
  -6  -4  -4   16.57    1.69
   6   4   4   17.68    1.66
  -6  -4  -4   18.48    1.85
   6   4   4   13.43    1.95
  -6  -4  -4   13.59    1.77
  -6  -4  -5  122.68    9.83
   6   4   5  126.53    9.80
  -6  -4  -5  124.69    9.79
   6   4   5   94.72    9.97
  -6  -4  -5   98.12    9.87
  -6  -4  -6   63.57    4.86
  -6  -4  -6   49.46    4.74
   6   4   6   55.40    5.04
  -6  -4  -7    0.34    0.71
   6   4   7    0.61    0.46
   6   4   7    0.04    1.00
  -6  -4  -7   -0.09    0.52
  -6  -4  -8    5.04    0.68
   6   4   8    4.63    1.20
  -6  -4  -8    6.13    1.08
   6   4   9   18.63    2.24
  -6  -4  -9   19.78    2.09
   6   4  10   44.26    4.27
  -6  -4 -11    3.90    0.92
   6   4  11    3.07    1.21
  -6  -4 -12    0.67    0.86
   6   4  12    2.03    1.27
  -6  -4 -13    0.14    0.74
  -6  -4 -14    0.43    0.87
   6   4  14    1.18    1.38
   6   4  15    0.51    1.32
  -6  -4 -15   -0.29    0.79
   6   4  16   11.02    1.83
  -6  -4 -16    8.81    1.46
  -6  -4 -17    0.41    1.01
   6   4  17    1.38    1.27
  -6  -4 -18    1.63    1.03
   6   4  18    3.29    1.33
  -6  -4 -19    1.00    0.99
   6   5 -15    1.76    1.16
  -6  -5  15    3.19    1.47
   6   5 -14   16.63    2.11
  -6  -5  14   16.87    2.24
   6   5 -13    0.86    1.01
  -6  -5  13    1.33    1.49
   6   5 -12   21.17    2.41
  -6  -5  12   23.95    2.66
   6   5 -11    4.35    1.20
   6   5 -10    3.34    1.05
  -6  -5  10    3.12    1.44
   6   5  -9    1.44    0.90
  -6  -5   9    0.90    1.35
   6   5  -8    3.95    1.04
  -6  -5   8    5.23    1.52
   6   5  -6  117.09   11.07
  -6  -5   6  146.66   11.20
  -6  -5   5  127.78    9.91
   6   5  -5  138.24    9.90
  -6  -5   5  122.52    9.87
   6   5  -4    4.72    0.99
  -6  -5   4    7.89    1.20
   6   5  -4    7.04    1.06
  -6  -5   3    8.34    1.15
   6   5  -3    7.24    1.03
   6   5  -3    4.94    1.06
  -6  -5   3    6.42    1.53
  -6  -5   3    5.49    0.76
  -6  -5   2    0.55    0.49
   6   5  -2    0.50    0.70
  -6  -5   2    0.56    0.72
   6   5  -2    0.70    0.60
  -6  -5   2    0.72    1.27
  -6  -5   1    1.35    0.52
  -6  -5   1    0.53    0.70
   6   5  -1    0.69    0.57
   6   5  -1    0.50    0.76
  -6  -5   1    1.16    1.26
  -6  -5   0   73.68    5.51
   6   5   0   72.49    5.44
   6   5   0   53.67    5.47
  -6  -5   0   53.49    5.39
  -6  -5   0   57.67    5.32
  -6  -5  -1   13.46    1.55
   6   5   1   13.58    1.42
   6   5   1   11.79    1.59
  -6  -5  -1    9.72    1.53
  -6  -5  -1   11.07    1.39
  -6  -5  -2    4.65    0.95
   6   5   2    3.98    0.81
   6   5   2    3.86    1.13
  -6  -5  -2    2.53    1.09
  -6  -5  -3   25.61    2.34
   6   5   3   28.04    2.29
  -6  -5  -3   21.34    2.36
   6   5   3   19.70    2.50
  -6  -5  -3   19.79    2.32
  -6  -5  -4   26.05    2.26
   6   5   4   26.02    2.16
  -6  -5  -4   18.84    2.19
   6   5   4   17.81    2.42
  -6  -5  -4   19.57    2.28
  -6  -5  -5   69.67    5.56
   6   5   5   67.24    5.50
  -6  -5  -5   66.07    5.49
   6   5   5   49.37    5.65
  -6  -5  -5   59.46    5.63
  -6  -5  -6    5.29    0.87
  -6  -5  -6    3.72    1.02
   6   5   6    5.42    0.78
  -6  -5  -7   18.00    1.42
   6   5   7   18.24    1.37
  -6  -5  -8    0.74    0.72
   6   5   8   -0.09    0.97
  -6  -5  -8    0.22    0.25
   6   5   9   33.92    3.75
  -6  -5  -9   42.65    3.70
   6   5  10    4.61    1.25
  -6  -5 -11   28.18    2.82
   6   5  12   29.95    3.09
  -6  -5 -12   26.40    2.81
  -6  -5 -13    2.06    0.85
   6   5  13    0.83    1.21
  -6  -5 -14    0.18    0.76
   6   5  14    0.55    1.30
  -6  -5 -15    0.37    0.84
   6   5  15    1.13    1.30
  -6  -5 -16    4.17    1.17
   6   5  17    1.00    1.34
   6   5  18    2.70    1.38
  -6  -5 -18    3.71    1.10
   6   5  19    1.50    1.30
  -6  -5 -19    2.70    1.01
   6   6 -14    1.70    1.20
  -6  -6  14    2.60    1.54
  -6  -6  13   10.93    1.93
   6   6 -12    0.29    0.95
   6   6 -11    6.30    1.34
  -6  -6  11    8.74    1.66
   6   6 -10   14.14    1.82
  -6  -6  10   12.10    2.00
   6   6  -9    1.43    0.88
  -6  -6   9    0.71    1.41
   6   6  -8    1.89    0.94
  -6  -6   8    0.82    1.41
   6   6  -7    0.35    0.81
  -6  -6   7    0.71    1.32
   6   6  -6    0.25    0.76
   6   6  -5   16.49    1.92
   6   6  -4   34.89    3.03
   6   6  -4   26.89    2.95
  -6  -6   4   30.59    3.14
  -6  -6   3   12.75    1.43
  -6  -6   3   11.59    1.71
  -6  -6   2   12.90    1.52
   6   6  -2   14.01    1.46
  -6  -6   2   13.79    1.79
  -6  -6   2    9.18    1.24
  -6  -6   1    4.05    0.93
   6   6  -1    4.51    0.84
   6   6  -1    2.16    0.91
  -6  -6   1    3.82    1.31
  -6  -6   0   27.35    2.57
  -6  -6   0   32.68    2.75
   6   6   0   30.65    2.65
   6   6   0   25.70    2.76
  -6  -6  -1   50.73    4.51
  -6  -6  -1   55.69    4.63
   6   6   1   51.99    4.53
   6   6   1   46.51    4.65
  -6  -6  -1   47.41    4.53
  -6  -6  -2   43.42    4.17
  -6  -6  -2   56.79    4.28
   6   6   2   50.85    4.15
   6   6   2   39.41    4.31
  -6  -6  -2   40.85    4.13
  -6  -6  -3    3.03    0.85
  -6  -6  -3    4.10    0.91
   6   6   3    3.59    0.79
  -6  -6  -3    2.89    1.04
   6   6   3    4.17    1.19
  -6  -6  -4    7.69    1.43
  -6  -6  -4   13.32    1.42
   6   6   4   11.20    1.24
  -6  -6  -4    9.66    1.34
   6   6   4    9.60    1.54
  -6  -6  -5   17.98    2.33
  -6  -6  -5   29.09    2.38
   6   6   5   27.30    2.26
  -6  -6  -5   18.05    2.20
   6   6   5   23.95    2.52
  -6  -6  -6    0.04    0.84
   6   6   6    0.18    0.89
  -6  -6  -6   -0.12    0.68
   6   6   6    0.10    0.57
  -6  -6  -6    0.28    0.55
  -6  -6  -7   18.52    2.14
  -6  -6  -7   21.39    2.04
   6   6   7   22.23    1.94
  -6  -6  -8   16.45    1.93
   6   6   8   16.72    1.95
  -6  -6  -9   51.07    4.34
   6   6   9   41.58    4.31
  -6  -6 -10    0.09    0.76
  -6  -6 -11   14.79    1.80
   6   6  12    8.98    1.67
  -6  -6 -12   12.40    1.57
   6   6  13    2.89    1.25
  -6  -6 -14   -0.13    0.77
   6   6  14    0.36    1.10
  -6  -6 -15    3.49    0.99
   6   6  15    4.79    1.38
  -6  -6 -16    1.41    0.83
   6   6  16    2.06    1.33
  -6  -6 -17    0.78    0.79
   6   6  17    0.19    1.24
   6   6  18    1.34    1.29
  -6  -6 -18    1.35    0.88
  -6  -6 -19    1.09    0.88
   6   7 -13    0.22    1.20
   6   7 -12   -0.16    1.13
  -6  -7  12    1.11    1.54
   6   7 -11   -0.52    1.16
  -6  -7  11    0.88    1.55
  -6  -7  10   19.49    2.50
  -6  -7   9   15.30    2.17
   6   7  -8    6.30    1.31
  -6  -7   8    5.17    1.58
   6   7  -7    0.38    0.94
  -6  -7   6    4.96    1.50
   6   7  -6    3.83    1.03
  -6  -7   5    0.80    1.39
   6   7  -5    0.53    0.81
   6   7  -4   39.17    3.86
  -6  -7   4   44.54    4.07
   6   7  -3    2.54    0.89
  -6  -7   3    3.96    1.46
  -6  -7   2   19.31    2.09
   6   7  -2   23.90    2.31
   6   7  -2   22.87    2.33
  -6  -7   2   25.81    2.55
  -6  -7   1   57.66    5.32
  -6  -7   1   63.78    5.54
   6   7  -1   67.84    5.48
   6   7  -1   55.92    5.48
  -6  -7   1   64.11    5.57
  -6  -7   0  134.55   12.36
  -6  -7   0  161.20   12.57
   6   7   0  144.86   12.45
   6   7   0  134.25   12.51
  -6  -7   0  166.75   12.52
  -6  -7  -1   37.50    3.36
  -6  -7  -1   38.26    3.49
   6   7   1   35.87    3.38
   6   7   1   40.35    3.59
  -6  -7  -1   29.11    3.42
  -6  -7  -2   23.56    2.35
  -6  -7  -2   29.18    2.52
   6   7   2   25.90    2.36
  -6  -7  -3   30.58    3.27
  -6  -7  -3   38.98    3.39
   6   7   3   36.73    3.23
  -6  -7  -3   33.63    3.26
  -6  -7  -4    2.51    0.86
  -6  -7  -4    4.97    1.02
   6   7   4    4.38    0.80
  -6  -7  -4    5.32    1.01
   6   7   4    4.14    1.20
   6   7   5    1.47    0.98
  -6  -7  -5    0.80    0.78
  -6  -7  -5    0.56    0.82
   6   7   5    0.69    0.58
  -6  -7  -5    1.25    0.85
  -6  -7  -6   47.13    4.72
  -6  -7  -6   69.64    4.74
   6   7   6   62.74    4.61
  -6  -7  -6   42.55    4.40
   6   7   6   49.90    4.81
  -6  -7  -7   10.78    1.52
   6   7   7   10.97    1.52
  -6  -7  -8    5.80    1.13
   6   7   8    5.02    1.15
   6   7   9   -0.38    0.84
  -6  -7 -10   13.56    1.66
   6   7  10   10.74    1.65
  -6  -7 -11    1.04    0.79
   6   7  11    0.53    0.98
  -6  -7 -12   -0.27    0.69
   6   7  12    0.78    1.06
  -6  -7 -13    2.50    0.93
   6   7  13    2.36    1.21
   6   7  14    3.41    1.29
  -6  -7 -15    1.17    0.86
   6   7  16   11.54    1.81
  -6  -7 -16   10.32    1.54
  -6  -7 -17    0.49    0.81
   6   7  17    0.55    1.20
  -6  -7 -18    3.43    1.00
   6   7  18    2.52    1.30
  -6  -7 -19    1.95    0.94
   6   7  19    0.82    1.18
   6   8 -12    5.17    1.43
  -6  -8  12    5.29    1.70
   6   8 -11    8.07    1.70
  -6  -8  11    9.38    1.88
   6   8 -10    1.59    1.24
  -6  -8  10    2.30    1.54
   6   8  -9    5.75    1.45
  -6  -8   9    8.42    1.79
   6   8  -8    8.82    1.60
   6   8  -7    4.77    1.32
  -6  -8   7    8.54    1.68
  -6  -8   6    4.65    1.59
   6   8  -6    3.49    1.21
  -6  -8   5   -0.75    1.45
   6   8  -4    0.32    0.89
  -6  -8   4    1.08    1.49
   6   8  -3    0.78    0.86
  -6  -8   3    2.18    1.48
   6   8  -2    1.61    0.86
  -6  -8   2    1.06    0.62
  -6  -8   1    0.27    0.65
   6   8  -1    0.14    0.89
  -6  -8   1    1.87    1.49
  -6  -8   0   75.43    7.21
   6   8   0   90.09    7.36
   6   8   0   73.55    7.35
  -6  -8  -1   23.76    2.69
  -6  -8  -1   31.10    2.96
   6   8   1   30.46    2.78
   6   8   1   27.56    2.94
  -6  -8  -1   30.85    2.98
  -6  -8  -2  116.71   11.16
  -6  -8  -2  137.18   11.30
   6   8   2  138.78   11.21
   6   8   2  114.85   11.31
  -6  -8  -2  149.89   11.24
  -6  -8  -3   27.99    3.37
  -6  -8  -3   46.74    3.59
   6   8   3   42.49    3.46
   6   8   3   31.81    3.59
  -6  -8  -4    1.71    0.89
  -6  -8  -4    2.21    0.84
  -6  -8  -4    2.07    0.96
   6   8   4    2.26    1.12
   6   8   5    1.77    1.13
  -6  -8  -5    2.39    0.92
  -6  -8  -5    3.44    0.91
   6   8   5    2.44    0.76
  -6  -8  -5    3.03    0.92
  -6  -8  -6    2.33    0.93
  -6  -8  -6    2.78    0.90
   6   8   6    2.27    0.75
  -6  -8  -7   19.26    2.15
  -6  -8  -9    0.64    0.84
   6   8   9    0.76    0.94
  -6  -8 -10    0.09    0.75
   6   8  10   -0.20    0.91
  -6  -8 -11    0.85    0.80
   6   8  11    1.74    1.04
  -6  -8 -12    1.53    0.91
   6   8  12    1.28    1.04
  -6  -8 -13    3.25    0.97
   6   8  13    4.06    1.26
  -6  -8 -14    1.15    0.83
   6   8  14    0.30    1.20
  -6  -8 -15    6.84    1.20
   6   8  15    4.39    1.40
  -6  -8 -16    3.34    1.01
   6   8  16    2.83    1.33
  -6  -8 -17    0.32    0.83
   6   8  17    0.97    1.16
  -6  -8 -18    2.98    0.95
   6   8  18    2.67    1.31
   6   9 -11   17.44    2.33
   6   9 -10   24.63    2.94
  -6  -9   9   36.75    3.81
   6   9  -8   58.77    5.94
  -6  -9   8   69.67    5.99
   6   9  -7    1.34    1.20
  -6  -9   7    0.33    1.59
   6   9  -6    3.80    1.33
  -6  -9   6    4.50    1.72
  -6  -9   5    3.49    1.71
   6   9  -5    3.16    1.18
   6   9  -4    4.18    1.21
  -6  -9   4    3.89    1.68
   6   9  -3    6.43    1.29
   6   9  -2    4.67    1.14
  -6  -9   1    0.69    0.80
  -6  -9   1    2.52    1.63
  -6  -9   0    1.59    0.88
  -6  -9   0    4.67    1.72
  -6  -9  -1    0.21    0.84
   6   9   1    0.78    1.02
  -6  -9  -1    2.02    1.51
  -6  -9  -2   -0.34    0.89
   6   9   2    0.26    1.04
  -6  -9  -3    1.27    0.85
   6   9   3    1.50    0.82
   6   9   3    1.40    1.00
  -6  -9  -3    2.91    1.38
  -6  -9  -4    9.11    1.31
   6   9   4    6.84    1.19
  -6  -9  -4    4.23    1.21
  -6  -9  -4    9.99    1.43
   6   9   4    6.92    1.40
  -6  -9  -5    3.16    1.05
  -6  -9  -5    4.82    1.06
   6   9   5    3.63    0.93
   6   9   5    3.77    1.18
   6   9   6    4.43    1.12
  -6  -9  -6    4.88    1.12
   6   9   7    5.46    1.23
  -6  -9  -7    4.52    1.09
   6   9   8   -0.15    0.84
  -6  -9  -8    0.18    0.75
  -6  -9  -9    7.22    1.21
   6   9   9    4.08    1.18
  -6  -9 -10    0.36    0.74
   6   9  10   -0.10    0.96
  -6  -9 -11    1.01    0.76
   6   9  11    0.32    0.94
  -6  -9 -12    0.05    0.85
  -6  -9 -13    9.70    1.53
  -6  -9 -14    0.98    0.83
   6   9  14    0.12    1.10
  -6  -9 -15    3.98    1.06
   6   9  15    1.90    1.26
  -6  -9 -16    2.47    0.97
   6   9  16    0.86    1.21
  -6  -9 -17    9.90    1.49
   6   9  17    6.72    1.59
  -6  -9 -18    1.46    0.97
   6   9  18    0.95    1.16
   6  10 -10   15.75    2.28
   6  10  -9   15.19    2.28
  -6 -10   9   20.05    2.43
   6  10  -8    4.40    1.52
  -6 -10   8    5.51    1.70
   6  10  -7   33.00    3.64
  -6 -10   7   36.64    3.74
   6  10  -6   61.00    6.36
  -6 -10   6   77.35    6.42
  -6 -10   4    7.35    1.85
   6  10  -4    4.60    1.43
   6  10  -3    0.48    1.08
  -6 -10   3    1.04    1.68
   6  10  -2   20.64    2.64
  -6 -10   2   34.26    3.12
   6  10  -1    0.88    1.04
  -6 -10   1    2.03    1.58
   6  10   0    1.57    1.05
  -6 -10   0    1.52    1.02
  -6 -10   0    1.37    1.57
  -6 -10  -1    0.54    0.98
   6  10   1    0.76    1.02
  -6 -10  -1    2.26    1.63
  -6 -10  -2    1.14    1.01
   6  10   2    1.24    1.07
  -6 -10  -2    2.54    1.56
  -6 -10  -3    2.45    1.12
   6  10   3    3.95    1.22
  -6 -10  -3    6.09    1.59
  -6 -10  -5    3.97    1.22
  -6 -10  -6   10.57    1.58
   6  10   6    6.76    1.49
   6  10   7    1.58    1.01
  -6 -10  -7    3.77    1.10
   6  10   8    1.37    0.96
  -6 -10  -8    1.58    0.93
   6  10   9    2.92    1.11
  -6 -10  -9    2.68    1.07
   6  10  10    2.94    1.11
  -6 -10 -10    4.04    1.09
  -6 -10 -11    1.74    0.95
   6  10  11    1.78    1.08
  -6 -10 -12    6.55    1.31
   6  10  12    4.19    1.25
  -6 -10 -13    3.28    1.07
   6  10  13    2.38    1.19
  -6 -10 -14    1.40    0.94
   6  10  14    0.78    1.25
  -6 -10 -15    9.46    1.49
   6  10  15    8.00    1.66
  -6 -10 -16    4.63    1.14
   6  10  16    3.19    1.36
  -6 -10 -17    1.96    0.97
   6  11  -8    1.86    1.49
  -6 -11   6   14.82    2.19
   6  11  -6    8.34    1.81
   6  11  -5    2.23    1.38
  -6 -11   5    3.57    1.73
  -6 -11   4    0.82    1.68
   6  11  -4   -0.12    1.19
  -6 -11   3    3.27    1.78
   6  11  -3    0.53    1.18
   6  11  -2   15.18    2.21
  -6 -11   2   26.35    2.78
   6  11   0    4.56    1.38
  -6 -11   0   10.39    2.15
   6  11   1    2.12    1.13
  -6 -11  -1    4.17    1.17
  -6 -11  -1    5.99    1.89
  -6 -11  -2   -0.22    1.01
   6  11   2   -0.34    1.09
  -6 -11  -2    0.60    1.76
  -6 -11  -3   -0.06    1.06
   6  11   3    0.56    1.16
  -6 -11  -4   16.00    1.97
   6  11   4   10.39    1.82
  -6 -11  -5   -0.35    1.08
   6  11   5   -0.17    1.06
  -6 -11  -6    0.18    1.10
   6  11   6    0.62    1.05
  -6 -11  -7    1.40    1.17
   6  11   7    0.62    1.12
   6  11   8    4.85    1.37
  -6 -11  -8    6.34    1.36
   6  11   9    0.62    1.07
  -6 -11  -9    2.70    1.18
  -6 -11 -10    0.54    0.96
  -6 -11 -11    4.45    1.18
  -6 -11 -12   10.77    1.51
   6  11  12    4.66    1.45
  -6 -11 -13    0.55    0.95
   6  11  13    0.35    1.10
  -6 -11 -14    5.82    1.25
   6  11  14    2.72    1.33
  -6 -11 -15    0.24    0.94
   6  11  15   -0.49    1.28
  -6 -11 -16   -0.10    0.90
   6  11  16   -0.18    1.15
   6  12  -6    1.98    1.39
   6  12  -5    1.37    1.45
  -6 -12   5   10.79    1.95
   6  12  -4    4.05    1.56
  -6 -12   4   11.46    2.02
  -6 -12   3    5.63    1.87
   6  12  -2    3.96    1.44
  -6 -12   2    8.09    1.88
   6  12  -1    0.22    1.17
  -6 -12   1    0.80    1.76
   6  12   0    5.79    1.52
  -6 -12   0   12.01    2.10
   6  12   1   18.38    2.24
   6  12   2    0.84    1.17
  -6 -12  -2    2.18    1.12
  -6 -12  -3   -0.18    1.06
   6  12   3    0.11    1.10
  -6 -12  -4   17.12    2.19
  -6 -12  -5    0.50    1.07
   6  12   5   -0.17    1.07
  -6 -12  -6   16.15    1.92
   6  12   6    6.48    1.65
  -6 -12  -7    2.02    1.22
   6  12   7    0.70    1.19
  -6 -12  -8    0.31    1.18
   6  12   8    1.23    1.19
  -6 -12  -9    5.86    1.41
   6  12   9    2.77    1.32
   6  12  10   -0.18    1.16
  -6 -12 -10    4.43    1.24
  -6 -12 -11   36.94    2.75
   6  12  11    9.77    2.32
   6  12  12    1.11    1.27
  -6 -12 -12    0.88    0.97
   6  12  13    0.12    1.23
  -6 -12 -13    1.06    0.99
  -6 -12 -14    2.97    1.06
   6  12  14    1.50    1.27
  -6 -13   2    1.77    1.64
   6  13  -2   -0.47    1.19
   6  13  -1    1.52    1.24
   6  13   0    0.11    1.08
   6  13   1    0.23    1.05
   6  13   3    1.84    1.22
  -6 -13  -4    1.88    1.15
   6  13   4    0.98    1.14
  -6 -13  -5   -0.26    1.15
   6  13   5    0.11    1.11
   6  13   6    0.23    1.09
  -6 -13  -7   -0.72    1.27
   6  13   7    1.42    1.18
  -6 -13  -8    6.75    1.56
   6  13   8    2.65    1.30
  -6 -13  -9    0.84    1.28
   6  13   9    0.91    1.18
   6  13  10    0.44    1.27
  -6 -13 -11    1.50    1.18
  -6 -13 -12   -0.46    1.08
   6  14   3    0.99    1.05
   6  14   4    0.77    1.11
  -6 -14  -5    0.13    1.15
   6  14   5   -1.20    1.10
  -6 -14  -6    0.32    1.11
   6  14   6    0.29    1.13
  -6 -14  -7    1.67    1.25
   6  14   7    0.18    1.23
   7  -7 -11    0.77    1.37
   7  -7 -10   -0.37    1.23
  -7   7   9    0.86    1.20
   7  -7  -8    1.03    1.40
  -7   7   8    0.42    1.20
  -7   7   7    8.23    1.59
   7  -7  -7   10.80    2.10
  -7   7   6    9.35    1.62
   7  -7  -6   14.30    2.41
   7  -7  -5    6.39    2.00
  -7   7   4    1.90    1.21
   7  -7  -4    1.59    1.82
  -7   7   3    8.30    1.53
   7  -7  -3   13.25    2.64
  -7   7   2    0.07    1.07
   7  -7  -2   -0.57    2.04
   7  -7  -1    1.27    2.00
  -7   6  13    0.96    1.30
  -7   6  12   -0.43    1.27
   7  -6 -11    1.83    1.39
  -7   6  11    0.76    1.22
   7  -6 -10    5.29    1.55
  -7   6  10    3.93    1.46
  -7   6   9    6.24    1.48
   7  -6  -8    1.12    1.42
  -7   6   8    0.25    1.31
  -7   6   7    2.56    1.32
   7  -6  -7    2.33    1.54
  -7   6   6    1.23    1.24
   7  -6  -6    0.56    1.61
  -7   6   5   13.75    1.89
   7  -6  -5   11.77    2.42
  -7   6   4    1.88    1.21
   7  -6  -4    3.26    2.12
  -7   6   3    0.69    1.13
   7  -6  -3   -0.57    1.89
  -7   6   2   -0.34    1.15
   7  -6  -2    2.69    2.01
  -7   6   0    6.48    1.30
   7  -6   0    6.37    2.49
  -7   6  -1    2.53    1.07
   7  -6   1    1.51    2.10
  -7   6  -2    1.64    1.03
   7  -6   2    0.49    2.11
  -7   6  -3    6.39    1.19
   7  -6   3    3.52    2.24
  -7   6  -4    3.07    1.06
  -7   5  14    0.31    1.31
  -7   5  13    0.23    1.31
  -7   5  12    8.41    1.67
   7  -5 -11    4.52    1.59
  -7   5  11    4.37    1.35
   7  -5 -10    2.89    1.35
  -7   5  10    4.16    1.43
   7  -5  -9    0.29    1.25
  -7   5   9    0.24    1.23
   7  -5  -8   11.45    2.02
   7  -5  -7    0.85    1.58
  -7   5   7    0.79    1.30
  -7   5   6    2.61    1.36
   7  -5  -6    4.51    1.85
  -7   5   5    0.37    1.16
  -7   5   4    1.26    1.20
   7  -5  -4    1.19    1.86
  -7   5   3    1.03    1.12
   7  -5  -3    1.67    2.17
   7  -5  -2    7.68    2.45
  -7   5   1   10.75    1.65
   7  -5  -1    9.87    2.70
  -7   5   0    0.26    1.02
   7  -5   0   -1.30    2.04
  -7   5  -1    0.71    0.94
   7  -5   1   -0.13    2.07
  -7   5  -2   -0.33    0.93
   7  -5   2   -0.66    2.06
  -7   5  -3    0.49    0.95
   7  -5   3    0.89    2.08
   7  -5   4    1.72    2.12
  -7   5  -5    0.94    1.00
   7  -5   5    0.37    2.02
  -7   5  -6    3.05    1.11
   7  -5   6    3.10    2.22
  -7   5  -7    0.29    0.95
  -7   4  15    1.68    1.21
  -7   4  13    1.38    1.34
  -7   4  12    4.81    1.46
  -7   4  11    1.56    1.36
   7  -4 -10    4.25    1.41
  -7   4  10    4.05    1.35
   7  -4  -9    3.95    1.40
  -7   4   8   10.60    1.77
   7  -4  -7    2.46    1.46
  -7   4   7    1.67    1.26
  -7   4   6    2.68    1.32
   7  -4  -6    2.23    1.60
  -7   4   5   -0.52    1.12
   7  -4  -5    1.45    1.68
  -7   4   4    0.60    1.22
   7  -4  -4   -1.19    1.76
   7  -4  -3    5.13    2.29
  -7   4   2    1.48    1.08
   7  -4  -2    0.12    1.95
  -7   4   1    3.30    1.11
   7  -4  -1    0.40    2.21
  -7   4   0    0.66    1.01
  -7   4  -1    3.12    1.20
   7  -4   1    4.07    2.43
  -7   4  -2    0.22    1.08
   7  -4   2   -0.28    2.07
   7  -4   3    1.21    2.14
  -7   4  -4    2.88    1.11
   7  -4   4    2.07    2.27
  -7   4  -5    5.98    1.26
   7  -4   5    3.26    2.24
  -7   4  -6   12.38    1.57
   7  -4   6    3.78    2.29
  -7   4  -7    2.70    1.12
   7  -4   7    0.73    2.09
   7  -4   8    1.46    2.20
  -7   4  -9   -0.37    0.97
   7  -4   9    1.26    2.17
  -7   4 -10    0.50    1.05
   7  -3 -17    2.00    1.32
   7  -3 -16    0.57    1.23
  -7   3  16    0.37    1.27
   7  -3 -15    0.63    1.29
   7  -3 -14    8.33    1.63
  -7   3  14    8.83    1.61
   7  -3 -13    3.76    1.38
  -7   3  13    1.98    1.29
   7  -3 -12    4.54    1.38
  -7   3  12    4.30    1.37
  -7   3  11   16.58    2.12
   7  -3 -11   18.64    2.23
   7  -3 -10   19.18    2.12
   7  -3 -10   12.05    2.13
   7  -3  -9    1.37    1.33
  -7   3   9    1.35    1.22
   7  -3  -8    8.38    1.69
  -7   3   8    6.67    1.45
   7  -3  -7    0.31    1.44
  -7   3   7   -0.44    1.18
  -7   3   6   -0.39    1.24
   7  -3  -6   -0.17    1.49
  -7   3   5   13.86    1.86
  -7   3   3   -0.81    1.21
   7  -3  -3    1.55    1.81
  -7   3   2    9.16    1.48
   7  -3  -2    1.47    1.96
  -7   3   1    4.92    1.34
   7  -3  -1    3.07    2.64
  -7   3   0    8.38    1.49
   7  -3   0    6.47    2.71
  -7   3  -1    5.43    1.28
  -7   3  -2   -0.07    1.10
   7  -3   2   -1.11    2.12
  -7   3  -3    1.01    1.15
   7  -3   3   -0.81    2.13
  -7   3  -4    2.74    1.11
   7  -3   4    3.09    2.39
  -7   3  -5    4.55    1.17
   7  -3   5    4.28    2.32
  -7   3  -6    0.36    1.07
  -7   3  -7    2.23    1.11
   7  -3   7   -0.93    1.82
  -7   3  -8    4.66    1.19
   7  -3   8    3.11    2.03
  -7   3  -9    0.42    1.01
   7  -3   9   -1.06    1.99
  -7   3 -10    0.20    0.99
   7  -3  10    0.12    2.17
   7  -3  11   -0.67    2.28
  -7   3 -12    1.24    1.06
   7  -2 -17    0.58    1.32
  -7   2  17    0.22    1.21
   7  -2 -16    1.05    1.32
   7  -2 -15    0.35    1.27
  -7   2  15    1.54    1.18
  -7   2  14    1.98    1.31
  -7   2  13    4.25    1.29
   7  -2 -12   30.91    2.79
  -7   2  12   18.89    2.42
   7  -2 -11    5.89    1.37
  -7   2  10    9.83    1.60
   7  -2  -9    8.90    1.59
  -7   2   9   10.43    1.48
   7  -2  -9    5.77    1.55
   7  -2  -8   -0.17    0.99
   7  -2  -8    0.40    1.20
  -7   2   8    0.59    1.13
   7  -2  -7    1.80    1.05
  -7   2   7    1.21    1.14
   7  -2  -6   17.52    1.76
   7  -2  -6   12.46    1.78
  -7   2   6   15.16    1.82
   7  -2  -5   16.02    1.67
  -7   2   5   11.18    1.52
   7  -2  -5   15.65    1.78
   7  -2  -5    9.72    2.20
  -7   2   4    3.56    1.26
   7  -2  -4    2.25    1.82
  -7   2   3   -0.40    1.12
   7  -2  -3   -0.11    1.96
  -7   2   2    0.62    1.11
   7  -2  -2    0.12    2.15
  -7   2   1   -0.48    1.21
   7  -2  -1   -0.91    2.35
  -7   2   0    0.89    1.16
   7  -2   0    1.37    2.08
  -7   2  -1    3.49    1.16
   7  -2   1    0.55    2.22
   7  -2   2   -0.53    2.04
  -7   2  -3    0.50    1.12
   7  -2   3    0.38    1.99
  -7   2  -4    0.11    1.11
   7  -2   4    1.19    1.94
  -7   2  -5   -0.28    1.02
   7  -2   5    0.56    1.74
  -7   2  -6    4.34    1.17
   7  -2   6    1.74    1.79
  -7   2  -8    3.56    1.10
   7  -2   8   -1.18    1.73
  -7   2  -9    0.45    1.01
   7  -2   9    0.11    1.67
  -7   2 -10    0.50    0.97
   7  -2  10    2.99    1.99
  -7   2 -11    0.22    0.98
   7  -2  11    2.09    2.31
  -7   2 -12    1.10    1.02
   7  -2  12    0.54    2.29
   7  -1 -17    6.63    1.58
  -7   1  17    5.47    1.59
   7  -1 -16    8.69    1.75
  -7   1  16    6.27    1.56
   7  -1 -15    8.43    1.72
  -7   1  15    6.10    1.56
   7  -1 -14    3.06    1.41
  -7   1  14    2.05    1.34
   7  -1 -13    2.64    1.34
  -7   1  13    2.83    1.31
   7  -1 -12    2.05    1.27
   7  -1 -11   24.30    2.50
  -7   1  11   17.70    2.26
   7  -1 -10    5.91    1.38
  -7   1  10    3.19    1.18
   7  -1  -9    9.45    1.53
  -7   1   9    5.69    1.42
   7  -1  -8    0.27    1.05
   7  -1  -8    0.60    1.13
  -7   1   8    0.03    1.04
   7  -1  -7   13.04    1.69
  -7   1   7   12.47    1.67
   7  -1  -7    9.12    1.84
  -7   1   6    0.52    0.73
   7  -1  -6    1.65    0.99
   7  -1  -6   -1.05    1.42
  -7   1   5   -0.31    0.70
   7  -1  -5    0.97    0.91
   7  -1  -5    0.07    0.92
  -7   1   5    0.83    0.97
   7  -1  -5    1.53    1.53
  -7   1   4   17.45    1.86
   7  -1  -4   20.22    2.03
   7  -1  -4   18.63    2.00
  -7   1   4   18.96    2.12
   7  -1  -3   -0.49    0.70
   7  -1  -3    0.43    0.84
  -7   1   3    0.07    1.12
   7  -1  -3    1.30    1.96
  -7   1   2    4.95    0.89
   7  -1  -2    5.30    1.03
  -7   1   2    5.12    1.27
   7  -1  -2    6.17    1.04
   7  -1  -2    2.47    2.26
  -7   1   1    0.52    1.11
   7  -1  -1    2.24    0.82
   7  -1  -1   -0.61    1.95
  -7   1   0    0.18    1.23
   7  -1   0    0.87    0.76
   7  -1   0    0.13    2.03
   7  -1   1   -1.65    2.44
  -7   1  -2    1.14    1.25
  -7   1  -3    6.17    1.33
   7  -1   3    2.73    2.27
   7  -1   4    4.83    2.04
  -7   1  -5    2.22    1.21
   7  -1   5   -0.43    1.70
   7  -1   6    0.21    1.67
  -7   1  -7   13.50    1.69
   7  -1   7    8.60    2.29
  -7   1  -8    1.34    0.96
   7  -1   8    0.81    1.60
  -7   1  -9    5.00    1.12
   7  -1   9    2.39    1.75
   7  -1  10    0.22    1.74
  -7   1 -11    0.98    0.92
   7  -1  11    0.93    2.10
  -7   1 -12    0.66    0.97
   7  -1  12    0.38    2.09
   7  -1  13    4.38    2.64
   7   0 -17    0.48    1.25
  -7   0  17    1.65    1.45
   7   0 -16   16.39    2.09
  -7   0  16   13.50    2.04
   7   0 -15    1.47    1.24
  -7   0  15   -0.08    1.31
   7   0 -14    9.44    1.67
  -7   0  14    6.23    1.58
  -7   0  12   -0.04    1.18
   7   0 -11   17.64    2.07
  -7   0  11   11.98    1.88
   7   0 -10    2.14    1.25
  -7   0  10    2.58    1.13
  -7   0   9    1.47    1.15
   7   0  -8    0.18    1.00
  -7   0   8    1.08    1.13
   7   0  -7    1.67    1.11
   7   0  -7    0.17    1.12
  -7   0   6   14.77    1.79
   7   0  -6   17.87    1.95
   7   0  -6   21.22    2.05
  -7   0   6   14.61    1.89
  -7   0   5   10.82    1.44
   7   0  -5   14.28    1.62
   7   0  -5   16.83    1.74
  -7   0   5    9.99    1.60
   7   0  -5    4.78    1.84
  -7   0   4   -0.31    0.70
  -7   0   4   -0.29    0.98
   7   0  -4   -0.32    1.07
   7   0  -4    0.39    1.58
   7   0  -3    2.60    0.86
  -7   0   3    1.23    1.01
   7   0  -3    2.28    1.14
   7   0  -3    2.42    1.88
  -7   0   2    0.06    0.64
   7   0  -2    0.31    0.70
  -7   0   2    0.06    1.06
   7   0  -2   -0.80    1.99
   7   0  -2    0.36    1.04
  -7   0   1   11.76    1.34
   7   0  -1   11.26    1.39
  -7   0   1   10.95    1.64
   7   0  -1   10.04    2.69
  -7   0   0   19.50    2.02
   7   0   0   26.03    2.38
   7   0   1    5.60    1.30
  -7   0  -1    6.09    1.37
   7   0   1    3.51    2.42
   7   0   2    5.29    1.31
  -7   0  -2    2.77    1.24
   7   0   2    1.43    2.25
   7   0   3    0.97    1.30
  -7   0  -3    0.58    1.22
   7   0   4    5.11    1.70
  -7   0  -4    3.26    1.28
   7   0   4    1.05    1.70
  -7   0  -5    4.66    1.26
   7   0   5    1.88    1.75
  -7   0  -6    1.08    1.15
  -7   0  -7    7.68    1.36
  -7   0  -8    0.62    0.91
  -7   0 -10    2.57    0.90
  -7   0 -11    0.03    0.86
  -7   0 -12    0.86    0.88
   7   0  14    0.29    2.55
   7   0  15    0.47    2.76
  -7  -1  17    3.16    1.55
   7   1 -16    3.83    1.26
  -7  -1  16    3.68    1.60
   7   1 -15    5.90    1.44
  -7  -1  15    4.60    1.57
   7   1 -14    1.72    1.14
   7   1 -13   -0.05    1.08
  -7  -1  13   -0.47    1.27
   7   1 -12    0.10    0.99
  -7  -1  12   -0.34    1.34
   7   1 -11    1.20    1.06
  -7  -1  11    0.95    1.20
   7   1 -10    2.60    1.13
  -7  -1  10    2.17    1.22
   7   1  -9    0.38    1.02
  -7  -1   9    0.85    1.11
   7   1  -8    5.50    1.27
   7   1  -7   20.79    2.18
  -7  -1   7   14.93    2.01
   7   1  -6    8.91    1.24
  -7  -1   6    6.06    1.15
  -7  -1   6    7.10    1.32
  -7  -1   5    1.72    0.83
   7   1  -5    1.48    0.88
   7   1  -5    0.68    1.20
  -7  -1   5    1.71    1.17
   7   1  -5    2.58    1.10
  -7  -1   4   18.85    1.92
   7   1  -4   18.71    1.99
   7   1  -4   23.02    2.26
  -7  -1   4   16.72    2.02
   7   1  -3    6.74    1.08
  -7  -1   3    4.86    1.17
   7   1  -3    2.92    1.81
   7   1  -3    8.93    1.38
  -7  -1   2    1.34    0.71
   7   1  -2    1.86    0.79
  -7  -1   2    1.50    1.12
   7   1  -2    0.26    1.80
   7   1  -2    0.91    1.02
   7   1  -1    3.54    1.23
  -7  -1   1    3.19    0.79
   7   1  -1    3.35    0.85
   7   1   0   -0.14    1.13
  -7  -1   0    0.25    0.63
  -7  -1   0    0.34    1.11
   7   1   0   -1.58    2.29
   7   1   1    3.03    1.27
   7   1   1    2.20    0.76
  -7  -1  -1    1.91    1.19
   7   1   2    0.38    1.35
  -7  -1  -2    0.27    1.26
   7   1   3    4.14    1.58
  -7  -1  -3    1.80    1.18
  -7  -1  -4    5.35    1.37
  -7  -1  -5    1.09    1.15
   7   1   5    2.38    1.64
  -7  -1  -6   11.76    1.70
   7   1   6   16.34    2.17
   7   1   7    1.89    1.34
  -7  -1  -7    1.46    1.01
   7   1   8   -0.05    1.12
  -7  -1  -8    0.54    0.84
   7   1   9    1.11    1.07
  -7  -1 -10   17.72    1.89
   7   1  10   18.34    2.12
  -7  -1 -11    3.14    0.97
   7   2 -16    1.70    1.16
  -7  -2  16    1.36    1.47
  -7  -2  14    3.57    1.65
   7   2 -13   -0.15    0.94
  -7  -2  13    0.59    1.38
   7   2 -12    1.11    1.02
  -7  -2  12   -0.40    1.41
   7   2 -11   -1.58    1.02
  -7  -2  11    0.44    1.37
   7   2 -10    6.50    1.34
  -7  -2  10    7.25    1.60
   7   2  -9    4.18    1.13
   7   2  -8    9.27    1.46
  -7  -2   8    9.99    1.71
   7   2  -7    0.57    0.96
  -7  -2   7   -0.61    1.22
   7   2  -6    0.10    0.71
  -7  -2   6    0.62    1.21
   7   2  -6    0.67    1.01
  -7  -2   5    0.67    0.74
   7   2  -5    0.84    0.81
   7   2  -5    0.04    0.89
  -7  -2   5    0.24    1.17
   7   2  -5   -0.22    1.00
  -7  -2   4    3.48    0.96
   7   2  -4    4.43    0.98
  -7  -2   4    2.79    1.13
   7   2  -4    0.66    1.24
   7   2  -4    4.54    1.21
   7   2  -3   -0.04    1.02
  -7  -2   3    1.23    0.80
   7   2  -3    1.00    0.82
  -7  -2   3    0.61    1.03
   7   2  -3    0.77    1.36
   7   2  -2    6.21    1.24
   7   2  -2    8.80    1.16
  -7  -2   2    5.56    1.07
   7   2  -2    3.69    1.85
  -7  -2   1    1.01    0.82
   7   2  -1    1.58    0.79
  -7  -2   1   -0.52    1.04
   7   2  -1    0.19    2.02
   7   2   0    1.29    1.23
  -7  -2   0    1.41    0.71
   7   2   0    0.97    0.70
  -7  -2   0    1.02    1.12
  -7  -2  -1    0.62    0.78
   7   2   1    1.10    0.74
   7   2   1    1.23    1.16
  -7  -2  -1    1.43    1.03
  -7  -2  -2   -0.32    0.65
   7   2   2    0.27    0.64
   7   2   2    1.73    1.30
  -7  -2  -2    0.40    1.14
  -7  -2  -3    1.49    0.69
   7   2   3    1.82    0.64
   7   2   3    3.69    1.59
  -7  -2  -3    0.56    1.17
  -7  -2  -4    4.60    1.36
   7   2   4    7.94    1.72
  -7  -2  -5    2.46    0.94
  -7  -2  -5    4.93    1.18
   7   2   5    5.68    1.55
  -7  -2  -6   11.67    1.62
   7   2   6   13.90    1.98
  -7  -2  -7    0.47    0.73
   7   2   7    0.10    1.15
  -7  -2  -7    1.01    0.97
  -7  -2  -8    0.40    0.78
  -7  -2  -9    0.14    0.79
   7   2   9    0.62    1.02
  -7  -2  -9    0.47    0.71
  -7  -2 -10    2.76    0.96
   7   2  10    3.74    1.16
  -7  -2 -10    4.21    0.84
   7   2  11    9.11    1.54
  -7  -2 -12    3.62    1.00
   7   2  12    4.36    1.28
   7   2  13    1.45    1.23
   7   3 -16   11.89    1.72
   7   3 -15    1.13    1.09
  -7  -3  15    2.97    1.58
   7   3 -14   -0.43    0.95
  -7  -3  14    1.45    1.33
   7   3 -13    1.19    1.02
  -7  -3  13    1.26    1.45
   7   3 -12    1.32    0.97
  -7  -3  12    1.61    1.44
   7   3 -11    1.96    1.03
  -7  -3  11    1.36    1.35
   7   3 -10    0.68    0.86
  -7  -3   9    4.90    1.47
  -7  -3   8    1.10    1.38
  -7  -3   7   14.40    1.98
   7   3  -6    3.16    0.95
  -7  -3   6    2.20    1.28
   7   3  -6    1.42    0.98
  -7  -3   5    0.65    0.79
   7   3  -5    0.48    0.77
   7   3  -5    0.91    0.67
  -7  -3   5    1.24    1.14
   7   3  -5    1.02    0.99
  -7  -3   4    1.21    0.85
   7   3  -4    1.71    0.83
  -7  -3   4    1.69    1.28
   7   3  -4    1.14    0.93
   7   3  -4    0.37    0.90
   7   3  -3    5.09    1.14
  -7  -3   3    5.31    1.06
   7   3  -2    0.20    0.93
   7   3  -2    0.52    0.78
  -7  -3   2    0.27    1.11
   7   3  -1    0.24    0.94
  -7  -3   1    0.45    0.75
   7   3  -1    0.10    0.73
  -7  -3   1    0.80    0.99
  -7  -3   0    1.25    0.75
   7   3   0    0.83    0.74
   7   3   0    0.97    1.07
  -7  -3   0    0.39    0.93
  -7  -3  -1    3.77    0.87
  -7  -3  -1    3.81    0.87
   7   3   1    4.55    0.81
   7   3   1    3.37    1.17
  -7  -3  -1    3.58    1.17
  -7  -3  -2    1.94    0.86
  -7  -3  -2    4.43    0.87
   7   3   2    4.53    0.81
   7   3   2    4.10    1.33
  -7  -3  -2    4.56    1.20
  -7  -3  -3   27.53    2.60
   7   3   3   27.80    2.56
  -7  -3  -3   31.68    2.91
   7   3   3   23.66    2.98
  -7  -3  -3   26.82    2.71
  -7  -3  -4    4.94    1.11
  -7  -3  -4    4.61    0.86
   7   3   4    5.47    0.82
  -7  -3  -4    4.80    1.28
  -7  -3  -5    0.95    0.92
  -7  -3  -5    3.92    1.15
   7   3   5    3.83    1.26
  -7  -3  -6   32.61    3.09
   7   3   6   34.82    3.34
  -7  -3  -6   29.44    3.13
  -7  -3  -7   -0.22    0.77
   7   3   7    1.04    1.24
  -7  -3  -8    3.53    0.97
   7   3   8    1.44    1.08
  -7  -3  -8    2.92    0.75
  -7  -3  -9    3.15    0.99
   7   3   9    3.20    1.19
  -7  -3  -9    2.94    0.76
   7   3  10   17.06    2.04
  -7  -3 -10   13.97    1.86
  -7  -3 -11    9.88    1.48
   7   3  13   12.60    1.96
  -7  -3 -13    8.60    1.41
  -7  -3 -14    1.33    0.93
   7   3  14    0.26    1.36
  -7  -3 -15   -0.46    0.94
   7   3  15   -0.07    1.35
  -7  -3 -16   -0.80    0.92
   7   3  16    2.11    1.31
   7   4 -15   -0.51    0.96
  -7  -4  15    0.72    1.43
   7   4 -14    1.17    1.02
  -7  -4  14    1.42    1.50
   7   4 -13    1.63    1.02
  -7  -4  13    1.66    1.47
   7   4 -12    3.38    1.13
  -7  -4  12    5.46    1.61
   7   4 -11    3.86    1.06
   7   4 -10    1.00    0.97
  -7  -4  10    1.96    1.45
   7   4  -9    2.82    0.98
  -7  -4   9    2.71    1.33
   7   4  -8    2.28    0.94
  -7  -4   8    3.32    1.41
   7   4  -7   27.50    2.68
  -7  -4   7   23.49    2.83
   7   4  -5   21.01    2.14
   7   4  -5   15.95    1.97
  -7  -4   5   20.06    2.24
  -7  -4   4    1.59    0.94
   7   4  -4    1.61    0.80
   7   4  -4    1.06    0.70
   7   4  -3    7.40    1.09
  -7  -4   3    5.70    1.11
  -7  -4   3    5.01    1.40
   7   4  -2    0.20    0.91
  -7  -4   2    1.38    0.79
  -7  -4   2   -0.06    1.12
  -7  -4   1    0.24    0.62
   7   4  -1   -0.41    0.91
   7   4  -1    0.41    0.68
  -7  -4   1    0.45    1.10
  -7  -4   0   19.38    1.86
   7   4   0   19.52    1.76
   7   4   0   14.88    1.95
  -7  -4   0   11.29    1.82
  -7  -4   0   12.92    1.69
  -7  -4  -1    0.29    0.71
  -7  -4  -1   -0.07    0.77
   7   4   1    0.82    0.63
   7   4   1   -0.19    1.02
  -7  -4  -1    1.38    1.01
  -7  -4  -2   13.87    1.48
   7   4   2   12.27    1.35
   7   4   2   14.55    1.85
  -7  -4  -2    7.98    1.52
  -7  -4  -2    9.23    1.45
  -7  -4  -3    3.14    0.93
  -7  -4  -3    2.65    0.84
   7   4   3    3.71    0.78
  -7  -4  -3    2.83    1.27
   7   4   3    4.98    1.34
  -7  -4  -4    5.36    1.11
   7   4   4    5.75    0.85
  -7  -4  -4    4.76    0.91
  -7  -4  -4    4.80    1.31
   7   4   4    6.32    1.44
  -7  -4  -5   32.46    2.99
   7   4   5   27.94    3.14
  -7  -4  -5   28.50    2.95
  -7  -4  -6    0.37    0.88
   7   4   6    1.51    1.17
  -7  -4  -7   14.07    1.52
   7   4   7   14.65    1.92
  -7  -4  -7   14.24    1.78
  -7  -4  -8   21.06    2.02
   7   4   9    8.05    1.53
  -7  -4  -9    8.38    1.32
   7   4  10   10.81    1.79
  -7  -4 -10   13.25    1.65
  -7  -4 -11   -0.14    0.84
   7   4  11   -0.34    1.23
  -7  -4 -12    0.96    0.89
   7   4  12    0.54    1.33
   7   4  13    7.12    1.57
  -7  -4 -14   -0.05    0.86
   7   4  14    0.53    1.34
  -7  -4 -15   -0.41    0.91
   7   4  15    0.54    1.31
  -7  -4 -16    0.52    0.98
   7   4  16   -0.83    1.43
   7   4  17   -0.35    1.28
   7   4  18   -0.14    1.25
   7   5 -14    0.62    1.08
  -7  -5  14    1.70    1.43
   7   5 -13   -0.46    0.96
  -7  -5  13   -0.09    1.54
   7   5 -11    6.73    1.29
  -7  -5  11    6.52    1.75
   7   5 -10    0.18    0.88
  -7  -5  10    1.89    1.45
   7   5  -9    1.74    0.94
  -7  -5   9    0.68    1.45
   7   5  -8    0.69    0.87
  -7  -5   8    0.45    1.25
   7   5  -7    9.09    1.37
  -7  -5   7    9.33    1.80
   7   5  -6   22.33    2.35
  -7  -5   5    4.90    1.52
   7   5  -5    4.93    1.04
   7   5  -4   13.25    1.45
   7   5  -4    8.50    1.37
  -7  -5   4   11.73    1.80
   7   5  -3    0.24    0.76
  -7  -5   3    0.40    0.85
   7   5  -3   -0.08    0.62
  -7  -5   3    1.08    1.32
  -7  -5   2    1.07    0.61
   7   5  -2    0.80    0.82
  -7  -5   2    0.93    0.87
   7   5  -2    0.84    0.72
  -7  -5   2    0.87    1.22
  -7  -5   1    1.67    0.67
  -7  -5   1    2.54    0.88
   7   5  -1    0.71    0.84
  -7  -5   1    1.91    1.19
   7   5   0    7.65    1.05
   7   5   0    6.47    1.22
  -7  -5   0    4.56    1.26
  -7  -5   0    4.75    0.95
   7   5   1   17.98    1.79
  -7  -5  -1   13.33    1.97
  -7  -5  -1   13.21    1.74
  -7  -5  -2    3.23    0.92
   7   5   2    6.38    0.89
  -7  -5  -2    4.98    1.02
  -7  -5  -2    3.30    1.17
   7   5   3    6.50    0.92
  -7  -5  -3    5.48    1.03
  -7  -5  -3    3.85    1.20
   7   5   3    3.78    1.30
  -7  -5  -4    0.70    0.81
  -7  -5  -4    1.24    0.73
  -7  -5  -4    0.60    1.17
   7   5   4   -0.32    1.10
   7   5   5    3.56    1.32
  -7  -5  -5    1.97    0.84
   7   5   6    0.15    1.09
  -7  -5  -6    1.08    0.84
  -7  -5  -6    1.25    0.88
  -7  -5  -7    1.73    0.83
   7   5   7    1.78    1.16
  -7  -5  -7    1.37    0.63
   7   5   8    9.36    1.54
  -7  -5  -9    3.98    0.97
   7   5   9    1.93    1.12
  -7  -5 -10    3.54    0.96
   7   5  10    4.57    1.25
   7   5  11   16.91    2.15
  -7  -5 -11   16.59    1.99
  -7  -5 -12    3.78    1.00
  -7  -5 -13    0.33    0.72
   7   5  13    0.57    1.32
  -7  -5 -14    2.55    1.02
   7   5  14    5.38    1.57
  -7  -5 -15   -0.44    0.89
   7   5  15    0.47    1.44
  -7  -5 -16    0.35    0.84
   7   5  16   -0.20    1.42
  -7  -5 -17    3.06    1.00
   7   5  17    2.57    1.44
   7   6 -13    0.62    1.04
   7   6 -12    9.18    1.47
  -7  -6  12    7.35    1.73
   7   6 -11    0.75    0.97
  -7  -6  11    0.14    1.49
   7   6 -10    2.75    1.06
  -7  -6  10    2.55    1.49
   7   6  -9   -0.13    0.89
  -7  -6   9    0.82    1.29
   7   6  -8    0.27    0.88
  -7  -6   8    0.41    1.26
   7   6  -6   17.13    2.06
  -7  -6   6   22.73    2.42
  -7  -6   5    1.57    1.40
   7   6  -5    0.29    0.79
   7   6  -4   33.08    3.33
  -7  -6   4   37.80    3.53
   7   6  -3    2.45    0.92
  -7  -6   3    2.05    1.44
  -7  -6   2    2.02    0.66
   7   6  -2    2.06    0.89
  -7  -6   2    2.16    0.90
   7   6  -2    2.74    0.84
  -7  -6   2    3.84    1.39
  -7  -6   1    0.83    0.60
  -7  -6   1    1.34    0.83
   7   6  -1    0.52    0.86
   7   6  -1    2.23    0.77
   7   6   0    7.39    1.14
  -7  -6   0    6.94    1.24
   7   6   0    6.56    1.28
  -7  -6   0    8.24    1.41
   7   6   1   34.80    3.78
  -7  -6  -1   38.69    3.68
  -7  -6  -1   34.22    3.55
  -7  -6  -2    0.68    0.74
   7   6   2    1.37    0.70
   7   6   2    0.93    1.00
  -7  -6  -2    1.38    1.08
  -7  -6  -3    1.10    0.78
  -7  -6  -3    2.11    0.82
   7   6   3    0.44    0.63
   7   6   3    0.64    1.03
  -7  -6  -3    0.76    1.07
  -7  -6  -4    1.38    0.82
   7   6   4    1.72    0.62
  -7  -6  -4    1.44    1.09
   7   6   4    0.64    1.08
  -7  -6  -5   -0.04    0.78
  -7  -6  -5    0.13    0.68
  -7  -6  -5    0.65    0.91
   7   6   5    0.11    0.99
  -7  -6  -6    6.70    1.20
  -7  -6  -6    7.35    1.06
  -7  -6  -7    4.90    1.07
   7   6   7    5.14    1.24
   7   6   8    2.27    1.02
   7   6   9    2.87    1.08
   7   6  10   29.96    3.12
  -7  -6 -10   29.17    2.92
  -7  -6 -11   -0.31    0.76
   7   6  11    0.06    1.00
  -7  -6 -12    4.35    1.13
   7   6  12    9.88    1.64
   7   6  13    7.73    1.63
  -7  -6 -13    7.11    1.36
  -7  -6 -14   -0.14    0.74
   7   6  14    1.04    1.30
  -7  -6 -15    0.83    0.85
   7   6  15    0.73    1.33
  -7  -6 -16    4.24    1.07
  -7  -6 -17   -0.62    0.85
   7   6  17    1.13    1.37
   7   6  18    0.26    1.40
   7   7 -12    1.53    1.09
  -7  -7  12    2.04    1.57
   7   7 -11   18.87    2.27
  -7  -7  11   19.25    2.46
   7   7 -10    1.33    1.02
  -7  -7  10    4.09    1.64
   7   7  -9    0.33    0.92
  -7  -7   9    1.64    1.48
   7   7  -8    1.14    0.95
   7   7  -7    1.07    0.93
  -7  -7   7    1.64    1.40
  -7  -7   6    1.31    1.46
   7   7  -6    0.75    0.85
  -7  -7   5    4.70    1.58
   7   7  -5    1.62    0.95
   7   7  -4    7.22    1.25
  -7  -7   4   11.07    1.83
  -7  -7   3    2.81    1.53
   7   7  -1    7.96    1.14
   7   7  -1    5.86    1.25
  -7  -7   1    6.42    1.01
  -7  -7   0    1.44    0.74
  -7  -7   0    1.20    0.96
   7   7   0    0.99    0.74
   7   7   0    1.66    1.01
  -7  -7   0    2.26    1.29
   7   7   1    6.81    1.11
  -7  -7  -1    7.19    1.19
  -7  -7  -1    6.58    1.45
  -7  -7  -2   32.68    3.62
  -7  -7  -2   43.11    3.76
   7   7   2   41.57    3.63
   7   7   2   35.46    3.82
  -7  -7  -2   44.28    3.72
  -7  -7  -3    0.63    0.78
  -7  -7  -3    0.08    0.82
   7   7   3    1.47    1.07
  -7  -7  -3    0.59    1.02
  -7  -7  -4    0.46    0.80
   7   7   4    1.25    0.63
  -7  -7  -4    0.92    1.02
   7   7   4    1.79    1.14
  -7  -7  -5   83.69    7.20
  -7  -7  -6   14.95    1.87
   7   7   6   16.79    2.00
   7   7   7    2.52    1.10
  -7  -7  -7    1.54    0.89
  -7  -7  -8   17.36    1.89
   7   7   8   13.80    1.92
   7   7   9   17.24    2.13
  -7  -7  -9   18.92    2.07
  -7  -7 -11    0.77    0.79
  -7  -7 -12    0.05    0.80
   7   7  12   -0.12    1.10
  -7  -7 -13    5.62    1.14
   7   7  13    5.02    1.38
  -7  -7 -14    0.05    0.83
   7   7  14    1.27    1.25
   7   7  15    4.11    1.44
  -7  -7 -16    5.16    1.08
   7   7  16    2.29    1.44
  -7  -7 -17    1.87    0.95
   7   7  17    0.39    1.28
   7   7  18    1.53    1.36
   7   8 -11   -0.05    1.10
  -7  -8  11    2.12    1.46
   7   8 -10    1.79    1.12
  -7  -8   9   18.34    2.44
   7   8  -8    3.96    1.21
  -7  -8   8    5.09    1.69
   7   8  -7    2.65    1.13
  -7  -8   7    2.16    1.57
  -7  -8   6    5.83    1.70
   7   8  -6    3.85    1.11
  -7  -8   5    5.99    1.61
   7   8  -5    3.87    1.08
   7   8  -4    1.86    0.95
  -7  -8   4    3.10    1.56
   7   8  -3    1.61    0.92
   7   8  -2    0.23    0.88
  -7  -8   2    0.73    1.51
   7   8  -1   24.07    2.95
  -7  -8   1   40.01    3.30
  -7  -8   0    5.80    1.01
   7   8   0    5.58    1.28
  -7  -8   0    6.72    1.54
  -7  -8  -1    0.87    0.78
   7   8   1    1.65    0.99
  -7  -8  -1    1.96    1.32
  -7  -8  -2    0.95    0.79
  -7  -8  -2    0.97    0.88
   7   8   2    0.78    0.70
  -7  -8  -2    0.66    1.23
  -7  -8  -3   25.50    2.87
  -7  -8  -3   34.75    3.03
   7   8   3   29.39    2.85
  -7  -8  -3   30.39    2.95
  -7  -8  -4    1.61    0.83
  -7  -8  -4    2.32    0.88
   7   8   4    2.52    0.82
   7   8   4    1.10    1.07
  -7  -8  -4    1.65    1.05
  -7  -8  -5   12.70    1.61
   7   8   5   10.78    1.74
   7   8   6    3.28    1.18
  -7  -8  -7   42.73    3.71
   7   8   7   33.08    3.70
   7   8   8    0.41    0.96
  -7  -8  -8    0.22    0.78
  -7  -8  -9    0.58    0.85
   7   8   9    0.15    0.94
  -7  -8 -10    0.60    0.87
   7   8  10    0.97    1.02
   7   8  11    4.68    1.19
  -7  -8 -12    2.59    1.03
   7   8  12    2.76    1.20
  -7  -8 -13    4.56    1.13
   7   8  13    2.79    1.23
   7   8  14   29.52    3.29
  -7  -8 -14   31.02    3.18
  -7  -8 -15    6.08    1.19
   7   8  16    1.41    1.27
   7   8  17   12.08    2.22
  -7  -8 -17   20.28    2.08
   7   9 -10    1.86    1.22
  -7  -9  10    0.65    1.53
   7   9  -9   -0.06    1.17
  -7  -9   9    0.79    1.49
   7   9  -8   26.41    3.06
  -7  -9   8   32.94    3.30
   7   9  -7   11.01    1.77
  -7  -9   7   13.70    2.18
  -7  -9   6   -0.14    1.56
   7   9  -6    0.62    1.09
   7   9  -4   30.37    3.52
  -7  -9   4   47.88    3.90
   7   9  -3    0.10    0.83
  -7  -9   3    1.82    1.59
   7   9  -2    1.49    0.99
  -7  -9   2    6.84    1.68
   7   9  -1    4.88    1.14
  -7  -9   0    0.33    0.72
   7   9   0    0.62    0.99
  -7  -9   0    1.14    1.53
  -7  -9  -1    1.27    0.81
   7   9   1    0.75    1.04
  -7  -9  -1    2.04    1.52
  -7  -9  -2    0.54    0.80
   7   9   2    0.82    1.02
  -7  -9  -2   -0.08    1.34
  -7  -9  -3   12.59    1.59
   7   9   3    9.68    1.69
  -7  -9  -4    8.63    1.41
   7   9   4   12.20    1.35
   7   9   4    9.28    1.61
   7   9   5   20.51    2.41
  -7  -9  -6    3.04    1.01
   7   9   6    4.17    1.22
  -7  -9  -8    1.41    0.92
   7   9   9    3.34    1.11
  -7  -9  -9    3.37    1.07
  -7  -9 -10    5.60    1.18
   7   9  10    3.53    1.18
  -7  -9 -11    0.09    0.74
   7   9  11    0.05    0.92
   7   9  12   -0.06    1.01
  -7  -9 -13    0.67    0.84
   7   9  13    0.06    1.06
  -7  -9 -14    1.79    1.03
   7   9  14    2.05    1.21
  -7  -9 -15   -0.15    0.80
   7   9  15   -0.12    1.24
   7   9  16   10.42    2.06
  -7  -9 -16   19.53    2.04
   7   9  17    1.74    1.28
  -7 -10   8   -1.42    1.63
   7  10  -7    1.16    1.23
   7  10  -6   18.35    2.56
  -7 -10   6   30.62    2.97
  -7 -10   5    0.19    1.58
   7  10  -5    2.16    1.20
   7  10  -4   11.15    1.73
  -7 -10   4   14.47    2.21
   7  10  -3    2.35    1.12
  -7 -10   3    3.26    1.70
   7  10  -2   10.41    1.63
  -7 -10   2   14.26    2.22
   7  10  -1    6.02    1.28
  -7 -10   0    2.25    1.72
  -7 -10  -1    0.44    0.77
   7  10   1   -0.05    0.96
  -7 -10  -1    1.04    1.64
  -7 -10  -2    3.87    1.04
   7  10   2    3.42    1.19
  -7 -10  -2    6.47    1.77
   7  10   3    0.22    1.05
  -7 -10  -4    4.15    1.08
   7  10   4    3.92    1.20
  -7 -10  -5   75.31    6.46
   7  10   5   67.60    6.50
  -7 -10  -6    9.41    1.43
   7  10   6    7.39    1.53
  -7 -10  -7    1.28    0.93
   7  10   7    1.10    1.08
   7  10   8    7.84    1.39
   7  10   9    2.25    1.11
  -7 -10  -9    3.94    1.02
  -7 -10 -10   10.48    1.49
   7  10  10    7.60    1.48
   7  10  11    1.11    1.12
  -7 -10 -11    1.48    1.03
  -7 -10 -12    0.29    0.82
  -7 -10 -14    0.54    0.87
   7  10  14   -0.24    1.09
  -7 -10 -15    2.81    1.08
   7  10  15    1.82    1.30
  -7 -10 -16   -0.29    0.88
   7  10  16    0.43    1.19
   7  11  -6    2.15    1.40
  -7 -11   6    2.22    1.59
   7  11  -5    4.87    1.48
  -7 -11   5   10.89    1.91
  -7 -11   4    6.97    1.87
   7  11  -3    4.69    1.38
   7  11  -2    1.00    1.06
  -7 -11   2    2.08    1.79
   7  11  -1    0.60    1.10
  -7 -11   1    1.44    1.76
   7  11   0    2.06    1.07
  -7 -11   0    4.28    1.84
   7  11   1    9.07    1.80
  -7 -11  -1   26.47    2.56
  -7 -11  -2   -0.09    0.78
   7  11   2    0.90    1.09
  -7 -11  -3    0.56    0.85
   7  11   3   -0.28    1.19
  -7 -11  -4    2.54    1.03
   7  11   4    1.92    1.22
  -7 -11  -5   -0.05    0.84
  -7 -11  -6    1.39    0.98
   7  11   6    0.67    1.06
  -7 -11  -7    9.57    1.46
   7  11   7    4.77    1.30
  -7 -11  -8    1.02    0.98
   7  11   8   -0.34    0.99
   7  11   9    2.26    1.11
  -7 -11 -10    0.40    1.00
  -7 -11 -11   34.27    2.91
   7  11  11   17.71    2.68
  -7 -11 -12    8.18    1.43
   7  11  12    3.68    1.34
  -7 -11 -13    1.28    0.96
   7  11  13    1.30    1.19
   7  11  14    1.80    1.20
  -7 -11 -15    1.04    0.91
  -7 -12   4    7.87    1.77
   7  12  -4    3.50    1.35
  -7 -12   3    7.87    1.86
   7  12  -3    3.93    1.41
   7  12  -2    0.39    1.17
  -7 -12   2    2.44    1.78
   7  12  -1    1.79    1.14
   7  12   1    3.83    1.29
   7  12   2    0.05    1.12
   7  12   3    0.11    1.10
  -7 -12  -4    0.50    0.95
   7  12   4   -0.73    1.20
  -7 -12  -5    2.33    1.04
   7  12   5    1.53    1.12
   7  12   6    0.96    1.15
  -7 -12  -7    1.88    1.11
   7  12   7    0.52    1.11
  -7 -12  -8    1.72    1.15
   7  12   8    1.54    1.14
  -7 -12  -9   13.91    1.73
   7  12   9    6.33    1.63
   7  12  10    0.36    1.14
  -7 -12 -11    6.87    1.36
   7  12  12    0.18    1.20
  -7 -12 -12    3.34    1.15
   7  12  13    2.44    1.27
  -7 -12 -13    4.87    1.24
   7  13  -1    0.88    1.16
   7  13   0    0.54    1.08
   7  13   1    0.66    1.14
   7  13   2   11.52    1.70
   7  13   3    3.38    1.28
   7  13   4    0.11    1.05
  -7 -13  -5    1.15    0.97
   7  13   5   -0.78    1.15
  -7 -13  -6    0.75    1.00
  -7 -13  -7   -0.22    1.01
   7  13   7    1.48    1.13
  -7 -13  -8    7.14    1.32
   7  13   8    0.47    1.15
  -7 -13  -9    6.79    1.26
   7  13   9    1.47    1.33
  -7 -13 -10    1.03    1.06
   7  13  10    1.61    1.18
  -7 -13 -11   16.02    2.14
   8  -6  -9    1.69    1.37
   8  -6  -8    0.49    1.43
   8  -6  -6    3.72    1.71
   8  -6  -5    0.22    1.94
   8  -6  -4    1.42    2.07
   8  -6  -3    3.27    2.41
   8  -6  -2    0.66    2.33
  -8   5  10    3.89    1.39
   8  -5  -9    2.87    1.47
  -8   5   9    6.43    1.50
   8  -5  -8    1.56    1.43
  -8   5   8    1.47    1.32
  -8   5   7    0.78    1.22
   8  -5  -7    1.52    1.62
  -8   5   6    0.16    1.16
   8  -5  -6   -0.49    1.78
  -8   5   5    3.61    1.34
   8  -5  -5    2.40    2.03
  -8   5   4   -0.15    1.17
   8  -5  -4    1.20    2.26
  -8   5   2    3.71    1.30
   8  -5  -2    3.69    2.69
  -8   5   1    0.34    1.13
   8  -5  -1    0.59    2.63
  -8   5   0   -0.15    1.13
   8  -5   0    1.46    2.49
  -8   5  -1   -0.79    1.03
   8  -5   1   -1.98    2.56
  -8   5  -2    1.22    1.01
   8  -5   2    1.50    2.34
  -8   5  -3    1.04    0.97
  -8   4  12    6.92    1.48
  -8   4  11    0.82    1.23
  -8   4  10   19.54    2.36
  -8   4   9    1.02    1.18
   8  -4  -8    3.58    1.45
  -8   4   8    3.89    1.42
   8  -4  -7   -0.17    1.53
  -8   4   7   -0.36    1.23
  -8   4   6    7.28    1.55
   8  -4  -6    5.13    1.95
  -8   4   5    7.62    1.59
   8  -4  -5    7.03    2.20
   8  -4  -4    0.84    2.04
  -8   4   3    0.20    1.19
   8  -4  -3    0.27    2.25
  -8   4   2    0.23    1.02
   8  -4  -2    0.72    2.44
  -8   4   1    5.89    1.39
   8  -4  -1    2.42    2.72
  -8   4   0    8.30    1.52
   8  -4   0    6.57    3.14
  -8   4  -1    0.38    1.14
   8  -4   1    0.93    2.46
  -8   4  -3    0.35    1.03
   8  -4   3    0.71    2.45
  -8   4  -4    1.60    1.02
   8  -4   4    0.81    2.23
  -8   4  -5   18.00    1.95
   8  -4   5    6.65    2.80
  -8   3  14    0.62    1.20
  -8   3  13    3.31    1.33
  -8   3  12    1.55    1.23
  -8   3  10    4.02    1.39
  -8   3   9    0.41    1.21
   8  -3  -8    1.00    1.34
  -8   3   8   -0.04    1.15
   8  -3  -7   -1.51    1.45
  -8   3   7    1.42    1.24
  -8   3   6   12.33    1.82
   8  -3  -5    4.14    1.98
  -8   3   4    6.39    1.47
   8  -3  -4    7.33    2.35
  -8   3   3    0.87    1.06
   8  -3  -3    2.68    2.20
  -8   3   2    0.91    1.15
  -8   3   1    0.12    1.18
   8  -3  -1    1.25    2.89
  -8   3   0    0.30    1.15
   8  -3   0    4.10    3.12
   8  -3   1    9.06    3.42
  -8   3  -2    1.64    1.24
   8  -3   2    2.70    2.79
  -8   3  -3   19.53    2.17
   8  -3   3    7.03    3.27
  -8   3  -4    7.64    1.41
   8  -3   4    1.26    2.33
  -8   3  -5    9.36    1.43
   8  -3   5   -0.92    2.25
   8  -3   6    4.96    2.32
  -8   3  -7    4.37    1.17
   8  -3   7    1.55    2.08
  -8   3  -8   -0.10    1.07
   8  -3   8    0.47    2.04
  -8   3  -9    1.77    1.10
   8  -2 -16    1.82    1.41
   8  -2 -15    0.82    1.42
   8  -2 -14    5.59    1.65
  -8   2  14    4.28    1.31
   8  -2 -13    3.87    1.44
  -8   2  13    2.92    1.33
   8  -2 -12    1.33    1.36
  -8   2  11    2.93    1.27
  -8   2  10   13.38    1.80
  -8   2   9    3.93    1.27
  -8   2   8    1.12    1.10
   8  -2  -7    1.34    1.52
  -8   2   7    5.58    1.32
  -8   2   5    1.46    1.18
   8  -2  -5    0.69    1.73
  -8   2   4   26.17    2.59
   8  -2  -4   15.51    3.09
  -8   2   3   10.76    1.63
   8  -2  -3    8.08    2.59
  -8   2   2   -0.08    1.13
   8  -2  -2    2.51    2.46
  -8   2   1   -0.47    1.22
   8  -2  -1   -1.10    2.65
   8  -2   0    0.67    2.62
  -8   2  -1    0.77    1.10
   8  -2   1   -3.00    2.99
  -8   2  -2    2.20    1.26
   8  -2   2    1.60    2.56
  -8   2  -3   20.01    2.35
  -8   2  -4    2.63    1.34
   8  -2   4   -0.95    2.02
  -8   2  -5   21.68    2.13
   8  -2   5    5.01    2.62
  -8   2  -6    8.54    1.42
   8  -2   6    2.12    2.05
  -8   2  -7   51.89    3.64
   8  -2   7   12.38    3.81
  -8   2  -8   26.42    2.68
   8  -2   9    0.33    1.87
  -8   2 -10    6.76    1.26
   8  -2  10    2.61    2.14
  -8   2 -11    0.07    1.00
   8  -1 -16    3.69    1.66
   8  -1 -15    3.34    1.55
  -8   1  15    0.22    1.21
   8  -1 -14   19.96    2.24
  -8   1  14    6.46    1.65
   8  -1 -13    1.70    1.45
   8  -1 -12   -0.18    1.40
  -8   1  12    0.11    1.11
   8  -1 -11    2.62    1.44
  -8   1  11    1.88    1.15
   8  -1 -10    4.82    1.42
  -8   1  10    2.34    1.13
   8  -1  -9    0.84    1.20
  -8   1   9    0.82    1.18
  -8   1   8   16.72    1.99
   8  -1  -7    0.63    1.10
   8  -1  -7    0.15    1.29
   8  -1  -6   28.41    2.47
  -8   1   6   21.56    2.23
   8  -1  -5   49.79    3.69
  -8   1   5   35.75    3.51
  -8   1   4   35.61    2.93
   8  -1  -4   10.87    3.15
  -8   1   3   29.35    2.65
   8  -1  -3    8.44    3.11
  -8   1   2    1.18    1.14
  -8   1   1    3.31    1.22
  -8   1   0   -0.23    1.22
   8  -1   0   -0.16    2.55
  -8   1  -1   -0.32    1.21
   8  -1   1    0.80    2.59
  -8   1  -2    0.31    1.23
   8  -1   2    0.91    2.49
  -8   1  -3    4.39    1.41
   8  -1   3    4.06    2.50
  -8   1  -4    4.75    1.41
   8  -1   5    0.12    1.91
  -8   1  -6    2.96    1.26
   8  -1   6    1.77    1.72
  -8   1  -7    1.14    1.15
   8  -1   7    0.53    1.76
  -8   1  -8    1.55    1.07
   8  -1   8    1.03    1.64
  -8   1 -10    8.61    1.30
   8  -1  10    1.69    1.89
  -8   1 -11    7.57    1.34
   8  -1  11    5.10    2.18
   8   0 -15   11.35    1.90
  -8   0  15    6.20    1.61
   8   0 -14   12.64    2.02
   8   0 -13   12.38    1.89
  -8   0  13    9.38    1.66
   8   0 -12    3.08    1.47
  -8   0  12    2.59    1.32
   8   0 -11    6.94    1.56
  -8   0  11    4.68    1.40
   8   0 -10    0.51    1.26
  -8   0  10    1.01    1.23
   8   0  -9    1.62    1.31
  -8   0   9    0.18    1.17
   8   0  -8   -0.84    1.22
  -8   0   7    0.21    0.97
   8   0  -6   15.50    1.87
  -8   0   6   10.57    1.47
   8   0  -5    5.38    1.40
  -8   0   5    2.31    1.11
   8   0  -5    1.49    1.57
   8   0  -4   20.00    2.21
  -8   0   4   14.20    1.96
  -8   0   3    0.58    1.14
   8   0  -3    0.28    1.13
   8   0  -3   -0.99    2.11
   8   0  -2   95.75    5.76
  -8   0   2   65.20    5.40
   8   0  -1  197.78   14.10
  -8   0   1  161.83   13.88
   8   0   0  137.12    9.57
  -8   0   0  110.52    9.39
  -8   0  -1   64.43    4.74
   8   0   1   14.56    5.20
  -8   0  -2    2.31    1.36
   8   0   2    1.01    2.64
  -8   0  -3    6.51    1.47
   8   0   3    1.61    2.33
   8   0   4   -1.60    2.19
  -8   0  -5    1.87    1.29
   8   0   5    0.45    1.68
  -8   0  -6   11.48    1.66
   8   0   6    3.04    2.03
  -8   0  -7    2.69    1.13
   8   0   7   -0.69    1.61
   8   0   8    1.94    1.78
  -8   0  -9    8.84    1.34
   8   0   9    4.84    1.93
  -8   0 -10    3.87    1.08
   8   0  11   -0.72    1.84
   8   0  12    0.11    1.77
  -8  -1  14    4.57    1.54
   8   1 -13   30.38    2.83
  -8  -1  13   17.71    2.56
   8   1 -12   25.96    2.63
  -8  -1  12   16.28    2.33
   8   1 -11    3.75    1.34
  -8  -1  11    1.25    1.17
   8   1 -10    8.54    1.68
  -8  -1  10    6.81    1.44
   8   1  -9   23.47    2.73
   8   1  -8   15.23    2.03
  -8  -1   8   10.70    1.75
   8   1  -7    8.34    1.67
  -8  -1   7    4.39    1.25
   8   1  -6    3.34    1.39
  -8  -1   6    1.33    1.08
   8   1  -5    0.69    1.36
  -8  -1   5    1.27    1.15
   8   1  -5    3.84    1.36
  -8  -1   4    0.38    0.72
   8   1  -4    0.49    0.83
  -8  -1   4    0.33    1.07
   8   1  -4    1.08    1.57
   8   1  -4    0.95    1.24
  -8  -1   3    3.31    0.85
   8   1  -3    3.04    0.95
  -8  -1   3    2.71    1.21
   8   1  -3    0.10    2.02
   8   1  -3    4.85    1.51
  -8  -1   2    7.74    1.46
   8   1  -2    4.75    2.48
   8   1  -1   29.25    4.30
   8   1   0   41.30    3.28
  -8  -1   0   26.07    2.86
  -8  -1  -1   75.03    7.28
   8   1   1   57.21    8.17
  -8  -1  -2   61.47    5.68
   8   1   2   34.39    6.23
   8   1   3    6.27    1.85
   8   1   3    2.78    2.11
  -8  -1  -4   23.75    2.70
   8   1   4   24.94    3.14
  -8  -1  -5   23.76    2.61
   8   1   5   24.78    3.09
  -8  -1  -6   -0.73    1.25
  -8  -1  -9    0.96    0.89
  -8  -1 -10    2.64    1.01
   8   2 -15    1.52    1.19
  -8  -2  15   -0.56    1.40
   8   2 -14    1.74    1.15
  -8  -2  14    2.48    1.38
   8   2 -13    4.73    1.32
  -8  -2  13    6.08    1.59
   8   2 -12   17.00    2.08
  -8  -2  12   11.80    2.03
   8   2 -11    9.10    1.53
  -8  -2  11    7.14    1.55
   8   2 -10   62.28    5.73
   8   2  -9   35.78    3.19
  -8  -2   9   24.61    3.07
   8   2  -8   40.23    3.43
  -8  -2   8   26.17    3.15
  -8  -2   7    3.74    1.26
  -8  -2   6   18.59    2.12
  -8  -2   5   -0.45    1.00
   8   2  -5    0.27    1.17
   8   2  -4    0.34    0.90
  -8  -2   4   -1.13    1.11
   8   2  -4   -0.43    1.34
   8   2  -4   -0.05    1.22
  -8  -2   3    0.41    0.77
   8   2  -3    0.57    0.80
   8   2  -3    1.52    1.65
   8   2  -3    0.79    1.23
   8   2  -2   -0.05    1.18
  -8  -2   2    0.57    0.74
   8   2  -2   -0.25    0.84
  -8  -2   2   -0.32    1.05
   8   2  -2   -0.40    1.95
  -8  -2   1   38.43    3.22
   8   2  -1   36.24    3.26
   8   2  -1   42.63    3.59
  -8  -2   1   24.87    3.17
   8   2  -1   20.29    4.23
  -8  -2   0   14.92    2.12
   8   2   0   12.89    3.54
   8   2   1   44.32    3.71
  -8  -2  -1   27.33    3.26
   8   2   2    0.84    1.57
  -8  -2  -3    5.95    1.47
  -8  -2  -4   16.49    2.27
   8   2   4   17.53    2.55
  -8  -2  -5   18.97    2.37
   8   2   5   21.68    2.75
  -8  -2  -6    1.52    1.19
   8   2   6    0.79    1.44
  -8  -2  -7   10.14    1.53
   8   2   7    8.85    1.81
  -8  -2  -8    1.37    0.97
   8   2   8    0.06    1.23
   8   2   9    4.64    1.34
  -8  -2  -9    3.46    1.01
   8   3 -14    1.85    1.05
  -8  -3  14    2.90    1.54
   8   3 -13   -0.30    1.05
  -8  -3  13    0.77    1.47
   8   3 -12    2.56    1.15
  -8  -3  12    2.62    1.44
   8   3 -11   11.97    1.72
   8   3 -10   76.24    6.14
  -8  -3  10   58.22    6.02
   8   3  -9    3.37    1.17
  -8  -3   9    2.58    1.44
   8   3  -8   40.78    3.48
  -8  -3   8   26.88    3.37
   8   3  -7    5.91    1.26
  -8  -3   7    4.71    1.39
  -8  -3   6    0.35    1.21
   8   3  -6   -0.50    1.04
   8   3  -5    1.71    1.13
   8   3  -4   44.34    3.84
  -8  -3   4   37.60    3.70
   8   3  -3    1.81    1.14
  -8  -3   3    1.54    0.91
   8   3  -3    2.72    0.95
  -8  -3   3    1.28    1.09
   8   3  -3    1.22    1.47
  -8  -3   2    2.42    0.95
   8   3  -2    2.20    0.86
  -8  -3   2    1.90    1.14
   8   3  -2    1.77    1.91
  -8  -3   1   23.83    2.11
  -8  -3   1   13.97    2.07
   8   3   0    3.47    1.28
   8   3   0    3.22    0.81
  -8  -3   0    2.64    1.15
   8   3   1    6.79    1.58
   8   3   2   -0.37    1.23
  -8  -3  -2    1.38    1.22
  -8  -3  -3   19.11    2.45
   8   3   3   23.07    2.66
   8   3   4   12.12    1.97
  -8  -3  -4    8.73    1.64
  -8  -3  -5    0.30    1.24
   8   3   5    0.06    1.53
   8   3   6   43.70    3.27
  -8  -3  -6   19.87    2.65
  -8  -3  -7   22.80    2.00
   8   3   7   25.65    2.48
  -8  -3  -8    2.61    1.05
  -8  -3  -9    3.71    0.96
   8   3   9    6.96    1.43
  -8  -3 -10    0.62    0.80
   8   3  10    1.24    1.24
   8   3  11    6.00    1.50
  -8  -3 -11    5.29    1.13
  -8  -3 -12    4.51    1.15
   8   3  12   10.84    1.65
  -8  -3 -13    1.11    0.81
   8   3  13    3.06    1.29
   8   4 -14    0.28    0.98
  -8  -4  14    1.16    1.45
   8   4 -13    1.68    1.02
  -8  -4  13    0.76    1.34
   8   4 -12    1.01    0.96
   8   4 -11    0.56    0.99
  -8  -4  11    0.85    1.27
  -8  -4  10    4.18    1.53
  -8  -4   9   19.72    2.41
   8   4  -8    0.95    0.93
  -8  -4   8    1.95    1.41
   8   4  -7    3.17    1.03
  -8  -4   7    3.85    1.51
   8   4  -6    0.32    0.96
   8   4  -5   47.33    4.40
  -8  -4   5   46.55    4.44
   8   4  -4   38.99    3.74
  -8  -4   4   38.27    3.76
   8   4  -3    3.19    1.13
   8   4  -3    4.41    1.02
  -8  -4   3    3.50    1.27
   8   4  -3    1.26    1.33
  -8  -4   2   31.79    2.61
   8   4  -2   31.28    2.55
   8   4  -2   19.53    2.55
  -8  -4   2   15.51    2.44
   8   4  -1   -0.05    1.02
  -8  -4   1    0.12    0.81
   8   4  -1    0.64    0.74
  -8  -4   1    0.47    1.03
  -8  -4   0    3.36    0.96
   8   4   0    3.30    1.24
  -8  -4  -1   21.52    1.99
   8   4   1   19.56    1.89
   8   4   1   17.66    2.26
  -8  -4  -1   16.58    2.00
  -8  -4  -1   13.55    1.89
  -8  -4  -2    5.42    1.15
   8   4   2    6.76    1.54
  -8  -4  -2    8.73    1.44
  -8  -4  -3    0.95    0.86
  -8  -4  -3    1.30    1.25
  -8  -4  -4   23.62    2.68
   8   4   5   85.46    7.32
  -8  -4  -5   76.29    7.03
  -8  -4  -6   32.02    2.78
   8   4   6   25.85    2.97
  -8  -4  -6   21.77    2.70
   8   4   7    7.10    1.58
  -8  -4  -7    7.33    1.32
  -8  -4  -7   10.14    1.33
  -8  -4  -8   10.66    1.49
   8   4   9    5.29    1.46
  -8  -4 -10    2.11    0.95
   8   4  10    3.62    1.32
  -8  -4 -11   -0.20    0.86
   8   4  11    0.35    1.13
  -8  -4 -12   -0.05    0.80
  -8  -4 -13    0.26    0.85
   8   4  13    0.69    1.22
   8   4  14    1.19    1.35
  -8  -4 -15    0.51    0.85
   8   4  15    1.58    1.40
   8   5 -13    2.52    1.07
   8   5 -12   10.33    1.53
  -8  -5  12    9.70    1.91
   8   5 -11    0.18    0.91
  -8  -5  11    0.77    1.46
   8   5 -10    0.60    0.88
  -8  -5  10   -0.86    1.42
   8   5  -9    2.15    0.93
  -8  -5   9    1.83    1.43
   8   5  -8    1.58    0.92
  -8  -5   8    0.70    1.39
   8   5  -7   -1.00    0.95
   8   5  -6   88.30    8.37
  -8  -5   6  106.39    8.49
   8   5  -5   16.91    2.09
  -8  -5   5   22.30    2.43
  -8  -5   4    1.33    1.44
   8   5  -3   27.30    2.76
  -8  -5   3   26.39    2.88
   8   5  -2    8.86    1.57
  -8  -5   2   11.96    1.81
  -8  -5   1    0.82    0.84
   8   5  -1    0.87    0.73
  -8  -5   0   25.66    2.27
   8   5   0   26.05    2.20
   8   5   0   17.39    2.34
  -8  -5   0   17.63    2.29
  -8  -5   0   16.02    2.11
  -8  -5  -1    0.91    0.77
  -8  -5  -1    0.35    0.81
   8   5   1   -0.16    1.18
  -8  -5  -1    0.37    1.06
  -8  -5  -2    3.66    1.08
   8   5   2    7.63    1.03
   8   5   2    6.73    1.50
  -8  -5  -2    4.93    1.28
  -8  -5  -3    1.41    0.81
   8   5   3    0.80    1.21
  -8  -5  -3    1.41    1.27
   8   5   4   30.37    2.99
  -8  -5  -4   22.61    2.66
  -8  -5  -5    0.57    0.84
  -8  -5  -5    2.84    1.29
   8   5   5   -0.58    1.21
  -8  -5  -6   15.75    1.65
  -8  -5  -6    8.54    1.52
   8   5   7   -0.06    1.24
  -8  -5  -7   -0.18    0.83
  -8  -5  -8   15.93    1.97
   8   5   9   33.83    3.11
  -8  -5  -9   24.19    2.80
   8   5  10    0.79    1.14
   8   5  11   23.08    2.31
  -8  -5 -11   13.59    1.91
  -8  -5 -12    7.03    1.38
   8   5  12   11.11    1.75
  -8  -5 -13    0.85    0.90
   8   5  13    0.51    1.32
  -8  -5 -14    0.71    0.91
   8   5  14    0.80    1.38
  -8  -5 -16    3.10    1.10
   8   5  16    3.41    1.64
   8   5  17    0.42    1.32
  -8  -6  12    3.38    1.60
   8   6 -11    2.08    1.03
  -8  -6  11    4.54    1.55
   8   6 -10    3.53    1.12
  -8  -6  10    4.49    1.53
   8   6  -9    1.77    0.91
  -8  -6   9    0.64    1.39
   8   6  -8    0.09    0.78
  -8  -6   7    0.90    1.37
   8   6  -7   -0.50    0.88
  -8  -6   6    1.19    1.45
   8   6  -6    0.39    0.79
  -8  -6   5    2.45    1.43
   8   6  -5    0.35    0.82
   8   6  -4   57.18    5.88
  -8  -6   4   80.77    6.11
   8   6  -3   28.09    3.09
  -8  -6   3   38.37    3.37
   8   6  -2   15.31    1.91
  -8  -6   1    0.37    0.66
   8   6  -1    0.88    0.92
   8   6  -1    0.58    0.78
  -8  -6   1    1.06    1.31
  -8  -6   0    3.66    0.95
   8   6   0    7.34    1.09
  -8  -6   0    5.60    1.16
   8   6   0    4.44    1.23
  -8  -6   0    6.02    1.46
  -8  -6  -1   39.30    3.17
   8   6   1   39.60    3.09
  -8  -6  -1   27.27    3.07
  -8  -6  -1   22.98    2.94
  -8  -6  -2    5.22    1.20
  -8  -6  -2   11.36    1.41
   8   6   2    9.22    1.26
   8   6   2    9.33    1.62
  -8  -6  -2   10.26    1.58
  -8  -6  -3   -0.16    0.80
   8   6   3    0.68    1.08
  -8  -6  -3    0.56    1.16
  -8  -6  -4    0.53    0.86
   8   6   4    1.63    1.18
  -8  -6  -4    1.52    1.19
  -8  -6  -5   21.12    2.19
   8   6   5   20.13    2.30
  -8  -6  -5   15.46    2.04
  -8  -6  -6    2.82    1.00
   8   6   6    3.04    1.22
   8   6   7    3.31    1.20
  -8  -6  -7    1.29    0.86
   8   6   8   11.01    1.69
  -8  -6  -8    9.62    1.40
   8   6   9    9.16    1.63
  -8  -6  -9    9.64    1.42
  -8  -6 -10    4.98    1.13
   8   6  10    6.47    1.43
  -8  -6 -11    2.23    0.94
   8   6  11    4.49    1.35
  -8  -6 -12   -0.10    0.84
  -8  -6 -13    0.53    0.82
   8   6  13    0.32    1.33
  -8  -6 -14    3.46    1.03
   8   6  14    2.85    1.50
  -8  -6 -15    3.39    1.06
   8   6  15    3.06    1.56
  -8  -6 -16    1.51    1.00
   8   6  16    1.37    1.43
   8   6  17    0.88    1.29
   8   7 -11    0.79    0.93
  -8  -7  11    1.53    1.61
   8   7 -10    7.92    1.39
   8   7  -9    3.67    1.10
  -8  -7   9    2.46    1.54
   8   7  -8    2.91    1.01
  -8  -7   8    2.69    1.61
  -8  -7   7   -0.32    1.55
  -8  -7   6    4.43    1.64
   8   7  -6    2.50    0.94
  -8  -7   5    1.53    1.47
   8   7  -5    0.04    0.87
   8   7  -4    6.74    1.25
  -8  -7   4    8.95    1.87
   8   7  -3    0.63    0.84
   8   7  -2    9.02    1.41
   8   7  -1    0.19    0.90
  -8  -7   1    0.46    1.41
   8   7   0   79.66    6.87
  -8  -7   0   91.42    6.88
  -8  -7   0   66.21    6.59
  -8  -7  -1    2.81    0.83
   8   7   1    1.44    0.74
   8   7   1    1.73    1.10
  -8  -7  -1    1.28    1.21
  -8  -7  -2   45.05    3.88
   8   7   2   46.51    3.79
   8   7   2   38.08    3.98
  -8  -7  -2   37.87    3.83
  -8  -7  -2   35.42    3.78
   8   7   3   26.11    2.80
  -8  -7  -3   27.43    2.67
  -8  -7  -3   22.70    2.55
  -8  -7  -4    1.51    0.87
   8   7   4    0.86    1.12
  -8  -7  -4    1.14    1.14
   8   7   5   12.87    1.79
  -8  -7  -5    9.10    1.45
  -8  -7  -6    9.37    1.45
   8   7   7   15.46    2.17
  -8  -7  -7   19.11    2.07
   8   7   8   -0.05    1.03
  -8  -7  -8    0.45    0.72
   8   7   9    4.01    1.18
  -8  -7  -9    2.46    0.99
   8   7  10   13.24    1.82
  -8  -7 -10   11.95    1.62
  -8  -7 -11    1.65    0.87
   8   7  11    1.79    1.19
  -8  -7 -12    0.38    0.82
   8   7  12   -0.12    1.13
  -8  -7 -13    1.33    0.87
   8   7  13    0.68    1.30
  -8  -7 -14    0.14    0.89
   8   7  14   -0.19    1.28
  -8  -7 -15    2.46    0.96
  -8  -7 -16    2.23    0.99
   8   7  16    1.48    1.43
   8   8 -10   -0.10    1.03
  -8  -8  10    0.52    1.47
   8   8  -9    5.06    1.26
  -8  -8   9    5.80    1.77
   8   8  -8   11.21    1.66
  -8  -8   8   10.91    2.12
   8   8  -7    6.50    1.38
  -8  -8   7    9.59    1.90
  -8  -8   6    1.85    1.62
   8   8  -6    1.35    0.99
   8   8  -5    0.14    0.89
   8   8  -4    0.42    0.89
  -8  -8   4    0.80    1.61
  -8  -8   3   -0.83    1.57
  -8  -8   2    0.63    1.51
   8   8  -1    1.46    0.95
   8   8   0   85.60    8.46
  -8  -8   0  108.90    8.49
  -8  -8  -1    0.58    0.76
   8   8   1   -0.06    0.97
  -8  -8  -1    2.10    1.33
   8   8   2   49.15    5.04
  -8  -8  -2   60.32    5.03
  -8  -8  -2   52.94    4.89
  -8  -8  -3    0.74    0.86
   8   8   3    0.06    1.04
  -8  -8  -3    2.27    1.21
  -8  -8  -4    0.34    0.86
   8   8   4    0.06    1.00
  -8  -8  -5    0.39    0.89
   8   8   5   -0.96    1.02
  -8  -8  -6    0.04    0.91
   8   8   6    0.72    0.94
   8   8   7   11.29    1.66
  -8  -8  -7   10.41    1.55
   8   8   8    0.11    0.92
  -8  -8  -8    0.18    0.82
   8   8   9    0.05    0.96
  -8  -8  -9    0.05    0.80
  -8  -8 -10    0.09    0.80
  -8  -8 -11   -0.23    0.79
   8   8  11    0.52    1.07
  -8  -8 -12   -0.23    0.80
   8   8  12   -0.71    1.17
  -8  -8 -13    0.28    0.79
   8   8  13    0.79    1.18
  -8  -8 -14    0.05    0.87
   8   8  14    1.32    1.30
  -8  -8 -15    1.98    0.95
   8   8  15    0.26    1.28
  -8  -8 -16    4.03    1.02
   8   8  16    1.76    1.50
   8   9  -9   18.88    2.40
  -8  -9   9   25.58    2.72
  -8  -9   8    1.71    1.66
   8   9  -7    9.30    1.72
  -8  -9   7   15.92    2.22
  -8  -9   6    3.93    1.71
   8   9  -6    1.83    1.12
  -8  -9   5    1.60    1.61
   8   9  -4    1.92    1.09
  -8  -9   4    5.32    1.76
   8   9  -3    3.93    1.13
  -8  -9   3    4.14    1.88
   8   9  -2    0.91    0.90
  -8  -9   2    1.18    1.69
   8   9  -1    1.26    0.97
   8   9   0    0.26    0.91
   8   9   1    1.10    1.06
  -8  -9  -1    4.10    1.58
  -8  -9  -2    4.56    1.11
  -8  -9  -2    7.84    1.68
  -8  -9  -3    0.56    0.87
   8   9   4    2.95    1.23
  -8  -9  -5    2.42    0.99
   8   9   5    3.74    1.22
  -8  -9  -6    5.52    1.23
   8   9   6    5.63    1.32
  -8  -9  -7    2.55    1.04
   8   9   7    3.20    1.18
  -8  -9  -8    1.09    0.95
   8   9   8    1.77    1.06
   8   9   9    1.04    1.03
  -8  -9  -9    0.34    0.90
   8   9  10   -0.11    0.95
  -8  -9 -10    0.64    0.88
   8   9  11    0.57    1.03
  -8  -9 -11    0.59    0.99
  -8  -9 -12    0.39    0.81
   8   9  12    0.82    1.11
  -8  -9 -13    3.44    1.12
   8   9  13    3.48    1.22
  -8  -9 -14    4.85    1.17
  -8  -9 -15   -0.05    0.81
   8   9  15   -0.44    1.26
   8  10  -7   19.24    2.69
  -8 -10   7   34.06    3.06
   8  10  -6    7.99    1.61
  -8 -10   6   13.11    2.06
  -8 -10   5    3.18    1.70
   8  10  -5    1.94    1.15
  -8 -10   4    8.48    1.96
   8  10  -3    1.61    1.09
   8  10  -2    5.26    1.29
  -8 -10   2    6.25    1.97
   8  10  -1   -0.42    0.96
  -8 -10   1    0.53    1.74
   8  10   0    2.64    1.07
  -8 -10   0    4.12    1.96
   8  10   1    0.16    1.02
   8  10   2    0.74    1.09
  -8 -10  -3    2.27    0.98
   8  10   3    2.25    1.06
  -8 -10  -4    0.85    0.89
   8  10   4    1.07    1.04
  -8 -10  -5    4.67    1.17
   8  10   5    3.76    1.30
  -8 -10  -6    2.48    1.04
   8  10   6    2.22    1.08
  -8 -10  -7    1.87    0.99
  -8 -10  -8    0.47    0.91
  -8 -10  -9    1.30    1.03
   8  10   9    1.83    1.09
   8  10  10    2.06    1.15
  -8 -10 -10    5.60    1.23
   8  10  11    0.22    1.08
  -8 -10 -11   -0.15    0.94
   8  10  12    1.97    1.23
  -8 -10 -12    4.27    1.21
  -8 -10 -13    0.46    0.94
   8  10  13   -0.48    1.15
   8  10  14    2.50    1.36
  -8 -10 -14    7.89    1.36
  -8 -11   6    5.65    1.76
   8  11  -5    1.72    1.14
  -8 -11   4    5.05    1.76
   8  11  -4   -0.42    1.05
   8  11  -3    3.92    1.36
  -8 -11   3   11.58    2.05
   8  11  -2    5.74    1.36
  -8 -11   2   10.68    2.11
   8  11  -1   19.44    2.62
  -8 -11   1   38.69    3.36
   8  11   0   -0.32    1.03
   8  11   2    0.44    1.11
   8  11   3    2.08    1.17
  -8 -11  -4    4.07    1.13
   8  11   4    4.02    1.28
  -8 -11  -5    1.91    1.00
   8  11   5    2.44    1.20
  -8 -11  -6    1.40    0.95
   8  11   6    0.28    1.02
  -8 -11  -7    3.00    1.08
   8  11   7    1.77    1.12
  -8 -11  -8    3.53    1.11
   8  11   8    2.45    1.15
  -8 -11  -9    0.74    1.02
   8  11   9   -0.50    1.02
  -8 -11 -10    0.84    0.99
   8  11  10    0.51    1.09
   8  11  11    2.35    1.26
  -8 -11 -11    3.52    1.15
  -8 -11 -12    4.96    1.24
  -8 -11 -13    1.07    1.00
  -8 -12   4    7.83    1.88
  -8 -12   3    1.71    1.72
   8  12  -2    1.53    1.18
   8  12  -1    2.52    1.15
   8  12   0    0.59    1.03
   8  12   1   10.40    1.66
   8  12   2    0.32    1.06
   8  12   3    0.50    1.12
   8  12   4    4.61    1.28
  -8 -12  -5    4.28    1.13
   8  12   5    2.37    1.18
  -8 -12  -6    3.82    1.14
  -8 -12  -7    0.40    0.98
   8  12   7    1.94    1.09
  -8 -12  -8    0.86    0.98
   8  12   8   -0.11    1.05
  -8 -12  -9    2.16    1.14
   8  12   9   -0.11    1.09
  -8 -12 -10   12.35    1.64
   8  12  10    4.27    1.49
  -8 -12 -11   16.25    1.87
   8  12  11    5.39    1.65
   8  13   4    0.98    1.08
   8  13   5    0.93    1.08
   8  13   6    0.22    1.09
  -8 -13  -7    0.35    0.92
  -8 -13  -8    0.87    0.97
   9  -5  -7    0.74    1.61
   9  -5  -6    1.04    1.72
   9  -5  -5    1.88    2.10
  -9   4   6    3.86    1.37
   9  -4  -6    1.03    1.77
   9  -4  -5   -0.81    1.96
  -9   4   4    1.79    1.25
   9  -4  -4    0.39    2.31
  -9   4   3    1.66    1.16
   9  -4  -3    1.36    2.74
  -9   4   2    0.91    1.16
   9  -4  -2   -0.16    2.98
  -9   4   1    0.07    1.07
   9  -4  -1    2.25    3.04
  -9   4   0    2.95    1.25
   9  -4   0    2.24    3.01
  -9   4  -1    3.45    1.26
   9  -4   1    1.36    3.08
  -9   3  10    1.65    1.35
  -9   3   9    1.38    1.14
  -9   3   8   -0.38    1.21
  -9   3   7    6.03    1.46
   9  -3  -6    0.30    1.70
  -9   3   5    1.13    1.24
   9  -3  -5    1.47    1.99
  -9   3   4    2.12    1.26
  -9   3   3    0.47    1.14
   9  -3  -3    1.19    2.62
  -9   3   2    0.73    1.19
   9  -3  -2    2.79    2.92
  -9   3   1    6.70    1.46
   9  -3  -1    3.43    3.47
   9  -3   0    2.25    3.27
  -9   3  -1    1.51    1.14
   9  -3   1   -1.10    3.22
  -9   3  -2    0.95    1.17
   9  -3   2    6.01    3.46
  -9   3  -3    0.19    1.16
   9  -3   3    0.16    2.88
  -9   3  -4    0.29    1.12
   9  -3   4   -0.44    2.58
  -9   3  -5    1.61    1.11
  -9   2  11    0.22    1.10
  -9   2  10    1.14    1.25
  -9   2   9    9.40    1.67
  -9   2   8   -0.16    1.22
  -9   2   6    3.44    1.25
   9  -2  -6    0.85    1.63
  -9   2   5    1.06    1.12
   9  -2  -5    1.84    1.86
  -9   2   4    0.42    1.17
   9  -2  -4   -1.63    2.10
  -9   2   3   -0.50    1.18
   9  -2  -3    2.00    2.45
  -9   2   2    1.92    1.26
   9  -2  -2    1.33    2.89
   9  -2  -1    2.92    3.27
  -9   2   0    0.04    1.21
   9  -2   0    0.40    3.13
  -9   2  -1    0.35    1.21
   9  -2   1    1.18    3.31
  -9   2  -2    1.13    1.30
   9  -2   2   -1.84    3.26
  -9   2  -3    0.93    1.24
   9  -2   3    3.03    3.03
   9  -2   4   -0.60    2.63
  -9   2  -5    0.90    1.15
  -9   2  -6    3.89    1.27
   9  -2   6    1.86    2.10
  -9   2  -7    1.71    1.15
  -9   2  -8    1.13    1.17
  -9   1  12    0.82    1.20
  -9   1  11    4.74    1.35
  -9   1  10    6.76    1.40
  -9   1   9    1.85    1.18
  -9   1   7    1.19    1.19
  -9   1   6    0.57    1.20
  -9   1   5    1.00    1.25
   9  -1  -5    0.20    1.67
  -9   1   4    6.56    1.33
   9  -1  -4    2.64    2.12
  -9   1   3    0.56    1.21
   9  -1  -2    3.89    2.85
  -9   1   1   -0.59    1.19
   9  -1  -1    2.76    3.28
  -9   1   0    1.85    1.35
   9  -1   0   -0.40    3.52
  -9   1  -1    2.00    1.37
   9  -1   2   -0.18    3.27
   9  -1   3    0.82    2.84
  -9   1  -4    2.94    1.38
   9  -1   4   -1.75    2.52
  -9   1  -5    1.51    1.31
   9  -1   5   -0.26    2.22
  -9   1  -6    1.23    1.23
   9  -1   6    0.82    1.91
   9  -1   7    0.55    1.87
  -9   1  -8    3.94    1.26
   9  -1   8    1.97    1.80
   9   0 -14   13.41    2.24
   9   0 -13   12.64    2.07
  -9   0  13    5.50    1.42
   9   0 -12    0.93    1.47
  -9   0  12   -1.37    1.24
   9   0 -11    6.91    1.63
  -9   0  11    2.43    1.28
   9   0 -10    0.06    1.28
  -9   0  10   -0.04    1.18
   9   0  -9    0.96    1.41
   9   0  -8    1.01    1.50
  -9   0   8    1.19    1.15
   9   0  -7    1.80    1.32
  -9   0   7    1.39    1.05
   9   0  -6    1.68    1.30
  -9   0   6    0.40    1.04
  -9   0   5    5.38    1.19
   9   0  -5    1.39    1.69
  -9   0   4   -0.18    1.17
   9   0  -4    0.11    1.91
   9   0  -3    2.33    2.41
  -9   0   2    2.62    1.22
   9   0  -2    1.38    2.79
  -9   0   1   -0.30    1.11
   9   0  -1    1.60    3.06
  -9   0   0    6.36    1.52
   9   0   0    5.11    3.43
  -9   0  -1    6.44    1.55
   9   0   1   -0.75    3.36
  -9   0  -2    0.26    1.35
   9   0   2    2.44    3.02
  -9   0  -3    1.09    1.41
   9   0   3    1.41    2.61
  -9   0  -4    1.10    1.36
   9   0   4    0.84    2.33
  -9   0  -5    3.43    1.50
   9   0   5   -1.36    2.26
  -9   0  -6   -0.70    1.33
  -9   0  -7    3.66    1.27
   9   0   7   -0.10    1.71
  -9   0  -8    0.40    1.07
   9   0   8    2.19    1.79
  -9   0  -9    1.92    1.10
   9   0   9    0.49    1.69
   9   0  10   -1.17    1.78
   9   1 -14    1.43    1.36
   9   1 -13    1.66    1.48
  -9  -1  13    1.44    1.33
   9   1 -12    5.28    1.56
  -9  -1  12    4.44    1.40
   9   1 -11    5.25    1.67
  -9  -1  11    3.50    1.39
   9   1 -10    1.82    1.46
   9   1  -9   -0.38    1.43
  -9  -1   9    0.41    1.21
  -9  -1   8    1.65    1.08
   9   1  -7    7.99    1.79
  -9  -1   7    3.23    1.23
   9   1  -6   13.85    2.15
  -9  -1   6   10.45    1.66
   9   1  -5    2.21    1.49
  -9  -1   5    1.85    1.17
   9   1  -4    2.44    1.43
   9   1  -4   -0.29    1.76
  -9  -1   3    3.37    1.27
   9   1  -3    4.44    1.67
   9   1  -3    2.03    2.22
  -9  -1   2    0.51    1.18
   9   1  -2    0.57    2.53
   9   1  -2    1.89    1.53
  -9  -1   1    3.63    1.37
   9   1  -1    5.85    1.76
  -9  -1   0    3.45    1.33
   9   1   0    1.39    3.19
   9   1   0    4.86    1.69
  -9  -1  -1   -0.52    1.30
   9   1   1    1.77    2.98
  -9  -1  -3    1.11    1.44
   9   1   3   -2.26    2.44
  -9  -1  -4    2.34    1.49
   9   1   4    0.80    2.36
  -9  -1  -5    1.45    1.35
   9   1   5   -2.01    2.12
   9   1   6    0.32    1.92
  -9  -1  -7    0.95    1.24
  -9  -1  -8    0.24    1.06
   9   1   8    0.56    1.72
   9   1   9    0.64    1.45
   9   1  10    3.41    1.78
   9   1  11   -0.28    1.59
   9   2 -13   -0.06    1.24
  -9  -2  13   -0.45    1.27
   9   2 -12    0.06    1.29
  -9  -2  12    0.53    1.32
   9   2 -11   -0.06    1.30
   9   2 -10    4.99    1.54
  -9  -2  10    3.51    1.38
   9   2  -9    1.34    1.46
  -9  -2   9   -0.04    1.22
   9   2  -8    5.44    1.58
  -9  -2   8    2.18    1.27
   9   2  -7    0.45    1.38
  -9  -2   7    0.93    1.18
   9   2  -6    0.06    1.29
  -9  -2   6   -0.65    0.99
   9   2  -5    2.98    1.55
  -9  -2   4    0.51    1.12
   9   2  -4    2.10    1.63
  -9  -2   3    2.07    1.10
   9   2  -3   -1.07    1.97
  -9  -2   2    1.31    1.09
   9   2  -2   -0.25    2.21
  -9  -2   1    1.12    1.09
   9   2  -1    0.80    1.58
   9   2   0    1.07    1.63
  -9  -2   0    0.76    1.35
   9   2   0   -0.33    3.04
   9   2   1    3.10    1.77
   9   2   1    3.88    3.15
   9   2   2   -1.50    1.73
  -9  -2  -2   -0.29    1.37
   9   2   2   -1.26    2.81
   9   2   3    2.05    1.68
  -9  -2  -3    0.83    1.47
   9   2   4    1.17    1.70
  -9  -2  -4    2.44    1.62
  -9  -2  -5    2.32    1.48
  -9  -2  -6    6.30    1.53
  -9  -2  -7    2.20    1.30
  -9  -2  -8    0.10    1.05
   9   3 -13    0.73    1.16
  -9  -3  13    1.23    1.46
   9   3 -12    0.90    1.12
   9   3 -11    1.68    1.24
  -9  -3  11    1.40    1.44
   9   3 -10    0.82    1.29
  -9  -3  10    1.63    1.25
   9   3  -9    1.06    1.26
  -9  -3   9    1.08    1.22
  -9  -3   8    1.34    1.19
   9   3  -7    2.68    1.36
  -9  -3   7    0.97    1.29
   9   3  -6    3.52    1.45
  -9  -3   5    1.38    1.19
   9   3  -5    0.31    1.25
  -9  -3   4    2.76    1.17
   9   3  -4    4.44    1.48
  -9  -3   3   -0.58    1.17
   9   3  -3    0.18    1.37
   9   3  -2   -0.51    1.39
  -9  -3   2    1.56    1.18
   9   3  -2   -0.11    2.06
  -9  -3   1    0.86    1.18
   9   3  -1    1.09    2.37
   9   3   0    1.15    1.38
   9   3   0    0.46    2.74
   9   3   1    7.84    1.82
  -9  -3  -1    3.67    1.42
   9   3   2    1.04    1.42
  -9  -3  -3    5.48    1.63
   9   3   4    1.96    1.71
  -9  -3  -4    2.17    1.55
   9   3   5    2.43    1.57
  -9  -3  -5    3.59    1.50
   9   3   6    6.95    1.72
  -9  -3  -6    4.23    1.49
  -9  -3  -7    0.91    1.22
   9   3   7    1.07    1.38
   9   3   8    2.57    1.36
   9   4 -12   -0.24    1.01
  -9  -4  12    0.40    1.36
   9   4 -11    1.95    1.11
  -9  -4  11    1.68    1.47
   9   4 -10    0.60    1.01
  -9  -4  10    2.38    1.44
   9   4  -9    0.46    1.08
  -9  -4   9    0.78    1.39
   9   4  -8    2.10    1.12
  -9  -4   8    0.38    1.40
   9   4  -7   19.06    2.31
  -9  -4   6    6.61    1.50
   9   4  -6    5.61    1.36
  -9  -4   5    0.58    1.28
   9   4  -5    2.20    1.22
  -9  -4   4    1.03    1.33
   9   4  -4    1.66    1.17
   9   4  -3    2.95    1.33
  -9  -4   3    2.15    1.22
  -9  -4   2    0.20    1.14
   9   4  -2    1.33    1.83
   9   4  -1    1.18    1.41
   9   4  -1    0.76    2.30
   9   4   0    8.52    1.71
   9   4   1    1.41    1.45
  -9  -4  -1    1.53    1.20
   9   4   2   -0.13    1.40
  -9  -4  -2    0.69    1.31
   9   4   3    6.23    1.79
  -9  -4  -3    8.53    1.76
   9   4   4    5.82    1.74
  -9  -4  -4    3.18    1.54
  -9  -4  -5    3.67    1.05
   9   4   5    7.48    1.72
  -9  -4  -5    6.55    1.74
  -9  -4  -6   -0.05    0.75
  -9  -4  -6   -0.31    1.27
   9   4   6    0.07    1.36
  -9  -4  -7   18.80    2.21
  -9  -4  -8    3.78    1.14
   9   4   8    6.94    1.56
  -9  -4  -9    1.53    0.93
   9   4   9    1.74    1.34
   9   4  10    1.44    1.16
  -9  -4 -10    0.20    0.97
  -9  -4 -11    0.40    0.81
   9   4  11    0.44    1.21
  -9  -4 -12   -0.39    0.93
   9   4  12   -0.38    1.23
  -9  -4 -13    1.45    0.94
   9   5 -12    3.80    1.12
  -9  -5  12    4.18    1.67
  -9  -5  11    6.83    1.73
  -9  -5  10    0.32    1.38
   9   5  -9    0.95    0.99
  -9  -5   9    0.59    1.47
   9   5  -8    1.12    1.02
  -9  -5   8   -0.22    1.46
   9   5  -7    9.49    1.48
  -9  -5   7    7.48    1.80
  -9  -5   6    1.76    1.50
   9   5  -6    1.19    1.00
  -9  -5   5    5.61    1.62
   9   5  -5    4.27    1.22
  -9  -5   4    8.06    1.64
   9   5  -4    5.65    1.31
   9   5  -3   -0.45    0.96
  -9  -5   3   -0.08    1.23
   9   5  -2    3.42    1.18
   9   5  -1    0.38    1.08
  -9  -5   1    0.31    1.27
   9   5   0    0.94    1.19
  -9  -5   0    0.98    1.31
   9   5   1    4.18    1.44
  -9  -5  -1    3.31    1.27
   9   5   2    6.56    1.61
  -9  -5  -2    5.09    1.43
  -9  -5  -3    1.06    0.85
  -9  -5  -3    0.92    1.41
  -9  -5  -4    0.84    0.90
   9   5   4    1.51    1.32
  -9  -5  -4    0.84    1.44
  -9  -5  -5    1.94    0.98
   9   5   5    3.52    1.50
  -9  -5  -5    2.64    1.36
  -9  -5  -6    5.24    1.26
   9   5   6    4.98    1.53
  -9  -5  -7    2.49    1.03
   9   5   7    2.25    1.30
  -9  -5  -8    0.98    0.91
   9   5   8    0.31    1.29
   9   5   9   15.92    2.10
  -9  -5  -9   13.15    1.82
   9   5  10    0.31    1.19
  -9  -5 -10   -0.63    0.94
  -9  -5 -11    4.43    1.19
  -9  -5 -12   -0.21    0.94
   9   5  12    1.42    1.31
  -9  -5 -13    0.57    0.92
   9   5  13    0.07    1.26
  -9  -5 -14    1.32    0.95
   9   5  14    2.82    1.53
   9   5  15    0.14    1.46
   9   6 -11    0.09    0.94
  -9  -6  11   -0.53    1.46
   9   6 -10    0.78    0.95
   9   6  -9   -0.18    0.93
  -9  -6   9   -0.18    1.39
   9   6  -8    0.45    0.90
  -9  -6   8    1.89    1.57
  -9  -6   7    2.40    1.62
   9   6  -7    0.92    0.95
   9   6  -6   13.40    1.81
  -9  -6   6   14.27    2.19
  -9  -6   5   18.15    2.52
  -9  -6   4   12.52    2.04
   9   6  -3    0.92    0.88
  -9  -6   3    0.86    1.41
   9   6  -2    8.02    1.41
  -9  -6   2    8.68    1.71
   9   6  -1    1.20    1.06
  -9  -6   1    1.40    1.28
   9   6   0    1.28    1.08
  -9  -6   0    2.78    1.33
   9   6   1   10.88    1.71
  -9  -6  -1    8.29    1.54
  -9  -6  -1    7.66    1.31
  -9  -6  -2    0.95    0.88
   9   6   2   -0.60    1.19
  -9  -6  -2    0.17    1.13
   9   6   3   -0.06    1.15
  -9  -6  -3    0.37    1.23
  -9  -6  -4    0.93    0.91
   9   6   4    0.73    1.18
  -9  -6  -4    2.90    1.43
  -9  -6  -5    0.38    0.93
   9   6   5   -0.18    1.19
  -9  -6  -6    1.21    0.98
   9   6   6    0.85    1.19
  -9  -6  -8    3.69    1.07
   9   6   8    3.04    1.38
  -9  -6  -9    0.50    0.89
   9   6   9    1.04    1.31
   9   6  10    9.87    1.72
  -9  -6 -10    4.50    1.27
  -9  -6 -11    1.89    1.04
   9   6  11    2.69    1.40
   9   6  12   -0.72    1.29
  -9  -6 -13    5.52    1.32
   9   6  13    7.06    1.69
  -9  -6 -14    0.20    0.95
   9   6  15    2.09    1.41
   9   7 -10    3.33    1.09
  -9  -7  10    6.23    1.64
   9   7  -9    0.32    0.90
  -9  -7   9    0.09    1.44
   9   7  -8    0.45    0.90
  -9  -7   8    1.45    1.54
  -9  -7   7    0.09    1.48
   9   7  -7   -0.57    0.94
  -9  -7   6    1.82    1.57
   9   7  -6    0.51    0.92
   9   7  -5    1.35    0.97
   9   7  -4    2.51    1.01
  -9  -7   4    3.40    1.63
   9   7  -3    1.48    0.92
  -9  -7   3    3.43    1.60
   9   7  -2    0.51    0.95
  -9  -7   2    0.26    1.42
   9   7  -1    0.82    1.01
  -9  -7   1    1.48    1.41
  -9  -7  -1    0.57    0.79
  -9  -7  -1   -0.21    1.21
   9   7   2   23.03    2.64
  -9  -7  -2   24.06    2.53
  -9  -7  -2   20.74    2.36
  -9  -7  -3   -0.57    0.83
   9   7   3    0.53    1.13
  -9  -7  -3    1.09    1.18
   9   7   4    8.93    1.59
   9   7   5   21.44    2.39
  -9  -7  -5   16.78    2.15
   9   7   6   23.07    2.41
  -9  -7  -6   15.22    2.17
  -9  -7  -7    0.14    0.89
   9   7   7    0.53    1.15
   9   7   8    6.81    1.50
  -9  -7  -9    4.59    1.18
   9   7   9    6.39    1.49
   9   7  10    0.55    1.24
  -9  -7 -10    0.25    0.79
  -9  -7 -11   -0.10    0.96
  -9  -7 -12    0.55    0.98
   9   7  12    2.38    1.38
   9   7  13   -0.67    1.42
  -9  -7 -14    1.29    1.01
   9   7  14    2.53    1.46
   9   7  15   -0.14    1.41
  -9  -8   9    9.77    1.96
   9   8  -8    0.73    0.98
  -9  -8   8    0.09    1.55
  -9  -8   6   -0.56    1.63
   9   8  -6    0.09    0.95
  -9  -8   5    2.36    1.67
   9   8  -5    2.40    1.02
   9   8  -4   -0.34    0.99
  -9  -8   4    1.74    1.59
   9   8  -3    0.58    0.95
  -9  -8   3    2.37    1.66
   9   8  -2    0.25    0.92
  -9  -8   2    0.78    1.56
   9   8  -1    8.49    1.43
   9   8   0    1.10    1.07
  -9  -8   0    2.71    1.46
   9   8   1    2.75    1.11
  -9  -8  -1    2.37    1.50
  -9  -8  -2    0.50    0.80
   9   8   2    0.75    1.09
  -9  -8  -2   -0.22    1.26
   9   8   3    0.52    1.01
   9   8   4    8.50    1.55
  -9  -8  -4    9.89    1.45
  -9  -8  -6    5.58    1.16
   9   8   6    5.70    1.37
   9   8   7   10.40    1.78
  -9  -8  -7   13.52    1.71
  -9  -8  -8    0.48    0.85
   9   8   8    0.98    1.09
   9   8   9    0.71    1.18
   9   8  10    0.84    1.19
  -9  -8 -10    0.67    0.83
   9   8  11    9.18    1.75
  -9  -8 -11   11.74    1.68
  -9  -8 -12    1.21    0.96
   9   8  12    3.84    1.37
  -9  -8 -13    0.63    0.95
   9   8  13    1.11    1.34
  -9  -9   8    2.09    1.64
   9   9  -7   14.23    2.05
  -9  -9   7   20.31    2.42
  -9  -9   6    0.67    1.49
   9   9  -6    0.24    0.94
  -9  -9   5    4.01    1.75
   9   9  -5    3.87    1.19
   9   9  -4   11.88    1.72
  -9  -9   4   13.09    2.22
  -9  -9   2    1.18    1.71
   9   9  -1    3.35    1.18
  -9  -9   1    3.19    1.78
   9   9   0    1.85    1.05
  -9  -9   0    2.33    1.59
   9   9   1    4.52    1.30
  -9  -9  -1    8.32    1.72
   9   9   2    1.32    1.15
  -9  -9  -3    0.35    0.84
   9   9   3    0.28    1.11
  -9  -9  -4    0.77    0.87
   9   9   4    1.32    1.12
  -9  -9  -5    2.10    0.97
   9   9   5    2.78    1.15
   9   9   6   -0.11    0.96
  -9  -9  -7    4.67    1.21
   9   9   7    4.21    1.27
  -9  -9  -8    0.19    0.82
   9   9   8    0.06    0.97
  -9  -9  -9    2.97    1.12
   9   9  11    0.54    1.14
  -9  -9 -11   -0.05    0.92
   9   9  12    2.14    1.26
  -9  -9 -12    0.29    0.93
   9   9  13    0.19    1.20
  -9  -9 -13   -0.24    0.88
  -9 -10   6    4.58    1.70
   9  10  -5    0.45    1.01
  -9 -10   4    7.39    1.86
   9  10  -4    3.12    1.17
   9  10  -3    0.25    1.00
  -9 -10   3    2.84    1.79
   9  10  -2    7.69    1.42
  -9 -10   2    8.97    2.13
   9  10  -1    0.64    1.06
  -9 -10   1    2.84    1.84
   9  10   0    0.21    0.97
   9  10   1    1.45    1.10
  -9 -10  -4    3.90    1.03
   9  10   4    1.51    1.21
   9  10   5   19.51    2.45
  -9 -10  -5   23.29    2.48
  -9 -10  -6    1.48    0.97
   9  10   6    2.16    1.15
   9  10   7    3.93    1.18
   9  10   8    5.58    1.39
  -9 -10  -8    8.44    1.42
  -9 -10  -9    1.30    0.92
   9  10   9    0.33    1.10
  -9 -10 -10    0.15    0.97
   9  10  10   -0.29    1.15
  -9 -10 -11    0.38    0.92
   9  10  11   -0.41    1.14
   9  10  12    3.00    1.29
  -9 -10 -12    1.38    1.00
  -9 -10 -13    1.43    0.99
  -9 -11   4    4.43    1.84
  -9 -11   3    4.75    1.96
   9  11  -2    0.96    1.10
   9  11  -1    3.31    1.17
   9  11   0    0.69    1.07
   9  11   1    5.61    1.32
   9  11   2    0.65    1.10
   9  11   3    0.11    1.05
   9  11   4    0.77    1.08
   9  11   5   -0.05    1.06
   9  11   6    8.23    1.58
  -9 -11  -6   10.40    1.59
  -9 -11  -7   15.71    2.03
  -9 -11  -8    5.32    1.31
   9  11   9    4.29    1.17
  -9 -11  -9    0.05    1.32
  -9 -11 -10    0.87    1.00
   9  11  10    0.55    1.09
  -9 -11 -11   13.36    1.86
   9  12   3    0.05    1.03
   9  12   4    0.05    1.04
   9  12   5    0.11    1.07
   9  12   6    0.37    1.05
  -9 -12  -7    0.15    0.89
   9  12   7    1.49    1.15
  -9 -12  -8    0.20    0.93
  -9 -12  -9    0.35    0.96
  -9 -12 -10    9.72    1.62
  10  -3  -4    3.24    2.44
  10  -3  -3    2.00    2.88
  10  -3  -2    1.70    3.25
  10  -3  -1    7.09    3.99
 -10   2   6    1.25    1.19
 -10   2   5   -0.19    1.13
 -10   2   4    7.58    1.40
  10  -2  -4   -0.70    2.30
  10  -2  -3   -2.12    2.73
 -10   2   2    1.03    1.19
  10  -2  -2    1.85    3.04
 -10   2   1    0.07    1.19
  10  -2  -1    2.11    3.92
 -10   2   0    0.04    1.14
  10  -2   0   -3.32    3.95
 -10   2  -1   -0.26    1.14
  10  -2   1    0.22    4.09
  10  -2   2    2.23    3.53
 -10   2  -3   10.12    1.73
 -10   1   8    9.78    1.66
 -10   1   7    0.73    1.12
 -10   1   6    3.39    1.29
 -10   1   5    6.91    1.44
 -10   1   4    6.19    1.35
 -10   1   3    5.80    1.40
  10  -1  -3    0.93    2.69
 -10   1   2    0.95    1.18
  10  -1  -2    1.29    3.29
 -10   1   1    0.27    1.26
 -10   1   0    2.03    1.36
  10  -1   0    3.23    4.33
 -10   1  -1    0.16    1.29
  10  -1   1   -0.23    3.96
 -10   1  -2    0.28    1.20
  10  -1   2    1.26    3.65
 -10   1  -3    0.58    1.29
 -10   1  -4   -0.68    1.30
  10  -1   4   -1.77    3.04
 -10   1  -5    3.93    1.40
  10  -1   5    0.70    2.57
 -10   1  -6    1.48    1.23
 -10   1  -7    2.49    1.27
 -10   0   9    0.91    1.14
 -10   0   8    2.39    1.25
 -10   0   7    6.59    1.37
 -10   0   6    2.76    1.28
 -10   0   5    3.90    1.33
 -10   0   4    8.22    1.46
 -10   0   3    9.05    1.54
  10   0  -3    3.54    2.73
 -10   0   2   85.37    6.34
  10   0  -2   15.60    6.80
 -10   0   1   27.83    2.76
  10   0  -1    4.34    4.22
 -10   0   0   39.50    3.62
  10   0   0   10.62    5.32
  10   0   1   -0.45    3.59
 -10   0  -2    0.30    1.33
  10   0   2    0.83    3.33
 -10   0  -3    2.10    1.37
  10   0   3   -0.54    3.27
 -10   0  -4    2.33    1.45
  10   0   4    1.09    2.72
  10   0   5   -1.07    2.24
 -10   0  -6    3.75    1.39
  10   0   6   -0.95    2.03
  10   0   7    0.54    1.91
  10   1 -12   15.27    2.47
  10   1 -11    0.67    1.51
  10   1 -10    2.90    1.69
 -10  -1  10    0.15    1.14
  10   1  -9    5.49    1.94
 -10  -1   9    2.95    1.21
  10   1  -8    0.61    1.56
 -10  -1   8    0.52    1.18
  10   1  -7    5.10    1.80
 -10  -1   7    3.18    1.18
 -10  -1   6    1.25    1.17
 -10  -1   5    1.71    1.21
 -10  -1   4    0.25    1.10
 -10  -1   3    0.76    1.25
 -10  -1   2    0.49    1.16
  10   1  -2    0.50    2.77
 -10  -1   1    1.21    1.26
  10   1  -1    0.19    3.28
 -10  -1  -1    8.52    1.74
  10   1   1    2.10    3.87
 -10  -1  -2   26.05    2.68
  10   1   2    3.68    4.09
 -10  -1  -3    2.72    1.52
  10   1   3    2.21    3.02
 -10  -1  -4   17.63    2.33
 -10  -1  -5    6.64    1.66
  10   1   5    1.55    2.38
  10   1   6    0.57    1.99
 -10  -1  -7    1.20    1.30
  10   1   7   -0.21    1.83
  10   1   8   -0.88    1.66
  10   2 -10   27.51    2.71
 -10  -2  10   12.03    2.05
  10   2  -9   23.00    2.49
 -10  -2   9    9.87    1.83
  10   2  -8   14.47    2.24
 -10  -2   8    4.07    1.41
  10   2  -7   14.72    2.18
 -10  -2   7    6.00    1.43
  10   2  -6   13.53    2.29
 -10  -2   6    7.75    1.53
  10   2  -5    1.98    1.84
 -10  -2   5    0.11    1.16
 -10  -2   4    1.35    1.13
  10   2  -4    0.50    1.72
 -10  -2   3    2.01    1.25
  10   2  -3    3.96    1.96
 -10  -2   2    0.07    1.16
  10   2  -2    0.31    2.61
  10   2  -2    2.14    1.85
  10   2  -1    1.76    3.11
  10   2  -1    8.54    2.20
 -10  -2   0    3.41    1.40
  10   2   0    3.62    3.32
 -10  -2  -1    6.36    1.54
  10   2   1    8.10    3.80
 -10  -2  -2   -0.44    1.44
  10   2   2   -0.18    2.88
 -10  -2  -3    1.55    1.52
  10   2   3   -1.46    2.55
 -10  -2  -4    1.37    1.56
  10   2   4    1.42    2.65
 -10  -2  -5    1.11    1.41
 -10  -2  -6   10.42    1.85
  10   2   6    0.11    2.06
  10   2   7    1.00    1.81
  10   2   8   -0.56    1.60
  10   2   9    0.99    1.47
  10   3 -11    4.28    1.48
  10   3 -10   11.61    1.91
 -10  -3  10    6.30    1.52
  10   3  -9   29.15    2.78
 -10  -3   9   14.36    2.22
  10   3  -8    4.19    1.60
  10   3  -7   20.79    2.45
 -10  -3   7   10.13    1.86
  10   3  -6    2.38    1.62
 -10  -3   6    0.51    1.17
 -10  -3   5    4.93    1.42
  10   3  -5    9.35    2.05
  10   3  -4   41.12    3.58
 -10  -3   4   19.75    2.57
 -10  -3   3    1.25    1.28
  10   3  -2   -1.04    1.78
 -10  -3   1    3.67    1.29
  10   3  -1    2.97    2.99
  10   3  -1    6.82    2.05
  10   3   0    1.21    1.71
 -10  -3   0    0.51    1.31
  10   3   0   -0.87    2.95
  10   3   1    8.46    2.08
 -10  -3  -1    5.60    1.59
  10   3   1    2.52    3.29
  10   3   2    5.30    1.87
 -10  -3  -2    2.65    1.56
  10   3   2    3.21    3.03
  10   3   3   -0.16    1.49
  10   3   3   -1.34    2.71
 -10  -3  -4    3.01    1.78
 -10  -3  -5    2.03    1.57
 -10  -4  10    2.17    1.29
  10   4  -9   16.19    2.19
  10   4  -8   -0.84    1.28
 -10  -4   8    1.45    1.31
  10   4  -7    1.94    1.38
 -10  -4   7    1.02    1.27
 -10  -4   6    1.20    1.39
  10   4  -6    2.21    1.45
 -10  -4   5    4.70    1.48
  10   4  -5    7.71    1.84
 -10  -4   4    2.11    1.29
  10   4  -4    3.35    1.62
  10   4  -3    1.89    1.53
  10   4  -2   13.00    2.12
 -10  -4   2    8.14    1.58
  10   4  -1    2.43    1.51
 -10  -4   1    1.83    1.21
  10   4   0    1.80    1.50
 -10  -4   0   -0.11    1.19
 -10  -4  -1   10.79    1.86
  10   4   1    8.30    3.38
  10   4   3    2.59    1.56
 -10  -4  -3    0.94    1.45
  10   4   4    6.68    1.82
 -10  -4  -4    6.40    1.76
 -10  -4  -5   20.79    2.74
  10   4   5   22.34    2.75
  10   4   6    1.86    1.46
  10   4   7    4.49    1.53
  10   5 -10    1.65    1.10
  10   5  -9    4.77    1.33
 -10  -5   9    3.84    1.46
  10   5  -8    8.09    1.49
 -10  -5   8    4.80    1.65
  10   5  -7    0.48    1.17
 -10  -5   7   -0.76    1.39
  10   5  -6   25.49    2.60
 -10  -5   6   15.81    2.45
 -10  -5   5    0.28    1.32
  10   5  -5    1.04    1.21
 -10  -5   3   10.47    1.78
  10   5  -2    9.99    1.71
 -10  -5   2    4.44    1.44
  10   5  -1   -0.06    1.22
 -10  -5   1    0.83    1.16
  10   5   0    5.37    1.60
 -10  -5   0    4.19    1.40
  10   5   1    2.56    1.46
  10   5   2    0.65    1.41
 -10  -5  -2    2.54    1.48
  10   5   3    4.64    1.66
 -10  -5  -3    4.84    1.56
  10   5   4   19.40    2.58
 -10  -5  -4   18.01    2.38
  10   5   5    2.51    1.43
 -10  -5  -7    4.58    1.16
  10   5   7    7.82    1.67
  10   5   8   24.24    2.85
 -10  -5  -9    5.87    1.35
  10   5   9   11.52    1.70
 -10  -5 -10   -0.30    0.93
  10   5  10    0.38    1.12
 -10  -5 -11    1.67    1.02
  10   5  11    6.61    1.52
  10   6  -9    0.68    1.00
 -10  -6   9    0.79    1.49
  10   6  -8    3.65    1.18
 -10  -6   8    3.61    1.56
  10   6  -7    4.23    1.22
 -10  -6   7    2.55    1.56
 -10  -6   6    4.43    1.62
  10   6  -6    2.60    1.19
  10   6  -5    4.69    1.28
  10   6  -4   41.80    3.80
 -10  -6   4   33.13    3.73
  10   6  -3   16.98    2.04
 -10  -6   3   11.07    1.97
  10   6  -2   12.29    1.80
 -10  -6   2    8.62    1.72
  10   6  -1    1.22    1.26
 -10  -6   1    1.04    1.28
  10   6   0    0.89    1.21
  10   6   1    5.77    1.48
 -10  -6  -2    0.66    1.27
 -10  -6  -3   -0.50    0.87
  10   6   3    0.51    1.33
 -10  -6  -4    0.39    0.94
  10   6   4    0.38    1.28
 -10  -6  -5    3.98    1.20
  10   6   5    4.49    1.54
 -10  -6  -6    1.39    1.04
  10   6   6    3.38    1.42
 -10  -6  -7    0.42    1.04
  10   6   7    0.31    1.34
 -10  -6  -8    2.01    1.09
  10   6   8    2.63    1.29
  10   6   9   -0.56    1.18
 -10  -6 -10    7.49    1.49
 -10  -6 -11    1.62    1.01
  10   6  11    0.13    1.28
 -10  -6 -12    0.16    0.91
  10   6  12    1.09    1.37
  10   6  13    1.81    1.45
  10   7  -8    0.60    1.03
 -10  -7   8   -0.27    1.43
  10   7  -7    1.57    1.11
 -10  -7   6   -0.37    1.51
 -10  -7   5    1.68    1.60
 -10  -7   4    1.11    1.53
  10   7  -4   -0.36    1.04
  10   7  -3    4.57    1.29
 -10  -7   3    4.36    1.59
  10   7  -2    0.63    1.03
 -10  -7   2    1.45    1.43
  10   7  -1   37.04    3.29
 -10  -7   1   23.91    3.13
  10   7   0   37.91    3.59
 -10  -7   0   30.88    3.44
  10   7   1    2.05    1.24
 -10  -7  -1    3.30    1.30
  10   7   2   14.85    2.11
 -10  -7  -3    4.35    1.18
  10   7   3    7.26    1.56
 -10  -7  -4    0.40    0.92
  10   7   4    2.30    1.29
  10   7   5   14.86    2.03
 -10  -7  -5   10.70    1.74
 -10  -7  -6    0.26    0.99
 -10  -7  -7    6.76    1.39
  10   7   7    9.87    1.72
 -10  -7  -8    0.89    1.06
  10   7   8    0.24    1.24
 -10  -7  -9    0.21    1.02
  10   7   9    1.35    1.32
  10   7  10    5.67    1.58
 -10  -7 -11    0.95    0.99
  10   7  11    0.20    1.23
 -10  -7 -12    0.05    0.95
  10   7  12    0.27    1.34
 -10  -8   7    1.78    1.57
 -10  -8   6    1.81    1.60
  10   8  -6    0.84    1.04
 -10  -8   5    1.54    1.69
  10   8  -5    1.68    1.07
 -10  -8   4    3.01    1.61
  10   8  -4    2.59    1.10
  10   8  -3   -0.36    1.01
  10   8  -2    0.67    0.99
 -10  -8   2    2.26    1.53
 -10  -8   1    1.64    1.54
 -10  -8   0   18.89    2.39
  10   8   1   15.27    2.06
  10   8   2   12.63    1.92
  10   8   3    1.43    1.21
 -10  -8  -4    2.42    1.00
  10   8   4    2.11    1.27
 -10  -8  -5    1.15    0.95
  10   8   5    1.48    1.19
 -10  -8  -6    1.73    1.02
  10   8   6    2.17    1.23
 -10  -8  -7    4.67    1.24
  10   8   7    5.55    1.40
 -10  -8  -8   -0.41    0.96
  10   8   8   -0.18    1.11
 -10  -8  -9   -0.05    1.03
  10   8   9    0.66    1.16
 -10  -8 -10    1.12    1.02
  10   8  11    0.26    1.27
 -10  -8 -12    0.20    0.94
  10   8  12    0.20    1.40
 -10  -9   6    4.38    1.74
 -10  -9   4    2.59    1.76
  10   9  -4    1.45    1.04
  10   9  -3   -0.26    1.08
 -10  -9   3    2.69    1.73
  10   9  -2    0.57    1.06
 -10  -9   2    1.84    1.66
  10   9  -1    1.77    1.11
 -10  -9   1    1.29    1.58
  10   9   0    0.27    1.07
  10   9   1    2.56    1.19
  10   9   2    4.72    1.35
  10   9   3    0.81    1.11
 -10  -9  -5    0.30    0.85
  10   9   5    0.86    1.15
 -10  -9  -6    1.20    0.97
  10   9   6    2.51    1.19
 -10  -9  -7   -0.49    0.94
  10   9   7    0.46    1.14
  10   9   8    2.07    1.16
 -10  -9  -9    0.20    0.94
  10   9   9    0.35    1.12
 -10  -9 -10    0.60    0.91
  10   9  10    0.71    1.17
 -10  -9 -11    0.94    0.99
  10   9  11    2.42    1.31
 -10 -10   4    1.75    1.70
 -10 -10   3    6.23    1.92
  10  10  -1   -0.16    1.03
  10  10   0    0.49    1.14
  10  10   1    0.11    1.07
  10  10   2   -0.22    1.08
  10  10   3   -0.28    1.08
  10  10   4   -0.17    1.06
  10  10   5    0.33    1.09
 -10 -10  -6    0.64    0.93
  10  10   6   -0.28    1.07
 -10 -10  -7    0.64    0.94
  10  10   7    0.93    1.11
 -10 -10  -8    2.11    0.98
  10  10   8    1.66    1.10
 -10 -10 -10    1.65    1.02
  10  11   4    0.11    1.04
  10  11   5    0.85    1.07
 -10 -11  -8    1.70    1.02
 -10 -11  -9    0.24    0.91
  11  -1  -1    2.04    3.98
 -11   0   3    0.94    1.16
 -11   0   2    0.89    1.25
  11   0  -1    0.88    3.54
 -11   0   0    1.06    1.25
  11   0   0    3.20    4.19
 -11   0  -1    3.41    1.34
  11   0   1   -0.24    4.35
 -11   0  -2    0.69    1.27
 -11  -1   5    1.92    1.26
 -11  -1   4    0.51    1.15
 -11  -1   3    0.33    1.15
 -11  -1   1   -0.23    1.26
 -11  -1   0    2.28    1.35
  11   1   0    3.98    4.04
 -11  -1  -1    0.13    1.30
  11   1   1    0.71    4.01
 -11  -1  -2    0.17    1.35
  11   1   2    3.48    4.10
 -11  -1  -3    1.18    1.38
  11   1   3    1.69    3.42
 -11  -1  -4   -0.32    1.38
  11   1   4    4.02    2.93
 -11  -1  -5    0.98    1.45
 -11  -2   6    0.61    1.17
 -11  -2   5    1.38    1.15
 -11  -2   4    0.15    1.18
 -11  -2   2   -0.04    1.19
 -11  -2   1    0.42    1.20
 -11  -2   0   -0.12    1.25
  11   2   0    3.48    3.99
 -11  -2  -1    0.55    1.34
  11   2   1    0.22    3.67
  11   2   2   -1.01    3.46
 -11  -2  -3    0.46    1.40
 -11  -2  -4    1.95    1.48
  11   2   4    0.46    2.58
  11   2   5    0.79    2.41
  11   2   6    0.47    2.17
  11   3  -9    1.15    1.70
  11   3  -8    5.43    1.90
  11   3  -7    1.39    1.94
 -11  -3   7    0.33    1.18
  11   3  -6    2.17    1.87
 -11  -3   6    0.48    1.10
  11   3  -5    1.58    1.94
 -11  -3   5    0.04    1.16
  11   3  -4    2.17    2.03
 -11  -3   3    1.18    1.18
  11   3  -3    2.57    2.01
 -11  -3   2   -0.11    1.18
 -11  -3   1   -0.47    1.29
 -11  -3   0    1.47    1.30
  11   3   1    1.94    3.53
 -11  -3  -2    0.27    1.41
  11   3   2    2.40    3.24
 -11  -3  -3    0.14    1.48
  11   3   3    1.32    2.71
 -11  -3  -4    1.41    1.51
  11   3   4    0.15    2.62
  11   3   5   -0.64    2.20
  11   3   6    1.13    1.98
  11   3   7   -0.10    1.94
  11   4  -8    7.30    1.80
  11   4  -7    2.90    1.68
 -11  -4   7    1.28    1.25
 -11  -4   6    3.73    1.37
  11   4  -5    2.24    1.69
 -11  -4   4    0.22    1.29
  11   4  -4   -0.26    1.71
 -11  -4   3    1.43    1.24
  11   4  -3    1.19    1.79
 -11  -4   2   -0.04    1.16
  11   4  -2    0.25    1.74
 -11  -4   1    0.52    1.23
  11   4  -1   -0.51    1.58
  11   4   0    1.17    1.71
  11   4   1    0.32    1.66
 -11  -4  -1    2.33    1.40
  11   4   2    5.33    1.81
 -11  -4  -2    2.43    1.40
  11   4   2   -0.17    2.92
 -11  -4  -3    2.54    1.50
  11   4   3    0.91    2.54
  11   4   4    2.29    2.33
  11   5  -7    2.14    1.34
 -11  -5   7    3.23    1.41
  11   5  -6    2.64    1.51
 -11  -5   5    0.31    1.36
  11   5  -5    1.90    1.62
 -11  -5   4    2.57    1.32
  11   5  -4    2.25    1.59
 -11  -5   3    0.55    1.22
  11   5  -3    0.28    1.41
 -11  -5   2    1.46    1.22
  11   5  -2    0.50    1.44
  11   5  -1    0.29    1.45
 -11  -5   0    2.21    1.30
  11   5   1    0.36    1.52
 -11  -5  -1   -0.04    1.31
  11   5   2    1.91    1.47
 -11  -5  -2    2.48    1.44
  11   5   3    0.55    1.35
  11   5   4    0.07    1.36
  11   5   5   -0.13    1.27
  11   5   6    1.94    1.41
 -11  -6   6    2.40    1.35
 -11  -6   5    7.13    1.60
 -11  -6   4    0.20    1.38
  11   6  -4   -1.22    1.31
 -11  -6   3    0.66    1.27
  11   6  -3    1.23    1.34
  11   6  -2    4.08    1.50
  11   6  -1    2.15    1.41
 -11  -6   1    2.09    1.28
  11   6   0    1.09    1.40
 -11  -6   0    1.32    1.27
  11   6   1    0.26    1.37
 -11  -6  -1    0.99    1.21
  11   6   2    2.31    1.34
  11   6   3    0.44    1.31
  11   6   4   -0.13    1.35
  11   6   6    0.44    1.16
  11   6   7    1.12    1.29
  11   6   8    5.25    1.59
  11   6   9    1.50    1.33
 -11  -7   6   -0.78    1.42
 -11  -7   5   -0.04    1.40
  11   7  -5    1.61    1.17
  11   7  -4    0.61    1.17
 -11  -7   3    3.36    1.48
  11   7  -3    2.21    1.25
  11   7  -2    0.82    1.24
 -11  -7   2    0.56    1.32
  11   7  -1    8.11    1.49
 -11  -7   1    2.43    1.41
 -11  -7   0    5.09    1.47
  11   7   1    0.66    1.28
  11   7   2    3.98    1.41
  11   7   3    0.48    1.25
  11   7   4    8.59    1.77
 -11  -7  -5    0.74    0.86
  11   7   5   -0.50    1.25
 -11  -7  -6    5.06    1.25
  11   7   6    7.48    1.53
 -11  -7  -7    1.39    0.95
  11   7   7   -0.30    1.25
 -11  -7  -9   -0.05    0.99
  11   7   9    0.55    1.27
  11   7  10    2.95    1.38
 -11  -8   5   -0.05    1.46
 -11  -8   4    1.04    1.51
 -11  -8   3    0.75    1.40
  11   8  -3    0.27    1.12
  11   8  -2   -0.11    1.10
 -11  -8   2    0.86    1.45
  11   8  -1    0.77    1.09
  11   8   0    1.54    1.20
  11   8   1   -0.34    1.14
  11   8   2    1.36    1.22
  11   8   3    2.49    1.24
  11   8   4    2.00    1.30
  11   8   6    8.51    1.71
 -11  -8  -6    9.23    1.49
 -11  -8  -7    1.29    0.98
  11   8   7    0.83    1.20
 -11  -8  -8    1.29    1.12
  11   8   8    1.67    1.22
  11   8   9    0.60    1.17
 -11  -9   4    1.21    1.58
  11   9   0    0.88    1.13
  11   9   1    1.33    1.14
  11   9   2    0.98    1.08
  11   9   3    0.55    1.12
  11   9   4    0.56    1.14
  11   9   5    1.20    1.16
  11   9   6   -0.06    1.07
 -11  -9  -7    1.23    1.01
  11   9   7    0.45    1.18
 -11  -9  -8    1.06    1.00
 -11  -9  -9    1.03    0.95
 -12  -3   1    0.97    1.21
 -12  -3   0    0.86    1.29
 -12  -3  -1    0.95    1.30
 -12  -4   1    2.03    1.30
 -12  -4   0    2.28    1.31
 -12  -4  -1    3.26    1.40
  12   4   4    1.15    2.40
 -12  -5   3    1.19    1.19
  12   5  -3    0.59    1.74
 -12  -5   2    1.60    1.22
  12   5  -2   -0.41    1.75
 -12  -5   1    1.05    1.26
  12   5  -1    3.84    1.69
 -12  -5   0    0.58    1.30
  12   5   0    1.26    1.65
  12   5   5    0.37    2.02
 -12  -6   3    2.84    1.32
 -12  -6   2    0.73    1.24
  12   6  -1   -0.42    1.42
  12   6   0    0.42    1.39
  12   6   1    2.85    1.49
  12   6   2    1.38    1.40
  12   6   3   -0.46    1.29
  12   6   4    2.02    1.41
  12   7   2    4.08    1.48
   0   0   0    0.00    0.00


TITL m_ir_lt_040138_c1_col1_ in P-1
REM P-1 (#2 in standard setting)
CELL 0.68890   7.218483   8.434927  13.313138  73.1821  87.7672  68.2615
ZERR    1.00   0.000620   0.000735   0.000741   0.0062   0.0056   0.0081
LATT  1
SFAC C H N O
UNIT 1.00 2.00 1.00 1.00
TREF
HKLF 4
END
_computing_structure_solution     'SHELXT 2018/2 (Sheldrick, 2018)'
;
_shelx_hkl_checksum              91725
_olex2_submission_original_sample_id IR-LT-ligand
_olex2_submission_special_instructions 'No special instructions were received'
_oxdiff_exptl_absorpt_empirical_details
;
Empirical correction (ABSPACK) includes:
- Absorption correction using spherical harmonics
- Frame scaling
;
_oxdiff_exptl_absorpt_empirical_full_max 4.252
_oxdiff_exptl_absorpt_empirical_full_min 0.505
loop_
_space_group_symop_operation_xyz
'x, y, z'
'-x, -y, -z'
loop_
_atom_site_label
_atom_site_type_symbol
_atom_site_fract_x
_atom_site_fract_y
_atom_site_fract_z
_atom_site_U_iso_or_equiv
_atom_site_adp_type
_atom_site_occupancy
_atom_site_site_symmetry_order
_atom_site_calc_flag
_atom_site_refinement_flags_posn
_atom_site_refinement_flags_adp
_atom_site_refinement_flags_occupancy
_atom_site_disorder_assembly
_atom_site_disorder_group
O001 O 0.16809(19) 1.42817(15) 0.13129(9) 0.0381(3) Uani 1 1 d . . . . .
N002 N 0.28518(17) 0.15553(15) 0.75906(8) 0.0215(2) Uani 1 1 d . . . . .
N003 N 0.29021(17) 0.01866(15) 0.63589(8) 0.0217(2) Uani 1 1 d . . . . .
N004 N 0.17815(17) 0.48544(15) 0.59237(8) 0.0222(2) Uani 1 1 d . . . . .
N005 N 0.20017(19) 0.99087(16) 0.16135(9) 0.0266(3) Uani 1 1 d . . . . .
C006 C 0.2948(2) -0.01414(17) 0.81269(10) 0.0208(2) Uani 1 1 d . . . . .
C007 C 0.2824(2) 0.16698(18) 0.65354(9) 0.0208(2) Uani 1 1 d . . . . .
C008 C 0.2972(2) -0.09733(18) 0.73522(9) 0.0209(2) Uani 1 1 d . . . . .
C009 C 0.23473(19) 0.64168(18) 0.41776(10) 0.0206(2) Uani 1 1 d . . . . .
C00A C 0.3248(2) 0.47897(18) 0.39662(10) 0.0226(3) Uani 1 1 d . . . . .
H00A H 0.373623 0.476030 0.329620 0.027 Uiso 1 1 calc R . . . .
C00B C 0.2684(2) 0.33048(18) 0.57057(10) 0.0204(2) Uani 1 1 d . . . . .
C00C C 0.1632(2) 0.63505(18) 0.51776(10) 0.0219(3) Uani 1 1 d . . . . .
H00C H 0.099593 0.744999 0.533354 0.026 Uiso 1 1 calc R . . . .
C00D C 0.2174(2) 0.81466(18) 0.34229(10) 0.0214(3) Uani 1 1 d . . . . .
C00E C 0.3433(2) 0.32145(18) 0.47287(10) 0.0219(3) Uani 1 1 d . . . . .
H00E H 0.405508 0.209624 0.459300 0.026 Uiso 1 1 calc R . . . .
C00F C 0.3010(2) -0.27143(17) 0.76542(10) 0.0226(3) Uani 1 1 d . . . . .
H00F H 0.299587 -0.330308 0.714631 0.027 Uiso 1 1 calc R . . . .
C00G C 0.2112(2) 0.95854(18) 0.37573(10) 0.0229(3) Uani 1 1 d . . . . .
H00G H 0.217425 0.947446 0.448710 0.027 Uiso 1 1 calc R . . . .
C00H C 0.2087(2) 0.83991(19) 0.23347(10) 0.0240(3) Uani 1 1 d . . . . .
H00H H 0.208993 0.744022 0.209618 0.029 Uiso 1 1 calc R . . . .
C00I C 0.2977(2) -0.09653(18) 0.91988(10) 0.0240(3) Uani 1 1 d . . . . .
H00I H 0.295108 -0.036959 0.970846 0.029 Uiso 1 1 calc R . . . .
C00J C 0.2884(2) 0.28479(19) 0.81050(10) 0.0256(3) Uani 1 1 d . . . . .
H00B H 0.151010 0.359395 0.818648 0.038 Uiso 1 1 calc GR . . . .
H00D H 0.355140 0.360438 0.767613 0.038 Uiso 1 1 calc GR . . . .
H00J H 0.361311 0.221748 0.879939 0.038 Uiso 1 1 calc GR . . . .
C00K C 0.3045(2) -0.26899(19) 0.94793(11) 0.0253(3) Uani 1 1 d . . . . .
H00K H 0.307724 -0.331065 1.020241 0.030 Uiso 1 1 calc R . . . .
C00L C 0.1922(2) 1.12632(19) 0.19609(10) 0.0248(3) Uani 1 1 d . . . . .
C00M C 0.3067(2) -0.35509(18) 0.87175(10) 0.0245(3) Uani 1 1 d . . . . .
H00M H 0.312424 -0.474554 0.894026 0.029 Uiso 1 1 calc R . . . .
C00N C 0.1958(2) 1.11735(19) 0.30197(10) 0.0239(3) Uani 1 1 d . . . . .
H00N H 0.187945 1.217917 0.323062 0.029 Uiso 1 1 calc R . . . .
C00O C 0.1778(2) 1.2933(2) 0.11385(12) 0.0321(3) Uani 1 1 d . . . . .
H00O H 0.176079 1.293703 0.042466 0.039 Uiso 1 1 calc R . . . .
loop_
_atom_site_aniso_label
_atom_site_aniso_U_11
_atom_site_aniso_U_22
_atom_site_aniso_U_33
_atom_site_aniso_U_23
_atom_site_aniso_U_13
_atom_site_aniso_U_12
O001 0.0441(7) 0.0272(6) 0.0381(6) -0.0022(5) 0.0142(5) -0.0147(5)
N002 0.0279(6) 0.0196(5) 0.0153(4) -0.0014(4) 0.0023(4) -0.0099(4)
N003 0.0241(5) 0.0223(5) 0.0172(5) -0.0027(4) 0.0044(4) -0.0098(4)
N004 0.0244(6) 0.0215(5) 0.0184(5) -0.0026(4) 0.0043(4) -0.0088(4)
N005 0.0313(6) 0.0269(6) 0.0179(5) -0.0017(4) 0.0058(4) -0.0108(5)
C006 0.0247(6) 0.0187(5) 0.0165(5) -0.0017(4) 0.0030(4) -0.0081(5)
C007 0.0216(6) 0.0236(6) 0.0148(5) -0.0018(4) 0.0032(4) -0.0088(5)
C008 0.0230(6) 0.0220(6) 0.0159(5) -0.0032(4) 0.0031(4) -0.0084(5)
C009 0.0200(6) 0.0234(6) 0.0157(5) -0.0010(4) 0.0017(4) -0.0088(5)
C00A 0.0240(6) 0.0267(6) 0.0169(5) -0.0038(5) 0.0049(4) -0.0116(5)
C00B 0.0211(6) 0.0217(6) 0.0158(5) -0.0009(4) 0.0015(4) -0.0086(5)
C00C 0.0247(6) 0.0215(6) 0.0164(5) -0.0015(4) 0.0033(4) -0.0084(5)
C00D 0.0210(6) 0.0232(6) 0.0164(5) -0.0007(5) 0.0034(4) -0.0085(5)
C00E 0.0237(6) 0.0225(6) 0.0185(5) -0.0044(5) 0.0038(4) -0.0091(5)
C00F 0.0248(7) 0.0223(6) 0.0198(6) -0.0045(5) 0.0032(5) -0.0092(5)
C00G 0.0236(6) 0.0257(6) 0.0166(5) -0.0019(5) 0.0024(4) -0.0096(5)
C00H 0.0270(7) 0.0253(6) 0.0169(5) -0.0027(5) 0.0039(5) -0.0097(5)
C00I 0.0300(7) 0.0242(6) 0.0164(5) -0.0032(5) 0.0029(5) -0.0111(5)
C00J 0.0329(7) 0.0246(6) 0.0201(6) -0.0056(5) 0.0029(5) -0.0125(6)
C00K 0.0304(7) 0.0246(6) 0.0181(6) -0.0015(5) 0.0015(5) -0.0108(5)
C00L 0.0262(7) 0.0241(6) 0.0201(6) -0.0007(5) 0.0067(5) -0.0099(5)
C00M 0.0292(7) 0.0215(6) 0.0211(6) -0.0018(5) 0.0030(5) -0.0112(5)
C00N 0.0252(7) 0.0232(6) 0.0210(6) -0.0019(5) 0.0036(5) -0.0100(5)
C00O 0.0362(8) 0.0275(7) 0.0253(7) 0.0008(6) 0.0110(6) -0.0112(6)
loop_
_atom_type_symbol
_atom_type_description
_atom_type_scat_dispersion_real
_atom_type_scat_dispersion_imag
_atom_type_scat_source
C C 0.0030 0.0010 'International Tables Vol C Tables 4.2.6.8 and 6.1.1.4'
H H 0.0000 0.0000 'International Tables Vol C Tables 4.2.6.8 and 6.1.1.4'
N N 0.0060 0.0030 'International Tables Vol C Tables 4.2.6.8 and 6.1.1.4'
O O 0.0110 0.0060 'International Tables Vol C Tables 4.2.6.8 and 6.1.1.4'
loop_
_geom_angle_atom_site_label_1
_geom_angle_atom_site_label_2
_geom_angle_atom_site_label_3
_geom_angle
_geom_angle_site_symmetry_1
_geom_angle_site_symmetry_3
_geom_angle_publ_flag
C006 N002 C007 106.24(11) . . ?
C006 N002 C00J 123.65(11) . . ?
C007 N002 C00J 130.05(11) . . ?
C007 N003 C008 104.63(11) . . ?
C00C N004 C00B 117.73(11) . . ?
C00L N005 C00H 117.22(12) . . ?
N002 C006 C008 105.66(11) . . ?
N002 C006 C00I 130.87(13) . . ?
C00I C006 C008 123.46(12) . . ?
N002 C007 C00B 122.46(12) . . ?
N003 C007 N002 113.24(11) . . ?
N003 C007 C00B 124.29(11) . . ?
N003 C008 C006 110.24(11) . . ?
N003 C008 C00F 130.50(12) . . ?
C00F C008 C006 119.24(12) . . ?
C00A C009 C00C 116.47(12) . . ?
C00A C009 C00D 123.39(11) . . ?
C00C C009 C00D 120.12(12) . . ?
C00E C00A C009 120.17(12) . . ?
N004 C00B C007 116.97(11) . . ?
N004 C00B C00E 122.54(12) . . ?
C00E C00B C007 120.48(12) . . ?
N004 C00C C009 124.58(13) . . ?
C00G C00D C009 121.75(11) . . ?
C00G C00D C00H 117.24(12) . . ?
C00H C00D C009 121.00(13) . . ?
C00A C00E C00B 118.50(13) . . ?
C00M C00F C008 117.67(13) . . ?
C00N C00G C00D 119.52(12) . . ?
N005 C00H C00D 123.88(13) . . ?
C00K C00I C006 116.30(13) . . ?
C00I C00K C00M 121.29(13) . . ?
N005 C00L C00N 123.75(12) . . ?
N005 C00L C00O 115.84(13) . . ?
C00N C00L C00O 120.42(14) . . ?
C00F C00M C00K 122.03(13) . . ?
C00G C00N C00L 118.34(13) . . ?
O001 C00O C00L 124.54(15) . . ?
loop_
_geom_bond_atom_site_label_1
_geom_bond_atom_site_label_2
_geom_bond_distance
_geom_bond_site_symmetry_2
_geom_bond_publ_flag
O001 C00O 1.202(2) . ?
N002 C006 1.3790(16) . ?
N002 C007 1.3804(17) . ?
N002 C00J 1.4528(18) . ?
N003 C007 1.3193(17) . ?
N003 C008 1.3888(16) . ?
N004 C00B 1.3384(18) . ?
N004 C00C 1.3315(16) . ?
N005 C00H 1.3364(17) . ?
N005 C00L 1.3333(19) . ?
C006 C008 1.4017(19) . ?
C006 C00I 1.3920(17) . ?
C007 C00B 1.4683(18) . ?
C008 C00F 1.3959(18) . ?
C009 C00A 1.3906(19) . ?
C009 C00C 1.4024(18) . ?
C009 C00D 1.4766(18) . ?
C00A C00E 1.3827(18) . ?
C00B C00E 1.4008(18) . ?
C00D C00G 1.3941(19) . ?
C00D C00H 1.4024(18) . ?
C00F C00M 1.3814(18) . ?
C00G C00N 1.3815(18) . ?
C00I C00K 1.3755(19) . ?
C00K C00M 1.404(2) . ?
C00L C00N 1.390(2) . ?
C00L C00O 1.4837(19) . ?
