#------------------------------------------------------------------------------
#$Date: 2021-11-06 20:46:37 +0200 (Sat, 06 Nov 2021) $
#$Revision: 270355 $
#$URL: file:///home/coder/svn-repositories/cod/cif/7/12/90/7129055.cif $
#------------------------------------------------------------------------------
#
# This file is available in the Crystallography Open Database (COD),
# http://www.crystallography.net/
#
# All data on this site have been placed in the public domain by the
# contributors.
#
data_7129055
loop_
_publ_author_name
'Kang, Ju Young'
'An, Won'
'Kim, Suho'
'Kwon, Na Yeon'
'Jeong, Taejoo'
'Ghosh, Prithwish'
'Kim, Hyung Sik'
'Mishra, Neeraj Kumar'
'Kim, In Su'
_publ_section_title
;
 Synthesis of spirosuccinimides <i>via</i> annulative cyclization between
 <i>N</i>-aryl indazolols and maleimides under rhodium(III) catalysis.
;
_journal_issue                   83
_journal_name_full
'Chemical communications (Cambridge, England)'
_journal_page_first              10947
_journal_page_last               10950
_journal_paper_doi               10.1039/d1cc04599g
_journal_volume                  57
_journal_year                    2021
_chemical_formula_sum            'C13 H10 N2 O'
_chemical_formula_weight         210.23
_space_group_crystal_system      triclinic
_space_group_IT_number           2
_space_group_name_Hall           '-P 1'
_space_group_name_H-M_alt        'P -1'
_atom_sites_solution_hydrogens   geom
_audit_creation_method           SHELXL-2018/3
_audit_update_record
;
2021-07-16 deposited with the CCDC.	2021-09-27 downloaded from the CCDC.
;
_cell_angle_alpha                70.250(7)
_cell_angle_beta                 87.119(8)
_cell_angle_gamma                72.184(8)
_cell_formula_units_Z            2
_cell_length_a                   6.772(2)
_cell_length_b                   9.153(2)
_cell_length_c                   9.331(2)
_cell_measurement_reflns_used    5540
_cell_measurement_temperature    296(2)
_cell_measurement_theta_max      27.5387
_cell_measurement_theta_min      2.3232
_cell_volume                     517.3(2)
_computing_cell_refinement       'SAINT V8.40B (Bruker Nano, Inc., 2019)'
_computing_data_collection       'Bruker Instrument Service v2021.1.0.1'
_computing_data_reduction        'SAINT V8.40B (Bruker Nano, Inc., 2019)'
_computing_structure_refinement  'SHELXL-2018/3 (Sheldrick, 2018)'
_computing_structure_solution    'SHELXT 2018/2 (Sheldrick, 2018)'
_diffrn_ambient_temperature      296(2)
_diffrn_measured_fraction_theta_full 1.000
_diffrn_measured_fraction_theta_max 0.995
_diffrn_measurement_device_type  'Bruker APEX-II CCD'
_diffrn_measurement_method       '\f and \w scans'
_diffrn_radiation_type           MoK\a
_diffrn_radiation_wavelength     0.71073
_diffrn_reflns_av_R_equivalents  0.0400
_diffrn_reflns_av_unetI/netI     0.0302
_diffrn_reflns_Laue_measured_fraction_full 1.000
_diffrn_reflns_Laue_measured_fraction_max 0.995
_diffrn_reflns_limit_h_max       9
_diffrn_reflns_limit_h_min       -9
_diffrn_reflns_limit_k_max       12
_diffrn_reflns_limit_k_min       -12
_diffrn_reflns_limit_l_max       12
_diffrn_reflns_limit_l_min       -12
_diffrn_reflns_number            16137
_diffrn_reflns_point_group_measured_fraction_full 1.000
_diffrn_reflns_point_group_measured_fraction_max 0.995
_diffrn_reflns_theta_full        25.242
_diffrn_reflns_theta_max         28.419
_diffrn_reflns_theta_min         2.323
_exptl_absorpt_coefficient_mu    0.088
_exptl_absorpt_correction_T_max  1.00
_exptl_absorpt_correction_T_min  0.91
_exptl_absorpt_correction_type   multi-scan
_exptl_crystal_colour            colourless
_exptl_crystal_density_diffrn    1.350
_exptl_crystal_density_method    'not measured'
_exptl_crystal_description       plate
_exptl_crystal_F_000             220
_exptl_crystal_size_max          0.200
_exptl_crystal_size_mid          0.150
_exptl_crystal_size_min          0.020
_refine_diff_density_max         0.221
_refine_diff_density_min         -0.220
_refine_diff_density_rms         0.037
_refine_ls_extinction_method     none
_refine_ls_goodness_of_fit_ref   1.060
_refine_ls_hydrogen_treatment    constr
_refine_ls_matrix_type           full
_refine_ls_number_parameters     146
_refine_ls_number_reflns         2588
_refine_ls_number_restraints     0
_refine_ls_restrained_S_all      1.060
_refine_ls_R_factor_all          0.0640
_refine_ls_R_factor_gt           0.0491
_refine_ls_shift/su_max          0.000
_refine_ls_shift/su_mean         0.000
_refine_ls_structure_factor_coef Fsqd
_refine_ls_weighting_details
'w=1/[\s^2^(Fo^2^)+(0.0515P)^2^+0.1255P] where P=(Fo^2^+2Fc^2^)/3'
_refine_ls_weighting_scheme      calc
_refine_ls_wR_factor_gt          0.1134
_refine_ls_wR_factor_ref         0.1209
_reflns_Friedel_coverage         0.000
_reflns_number_gt                2051
_reflns_number_total             2588
_reflns_threshold_expression     'I > 2\s(I)'
_cod_data_source_file            d1cc04599g2.cif
_cod_data_source_block           yy020P-1_a
_cod_depositor_comments
;
The following automatic conversions were performed:

data item '_exptl_absorpt_correction_type' value 'Multi-Scan' was
changed to 'multi-scan' in accordance with the
/home/data/users/saulius/crontab/automatic-downloads/rss-feeds/RSC/lib/dictionaries/cif_core.dic
dictionary named 'cif_core.dic' version 2.4.2 last updated on
2011-04-26.

Automatic conversion script
Id: cif_fix_values 7556 2019-12-06 15:28:31Z antanas 

 Adding full bibliography for 7129054--7129055.cif.
;
_cod_database_code               7129055
_shelx_shelxl_version_number     2018/3
_shelx_space_group_comment
;
The symmetry employed for this shelxl refinement is uniquely defined
by the following loop, which should always be used as a source of
symmetry information in preference to the above space-group names.
They are only intended as comments.
;
_shelx_estimated_absorpt_t_min   0.983
_shelx_estimated_absorpt_t_max   0.998
_shelx_res_file
;
TITL yy020P-1_a.res in P-1
    yy020P-1_a.res
    created by SHELXL-2018/3 at 13:25:04 on 16-Jul-2021
CELL  0.71073   6.7719   9.1526   9.3310   70.250   87.119   72.184
ZERR    2.000   0.0021   0.0021   0.0021    0.007    0.008    0.008
LATT 1
SFAC C  H  N  O
UNIT 26  20  4  2
L.S. 5
ACTA
BOND $H
FMAP 2
PLAN 0
SIZE 0.02 0.15 0.20
TEMP 23.000
WGHT    0.051500    0.125500
FVAR       1.24854
C1    1    0.220379    0.021565    0.617603    11.00000    0.03573    0.03100 =
         0.03410   -0.00543    0.00353   -0.01138
C2    1    0.387878    0.061464    0.665624    11.00000    0.03497    0.02994 =
         0.03489   -0.01015    0.00196   -0.00811
C3    1    0.524467   -0.002018    0.795699    11.00000    0.04863    0.03537 =
         0.03897   -0.00787   -0.00529   -0.00678
AFIX  43
H3    2    0.519961   -0.094865    0.875668    11.00000   -1.20000
AFIX   0
C4    1    0.664610    0.077230    0.801023    11.00000    0.04588    0.04759 =
         0.05066   -0.01940   -0.01304   -0.00503
AFIX  43
H4    2    0.755911    0.037840    0.886323    11.00000   -1.20000
AFIX   0
C5    1    0.672795    0.216568    0.680222    11.00000    0.03957    0.04940 =
         0.05986   -0.02684   -0.00163   -0.01540
AFIX  43
H5    2    0.770607    0.266712    0.687355    11.00000   -1.20000
AFIX   0
C6    1    0.541757    0.281296    0.552173    11.00000    0.03966    0.03622 =
         0.04801   -0.01482    0.00485   -0.01481
AFIX  43
H6    2    0.548172    0.373974    0.472773    11.00000   -1.20000
AFIX   0
C7    1    0.397441    0.201327    0.546346    11.00000    0.03228    0.03084 =
         0.03557   -0.01171    0.00280   -0.00866
C8    1    0.171021    0.381249    0.309415    11.00000    0.04003    0.02879 =
         0.03191   -0.00667    0.00039   -0.01261
C9    1   -0.037132    0.471212    0.290503    11.00000    0.04201    0.04467 =
         0.04527   -0.00771    0.00336   -0.01126
AFIX  43
H9    2   -0.129585    0.437187    0.361386    11.00000   -1.20000
AFIX   0
C10   1   -0.106975    0.612234    0.165383    11.00000    0.05218    0.04486 =
         0.05888   -0.00887   -0.00961    0.00002
AFIX  43
H10   2   -0.247016    0.672620    0.151802    11.00000   -1.20000
AFIX   0
C11   1    0.029848    0.663484    0.061004    11.00000    0.08169    0.03412 =
         0.04077   -0.00080   -0.00707   -0.01199
AFIX  43
H11   2   -0.017631    0.757829   -0.023365    11.00000   -1.20000
AFIX   0
C12   1    0.236779    0.574729    0.081954    11.00000    0.07227    0.04279 =
         0.03924   -0.00612    0.01288   -0.02266
AFIX  43
H12   2    0.329371    0.610728    0.012297    11.00000   -1.20000
AFIX   0
C13   1    0.309326    0.432571    0.205205    11.00000    0.04409    0.03773 =
         0.04083   -0.00888    0.00778   -0.01370
AFIX  43
H13   2    0.449357    0.372224    0.217873    11.00000   -1.20000
AFIX   0
N1    3    0.133240    0.126379    0.484925    11.00000    0.03549    0.03348 =
         0.03782   -0.00388    0.00113   -0.01661
N2    3    0.244816    0.236896    0.438203    11.00000    0.03594    0.03212 =
         0.03679   -0.00301   -0.00102   -0.01597
O1    4    0.160319   -0.107862    0.695788    11.00000    0.05147    0.04206 =
         0.04135    0.00326   -0.00524   -0.02530
AFIX 147
H1    2    0.067604   -0.112821    0.646073    11.00000   -1.50000
AFIX   0
HKLF 4




REM  yy020P-1_a.res in P-1
REM wR2 = 0.120854, GooF = S = 1.05969, Restrained GooF = 1.05969 for all data
REM R1 = 0.049128 for 2051 Fo > 4sig(Fo) and 0.064000 for all 2588 data
REM 146 parameters refined using 0 restraints

END

WGHT      0.0521      0.1265

REM Highest difference peak  0.221,  deepest hole -0.220,  1-sigma level  0.037
Q1    1   0.3222  0.0141  0.6501  11.00000  0.05    0.22
Q2    1   0.0570  0.3906  0.2656  11.00000  0.05    0.20
Q3    1   0.3845  0.1406  0.6221  11.00000  0.05    0.18
Q4    1   0.0178  0.1405  0.4390  11.00000  0.05    0.16
Q5    1   0.4084  0.0526  0.7401  11.00000  0.05    0.16
Q6    1   0.2303  0.3773  0.2353  11.00000  0.05    0.16
Q7    1   0.4966  0.2144  0.5384  11.00000  0.05    0.16
Q8    1   0.2026  0.3137  0.3797  11.00000  0.05    0.16
Q9    1   0.2604  0.4601  0.1169  11.00000  0.05    0.14
Q10   1   0.2439  0.4370  0.2873  11.00000  0.05    0.14
Q11   1   0.4225  0.2825  0.5671  11.00000  0.05    0.14
Q12   1   0.0680  0.4538  0.3309  11.00000  0.05    0.14
Q13   1   0.1351  0.1016  0.5827  11.00000  0.05    0.13
Q14   1   0.3162  0.5360  0.1828  11.00000  0.05    0.13
Q15   1   0.6544  0.2085  0.5994  11.00000  0.05    0.13
Q16   1   0.3445  0.2161  0.4823  11.00000  0.05    0.13
Q17   1   0.2463  0.0297  0.5230  11.00000  0.05    0.12
Q18   1   0.1003  0.0877  0.4168  11.00000  0.05    0.12
Q19   1   0.1479  0.6452  0.1005  11.00000  0.05    0.12
Q20   1   0.0172  0.1775  0.5073  11.00000  0.05    0.12
;
_shelx_res_checksum              80075
_shelx_hkl_file
;
   1  -1  -1 6198.78  300.17
   1  -1  -1 6268.27  268.87
  -1   1   1 6158.28  268.97
  -1   1   1 6346.27  300.07
   2  -2  -2  160.48    7.00
   2  -2  -2  152.78    7.50
   2  -2  -2  152.68    7.90
   2  -2  -2  158.68    7.90
   2  -2  -2  163.48    8.00
   2  -2  -2  152.48    7.90
  -2   2   2  149.59    7.90
  -2   2   2  150.48    7.00
  -2   2   2  151.98    7.90
  -2   2   2  147.99    7.80
  -2   2   2  162.48    7.90
  -2   2   2  166.68    8.00
  -2   2   2  151.08    7.30
   3  -3  -3    0.10    0.60
   3  -3  -3    2.50    1.20
   3  -3  -3    0.20    1.10
   3  -3  -3    0.80    1.00
  -3   3   3    1.60    0.80
  -3   3   3    1.90    0.60
  -3   3   3    0.90    1.10
  -3   3   3    2.60    1.20
  -3   3   3    1.70    0.50
   4  -4  -4    5.40    2.00
   4  -4  -4    0.90    1.50
   4  -4  -4    3.40    1.70
  -4   4   4    1.10    1.50
  -4   4   4    0.50    1.50
   5  -5  -5    1.50    1.90
   5  -5  -5    4.50    2.30
   5  -5  -5    1.20    2.20
  -5   5   5    2.00    2.10
  -5   5   5    2.30    2.20
  -6   5   6    3.50    2.90
  -6   5   6   -2.50    3.80
   6  -5  -6    0.50    2.60
   6  -5  -6    0.60    4.30
  -5   4   5   -0.40    1.50
  -5   4   5    1.90    1.10
  -5   4   5   -1.10    1.50
  -5   4   5    0.70    0.60
   5  -4  -5    6.50    2.40
   5  -4  -5   -1.30    3.30
   5  -4  -5   -2.50    1.70
   5  -4  -5    0.40    1.70
  -4   3   4   36.50    4.40
  -4   3   4   38.20    2.50
  -4   3   4   43.10    3.80
  -4   3   4   32.80    2.50
  -4   3   4   33.70    2.40
   4  -3  -4   36.80    2.60
   4  -3  -4   34.20    3.40
   4  -3  -4   35.40    3.10
   4  -3  -4   34.40    3.50
  -3   2   3   19.60    2.50
  -3   2   3   22.70    2.90
  -3   2   3   20.50    1.70
  -3   2   3   18.40    1.50
   3  -2  -3   18.90    1.90
   3  -2  -3   23.70    3.00
   3  -2  -3   17.50    1.60
   3  -2  -3   17.50    2.30
   3  -2  -3   18.00    2.60
  -2   1   2   99.49    4.80
  -2   1   2  101.69    5.40
  -2   1   2   98.89    5.10
  -2   1   2   95.89    5.10
  -2   1   2   98.99    4.90
  -2   1   2  104.19    5.40
  -2   1   2  103.09    5.30
   2  -1  -2   93.09    4.90
   2  -1  -2   99.49    5.00
   2  -1  -2   95.89    5.30
   2  -1  -2   96.99    5.30
   2  -1  -2  106.49    5.40
   2  -1  -2   98.09    4.90
  -1   0   1 1174.58   49.70
  -1   0   1 1159.08   49.90
  -1   0   1 1095.79   49.80
  -1   0   1 1164.58   49.70
  -1   0   1 1160.78   49.70
  -1   0   1 1152.58   49.90
   1   0  -1 1152.58   49.60
   1   0  -1 1140.19   49.80
   1   0  -1 1193.58   49.90
   1   0  -1 1181.38   49.90
   1   0  -1 1164.48   49.70
   0  -1   0  245.08   10.90
   0  -1   0  250.97   10.90
   0  -1   0  242.78   10.90
   0  -1   0  244.48   10.90
   0  -1   0  216.08   10.70
   0   1   0  253.37   10.90
   0   1   0  245.98   10.90
   0   1   0  277.67   11.00
   0   1   0  264.27   11.30
   0   1   0  239.18   10.80
   0   1   0  248.48   10.90
   1  -2  -1 5086.19  223.48
   1  -2  -1 5207.38  223.48
  -1   2   1 5063.19  267.57
   2  -3  -2  101.59    5.90
   2  -3  -2  108.09    5.90
   2  -3  -2   99.99    5.40
  -2   3   2  104.89    5.90
  -2   3   2   96.79    5.20
  -2   3   2   92.99    5.80
  -2   3   2  113.99    6.40
  -2   3   2  102.89    5.80
   3  -4  -3   27.20    2.90
   3  -4  -3   30.10    3.60
   3  -4  -3   27.50    3.30
   3  -4  -3   23.60    2.60
  -3   4   3   22.10    2.10
  -3   4   3   29.10    3.00
  -3   4   3   33.00    3.90
   4  -5  -4    3.80    1.80
   4  -5  -4    5.70    2.20
   4  -5  -4    5.60    2.70
   4  -5  -4    7.60    2.60
  -4   5   4    2.10    1.80
  -4   5   4    2.20    1.90
   5  -6  -5    6.30    2.70
   5  -6  -5    3.70    2.60
  -5   6   5    6.90    2.70
  -5   6   5    7.80    3.10
  -6   4   6    5.40    2.80
  -6   4   6    2.10    2.60
   6  -4  -6    2.90    2.40
   6  -4  -6    1.60    2.30
   6  -4  -6    5.50    2.90
  -5   3   5   17.10    2.20
  -5   3   5   22.80    4.10
  -5   3   5   16.70    2.30
   5  -3  -5   10.40    4.00
   5  -3  -5   10.40    2.40
   5  -3  -5   16.00    2.40
  -4   2   4   77.59    4.70
  -4   2   4   90.29    5.90
   4  -2  -4   87.79    5.80
   4  -2  -4   86.29    5.20
   4  -2  -4   84.09    4.90
  -3   1   3    5.90    1.50
  -3   1   3    8.60    1.40
  -3   1   3    8.90    1.30
  -3   1   3    8.60    1.40
   3  -1  -3   11.70    1.90
   3  -1  -3   10.90    1.60
   3  -1  -3    9.80    1.80
   3  -1  -3   10.00    1.50
   3  -1  -3    9.40    1.70
   3  -1  -3    7.90    1.40
  -2   0   2   34.20    2.00
  -2   0   2   35.70    2.10
  -2   0   2   32.80    2.40
  -2   0   2   34.60    2.30
  -2   0   2   34.40    2.40
  -2   0   2   33.80    2.40
  -2   0   2   34.00    2.10
   2   0  -2   35.90    2.30
   2   0  -2   37.70    2.50
   2   0  -2   34.40    2.40
   2   0  -2   35.70    2.20
   2   0  -2   31.10    2.00
  -1  -1   1   -0.40    0.70
  -1  -1   1    1.00    0.60
  -1  -1   1    1.20    0.20
  -1  -1   1    0.60    0.60
  -1  -1   1    0.50    0.60
  -1  -1   1    1.80    0.70
   1   1  -1    0.70    0.20
   1   1  -1    1.50    0.80
   1   1  -1    1.00    0.60
   1   1  -1    0.60    0.60
   1   1  -1    0.60    0.20
   1   1  -1   -0.70    0.50
   1   1  -1    0.40    0.60
   0  -2   0  297.17   13.80
   0  -2   0  315.67   13.80
   0  -2   0  311.47   13.90
   0  -2   0  298.87   13.60
   0  -2   0  299.17   13.80
   0   2   0  315.47   13.80
   0   2   0  305.87   13.80
   0   2   0  285.47   13.60
   0   2   0  327.77   13.90
   0   2   0  316.57   13.90
   0   2   0  323.97   13.80
   1  -3  -1    8.90    1.40
   1  -3  -1    9.60    1.50
   1  -3  -1    7.20    0.50
   1  -3  -1    7.90    0.50
   1  -3  -1    9.70    1.40
   1  -3  -1    7.80    1.50
  -1   3   1   10.50    1.70
  -1   3   1   11.50    1.60
  -1   3   1   10.60    1.50
  -1   3   1   11.90    1.60
  -1   3   1   11.10    1.60
   2  -4  -2    1.60    1.20
   2  -4  -2    0.20    1.10
   2  -4  -2    3.90    1.50
  -2   4   2    4.20    1.40
  -2   4   2    1.80    1.10
  -2   4   2    2.70    1.10
   3  -5  -3    4.60    1.90
   3  -5  -3    1.70    1.40
   3  -5  -3    3.80    2.10
  -3   5   3    4.60    1.30
  -3   5   3    4.00    1.80
  -3   5   3    3.50    1.80
   4  -6  -4   16.20    3.50
   4  -6  -4   19.30    3.40
   4  -6  -4   13.50    4.10
  -4   6   4   21.90    4.00
  -4   6   4   22.00    3.80
   5  -7  -5   -1.30    2.50
   5  -7  -5    0.40    2.90
  -5   7   5    0.50    2.50
  -5   7   5   -0.20    2.60
  -6   3   6    0.40    2.20
  -6   3   6    5.60    1.60
  -6   3   6    2.10    2.30
   6  -3  -6    4.10    2.20
   6  -3  -6    5.50    2.60
   6  -3  -6    2.20    2.10
  -5   2   5  141.59    7.70
  -5   2   5  134.99    8.70
   5  -2  -5  143.79    8.20
   5  -2  -5  138.89    8.10
   5  -2  -5  143.99    8.90
  -4   1   4  136.39    7.10
  -4   1   4  138.69    7.80
  -4   1   4  121.29    6.50
  -4   1   4  132.09    7.10
   4  -1  -4  127.39    7.10
   4  -1  -4  129.19    7.00
   4  -1  -4  126.79    7.70
   4  -1  -4  133.79    7.80
  -3   0   3    2.90    1.20
  -3   0   3    2.80    1.10
  -3   0   3    2.60    0.90
  -3   0   3    2.30    0.80
   3   0  -3    4.40    1.10
   3   0  -3    4.90    1.30
   3   0  -3    4.00    1.00
   3   0  -3    1.10    1.00
   3   0  -3    2.00    1.10
  -2  -1   2   77.39    4.30
  -2  -1   2   73.09    4.20
  -2  -1   2   75.19    3.40
  -2  -1   2   75.39    4.00
  -2  -1   2   79.29    4.00
  -2  -1   2   72.79    4.20
   2   1  -2   75.29    3.40
   2   1  -2   72.39    4.00
   2   1  -2   79.09    4.10
   2   1  -2   72.59    4.20
   2   1  -2   72.99    4.20
   2   1  -2   72.99    4.30
  -1  -2   1   32.00    2.00
  -1  -2   1   24.60    2.00
  -1  -2   1   27.50    1.90
  -1  -2   1   27.60    1.60
  -1  -2   1   22.90    1.90
  -1  -2   1   28.60    2.00
   1   2  -1   29.20    2.00
   1   2  -1   28.70    1.60
   1   2  -1   26.90    2.00
   1   2  -1   27.60    2.00
   1   2  -1   30.00    2.00
   0  -3   0   73.29    4.10
   0  -3   0   67.09    3.60
   0  -3   0   72.49    4.00
   0  -3   0   75.09    4.00
   0  -3   0   72.89    4.10
   0  -3   0   76.39    4.00
   0   3   0   75.29    4.00
   0   3   0   70.59    4.00
   0   3   0   69.59    3.70
   0   3   0   61.29    3.80
   0   3   0   70.89    4.00
   0   3   0   74.59    4.00
   1  -4  -1   82.49    4.90
   1  -4  -1   81.99    4.80
   1  -4  -1   81.89    3.80
   1  -4  -1   81.79    5.10
   1  -4  -1   75.69    4.80
   1  -4  -1   78.89    4.80
  -1   4   1   87.79    4.70
  -1   4   1   85.59    5.00
  -1   4   1   86.19    5.00
  -1   4   1   81.59    4.90
   2  -5  -2  130.49    7.20
   2  -5  -2  127.89    7.70
   2  -5  -2  123.09    7.10
  -2   5   2  135.79    7.50
  -2   5   2  127.19    7.50
  -2   5   2  115.09    6.90
   3  -6  -3   26.80    3.80
   3  -6  -3   21.90    3.70
   3  -6  -3   23.00    3.40
  -3   6   3   32.90    4.40
  -3   6   3   26.90    3.10
  -3   6   3   21.90    3.40
   4  -7  -4   11.60    3.20
   4  -7  -4   10.00    3.10
  -4   7   4    9.10    2.90
  -4   7   4    7.40    3.00
  -6   2   6   16.70    3.70
  -6   2   6   11.70    2.50
   6  -2  -6   11.00    2.60
   6  -2  -6   12.00    2.60
   6  -2  -6   11.90    3.00
  -5   1   5   71.79    4.90
  -5   1   5   69.79    5.60
   5  -1  -5   70.99    4.70
   5  -1  -5   67.79    5.00
   5  -1  -5   78.89    5.80
  -4   0   4   13.90    2.50
  -4   0   4   10.90    1.60
  -4   0   4    9.10    2.00
  -4   0   4   11.10    1.70
   4   0  -4   12.90    2.40
   4   0  -4   10.00    2.10
   4   0  -4   13.40    1.50
   4   0  -4   14.40    2.20
  -3  -1   3   53.89    2.80
  -3  -1   3   55.89    3.80
   3   1  -3   52.09    3.80
   3   1  -3   59.19    3.60
   3   1  -3   54.29    3.90
   3   1  -3   56.29    2.80
   3   1  -3   62.69    3.70
   3   1  -3   60.49    3.90
  -2  -2   2 1047.20   45.10
  -2  -2   2 1067.99   45.30
  -2  -2   2 1065.19   45.20
  -2  -2   2  997.30   44.90
  -2  -2   2  999.30   45.20
   2   2  -2 1043.80   45.20
   2   2  -2 1045.20   45.00
   2   2  -2  982.10   44.00
   2   2  -2 1051.99   45.20
   2   2  -2 1041.80   45.00
   2   2  -2 1003.50   45.00
   2   2  -2 1014.80   44.00
  -1  -3   1  576.14   26.60
  -1  -3   1  576.04   26.60
  -1  -3   1  589.44   26.70
  -1  -3   1  604.94   26.60
  -1  -3   1  578.84   26.50
  -1  -3   1  602.94   26.30
   1   3  -1  619.74   26.70
   1   3  -1  602.94   26.60
   1   3  -1  607.54   26.80
   1   3  -1  617.14   26.40
   1   3  -1  611.94   26.60
   0  -4   0   32.40    2.50
   0  -4   0   32.60    2.40
   0  -4   0   25.30    2.30
   0  -4   0   27.50    2.30
   0  -4   0   24.00    1.90
   0  -4   0   21.70    2.10
   0   4   0   29.00    2.40
   0   4   0   24.70    2.20
   0   4   0   18.60    2.00
   0   4   0   24.30    1.90
   0   4   0   28.50    2.50
   0   4   0   28.40    2.40
   1  -5  -1    4.20    1.60
   1  -5  -1    4.30    0.70
   1  -5  -1    2.90    0.70
   1  -5  -1    3.70    1.60
   1  -5  -1    2.70    1.20
  -1   5   1    4.90    1.50
  -1   5   1    2.20    0.60
  -1   5   1    3.40    1.30
  -1   5   1    1.10    1.10
   2  -6  -2  106.59    6.90
   2  -6  -2  102.39    6.70
   2  -6  -2  109.59    7.20
  -2   6   2  111.59    7.00
  -2   6   2  108.69    6.90
  -2   6   2  102.79    6.10
   3  -7  -3   32.60    4.80
   3  -7  -3   31.30    4.40
   3  -7  -3   37.90    5.20
  -3   7   3   29.90    4.40
  -3   7   3   29.50    5.30
   4  -8  -4    0.20    2.90
   4  -8  -4    0.60    2.60
  -4   8   4   -0.70    2.40
  -4   8   4    1.10    2.40
  -6   1   6    7.40    2.70
  -6   1   6    6.70    2.10
   6  -1  -6   -0.10    1.90
   6  -1  -6    9.00    2.40
   6  -1  -6    4.00    1.70
  -5   0   5   -0.50    1.40
  -5   0   5   -0.10    1.20
   5   0  -5    0.70    0.90
   5   0  -5    1.60    2.00
   5   0  -5   -0.80    1.20
   5   0  -5    0.30    1.40
   5   0  -5    0.50    1.10
  -4  -1   4   39.40    3.30
  -4  -1   4   32.00    2.00
  -4  -1   4   28.80    2.50
  -4  -1   4   39.90    4.80
   4   1  -4   35.30    2.90
   4   1  -4   31.50    2.90
   4   1  -4   26.70    3.00
   4   1  -4   30.80    3.10
   4   1  -4   33.40    2.00
  -3  -2   3   64.39    4.10
  -3  -2   3   64.79    4.50
   3   2  -3   70.99    4.60
   3   2  -3   73.09    4.50
   3   2  -3   69.79    4.30
   3   2  -3   68.69    4.30
  -2  -3   2  323.97   15.40
  -2  -3   2  342.77   15.70
  -2  -3   2  337.67   15.40
  -2  -3   2  326.07   15.70
  -2  -3   2  348.07   15.60
  -2  -3   2  336.57   14.60
   2   3  -2  326.37   15.70
   2   3  -2  335.27   14.70
   2   3  -2  337.47   15.50
   2   3  -2  309.07   15.60
   2   3  -2  330.67   15.50
   2   3  -2  326.57   15.50
  -1  -4   1  147.99    7.60
  -1  -4   1  144.19    7.70
  -1  -4   1  152.88    7.80
  -1  -4   1  143.79    7.50
  -1  -4   1  143.99    7.50
  -1  -4   1  141.99    7.40
   1   4  -1  144.59    7.50
   1   4  -1  141.19    7.60
   1   4  -1  152.68    7.80
   1   4  -1  153.28    7.70
   1   4  -1  137.79    7.80
   1   4  -1  158.68    7.50
   0  -5   0   87.29    5.40
   0  -5   0   91.49    4.80
   0  -5   0   82.69    5.30
   0  -5   0   87.19    5.30
   0   5   0   98.99    5.30
   0   5   0   79.39    4.70
   0   5   0   89.59    5.50
   0   5   0   85.39    5.30
   1  -6  -1   72.09    5.40
   1  -6  -1   73.79    5.20
   1  -6  -1   80.39    4.10
   1  -6  -1   88.69    5.60
   1  -6  -1   78.79    4.00
  -1   6   1   76.19    5.40
  -1   6   1   69.09    4.00
  -1   6   1   83.99    5.10
  -1   6   1   85.09    5.50
   2  -7  -2   58.79    4.80
   2  -7  -2   45.40    4.60
   2  -7  -2   39.70    4.20
  -2   7   2   46.00    4.40
  -2   7   2   51.19    4.00
  -2   7   2   56.29    4.80
   3  -8  -3    5.60    2.70
   3  -8  -3    2.70    2.40
  -3   8   3   -2.00    1.80
  -3   8   3   -2.10    1.80
  -7   1   7    4.50    3.10
   7  -1  -7    6.20    3.00
   7  -1  -7    7.20    2.80
  -6   0   6   37.10    5.10
  -6   0   6   37.20    4.80
   6   0  -6   40.40    5.30
   6   0  -6   33.30    2.70
   6   0  -6   35.90    4.50
  -5  -1   5   20.10    3.40
  -5  -1   5   15.70    3.30
  -5  -1   5   14.00    1.20
  -5  -1   5   13.50    2.80
   5   1  -5   13.70    1.20
   5   1  -5   20.90    3.50
   5   1  -5   13.50    2.50
   5   1  -5   15.60    3.00
  -4  -2   4   32.70    3.20
  -4  -2   4   29.70    2.80
   4   2  -4   30.00    3.20
   4   2  -4   33.10    3.20
   4   2  -4   35.80    3.10
   4   2  -4   28.40    3.60
  -3  -3   3  180.48    9.40
   3   3  -3  185.98    9.70
   3   3  -3  194.88    9.70
   3   3  -3  189.58    9.80
  -2  -4   2  154.28    8.30
  -2  -4   2  149.99    7.80
  -2  -4   2  167.18    8.60
   2   4  -2  174.68    8.50
   2   4  -2  168.78    7.70
   2   4  -2  151.28    8.40
   2   4  -2  154.78    8.30
   2   4  -2  149.79    8.40
  -1  -5   1  808.42   37.10
  -1  -5   1  807.62   37.30
  -1  -5   1  845.12   37.10
  -1  -5   1  857.71   37.50
   1   5  -1  849.32   37.70
   1   5  -1  830.12   37.30
   1   5  -1  812.32   37.20
   1   5  -1  860.41   37.20
   1   5  -1  834.12   37.40
   1   5  -1  835.72   37.70
   0  -6   0  141.09    9.00
   0  -6   0  158.78    8.70
   0  -6   0  161.08    7.90
   0  -6   0  153.88    8.70
   0   6   0  140.09    8.20
   0   6   0  151.68    7.90
   0   6   0  176.08    8.80
   0   6   0  153.48    8.70
   1  -7  -1   22.20    1.90
   1  -7  -1   31.80    4.10
   1  -7  -1   26.70    3.70
   1  -7  -1   24.60    3.70
   1  -7  -1   24.30    2.00
  -1   7   1   22.40    1.80
  -1   7   1   25.70    3.60
  -1   7   1   29.00    4.00
  -1   7   1   22.30    3.30
   2  -8  -2    1.70    2.00
   2  -8  -2    0.40    3.30
   2  -8  -2    3.40    2.20
  -2   8   2    0.90    1.90
  -2   8   2   -1.00    1.90
  -2   8   2    0.70    2.00
   3  -9  -3    4.20    3.00
   3  -9  -3    1.80    3.00
  -3   9   3   -2.00    2.40
  -3   9   3    6.60    3.00
  -7   0   7   26.30    5.70
  -7   0   7   24.10    4.20
   7   0  -7   21.40    4.50
  -6  -1   6   10.90    3.00
  -6  -1   6   14.30    3.40
   6   1  -6    8.30    2.60
   6   1  -6    8.00    2.70
   6   1  -6   11.70    3.30
  -5  -2   5   33.40    3.60
  -5  -2   5   26.20    2.90
  -5  -2   5   36.80    4.50
   5   2  -5   33.00    4.40
   5   2  -5   37.90    4.50
   5   2  -5   30.90    4.20
   5   2  -5   31.80    4.00
  -4  -3   4   20.40    3.30
  -4  -3   4   19.80    2.80
   4   3  -4   26.00    3.60
   4   3  -4   26.10    3.50
   4   3  -4   22.70    3.20
   4   3  -4   26.50    3.40
  -3  -4   3   58.39    4.70
  -3  -4   3   63.29    4.40
   3   4  -3   66.39    4.60
   3   4  -3   69.79    4.90
   3   4  -3   68.69    3.20
   3   4  -3   67.99    4.60
  -2  -5   2  109.29    5.80
  -2  -5   2  111.39    6.50
   2   5  -2  112.99    5.90
   2   5  -2  110.09    6.60
   2   5  -2  102.39    6.30
   2   5  -2  107.69    6.60
   2   5  -2  105.69    6.40
  -1  -6   1    9.60    2.30
  -1  -6   1   10.40    2.10
  -1  -6   1   11.20    2.00
   1   6  -1   19.00    3.00
   1   6  -1   13.30    2.40
   1   6  -1   12.40    2.30
   0  -7   0    4.10    1.80
   0  -7   0    2.20    1.20
   0  -7   0    1.30    1.70
   0   7   0    2.80    1.70
   0   7   0    3.50    1.90
   0   7   0    2.60    1.70
   0   7   0    2.00    1.20
   1  -8  -1   11.60    1.60
   1  -8  -1   13.50    3.10
   1  -8  -1   10.60    3.10
   1  -8  -1    9.20    3.30
   1  -8  -1    9.10    1.40
  -1   8   1   11.40    2.60
  -1   8   1    9.10    2.70
  -1   8   1    4.90    2.20
   2  -9  -2   46.30    6.00
   2  -9  -2   53.79    5.70
  -2   9   2   40.30    5.60
  -2   9   2   43.10    5.70
  -7  -1   7   11.10    3.60
   7   1  -7   14.20    4.10
  -6  -2   6   42.60    5.60
  -6  -2   6   44.10    4.80
   6   2  -6   43.60    4.70
   6   2  -6   44.00    4.30
   6   2  -6   51.09    4.90
  -5  -3   5    0.90    1.60
  -5  -3   5    0.90    1.70
   5   3  -5    0.70    1.70
   5   3  -5    5.40    2.20
   5   3  -5    3.40    2.10
   5   3  -5    1.40    2.20
  -4  -4   4   51.19    4.00
  -4  -4   4   54.29    4.60
   4   4  -4   47.80    4.50
   4   4  -4   57.29    4.40
   4   4  -4   45.30    4.10
   4   4  -4   57.79    4.70
  -3  -5   3  182.78    8.30
  -3  -5   3  183.18   10.00
  -3  -5   3  177.08    9.60
   3   5  -3  173.68    8.40
   3   5  -3  158.08   10.10
   3   5  -3  177.68    9.80
   3   5  -3  182.08    9.70
   3   5  -3  166.68    8.20
   3   5  -3  179.98   10.00
  -2  -6   2  213.88   10.60
  -2  -6   2  202.28   11.30
  -2  -6   2  205.08   11.10
   2   6  -2  208.98   11.50
   2   6  -2  209.48   10.60
   2   6  -2  232.28   11.40
   2   6  -2  206.78   11.10
  -1  -7   1   26.50    3.40
  -1  -7   1   36.90    4.50
  -1  -7   1   31.30    3.30
   1   7  -1   33.40    4.10
   1   7  -1   39.40    4.00
   1   7  -1   32.00    3.30
   0  -8   0   22.80    2.50
   0  -8   0   13.80    3.20
   0  -8   0   24.40    3.70
   0   8   0   12.50    3.00
   0   8   0   16.10    3.20
   0   8   0   17.10    3.30
   1  -9  -1    8.60    2.80
   1  -9  -1    4.80    2.40
   1  -9  -1    4.70    1.20
  -1   9   1    7.00    2.80
  -1   9   1    4.30    2.50
   2 -10  -2   15.00    4.10
  -2  10   2   15.80    4.00
  -2  10   2   23.60    4.60
  -7  -2   7    0.10    2.60
   7   2  -7    1.90    2.40
  -6  -3   6   60.39    5.60
  -6  -3   6   59.39    5.50
   6   3  -6   68.59    5.90
   6   3  -6   56.89    5.30
   6   3  -6   51.39    5.00
  -5  -4   5  133.19    9.60
  -5  -4   5  127.39    7.80
   5   4  -5  134.89    8.40
   5   4  -5  135.39    8.50
   5   4  -5  133.79    8.90
   5   4  -5  147.29    8.90
  -4  -5   4   48.60    4.60
  -4  -5   4   45.00    4.10
   4   5  -4   48.60    4.50
   4   5  -4   59.09    4.80
   4   5  -4   42.80    4.30
   4   5  -4   46.70    4.30
  -3  -6   3  145.59    8.20
  -3  -6   3  135.69    6.80
  -3  -6   3  126.89    8.20
   3   6  -3  145.69    8.60
   3   6  -3  120.99    8.00
   3   6  -3  137.19    6.90
   3   6  -3  124.09    8.00
  -2  -7   2    7.10    2.40
  -2  -7   2   13.50    2.80
  -2  -7   2    9.20    2.00
   2   7  -2   10.00    2.50
   2   7  -2   11.50    2.70
   2   7  -2   13.80    2.90
  -1  -8   1  110.09    7.20
  -1  -8   1  119.39    7.70
   1   8  -1  109.89    7.50
   1   8  -1  109.79    7.90
   1   8  -1  113.09    7.40
   0  -9   0   40.10    5.20
   0  -9   0   31.00    4.60
   0   9   0   33.30    4.50
   0   9   0   46.60    5.80
   0   9   0   31.30    4.60
   1 -10  -1   -1.90    2.10
   1 -10  -1    0.40    2.80
  -1  10   1   -1.60    2.60
  -1  10   1    1.80    2.70
  -6  -4   6   12.90    3.20
  -6  -4   6    7.20    3.00
   6   4  -6    8.00    2.80
   6   4  -6    8.10    2.80
   6   4  -6   10.60    3.30
  -5  -5   5   10.00    2.90
   5   5  -5   10.50    2.90
   5   5  -5    8.10    2.60
  -4  -6   4   11.40    3.40
  -4  -6   4   12.70    2.60
   4   6  -4   16.50    3.50
   4   6  -4    9.20    2.70
   4   6  -4   13.90    3.50
  -3  -7   3    0.70    1.80
  -3  -7   3    1.30    0.90
  -3  -7   3    5.30    2.10
   3   7  -3    5.60    2.20
   3   7  -3    4.70    2.00
   3   7  -3    3.00    2.10
   3   7  -3   -0.40    1.20
  -2  -8   2   10.40    2.90
  -2  -8   2    3.40    1.70
  -2  -8   2    2.30    1.90
   2   8  -2    5.60    2.10
   2   8  -2    5.70    2.40
  -1  -9   1    3.60    2.10
  -1  -9   1    0.30    1.50
  -1  -9   1   -1.20    2.20
   1   9  -1    3.20    2.50
   1   9  -1    0.90    1.90
   1   9  -1    3.00    1.90
   0 -10   0    9.90    3.20
   0 -10   0    5.20    2.30
   0 -10   0    6.60    3.40
   0  10   0    5.90    3.60
   0  10   0    9.60    3.20
  -6  -5   6    2.20    2.60
   6   5  -6   -1.00    2.00
   6   5  -6    2.40    2.50
   6   5  -6   -0.40    2.20
  -5  -6   5    2.80    2.40
   5   6  -5    2.00    2.00
   5   6  -5    0.50    2.00
  -4  -7   4    3.70    2.10
  -4  -7   4    1.90    2.20
   4   7  -4    4.80    2.40
   4   7  -4    3.10    0.80
   4   7  -4    2.30    2.10
  -3  -8   3   15.70    2.50
  -3  -8   3   12.50    3.10
  -3  -8   3   15.40    3.30
   3   8  -3   10.10    3.00
   3   8  -3   12.00    3.00
  -2  -9   2    1.90    1.80
  -2  -9   2    6.00    2.60
  -2  -9   2    0.80    2.00
   2   9  -2    0.30    2.20
   2   9  -2    6.40    2.70
   2   9  -2    2.60    2.10
  -1 -10   1    0.20    2.30
  -1 -10   1    1.40    2.80
  -1 -10   1    2.80    2.20
   1  10  -1    0.30    2.90
   1  10  -1    0.30    2.00
  -6  -6   6   11.30    4.00
   6   6  -6    6.90    3.10
   6   6  -6    5.40    3.20
   6   6  -6    8.00    3.10
  -5  -7   5    0.10    2.40
   5   7  -5    0.20    2.20
   5   7  -5   -3.10    1.80
   5   7  -5   -0.20    2.30
  -4  -8   4    3.60    2.80
   4   8  -4    5.80    3.20
   4   8  -4    9.50    2.90
   4   8  -4    0.20    2.20
  -3  -9   3    2.80    2.60
  -3  -9   3   -2.60    1.40
  -3  -9   3    3.80    2.60
   3   9  -3    2.00    2.60
   3   9  -3    0.90    2.30
   3   9  -3    2.00    2.20
  -2 -10   2    2.40    2.40
  -2 -10   2    7.90    3.20
  -2 -10   2    7.50    3.60
   2  10  -2    5.20    3.50
   2  10  -2    5.10    2.90
  -5  -8   5    7.70    3.70
   5   8  -5    4.40    3.10
   5   8  -5    7.90    3.20
   5   8  -5    8.10    3.30
  -4  -9   4    0.20    2.80
   4   9  -4    0.30    3.20
   4   9  -4   -3.50    2.50
  -3 -10   3    3.90    3.10
  -3 -10   3    2.00    2.00
   3  10  -3    5.70    3.20
   3  10  -3   -4.30    2.40
  -4 -10   3    1.30    3.90
   2  11  -1    4.90    3.10
  -2 -11   1    9.00    2.90
  -2 -11   1    0.80    2.60
   3  10  -2    3.20    2.50
   3  10  -2   -4.40    2.00
   3  10  -2    6.00    3.10
  -3 -10   2    1.20    1.70
  -3 -10   2    2.00    2.50
   4   9  -3   10.20    3.20
   4   9  -3   15.50    3.70
   4   9  -3   10.10    3.10
  -4  -9   3    3.70    2.70
   5   8  -4   31.20    5.00
   5   8  -4   20.40    4.10
   5   8  -4   29.50    5.00
  -5  -8   4   24.40    4.60
   6   7  -5    4.60    3.00
   6   7  -5    1.90    2.60
   6   7  -5   -2.00    2.30
  -6  -7   5    0.90    2.60
   1  11   0   12.80    4.20
   1  11   0   17.20    4.30
  -1 -11   0   11.60    3.60
  -1 -11   0   14.60    3.60
  -1 -11   0   22.80    4.60
   2  10  -1    1.20    2.50
   2  10  -1    4.50    2.70
  -2 -10   1    4.00    2.70
  -2 -10   1    1.70    2.10
  -2 -10   1   -0.10    2.30
   3   9  -2    5.70    2.50
   3   9  -2    7.40    2.70
   3   9  -2    5.70    2.50
  -3  -9   2    4.80    1.90
  -3  -9   2    8.20    2.80
  -3  -9   2   -1.40    2.10
   4   8  -3   10.20    3.00
   4   8  -3    1.70    1.10
   4   8  -3    4.40    2.20
   4   8  -3    0.70    2.00
  -4  -8   3   -0.10    2.00
  -4  -8   3    0.30    0.90
  -4  -8   3    1.40    2.10
   5   7  -4   -0.50    2.10
   5   7  -4   -0.60    1.60
   5   7  -4    3.70    2.10
  -5  -7   4   -0.20    2.10
   6   6  -5    3.80    2.60
   6   6  -5    3.50    2.70
   6   6  -5    0.20    2.00
  -6  -6   5    2.60    2.60
   0  11   1    1.20    3.10
   0  11   1    2.90    3.00
   0 -11  -1   -1.70    2.50
   0 -11  -1    2.50    2.90
   1  10   0   14.00    3.40
   1  10   0   11.60    3.60
   1  10   0   17.10    3.40
  -1 -10   0    9.30    3.20
  -1 -10   0   13.50    2.90
  -1 -10   0   12.90    3.40
   2   9  -1   23.50    4.00
   2   9  -1   32.00    4.70
   2   9  -1   16.00    3.40
  -2  -9   1   26.10    3.80
  -2  -9   1   22.50    3.40
  -2  -9   1   18.90    3.80
   3   8  -2   13.30    3.20
   3   8  -2   23.60    3.80
  -3  -8   2   26.10    3.90
  -3  -8   2   18.80    3.50
  -3  -8   2   15.40    2.40
   4   7  -3   17.50    3.60
   4   7  -3   11.60    1.50
   4   7  -3   11.80    2.90
   4   7  -3   12.80    3.10
  -4  -7   3   12.80    1.40
  -4  -7   3   11.70    3.10
  -4  -7   3   16.60    3.10
   5   6  -4   14.30    3.30
   5   6  -4   10.40    2.80
   5   6  -4    7.80    2.60
  -5  -6   4   11.40    3.30
   6   5  -5    0.40    1.80
   6   5  -5    0.60    1.90
   6   5  -5    2.80    2.30
  -6  -5   5   -1.00    2.10
   7   4  -6    4.00    2.70
   7   4  -6   -2.20    2.30
   7   4  -6    1.10    2.30
  -7  -4   6    2.50    2.70
  -7  -4   6    1.50    2.50
   0  10   1    0.70    2.40
   0  10   1   12.20    3.50
   0 -10  -1    4.60    3.10
   0 -10  -1    0.80    1.80
   0 -10  -1    4.40    2.60
   1   9   0   16.80    3.20
   1   9   0   14.90    4.30
  -1  -9   0   14.70    3.00
  -1  -9   0   19.80    3.20
  -1  -9   0   16.60    3.60
   2   8  -1   58.59    5.20
   2   8  -1   62.89    5.20
   2   8  -1   62.89    5.20
  -2  -8   1   60.39    5.10
  -2  -8   1   68.29    5.10
  -2  -8   1   60.69    4.70
   3   7  -2  415.86   21.00
   3   7  -2  418.76   19.90
   3   7  -2  427.36   21.00
   3   7  -2  442.76   21.30
  -3  -7   2  429.36   20.90
  -3  -7   2  437.26   21.20
  -3  -7   2  433.16   19.80
   4   6  -3  365.76   19.10
   4   6  -3  359.06   18.90
   4   6  -3  375.16   19.30
   4   6  -3  416.86   19.40
  -4  -6   3  370.56   18.60
  -4  -6   3  412.66   19.60
   5   5  -4   45.10    4.20
   5   5  -4   42.20    4.30
   5   5  -4   42.60    5.20
  -5  -5   4   48.40    6.80
  -5  -5   4   38.20    3.70
   6   4  -5   -1.40    1.40
   6   4  -5    0.40    1.70
   6   4  -5    1.20    1.60
  -6  -4   5   -1.00    1.90
   7   3  -6   -1.90    2.50
   7   3  -6    3.00    2.30
   7   3  -6   -2.10    2.20
  -7  -3   6    0.00    2.20
  -7  -3   6    3.80    2.60
  -1  10   2    0.60    2.40
  -1  10   2    1.20    2.60
   1 -10  -2   -3.80    2.00
   1 -10  -2    6.00    2.60
   0   9   1   11.00    3.10
   0   9   1    8.80    4.60
   0  -9  -1   13.40    3.40
   0  -9  -1   17.50    2.50
   1   8   0    6.50    2.70
   1   8   0   10.50    2.50
   1   8   0    7.40    2.40
  -1  -8   0    6.90    2.50
  -1  -8   0    6.30    2.20
  -1  -8   0    6.30    1.80
   2   7  -1   25.40    3.60
   2   7  -1   23.70    3.50
   2   7  -1   30.80    4.00
  -2  -7   1   27.60    3.50
  -2  -7   1   26.20    2.70
  -2  -7   1   26.20    3.80
   3   6  -2  134.89    8.70
   3   6  -2  162.78    9.10
   3   6  -2  157.88    9.00
   3   6  -2  160.68    7.80
  -3  -6   2  151.28    7.70
  -3  -6   2  159.18    9.10
  -3  -6   2  156.18    8.80
   4   5  -3   66.39    5.20
   4   5  -3   68.59    5.20
   4   5  -3   76.79    5.60
   4   5  -3   66.89    5.30
  -4  -5   3   75.09    5.10
  -4  -5   3   85.69    5.90
   5   4  -4  283.27   15.70
   5   4  -4  313.67   15.50
   5   4  -4  306.57   15.30
   5   4  -4  309.17   15.70
  -5  -4   4  291.67   15.80
  -5  -4   4  295.27   14.50
   6   3  -5   11.00    2.80
   6   3  -5    9.20    5.20
   6   3  -5    7.00    2.20
   6   3  -5    6.50    2.40
  -6  -3   5    6.70    2.60
  -6  -3   5   11.10    3.10
   7   2  -6   34.60    5.00
   7   2  -6   34.20    4.90
   7   2  -6   44.30    5.90
  -7  -2   6   32.00    5.40
  -7  -2   6   35.50    5.30
  -2  10   3   14.90    3.90
  -2  10   3    8.80    3.40
   2 -10  -3   11.00    3.60
   2 -10  -3    4.70    4.60
  -1   9   2   49.20    5.00
  -1   9   2   41.90    4.50
  -1   9   2   49.40    5.00
   1  -9  -2   43.70    2.20
   1  -9  -2   48.50    6.00
   1  -9  -2   46.50    5.80
   0   8   1   10.10    2.80
   0   8   1    6.70    2.50
   0   8   1    9.80    1.90
   0  -8  -1   11.70    2.90
   0  -8  -1   12.50    1.90
   0  -8  -1    9.10    2.00
   0  -8  -1    5.90    2.40
   1   7   0   -0.10    1.40
   1   7   0    0.90    1.50
   1   7   0    1.70    1.50
  -1  -7   0    2.20    1.80
  -1  -7   0   -0.60    1.10
  -1  -7   0    2.10    1.30
   2   6  -1    9.10    1.80
   2   6  -1   12.80    2.60
   2   6  -1    9.00    2.00
   2   6  -1    7.00    2.00
   2   6  -1    4.90    1.80
  -2  -6   1    5.60    1.90
  -2  -6   1    5.20    1.90
  -2  -6   1    5.70    1.40
   3   5  -2   11.90    2.30
   3   5  -2    9.30    2.10
   3   5  -2   11.60    2.20
   3   5  -2   12.40    2.40
   3   5  -2   10.30    1.20
  -3  -5   2   14.60    1.20
  -3  -5   2   17.90    2.60
  -3  -5   2   18.50    2.80
   4   4  -3   51.49    4.40
   4   4  -3   62.39    4.50
   4   4  -3   61.29    4.30
   4   4  -3   60.89    4.50
  -4  -4   3   54.29    4.60
  -4  -4   3   50.19    4.30
   5   3  -4   25.20    3.80
   5   3  -4   20.20    3.10
   5   3  -4   23.70    3.50
   5   3  -4   23.80    3.50
  -5  -3   4   20.90    2.60
  -5  -3   4   19.40    3.40
   6   2  -5   31.20    4.70
   6   2  -5   32.20    3.50
   6   2  -5   30.30    4.20
   6   2  -5   27.30    4.20
  -6  -2   5   29.60    4.40
  -6  -2   5   26.50    4.20
   7   1  -6    1.50    2.10
   7   1  -6   -0.50    2.30
   7   1  -6   -0.20    2.20
  -7  -1   6   -0.30    2.00
  -7  -1   6    1.70    2.50
  -2   9   3   16.40    3.90
  -2   9   3   17.90    4.00
   2  -9  -3   18.50    3.90
   2  -9  -3   19.10    4.00
  -1   8   2  207.68   11.80
  -1   8   2  204.28   11.70
  -1   8   2  209.38   11.20
   1  -8  -2  193.68   11.50
   1  -8  -2  211.68    9.20
   1  -8  -2  204.28    9.30
   1  -8  -2  206.48   12.00
   0   7   1   60.59    3.80
   0   7   1   66.19    4.90
   0   7   1   63.59    4.80
   0  -7  -1   59.99    4.20
   0  -7  -1   60.29    4.80
   0  -7  -1   61.59    3.80
   0  -7  -1   56.09    4.70
   0  -7  -1   57.99    4.70
   1   6   0   71.69    4.90
   1   6   0   78.49    5.50
  -1  -6   0   72.19    4.80
  -1  -6   0   71.89    5.00
   2   5  -1   86.29    5.20
   2   5  -1   83.49    5.20
   2   5  -1   88.59    5.30
   2   5  -1   86.89    5.30
   2   5  -1   77.49    4.70
  -2  -5   1   93.19    5.30
  -2  -5   1   83.59    5.30
  -2  -5   1   74.39    4.60
   3   4  -2    0.80    0.30
   3   4  -2   -1.00    0.70
   3   4  -2   -0.60    0.90
   3   4  -2    0.10    1.00
   3   4  -2   -0.50    1.10
   3   4  -2    0.70    0.30
  -3  -4   2    0.30    1.10
  -3  -4   2    0.20    0.20
   4   3  -3   78.69    5.10
   4   3  -3   84.59    5.40
   4   3  -3   82.99    5.60
  -4  -3   3   80.49    4.80
  -4  -3   3   74.09    5.40
   5   2  -4   18.40    3.20
   5   2  -4   29.00    3.60
   5   2  -4   25.50    3.60
   5   2  -4   15.10    2.50
  -5  -2   4   18.80    2.00
  -5  -2   4   21.60    3.40
  -5  -2   4   23.40    3.40
   6   1  -5   -0.50    1.40
   6   1  -5    1.90    1.50
   6   1  -5   -1.30    1.30
   6   1  -5    0.90    0.60
  -6  -1   5    3.60    1.80
  -6  -1   5   -0.10    0.70
  -6  -1   5    2.20    1.90
   7   0  -6   16.50    3.40
   7   0  -6    8.70    3.20
  -7   0   6   21.80    4.20
  -3   9   4    6.20    3.20
  -3   9   4   11.70    3.40
   3  -9  -4    5.50    3.20
   3  -9  -4    7.90    3.30
  -2   8   3  100.39    7.80
  -2   8   3  121.19    8.10
   2  -8  -3  123.69    8.30
   2  -8  -3   98.99    7.40
   2  -8  -3  119.69    8.30
  -1   7   2    9.20    2.30
  -1   7   2    9.20    2.40
  -1   7   2   11.60    2.20
   1  -7  -2    9.30    1.00
   1  -7  -2    9.40    0.90
   1  -7  -2   12.50    2.70
   1  -7  -2    6.40    2.30
   0   6   1  363.36   18.30
   0   6   1  360.86   17.10
   0   6   1  375.26   17.40
   0   6   1  362.56   16.40
   0  -6  -1  321.07   18.10
   0  -6  -1  359.06   16.30
   0  -6  -1  351.26   17.30
   0  -6  -1  358.56   17.60
   0  -6  -1  359.06   16.40
   1   5   0  149.99    7.80
   1   5   0  151.48    8.00
   1   5   0  147.39    7.70
   1   5   0  137.19    7.70
   1   5   0  144.99    7.70
   1   5   0  141.99    7.50
  -1  -5   0  147.89    7.80
  -1  -5   0  140.09    7.40
  -1  -5   0  150.78    7.70
  -1  -5   0  137.59    7.80
   2   4  -1   59.49    3.90
   2   4  -1   63.89    4.00
   2   4  -1   53.59    4.20
   2   4  -1   61.99    3.30
   2   4  -1   61.29    4.00
   2   4  -1   54.29    3.80
  -2  -4   1   54.69    3.80
  -2  -4   1   53.39    3.90
  -2  -4   1   55.19    3.80
  -2  -4   1   53.99    3.70
  -2  -4   1   64.39    3.60
  -2  -4   1   63.69    4.00
   3   3  -2   19.70    2.50
   3   3  -2   15.90    2.10
   3   3  -2   23.60    2.80
  -3  -3   2   17.10    2.50
  -3  -3   2   16.10    2.10
   4   2  -3   20.60    2.90
   4   2  -3   20.10    2.80
   4   2  -3   14.10    2.10
  -4  -2   3   15.30    3.10
  -4  -2   3   19.10    2.10
   5   1  -4   22.40    3.50
   5   1  -4   30.80    2.00
   5   1  -4   33.30    4.20
   5   1  -4   29.00    2.90
   5   1  -4   30.40    4.00
  -5  -1   4   33.20    4.20
  -5  -1   4   31.20    3.90
  -5  -1   4   26.10    1.90
   6   0  -5   16.60    2.20
   6   0  -5   19.60    3.10
   6   0  -5   11.20    3.00
   6   0  -5   19.30    3.80
   6   0  -5   19.50    3.50
  -6   0   5   17.10    3.10
  -6   0   5   15.50    2.90
  -6   0   5   14.40    3.20
   7  -1  -6    1.20    2.20
   7  -1  -6   -2.70    1.70
   7  -1  -6   -1.60    2.10
  -7   1   6   -0.20    2.30
  -7   1   6    0.70    2.00
  -3   8   4    2.90    2.20
  -3   8   4   -2.80    1.70
   3  -8  -4    1.80    2.10
   3  -8  -4   -2.10    1.80
  -2   7   3    3.30    1.90
  -2   7   3    1.00    1.50
   2  -7  -3    7.60    2.70
   2  -7  -3    0.70    1.60
   2  -7  -3   -0.30    1.80
  -1   6   2    5.00    1.70
  -1   6   2    4.60    1.70
  -1   6   2    6.60    1.70
   1  -6  -2    6.10    0.70
   1  -6  -2    2.50    1.80
   1  -6  -2    5.90    1.90
   1  -6  -2    3.00    1.50
   0   5   1   87.59    4.70
   0   5   1   93.19    5.40
   0   5   1   91.79    5.50
   0   5   1   87.49    5.30
   0   5   1   89.49    5.30
   0  -5  -1   89.89    4.80
   0  -5  -1   88.19    5.40
   0  -5  -1   99.39    5.50
   0  -5  -1   91.99    5.60
   0  -5  -1   93.39    4.80
   1   4   0  464.85   22.10
   1   4   0  488.75   22.20
   1   4   0  486.45   22.20
   1   4   0  480.75   22.10
   1   4   0  492.85   22.00
   1   4   0  470.15   21.90
  -1  -4   0  497.65   22.00
  -1  -4   0  519.55   22.10
  -1  -4   0  488.55   21.90
  -1  -4   0  481.15   22.20
  -1  -4   0  502.65   22.10
  -1  -4   0  482.35   22.10
   2   3  -1  260.27   12.60
   2   3  -1  272.47   12.80
   2   3  -1  261.37   12.70
   2   3  -1  281.87   12.90
   2   3  -1  275.97   12.00
   2   3  -1  268.47   12.90
  -2  -3   1  270.67   12.80
  -2  -3   1  274.57   12.60
  -2  -3   1  267.27   12.80
  -2  -3   1  269.97   12.00
  -2  -3   1  260.57   12.60
  -2  -3   1  281.87   12.90
   3   2  -2  276.87   12.80
   3   2  -2  243.88   12.70
   3   2  -2  248.88   12.70
   3   2  -2  268.37   12.30
  -3  -2   2  261.87   12.00
  -3  -2   2  268.37   12.80
   4   1  -3   10.30    2.00
   4   1  -3   14.80    2.40
   4   1  -3   15.50    2.10
   4   1  -3   15.10    2.10
   4   1  -3   11.10    1.10
  -4  -1   3   12.80    1.30
  -4  -1   3    9.60    2.10
  -4  -1   3   10.90    1.10
  -4  -1   3   15.30    2.30
   5   0  -4   46.50    3.60
   5   0  -4   33.10    3.70
   5   0  -4   37.40    3.90
   5   0  -4   45.90    3.50
   5   0  -4   42.80    3.00
  -5   0   4   38.10    3.50
  -5   0   4   44.20    3.10
  -5   0   4   44.30    4.20
   6  -1  -5    6.30    2.10
   6  -1  -5    3.60    2.60
   6  -1  -5   12.00    2.50
   6  -1  -5    8.50    2.60
  -6   1   5    2.50    2.10
  -6   1   5   11.40    2.40
   7  -2  -6   10.00    3.70
   7  -2  -6   11.20    3.10
  -7   2   6    3.20    3.20
  -7   2   6   11.60    5.70
  -7   2   6    5.40    2.40
  -4   8   5    8.20    3.50
  -4   8   5    8.20    3.30
   4  -8  -5   13.90    4.00
   4  -8  -5   11.70    3.60
  -3   7   4   32.90    3.50
  -3   7   4   47.30    6.30
  -3   7   4   37.60    5.00
   3  -7  -4   35.10    4.70
   3  -7  -4   38.40    5.30
   3  -7  -4   41.80    4.50
  -2   6   3    5.40    2.00
  -2   6   3    6.40    2.20
  -2   6   3    7.80    1.90
   2  -6  -3    6.40    2.20
   2  -6  -3   10.10    2.30
   2  -6  -3    7.50    2.30
  -1   5   2   -0.90    0.80
  -1   5   2   -0.50    0.80
  -1   5   2    0.30    0.90
   1  -5  -2   -0.20    1.20
   1  -5  -2    0.80    0.30
   1  -5  -2   -1.50    0.80
   1  -5  -2    0.30    0.30
   1  -5  -2    2.30    1.20
   0   4   1    5.00    1.20
   0   4   1    5.80    1.00
   0   4   1    8.00    1.50
   0   4   1    6.00    1.30
   0   4   1    5.30    1.30
   0   4   1    9.00    1.60
   0  -4  -1    6.40    1.10
   0  -4  -1    2.50    1.10
   0  -4  -1    5.50    1.40
   0  -4  -1    4.70    1.30
   0  -4  -1    8.40    1.50
   0  -4  -1    5.50    0.90
   1   3   0   80.39    4.40
   1   3   0   82.19    4.50
   1   3   0   85.49    4.60
   1   3   0   78.99    4.30
   1   3   0   88.19    4.60
  -1  -3   0   79.49    4.50
  -1  -3   0   82.99    4.50
  -1  -3   0   87.09    4.50
  -1  -3   0   78.09    4.30
  -1  -3   0   91.79    4.50
  -1  -3   0   85.49    4.50
   2   2  -1  248.48   11.70
   2   2  -1  263.27   12.20
   2   2  -1  251.27   12.00
   2   2  -1  265.47   12.00
   2   2  -1  267.07   12.00
  -2  -2   1  243.28   11.60
  -2  -2   1  250.47   11.90
  -2  -2   1  266.17   11.70
  -2  -2   1  250.17   11.90
  -2  -2   1  251.47   12.00
   3   1  -2  486.25   21.80
   3   1  -2  491.75   20.80
   3   1  -2  471.65   21.80
   3   1  -2  484.55   21.90
   3   1  -2  486.55   21.40
   3   1  -2  470.05   21.30
  -3  -1   2  465.85   21.00
  -3  -1   2  475.55   20.80
  -3  -1   2  455.25   21.80
  -3  -1   2  494.05   21.80
  -3  -1   2  483.45   21.00
  -3  -1   2  468.75   21.80
   4   0  -3   -0.10    0.60
   4   0  -3    2.70    1.00
   4   0  -3    1.90    1.30
   4   0  -3    1.60    1.10
   4   0  -3    0.90    1.00
  -4   0   3    2.40    0.70
  -4   0   3    1.10    0.70
  -4   0   3    1.30    1.20
  -4   0   3    0.90    1.10
   5  -1  -4   28.40    3.40
   5  -1  -4   25.40    2.50
   5  -1  -4   16.80    3.10
   5  -1  -4   23.30    3.00
  -5   1   4   14.60    3.00
  -5   1   4   24.80    3.00
   6  -2  -5   37.50    3.50
   6  -2  -5   30.30    3.40
   6  -2  -5   38.60    5.00
   6  -2  -5   26.00    4.40
  -6   2   5   27.30    4.40
  -6   2   5   32.90    4.70
   7  -3  -6   11.80    3.20
  -4   7   5   -1.00    1.80
  -4   7   5    0.80    2.30
   4  -7  -5    0.40    2.10
   4  -7  -5    3.00    2.30
  -3   6   4    9.90    2.10
  -3   6   4    7.20    2.20
  -3   6   4    5.00    2.10
   3  -6  -4    6.50    2.60
   3  -6  -4    3.30    1.80
   3  -6  -4   10.80    2.70
  -2   5   3   45.70    3.90
  -2   5   3   48.30    3.80
  -2   5   3   46.30    3.50
   2  -5  -3   49.80    3.70
   2  -5  -3   44.40    3.80
   2  -5  -3   43.50    3.90
  -1   4   2    0.10    0.80
  -1   4   2   -0.50    0.70
  -1   4   2   -0.40    0.80
  -1   4   2    0.00    0.70
  -1   4   2   -1.00    0.80
   1  -4  -2    0.10    0.20
   1  -4  -2    0.10    0.70
   1  -4  -2   -0.20    0.20
   1  -4  -2    0.00    0.80
   1  -4  -2   -0.70    1.00
   1  -4  -2    0.10    1.00
   0   3   1   80.19    4.40
   0   3   1   74.89    4.20
   0   3   1   71.99    3.80
   0   3   1   84.49    4.30
   0   3   1   82.79    4.20
   0   3   1   75.29    4.30
   0  -3  -1   79.29    3.90
   0  -3  -1   76.09    3.90
   0  -3  -1   81.09    4.40
   0  -3  -1   79.79    4.10
   0  -3  -1   78.59    4.30
   0  -3  -1   79.09    4.30
   1   2   0  410.76   18.10
   1   2   0  414.16   18.30
   1   2   0  423.16   18.40
   1   2   0  418.66   18.30
   1   2   0  417.56   18.30
   1   2   0  416.56   18.40
  -1  -2   0  401.26   18.30
  -1  -2   0  423.26   18.40
  -1  -2   0  420.36   18.30
  -1  -2   0  406.66   18.20
  -1  -2   0  396.86   18.10
  -1  -2   0  417.26   18.40
   2   1  -1  163.38    7.90
   2   1  -1  166.38    7.50
   2   1  -1  164.78    7.50
   2   1  -1  168.78    7.90
   2   1  -1  156.78    7.80
   2   1  -1  159.38    7.20
  -2  -1   1  162.48    7.80
  -2  -1   1  164.68    7.90
  -2  -1   1  165.28    7.40
  -2  -1   1  162.18    7.90
  -2  -1   1  159.78    7.20
  -2  -1   1  163.08    7.40
   3   0  -2   10.00    1.40
   3   0  -2    9.30    1.30
   3   0  -2   10.30    1.70
   3   0  -2    6.30    1.30
   3   0  -2   11.00    1.70
   3   0  -2    9.40    1.30
  -3   0   2    7.60    1.40
  -3   0   2    6.80    0.70
  -3   0   2    8.70    0.90
  -3   0   2    8.40    1.60
  -3   0   2    7.00    1.50
  -3   0   2    8.80    1.30
  -3   0   2    7.10    1.50
   4  -1  -3  102.79    6.50
   4  -1  -3  104.59    5.90
   4  -1  -3  114.49    5.90
   4  -1  -3  109.89    6.00
   4  -1  -3  117.79    6.60
   4  -1  -3  107.99    5.80
  -4   1   3  107.29    6.10
  -4   1   3   97.39    5.80
  -4   1   3  103.99    6.50
  -4   1   3  106.69    5.90
   5  -2  -4    4.00    1.90
   5  -2  -4    0.30    1.50
   5  -2  -4    0.50    1.50
   5  -2  -4    1.40    1.30
   5  -2  -4   -0.70    1.10
  -5   2   4    2.30    1.80
  -5   2   4   -0.20    1.10
  -5   2   4    1.40    1.00
  -5   2   4   -2.60    1.20
   6  -3  -5    8.50    2.80
   6  -3  -5    7.80    2.50
   6  -3  -5    8.20    2.40
  -6   3   5    8.80    1.70
  -6   3   5   10.80    3.10
  -6   3   5    7.60    2.80
  -5   7   6   -1.40    2.50
   5  -7  -6   -1.30    2.70
  -4   6   5    5.90    2.40
  -4   6   5    2.50    1.90
   4  -6  -5    4.10    2.40
   4  -6  -5   -0.80    1.50
  -3   5   4   24.60    2.50
  -3   5   4   19.10    3.20
  -3   5   4   20.80    3.40
   3  -5  -4   23.40    3.40
   3  -5  -4   23.80    3.30
   3  -5  -4   22.60    3.40
   3  -5  -4   26.00    3.60
  -2   4   3  191.98   10.90
  -2   4   3  198.28   10.20
  -2   4   3  198.38    9.80
   2  -4  -3  205.38   10.10
   2  -4  -3  200.58   10.10
   2  -4  -3  195.38   10.20
   2  -4  -3  197.48   10.50
  -1   3   2  122.99    6.20
  -1   3   2  121.19    6.20
  -1   3   2  123.69    6.30
  -1   3   2  130.59    6.60
  -1   3   2  110.79    5.30
  -1   3   2  114.19    6.30
   1  -3  -2  112.19    6.40
   1  -3  -2  121.59    6.50
   1  -3  -2  121.79    6.20
   1  -3  -2  118.19    5.30
   1  -3  -2  126.09    6.20
   1  -3  -2  121.69    5.30
   1  -3  -2  127.09    6.30
   1  -3  -2  127.19    6.40
   0   2   1 1506.15   64.09
   0   2   1 1508.05   64.19
   0   2   1 1480.85   63.69
   0   2   1 1502.45   64.09
   0   2   1 1466.15   63.99
   0  -2  -1 1477.95   63.99
   0  -2  -1 1470.95   63.99
   0  -2  -1 1474.55   63.69
   0  -2  -1 1544.55   64.09
   0  -2  -1 1525.75   63.89
   0  -2  -1 1409.56   64.09
   1   1   0 2540.75  113.09
   1   1   0 2575.84  137.49
  -1  -1   0 2802.62  137.69
  -1  -1   0 2552.94  113.09
   2   0  -1  454.85   20.00
   2   0  -1  460.15   20.20
   2   0  -1  444.26   20.30
   2   0  -1  452.75   19.70
   2   0  -1  458.45   19.70
   2   0  -1  452.05   19.90
  -2   0   1  461.65   19.90
  -2   0   1  445.66   20.20
  -2   0   1  460.55   20.00
  -2   0   1  432.96   19.40
  -2   0   1  468.75   20.30
  -2   0   1  442.86   20.20
   3  -1  -2    7.30    1.20
   3  -1  -2    6.60    1.10
   3  -1  -2    6.00    1.10
   3  -1  -2    6.00    1.30
   3  -1  -2    6.20    1.50
  -3   1   2    8.40    1.30
  -3   1   2    6.80    1.30
  -3   1   2    5.50    0.50
  -3   1   2    5.90    1.50
  -3   1   2    5.80    0.60
  -3   1   2    7.90    1.40
   4  -2  -3   67.59    5.00
   4  -2  -3   76.49    4.60
   4  -2  -3   72.99    4.80
   4  -2  -3   71.49    4.20
   4  -2  -3   69.19    4.40
  -4   2   3   81.89    5.30
  -4   2   3   72.59    4.10
  -4   2   3   76.69    5.20
  -4   2   3   70.59    4.20
   5  -3  -4    4.60    1.70
   5  -3  -4    2.20    1.60
   5  -3  -4    0.60    1.70
   5  -3  -4    3.30    2.10
  -5   3   4    1.50    1.10
  -5   3   4   -0.20    1.50
  -5   3   4    2.30    0.90
  -5   3   4    4.20    2.00
   6  -4  -5   18.60    3.90
   6  -4  -5   17.80    3.40
   6  -4  -5   16.00    3.70
  -6   4   5   11.50    3.30
  -6   4   5   11.30    3.50
  -5   6   6    3.40    2.50
  -5   6   6   -0.50    2.30
   5  -6  -6    1.80    2.50
   5  -6  -6    0.30    2.20
   5  -6  -6   -3.30    2.20
  -4   5   5    6.60    2.00
  -4   5   5    9.20    3.10
  -4   5   5   10.10    2.70
   4  -5  -5   11.10    2.90
   4  -5  -5    9.70    2.60
   4  -5  -5    6.30    2.90
   4  -5  -5    8.30    2.40
  -3   4   4   11.70    0.80
  -3   4   4   13.30    2.60
  -3   4   4   13.90    2.50
  -3   4   4   15.90    2.30
   3  -4  -4   13.00    2.40
   3  -4  -4   14.10    2.40
   3  -4  -4   15.20    2.70
   3  -4  -4   11.70    2.40
  -2   3   3 3131.69  133.59
  -2   3   3 3179.08  134.09
  -2   3   3 3259.07  135.09
  -2   3   3 3264.27  134.29
  -2   3   3 2954.10  132.79
   2  -3  -3 3023.00  134.19
   2  -3  -3 3114.69  133.79
   2  -3  -3 2975.30  132.79
   2  -3  -3 3141.89  134.09
   2  -3  -3 3055.69  133.89
  -1   2   2 7845.42  386.26
  -1   2   2 7664.73  331.17
   1  -2  -2 7603.34  331.07
   1  -2  -2 7417.96  386.36
   0   1   1  962.90   46.30
   0   1   1 1149.98   46.50
   0   1   1 1108.99   46.40
   0   1   1 1124.89   46.60
   0  -1  -1 1080.59   46.50
   0  -1  -1 1068.29   46.40
   1   0   0    1.30    0.50
   1   0   0    1.70    0.50
  -1   0   0    1.50    0.40
  -1   0   0    1.60    0.40
  -1   0   0    1.30    0.40
  -1   0   0    1.20    0.40
  -1   0   0    1.00    0.40
   2  -1  -1  202.48    9.20
   2  -1  -1  202.88    9.70
   2  -1  -1  212.68    9.20
   2  -1  -1  200.58    9.20
   2  -1  -1  202.68    9.70
   2  -1  -1  201.98    9.80
  -2   1   1  196.38    9.70
  -2   1   1  204.78    8.90
  -2   1   1  203.48    9.80
  -2   1   1  201.38    9.20
  -2   1   1  216.28    9.80
  -2   1   1  197.08    9.60
  -2   1   1  213.38    8.90
  -2   1   1  201.58    9.20
   3  -2  -2   22.70    2.40
   3  -2  -2   27.40    2.10
   3  -2  -2   32.00    2.30
   3  -2  -2   26.80    2.60
   3  -2  -2   25.00    1.80
  -3   2   2   28.60    2.50
  -3   2   2   28.10    1.60
  -3   2   2   25.20    2.50
  -3   2   2   29.40    1.90
  -3   2   2   29.50    2.60
  -3   2   2   26.50    1.80
   4  -3  -3   26.00    3.50
   4  -3  -3   23.00    2.80
   4  -3  -3   20.10    3.00
   4  -3  -3   22.50    2.70
  -4   3   3   17.90    1.40
  -4   3   3   17.60    1.50
  -4   3   3   22.10    3.20
  -4   3   3   24.20    3.40
   5  -4  -4    2.00    2.10
   5  -4  -4    1.50    1.60
   5  -4  -4    0.20    1.70
   5  -4  -4    1.80    1.80
  -5   4   4    0.30    1.50
  -5   4   4    2.30    1.90
   6  -5  -5   -2.60    2.00
   6  -5  -5   -2.00    2.10
   6  -5  -5   -1.80    2.10
  -6   5   5   -0.40    2.40
  -6   5   5    1.20    2.60
  -5   5   6    8.30    2.70
  -5   5   6    5.90    2.80
   5  -5  -6    1.00    2.10
   5  -5  -6    5.50    2.50
   5  -5  -6    6.00    2.20
  -4   4   5   29.80    4.20
  -4   4   5   25.10    3.80
  -4   4   5   24.10    2.00
   4  -4  -5   26.60    3.80
   4  -4  -5   26.50    2.10
   4  -4  -5   27.50    3.70
   4  -4  -5   27.30    3.70
   4  -4  -5   27.80    3.90
  -3   3   4    6.10    1.50
  -3   3   4    6.80    1.90
  -3   3   4    4.70    1.60
  -3   3   4    5.00    1.10
   3  -3  -4    4.50    1.60
   3  -3  -4    3.00    1.40
   3  -3  -4    4.80    1.40
   3  -3  -4    5.00    1.00
   3  -3  -4    7.70    2.00
  -2   2   3  167.48    8.10
  -2   2   3  168.28    7.80
  -2   2   3  173.88    8.50
  -2   2   3  163.88    8.40
  -2   2   3  158.48    8.00
  -2   2   3  166.28    8.40
   2  -2  -3  160.28    7.70
   2  -2  -3  157.58    8.40
   2  -2  -3  167.28    8.30
   2  -2  -3  175.98    8.20
   2  -2  -3  168.18    8.40
   2  -2  -3  168.68    8.50
  -1   1   2 8790.22  455.85
  -1   1   2 9730.03  411.96
   1  -1  -2 9514.45  459.85
   1  -1  -2 9999.00  412.46
   0   0   1 2386.36  118.09
   0   0   1 2237.78   96.29
   0   0  -1 1881.51  113.89
   0   0  -1 2298.97   96.39
   1  -1   0  458.95   19.90
   1  -1   0  448.46   19.80
   1  -1   0  463.15   20.20
   1  -1   0  473.35   19.90
   1  -1   0  461.25   20.10
   1  -1   0  468.65   20.30
   1  -1   0  438.46   20.30
  -1   1   0  471.25   20.20
  -1   1   0  480.35   20.30
  -1   1   0  448.96   19.80
  -1   1   0  461.55   20.10
  -1   1   0  451.45   19.80
  -1   1   0  448.86   20.20
   2  -2  -1  299.17   13.60
   2  -2  -1  291.07   13.70
   2  -2  -1  295.37   13.10
   2  -2  -1  282.87   13.70
   2  -2  -1  299.77   13.20
  -2   2   1  277.57   13.60
  -2   2   1  284.87   13.60
  -2   2   1  303.77   12.90
  -2   2   1  287.37   13.00
  -2   2   1  302.77   13.70
  -2   2   1  284.57   12.70
  -2   2   1  280.57   14.80
  -2   2   1  279.57   12.60
  -2   2   1  295.77   13.60
   3  -3  -2   45.80    4.40
   3  -3  -2   46.60    3.20
   3  -3  -2   41.20    3.50
  -3   3   2   45.80    2.50
  -3   3   2   45.00    2.10
  -3   3   2   43.50    2.10
  -3   3   2   44.30    4.20
   4  -4  -3   19.80    3.30
   4  -4  -3   18.10    3.00
   4  -4  -3   10.70    2.60
   4  -4  -3   14.60    2.50
  -4   4   3   18.80    3.20
  -4   4   3   15.50    2.90
   5  -5  -4   11.00    3.10
   5  -5  -4    8.00    2.80
   5  -5  -4    8.20    2.20
  -5   5   4    8.80    2.90
  -5   5   4   11.90    3.20
  -5   4   6    2.80    2.20
  -5   4   6   -0.30    1.70
  -5   4   6    2.80    1.00
   5  -4  -6    0.80    2.00
   5  -4  -6    6.50    2.40
   5  -4  -6    0.20    1.60
  -4   3   5   55.49    4.50
  -4   3   5   46.10    3.30
  -4   3   5   52.19    3.60
  -4   3   5   46.00    4.30
   4  -3  -5   54.59    4.20
   4  -3  -5   56.19    4.30
   4  -3  -5   55.99    4.70
  -3   2   4   64.49    3.80
  -3   2   4   58.19    4.10
  -3   2   4   69.59    5.00
  -3   2   4   63.69    4.00
   3  -2  -4   67.09    5.00
   3  -2  -4   63.59    3.80
   3  -2  -4   61.79    4.20
  -2   1   3    6.20    1.10
  -2   1   3    5.60    1.10
  -2   1   3    8.60    1.50
  -2   1   3    4.20    1.10
  -2   1   3    5.00    1.20
  -2   1   3    6.50    1.20
  -2   1   3    5.60    1.30
   2  -1  -3    4.90    1.10
   2  -1  -3    4.30    1.20
   2  -1  -3    5.40    1.10
   2  -1  -3    8.40    1.50
   2  -1  -3    6.30    1.30
   2  -1  -3    6.00    1.40
   2  -1  -3    5.60    1.20
  -1   0   2  555.34   24.30
  -1   0   2  548.55   24.10
  -1   0   2  555.04   24.30
  -1   0   2  567.94   24.40
  -1   0   2  561.24   24.40
  -1   0   2  544.75   24.30
  -1   0   2  568.14   24.30
   1   0  -2  543.85   24.40
   1   0  -2  547.95   24.30
   1   0  -2  558.14   24.30
   1   0  -2  546.75   24.30
   1   0  -2  555.74   24.30
   1   0  -2  557.14   24.10
   0  -1   1 2524.25  114.49
   0  -1   1 2653.53  149.88
   0   1  -1 2664.43  114.69
   1  -2   0   16.20    1.30
   1  -2   0   15.10    1.00
   1  -2   0   13.40    1.60
   1  -2   0   16.00    1.50
   1  -2   0   13.10    1.30
  -1   2   0   14.00    1.10
  -1   2   0   16.20    1.50
  -1   2   0   13.90    1.30
  -1   2   0   13.80    1.20
  -1   2   0   15.60    1.50
  -1   2   0   14.30    1.40
   2  -3  -1  188.98    9.60
   2  -3  -1  217.38   10.30
   2  -3  -1  184.38    9.80
   2  -3  -1  196.38    9.60
  -2   3   1  211.38   10.10
  -2   3   1  213.28   12.10
  -2   3   1  201.88   10.00
  -2   3   1  193.68    9.20
   3  -4  -2    0.10    1.00
   3  -4  -2    3.50    1.70
   3  -4  -2    4.70    1.90
  -3   4   2    4.20    1.50
  -3   4   2    5.00    1.10
  -3   4   2    1.80    1.30
   4  -5  -3    7.40    2.10
   4  -5  -3    2.80    2.10
  -4   5   3    2.90    2.10
  -4   5   3    4.60    1.90
   5  -6  -4    0.90    2.00
   5  -6  -4    0.00    2.30
  -5   6   4   -0.60    1.90
  -5   6   4    0.90    2.10
  -6   4   7    3.10    2.60
   6  -4  -7   11.20    3.40
   6  -4  -7    3.10    2.80
   6  -4  -7    4.80    2.50
  -5   3   6    4.70    2.30
  -5   3   6    6.50    2.40
  -5   3   6    9.20    1.80
   5  -3  -6   10.10    2.50
   5  -3  -6    7.30    2.60
   5  -3  -6    8.60    3.30
   5  -3  -6    4.60    1.80
  -4   2   5   88.09    6.00
  -4   2   5   88.19    5.20
  -4   2   5   79.59    4.90
   4  -2  -5   83.69    5.90
   4  -2  -5   88.89    5.50
   4  -2  -5   85.59    5.40
  -3   1   4    2.90    1.20
  -3   1   4    3.60    1.20
  -3   1   4    4.50    2.10
  -3   1   4    3.70    1.10
   3  -1  -4    2.90    1.20
   3  -1  -4    3.30    1.20
   3  -1  -4    4.40    1.40
   3  -1  -4    4.30    1.40
   3  -1  -4    6.50    1.30
   3  -1  -4    2.50    1.30
  -2   0   3  152.48    7.70
  -2   0   3  145.69    7.60
  -2   0   3  149.79    7.50
  -2   0   3  153.58    7.60
  -2   0   3  156.88    7.90
  -2   0   3  158.78    7.20
  -2   0   3  151.08    7.40
   2   0  -3  154.68    7.90
   2   0  -3  149.39    7.50
   2   0  -3  154.98    7.60
   2   0  -3  151.88    7.20
   2   0  -3  148.19    7.60
   2   0  -3  149.99    7.70
  -1  -1   2   82.49    4.30
  -1  -1   2   79.39    4.10
  -1  -1   2   78.89    3.80
  -1  -1   2   91.39    4.30
  -1  -1   2   83.09    4.30
  -1  -1   2   78.29    4.20
   1   1  -2   82.19    3.90
   1   1  -2   79.19    3.80
   1   1  -2   80.69    4.20
   1   1  -2   82.09    4.10
   1   1  -2   79.29    4.30
   1   1  -2   74.99    4.20
   1   1  -2   79.29    4.30
   0  -2   1  310.87   14.50
   0  -2   1  304.97   14.20
   0  -2   1  327.27   14.40
   0  -2   1  308.47   14.00
   0  -2   1  303.77   14.10
   0  -2   1  322.67   14.30
   0   2  -1  305.87   14.30
   0   2  -1  316.37   14.10
   0   2  -1  310.57   14.20
   0   2  -1  323.27   14.10
   0   2  -1  326.47   14.10
   0   2  -1  312.67   14.20
   1  -3   0   86.99    5.10
   1  -3   0   93.89    4.70
   1  -3   0   97.49    5.30
   1  -3   0   96.09    5.50
   1  -3   0   99.49    5.20
   1  -3   0   98.29    5.40
  -1   3   0   97.19    4.70
  -1   3   0  107.39    5.60
  -1   3   0  104.89    5.60
  -1   3   0  103.99    5.10
  -1   3   0  103.39    5.40
  -1   3   0  103.69    5.10
   2  -4  -1    1.60    1.40
   2  -4  -1    3.60    1.20
   2  -4  -1    5.70    1.60
  -2   4   1    3.00    1.30
  -2   4   1    8.10    1.80
  -2   4   1    4.60    1.10
   3  -5  -2    3.00    1.50
   3  -5  -2    0.90    1.60
   3  -5  -2    1.00    1.90
  -3   5   2    3.50    1.70
  -3   5   2    5.10    1.80
   4  -6  -3    5.80    3.10
   4  -6  -3    6.00    2.50
   4  -6  -3    5.90    2.10
  -4   6   3    8.80    2.70
  -4   6   3    7.90    2.70
   5  -7  -4    4.90    3.20
   5  -7  -4   11.00    3.50
  -5   7   4    8.50    3.50
  -5   7   4   -0.90    2.40
  -6   3   7    1.90    1.50
  -6   3   7   -4.20    2.00
  -6   3   7    2.90    2.60
   6  -3  -7    3.30    2.40
   6  -3  -7    2.20    2.50
   6  -3  -7   -0.80    2.00
  -5   2   6    1.20    2.00
  -5   2   6    3.10    1.50
   5  -2  -6    1.40    1.60
   5  -2  -6    4.90    2.80
   5  -2  -6    1.40    1.50
  -4   1   5  114.89    6.40
  -4   1   5  141.09    7.50
  -4   1   5  108.49    6.60
  -4   1   5  113.79    6.30
   4  -1  -5  109.09    6.40
   4  -1  -5  119.29    6.90
   4  -1  -5  116.79    7.40
   4  -1  -5  112.09    7.20
  -3   0   4    5.50    1.40
  -3   0   4    5.80    1.50
  -3   0   4    9.10    1.30
  -3   0   4    7.60    1.70
   3   0  -4   10.90    1.90
   3   0  -4   10.50    1.40
   3   0  -4    6.70    1.60
   3   0  -4    7.00    1.90
   3   0  -4    9.70    1.90
  -2  -1   3  116.19    6.10
  -2  -1   3  112.79    5.40
  -2  -1   3  114.69    6.00
  -2  -1   3  123.39    6.30
  -2  -1   3  115.19    6.40
  -2  -1   3  122.79    6.30
   2   1  -3  115.49    5.40
   2   1  -3  121.29    6.30
   2   1  -3  107.59    6.00
   2   1  -3  114.49    6.10
   2   1  -3  121.49    6.10
   2   1  -3  117.19    6.30
  -1  -2   2   45.70    2.60
  -1  -2   2   43.80    3.00
  -1  -2   2   49.50    3.00
  -1  -2   2   45.30    3.00
  -1  -2   2   46.80    2.80
  -1  -2   2   51.99    3.20
   1   2  -2   46.60    2.80
   1   2  -2   48.10    3.10
   1   2  -2   47.90    3.00
   1   2  -2   44.90    3.20
   1   2  -2   46.20    2.60
   1   2  -2   43.40    3.00
   0  -3   1  908.91   42.60
   0  -3   1  925.61   42.20
   0  -3   1 1020.80   42.50
   0  -3   1  985.50   42.60
   0  -3   1  972.20   42.50
   0   3  -1 1035.40   42.50
   0   3  -1  939.91   42.20
   0   3  -1  980.50   42.60
   0   3  -1  981.60   42.50
   0   3  -1  939.31   42.30
   0   3  -1  979.10   42.30
   1  -4   0  762.02   34.10
   1  -4   0  775.02   33.40
   1  -4   0  792.82   34.20
   1  -4   0  730.43   34.10
   1  -4   0  785.02   34.60
  -1   4   0  777.02   34.20
  -1   4   0  813.82   34.60
  -1   4   0  750.02   33.40
  -1   4   0  731.13   33.90
   2  -5  -1   23.60    3.30
   2  -5  -1   18.40    2.70
  -2   5   1   19.40    2.50
  -2   5   1   20.80    2.90
  -2   5   1   23.80    3.10
   3  -6  -2    2.60    1.50
   3  -6  -2    5.60    2.10
   3  -6  -2    2.90    2.50
  -3   6   2    0.30    1.40
  -3   6   2    2.80    1.90
   4  -7  -3    4.00    2.50
   4  -7  -3    3.40    2.30
  -4   7   3   -2.00    1.80
  -4   7   3   -0.10    2.00
  -6   2   7   11.10    2.60
  -6   2   7    9.60    2.90
   6  -2  -7   10.30    2.50
   6  -2  -7   11.70    3.30
   6  -2  -7    5.50    2.70
  -5   1   6    5.40    2.50
  -5   1   6    5.50    2.40
  -5   1   6    3.40    1.80
   5  -1  -6    7.60    2.90
   5  -1  -6    3.30    1.40
   5  -1  -6    6.00    2.20
   5  -1  -6    8.50    2.60
  -4   0   5   26.10    3.00
  -4   0   5   25.20    3.50
  -4   0   5   22.70    3.10
  -4   0   5   23.00    2.00
   4   0  -5   22.00    3.20
   4   0  -5   23.40    3.10
   4   0  -5   23.60    2.00
   4   0  -5   32.10    3.80
   4   0  -5   26.70    3.40
  -3  -1   4  607.54   27.00
  -3  -1   4  610.04   26.90
  -3  -1   4  575.44   25.70
  -3  -1   4  575.64   26.50
   3   1  -4  586.94   26.70
   3   1  -4  606.64   27.20
   3   1  -4  572.94   25.70
   3   1  -4  602.64   26.90
   3   1  -4  570.54   26.70
  -2  -2   3  438.56   19.80
  -2  -2   3  440.66   20.10
  -2  -2   3  421.86   20.60
  -2  -2   3  415.06   19.70
  -2  -2   3  434.26   19.70
   2   2  -3  440.96   20.10
   2   2  -3  431.16   19.80
   2   2  -3  437.76   18.90
   2   2  -3  443.96   18.90
   2   2  -3  429.56   19.70
   2   2  -3  428.66   19.90
  -1  -3   2  175.38    8.90
  -1  -3   2  174.38    8.80
  -1  -3   2  184.58    9.10
  -1  -3   2  178.18    8.70
  -1  -3   2  191.38    9.00
  -1  -3   2  163.98    8.40
   1   3  -2  182.48    8.90
   1   3  -2  169.28    8.90
   1   3  -2  191.58    9.20
   1   3  -2  168.08    8.60
   1   3  -2  167.28    8.80
   1   3  -2  188.28    8.50
   0  -4   1  704.03   30.90
   0  -4   1  669.23   30.90
   0  -4   1  688.43   31.00
   0  -4   1  707.83   30.70
   0   4  -1  703.33   31.00
   0   4  -1  684.93   31.10
   0   4  -1  713.13   30.80
   0   4  -1  672.63   30.50
   0   4  -1  662.53   30.80
   0   4  -1  689.13   30.70
   1  -5   0   56.89    4.10
   1  -5   0   62.19    5.20
   1  -5   0   54.59    4.00
   1  -5   0   54.69    3.20
  -1   5   0   50.69    4.10
  -1   5   0   58.49    4.00
  -1   5   0   52.09    3.70
  -1   5   0   58.39    3.20
   2  -6  -1  166.58    9.30
   2  -6  -1  154.98    9.00
   2  -6  -1  159.58    9.70
  -2   6   1  151.28    9.20
  -2   6   1  170.98    9.60
  -2   6   1  171.68    8.60
   3  -7  -2    2.40    3.50
   3  -7  -2    3.20    2.10
  -3   7   2    2.00    1.50
  -3   7   2    6.00    2.50
   4  -8  -3    3.60    3.00
   4  -8  -3    6.70    3.10
  -4   8   3    6.10    3.10
  -4   8   3   10.30    3.60
  -6   1   7   -1.00    1.90
  -6   1   7    1.80    2.00
   6  -1  -7    1.10    1.90
   6  -1  -7    3.50    2.40
   6  -1  -7    3.30    1.90
  -5   0   6   17.10    2.90
  -5   0   6   14.00    3.00
  -5   0   6   20.30    3.30
   5   0  -6   16.10    3.20
   5   0  -6   18.80    3.50
   5   0  -6   21.40    3.60
   5   0  -6   16.60    1.80
   5   0  -6   14.70    2.80
  -4  -1   5   41.80    2.40
  -4  -1   5   37.50    3.60
  -4  -1   5   37.70    3.30
  -4  -1   5   38.80    3.50
   4   1  -5   36.10    3.30
   4   1  -5   32.90    3.40
   4   1  -5   45.30    3.90
   4   1  -5   40.60    3.70
   4   1  -5   37.00    2.30
  -3  -2   4  112.89    6.30
  -3  -2   4  108.79    7.30
   3   2  -4  108.49    5.20
   3   2  -4  113.69    6.40
   3   2  -4  105.09    6.40
   3   2  -4  115.49    5.10
   3   2  -4  116.19    6.50
   3   2  -4  112.19    6.70
  -2  -3   3  486.35   21.90
  -2  -3   3  438.16   22.00
  -2  -3   3  479.75   22.10
  -2  -3   3  473.65   21.00
  -2  -3   3  476.35   21.80
   2   3  -3  460.05   22.10
   2   3  -3  474.05   21.90
   2   3  -3  493.25   21.00
   2   3  -3  458.45   20.90
   2   3  -3  504.35   22.10
   2   3  -3  494.55   21.80
  -1  -4   2   71.29    4.30
  -1  -4   2   60.39    3.80
  -1  -4   2   59.39    4.40
  -1  -4   2   67.29    4.30
  -1  -4   2   59.59    3.90
   1   4  -2   64.89    3.90
   1   4  -2   62.59    4.20
   1   4  -2   67.89    4.10
   1   4  -2   64.79    4.20
   1   4  -2   66.29    4.50
   0  -5   1    6.70    1.40
   0  -5   1    6.80    1.70
   0  -5   1    5.90    1.80
   0  -5   1    8.20    2.10
   0   5  -1    6.20    1.60
   0   5  -1    6.40    3.00
   0   5  -1    6.10    1.50
   0   5  -1    7.30    1.60
   1  -6   0  156.98    9.30
   1  -6   0  172.18    8.30
   1  -6   0  177.58    9.80
   1  -6   0  162.98    9.30
  -1   6   0  168.08    8.30
  -1   6   0  178.18    9.10
  -1   6   0  172.18    9.40
  -1   6   0  175.08    9.70
   2  -7  -1   76.29    5.90
   2  -7  -1   88.39    6.40
   2  -7  -1   86.39    6.30
  -2   7   1   85.29    6.10
  -2   7   1   66.49    5.80
  -2   7   1   79.79    5.30
   3  -8  -2    6.90    2.60
   3  -8  -2    0.80    2.20
  -3   8   2    0.50    2.10
  -3   8   2    0.40    2.20
  -6   0   7   19.20    3.90
   6   0  -7   20.20    2.60
   6   0  -7   13.00    3.50
   6   0  -7   11.60    3.00
  -5  -1   6    9.10    1.00
  -5  -1   6   10.50    2.80
  -5  -1   6   10.40    2.80
  -5  -1   6    9.90    2.20
   5   1  -6    8.60    0.90
   5   1  -6    9.60    2.60
   5   1  -6   10.40    2.50
   5   1  -6   10.60    1.20
   5   1  -6    5.20    2.10
  -4  -2   5   81.59    5.20
  -4  -2   5   82.09    5.50
  -4  -2   5   87.89    5.80
   4   2  -5   92.79    5.80
   4   2  -5   81.19    5.80
   4   2  -5   69.39    5.20
   4   2  -5   67.69    5.20
  -3  -3   4   17.20    2.80
  -3  -3   4   19.10    2.70
   3   3  -4   17.60    2.80
   3   3  -4   15.70    2.70
   3   3  -4   17.40    2.60
   3   3  -4   15.50    2.40
   3   3  -4   16.20    1.00
   3   3  -4   15.50    1.00
  -2  -4   3   42.10    3.40
  -2  -4   3   42.00    4.00
  -2  -4   3   43.60    2.70
   2   4  -3   36.90    3.40
   2   4  -3   46.60    3.60
   2   4  -3   40.70    2.60
   2   4  -3   39.20    3.30
   2   4  -3   43.80    3.30
   2   4  -3   40.70    2.70
  -1  -5   2    7.70    2.00
  -1  -5   2    5.60    1.70
  -1  -5   2    8.40    1.60
  -1  -5   2   10.70    1.90
   1   5  -2   10.30    1.90
   1   5  -2    7.20    1.90
   1   5  -2   10.70    1.90
   1   5  -2   11.90    2.10
   0  -6   1   88.69    5.80
   0  -6   1   82.29    5.80
   0  -6   1   92.89    5.40
   0   6  -1   91.39    5.80
   0   6  -1   92.29    6.20
   0   6  -1   88.19    5.60
   1  -7   0   -1.20    1.60
   1  -7   0    4.30    1.90
   1  -7   0    3.50    1.10
  -1   7   0   -0.10    1.60
  -1   7   0   -0.20    1.50
  -1   7   0    2.20    1.60
   2  -8  -1    0.30    2.20
   2  -8  -1    0.90    2.20
  -2   8   1    5.30    2.40
  -2   8   1   -1.20    1.70
   3  -9  -2    2.50    2.90
   3  -9  -2    2.70    2.90
  -3   9   2    4.60    2.60
  -3   9   2    0.90    2.90
  -6  -1   7    6.30    2.40
  -6  -1   7    4.60    2.30
   6   1  -7    6.00    2.40
   6   1  -7    6.90    2.70
   6   1  -7   13.00    3.20
  -5  -2   6   73.79    5.30
  -5  -2   6   83.59    6.20
  -5  -2   6   81.59    6.00
   5   2  -6   77.39    6.20
   5   2  -6   79.49    5.90
   5   2  -6   76.89    5.90
  -4  -3   5   31.50    3.80
  -4  -3   5   29.90    4.10
   4   3  -5   31.70    3.30
   4   3  -5   29.10    3.30
   4   3  -5   38.10    3.70
   4   3  -5   37.20    3.80
  -3  -4   4    3.20    1.60
  -3  -4   4    0.30    1.40
   3   4  -4   -1.10    1.30
   3   4  -4    1.80    1.50
   3   4  -4    0.40    0.50
   3   4  -4    0.70    1.20
   3   4  -4    1.40    1.50
   3   4  -4    0.40    0.50
  -2  -5   3   67.09    5.00
  -2  -5   3   68.39    5.10
  -2  -5   3   75.49    4.40
   2   5  -3   70.39    5.00
   2   5  -3   81.39    5.00
   2   5  -3   70.69    5.20
  -1  -6   2   31.80    3.10
  -1  -6   2   34.00    4.20
  -1  -6   2   28.50    2.90
   1   6  -2   29.70    3.00
   1   6  -2   37.80    3.80
   1   6  -2   31.20    3.10
   0  -7   1   15.30    2.90
   0  -7   1   13.80    3.10
   0  -7   1   21.30    2.80
   0   7  -1   18.80    3.60
   0   7  -1   12.40    2.80
   0   7  -1   27.00    3.40
   1  -8   0  103.89    5.70
   1  -8   0  107.09    5.90
   1  -8   0   98.99    7.10
   1  -8   0  106.89    8.40
   1  -8   0   77.29    8.60
  -1   8   0  103.19    5.70
  -1   8   0  111.09    7.30
  -1   8   0  103.39    7.70
  -1   8   0   99.29    6.60
   2  -9  -1   23.50    4.50
   2  -9  -1   20.40    4.20
  -2   9   1   22.00    4.20
  -2   9   1   13.90    3.90
  -6  -2   7   10.70    3.30
  -6  -2   7   10.50    3.10
   6   2  -7    8.80    2.80
   6   2  -7   13.40    3.10
   6   2  -7    8.10    3.00
  -5  -3   6    8.90    2.70
  -5  -3   6    4.00    2.40
  -5  -3   6    5.70    2.50
   5   3  -6    8.80    2.50
   5   3  -6    8.70    3.70
   5   3  -6   11.30    2.70
   5   3  -6    5.80    2.10
  -4  -4   5   10.00    2.40
  -4  -4   5   11.90    3.00
   4   4  -5   10.50    2.60
   4   4  -5    8.60    2.50
   4   4  -5    8.30    2.70
   4   4  -5    6.10    2.20
  -3  -5   4  204.28   10.80
  -3  -5   4  202.58   11.10
   3   5  -4  198.78    9.30
   3   5  -4  193.08   10.80
   3   5  -4  198.18   11.10
   3   5  -4  173.48   10.40
   3   5  -4  197.98    9.20
  -2  -6   3  136.79    8.20
  -2  -6   3  133.69    7.30
  -2  -6   3  138.29    8.20
   2   6  -3  149.88    8.60
   2   6  -3  124.09    7.80
   2   6  -3  128.29    8.00
  -1  -7   2  101.49    7.20
  -1  -7   2  122.79    7.00
  -1  -7   2  104.69    6.80
   1   7  -2   91.99    6.60
   1   7  -2  109.19    7.00
   1   7  -2  110.19    7.60
   0  -8   1   65.69    4.80
   0  -8   1   63.99    5.60
   0  -8   1   70.19    5.60
   0   8  -1   63.69    5.30
   0   8  -1   66.29    5.10
   1  -9   0   34.80    3.00
   1  -9   0   32.50    5.00
  -1   9   0   46.00    5.60
  -1   9   0   32.40    5.20
   2 -10  -1   34.00    5.80
   2 -10  -1   28.70    5.30
  -2  10   1   24.10    4.90
  -2  10   1   16.60    4.50
  -6  -3   7   33.90    5.10
  -6  -3   7   33.10    5.30
   6   3  -7   25.70    4.50
   6   3  -7   23.90    4.50
   6   3  -7   29.50    4.70
  -5  -4   6    5.80    2.50
   5   4  -6    1.60    1.70
   5   4  -6    3.90    2.10
   5   4  -6    3.00    2.40
  -4  -5   5   16.90    3.50
  -4  -5   5   12.00    2.70
   4   5  -5   13.20    2.80
   4   5  -5    8.80    2.90
   4   5  -5   13.70    2.90
  -3  -6   4    4.30    2.00
  -3  -6   4    1.50    2.00
  -3  -6   4    3.90    1.00
   3   6  -4    3.50    1.00
   3   6  -4    3.10    1.40
   3   6  -4    3.10    1.90
   3   6  -4    4.30    2.00
   3   6  -4    2.90    2.10
  -2  -7   3   72.99    5.40
  -2  -7   3   53.59    5.80
  -2  -7   3   72.79    5.60
   2   7  -3   73.19    5.80
   2   7  -3   62.59    5.20
   2   7  -3   65.29    5.30
  -1  -8   2    7.90    2.30
  -1  -8   2    6.70    2.20
  -1  -8   2    2.30    2.20
   1   8  -2    1.60    1.90
   1   8  -2    5.00    2.40
   1   8  -2    6.90    2.30
   0  -9   1    7.90    2.70
   0  -9   1   12.70    3.50
   0  -9   1   14.90    2.90
   0   9  -1    6.40    3.10
   0   9  -1   11.10    3.10
   1 -10   0   -1.00    2.60
   1 -10   0   -0.20    2.50
  -1  10   0    2.20    3.10
  -1  10   0    0.20    2.50
  -6  -4   7    3.10    3.00
  -6  -4   7    3.30    2.30
   6   4  -7    4.10    2.70
   6   4  -7    2.50    2.40
  -5  -5   6   15.80    3.90
   5   5  -6   15.30    3.30
   5   5  -6   11.10    3.30
   5   5  -6    8.60    2.80
  -4  -6   5   20.20    3.60
  -4  -6   5   21.00    4.10
   4   6  -5   20.60    3.60
   4   6  -5   18.50    3.70
   4   6  -5   16.40    3.40
  -3  -7   4   12.70    3.00
  -3  -7   4    8.10    2.80
  -3  -7   4    8.80    1.80
   3   7  -4    5.50    2.40
   3   7  -4    6.40    1.70
   3   7  -4    7.50    2.50
   3   7  -4    5.20    2.40
  -2  -8   3    3.30    1.70
  -2  -8   3    1.60    1.90
   2   8  -3    2.50    1.90
   2   8  -3    4.90    2.30
   2   8  -3    0.60    1.80
  -1  -9   2   32.20    4.80
  -1  -9   2   23.30    3.90
   1   9  -2   17.20    4.00
   1   9  -2   14.90    3.30
   1   9  -2   28.50    4.30
   0 -10   1    4.40    3.10
   0 -10   1    2.60    2.20
   0 -10   1    8.20    3.20
   0  10  -1    2.70    2.80
   0  10  -1    0.20    2.90
  -6  -5   7   -0.50    2.70
   6   5  -7    3.00    2.80
  -5  -6   6   30.30    5.40
   5   6  -6   28.90    4.90
   5   6  -6   51.99    5.30
  -4  -7   5    8.10    3.20
   4   7  -5   10.40    3.30
   4   7  -5   10.30    3.00
   4   7  -5    3.90    2.40
  -3  -8   4    8.10    3.00
  -3  -8   4    5.20    2.50
  -3  -8   4    3.30    2.70
   3   8  -4    7.20    2.60
   3   8  -4    4.00    2.50
   3   8  -4    0.80    2.10
  -2  -9   3   19.60    3.40
  -2  -9   3   23.00    4.20
  -2  -9   3   15.50    3.80
   2   9  -3   21.90    4.00
   2   9  -3   17.70    4.00
   2   9  -3   13.50    3.30
  -1 -10   2   11.10    2.90
  -1 -10   2   17.10    4.50
   1  10  -2   16.90    3.80
   1  10  -2   25.80    4.90
  -5  -7   6   11.30    4.00
   5   7  -6   14.80    3.90
   5   7  -6   16.60    4.10
   5   7  -6   20.50    4.20
  -4  -8   5    6.50    3.20
   4   8  -5    6.00    3.30
   4   8  -5    2.70    3.00
   4   8  -5    9.60    3.20
  -3  -9   4    3.50    1.80
  -3  -9   4    2.10    2.80
   3   9  -4    2.50    2.80
   3   9  -4   -0.10    2.70
   3   9  -4    0.10    2.30
   3   9  -4   -0.90    2.10
  -2 -10   3    4.50    2.60
  -2 -10   3    3.20    3.40
  -2 -10   3    3.30    3.40
   2  10  -3    3.10    3.10
   2  10  -3    5.90    3.00
   3  11  -1   -4.70    2.40
   3  11  -1   -1.40    3.80
   3  11  -1    5.70    2.80
  -3 -11   1   -1.00    2.70
   4  10  -2    1.00    2.40
   4  10  -2    1.60    2.40
   4  10  -2   -0.60    3.00
  -4 -10   2    1.20    2.50
   5   9  -3    8.80    3.20
   5   9  -3    1.20    2.50
   5   9  -3    1.10    2.40
  -5  -9   3    4.50    3.30
   6   8  -4   -0.80    2.80
   6   8  -4    0.00    2.80
   6   8  -4    3.50    3.00
  -6  -8   4    2.90    3.10
   2  11   0    1.00    2.60
   2  11   0    1.00    2.70
  -2 -11   0   -2.70    2.70
  -2 -11   0   -4.10    1.70
  -2 -11   0   -0.20    2.90
   3  10  -1    2.90    2.20
   3  10  -1    0.00    2.40
   3  10  -1    1.00    2.40
  -3 -10   1    2.40    1.90
  -3 -10   1    0.90    2.50
  -3 -10   1    1.70    2.40
   4   9  -2   19.40    3.80
   4   9  -2    7.90    3.10
   4   9  -2   16.40    3.70
  -4  -9   2   13.70    3.60
  -4  -9   2   14.90    2.10
   5   8  -3    1.60    2.20
   5   8  -3   -0.40    2.00
   5   8  -3   -1.40    2.20
  -5  -8   3   -1.00    2.30
   6   7  -4    8.00    2.80
   6   7  -4    9.30    3.40
   6   7  -4    1.90    2.40
  -6  -7   4    8.50    3.30
   7   6  -5    7.70    3.30
   7   6  -5    6.60    3.10
  -7  -6   5    6.80    3.30
   1  11   1    0.80    3.10
   1  11   1   -2.50    2.70
  -1 -11  -1    0.70    2.50
  -1 -11  -1    1.80    3.10
  -1 -11  -1    6.00    2.40
   2  10   0    9.20    3.10
   2  10   0    8.10    3.40
   2  10   0   10.10    3.20
  -2 -10   0    8.80    2.50
  -2 -10   0   14.90    3.80
   3   9  -1    3.80    2.30
   3   9  -1    4.30    2.30
   3   9  -1    0.10    1.70
  -3  -9   1    4.50    1.70
  -3  -9   1    4.10    2.20
  -3  -9   1    2.90    2.50
   4   8  -2   -4.00    1.30
   4   8  -2    0.70    1.80
   4   8  -2    2.00    1.60
   4   8  -2   -0.60    1.70
  -4  -8   2    7.20    2.50
  -4  -8   2    0.60    0.90
  -4  -8   2    0.30    2.10
   5   7  -3    6.50    2.50
   5   7  -3    7.70    2.40
   5   7  -3    3.50    2.30
  -5  -7   3   10.10    3.20
   6   6  -4    8.90    2.90
   6   6  -4    4.30    2.50
   6   6  -4    7.40    2.50
  -6  -6   4   -1.00    2.30
   7   5  -5    5.60    2.90
   7   5  -5    5.70    3.10
   7   5  -5    1.80    2.30
  -7  -5   5    1.40    3.00
  -7  -5   5    5.90    2.80
   0  11   2    8.50    3.40
   0  11   2   12.60    4.00
   0 -11  -2   13.90    4.30
   1  10   1   78.29    6.40
   1  10   1   67.79    5.80
   1  10   1   64.59    6.20
  -1 -10  -1   64.39    5.90
  -1 -10  -1   77.29    5.30
  -1 -10  -1   64.99    6.30
   2   9   0   73.69    5.80
   2   9   0   69.79    5.90
  -2  -9   0   53.39    5.30
  -2  -9   0   79.39    5.60
  -2  -9   0   77.29    5.60
   3   8  -1   57.99    5.20
   3   8  -1   61.09    5.20
   3   8  -1   73.49    5.60
  -3  -8   1   63.49    5.40
  -3  -8   1   63.59    4.50
  -3  -8   1   73.59    5.40
   4   7  -2   42.50    4.20
   4   7  -2   43.60    4.10
   4   7  -2   39.70    2.70
   4   7  -2   37.50    5.60
   4   7  -2   38.70    4.10
  -4  -7   2   41.80    4.00
  -4  -7   2   40.90    2.60
  -4  -7   2   47.80    4.50
   5   6  -3   20.60    3.60
   5   6  -3   20.00    3.40
   5   6  -3   22.70    4.00
   5   6  -3   20.00    3.40
  -5  -6   3   23.60    4.10
  -5  -6   3   20.40    3.20
   6   5  -4   10.70    2.60
   6   5  -4   14.70    3.30
   6   5  -4    7.20    2.60
  -6  -5   4   16.00    3.80
   7   4  -5    9.60    2.90
   7   4  -5    3.90    2.30
   7   4  -5    0.60    2.00
  -7  -4   5    5.10    3.00
  -7  -4   5    1.10    2.50
  -1  11   3   -0.10    3.00
  -1  11   3   -0.80    3.00
   1 -11  -3   -0.10    3.30
   1 -11  -3   -3.20    2.80
   0  10   2   10.00    3.30
   0  10   2    4.90    2.70
   0 -10  -2    7.10    3.00
   0 -10  -2    8.10    2.80
   0 -10  -2    7.40    1.80
   1   9   1   -0.70    2.80
   1   9   1    1.10    1.80
   1   9   1    1.10    1.90
  -1  -9  -1    0.70    1.40
  -1  -9  -1    0.80    1.80
  -1  -9  -1    3.30    2.10
   2   8   0   46.10    4.40
   2   8   0   57.69    4.90
   2   8   0   59.89    4.80
  -2  -8   0   46.70    4.30
  -2  -8   0   39.30    3.80
  -2  -8   0   45.50    4.00
   3   7  -1  395.76   19.80
   3   7  -1  428.56   20.20
   3   7  -1  406.26   18.90
   3   7  -1  405.26   19.90
  -3  -7   1  397.16   19.90
  -3  -7   1  393.96   19.70
  -3  -7   1  420.06   19.00
   4   6  -2  221.18    9.80
   4   6  -2  211.98   11.80
   4   6  -2  213.68   11.70
   4   6  -2  219.98   12.00
   4   6  -2  228.78   12.00
  -4  -6   2  234.78   12.30
  -4  -6   2  207.18   11.30
  -4  -6   2  213.28    9.70
   5   5  -3    7.80    2.50
   5   5  -3    9.20    2.50
   5   5  -3    8.60    2.60
   5   5  -3   11.60    2.70
  -5  -5   3    7.90    2.00
  -5  -5   3    4.60    2.30
   6   4  -4    9.70    3.10
   6   4  -4    5.80    2.30
   6   4  -4    3.00    1.80
   6   4  -4   10.00    2.80
  -6  -4   4   10.70    3.20
   7   3  -5    1.50    2.20
   7   3  -5   -0.40    1.60
   7   3  -5    0.40    2.00
  -7  -3   5    4.20    2.60
  -7  -3   5   -0.20    2.10
  -1  10   3   16.20    3.80
  -1  10   3   16.30    4.00
   1 -10  -3   20.00    4.10
   0   9   2   11.20    2.80
   0   9   2   12.50    3.20
   0   9   2   13.20    3.10
   0  -9  -2   17.70    3.60
   0  -9  -2    9.70    2.20
   0  -9  -2   11.60    2.00
   0  -9  -2   12.60    4.60
   1   8   1    0.70    1.70
   1   8   1   -0.10    1.70
   1   8   1    3.90    2.00
  -1  -8  -1    1.10    1.70
  -1  -8  -1    0.40    1.40
  -1  -8  -1    2.90    1.50
   2   7   0   68.19    5.00
   2   7   0   68.89    5.00
   2   7   0   64.69    4.90
  -2  -7   0   64.49    4.70
  -2  -7   0   68.69    4.90
  -2  -7   0   56.39    4.40
   3   6  -1    7.50    2.30
   3   6  -1    7.20    1.90
   3   6  -1    7.90    1.30
   3   6  -1    8.90    2.10
   3   6  -1    3.40    1.90
  -3  -6   1    4.00    1.80
  -3  -6   1   10.50    2.20
  -3  -6   1    8.10    1.40
   4   5  -2  208.78   11.40
   4   5  -2  216.78   11.60
   4   5  -2  210.68   11.60
   4   5  -2  218.18   11.30
  -4  -5   2  216.78   11.30
  -4  -5   2  233.48   12.00
   5   4  -3    0.20    1.40
   5   4  -3   -0.50    1.30
   5   4  -3    2.70    1.70
  -5  -4   3   -1.30    1.00
  -5  -4   3    1.00    1.70
   6   3  -4  110.99    7.70
   6   3  -4  100.49    7.40
   6   3  -4  104.89    8.30
  -6  -3   4  127.09    7.90
  -6  -3   4  103.09    8.20
   7   2  -5   33.90    5.00
   7   2  -5   33.00    5.00
   7   2  -5   25.90    4.10
  -7  -2   5   24.00    4.30
  -7  -2   5   31.20    5.00
  -2  10   4    6.00    3.40
  -2  10   4    2.90    3.10
   2 -10  -4    0.90    3.10
   2 -10  -4    5.40    3.00
  -1   9   3   33.90    4.50
  -1   9   3   37.60    5.20
   1  -9  -3   39.80    5.40
   1  -9  -3   42.80    4.60
   0   8   2   29.40    4.20
   0   8   2   25.20    3.60
   0   8   2   29.10    3.80
   0  -8  -2   29.50    4.20
   0  -8  -2   18.60    2.00
   0  -8  -2   27.00    3.90
   1   7   1   26.80    3.70
   1   7   1   30.10    3.20
   1   7   1   30.80    3.20
  -1  -7  -1   30.10    2.70
  -1  -7  -1   29.00    3.00
  -1  -7  -1   30.10    3.90
   2   6   0  158.98    8.40
   2   6   0  162.58    8.90
   2   6   0  161.48    8.80
   2   6   0  159.08    8.80
   2   6   0  163.88    8.90
  -2  -6   0  165.18    9.30
  -2  -6   0  161.78    8.40
  -2  -6   0  159.38    8.60
   3   5  -1  263.07   13.30
   3   5  -1  268.97   12.00
   3   5  -1  245.88   12.90
   3   5  -1  272.17   13.10
   3   5  -1  257.67   13.10
  -3  -5   1  275.07   13.40
  -3  -5   1  251.47   12.70
   4   4  -2    0.50    1.00
   4   4  -2   -0.40    1.00
   4   4  -2   -1.00    0.90
  -4  -4   2    0.10    1.00
  -4  -4   2   -0.60    1.20
   5   3  -3    2.80    1.40
   5   3  -3    3.10    1.70
   5   3  -3    3.70    1.80
  -5  -3   3    3.40    1.90
  -5  -3   3    3.50    1.10
   6   2  -4   30.50    4.00
  -6  -2   4   31.10    4.30
   7   1  -5   32.90    3.70
   7   1  -5   32.70    4.90
   7   1  -5   37.40    5.30
  -7  -1   5   34.10    5.00
  -2   9   4   11.00    3.40
  -2   9   4    9.50    3.00
   2  -9  -4   13.90    3.80
   2  -9  -4   23.80    4.50
  -1   8   3    4.10    2.20
  -1   8   3    5.60    2.00
  -1   8   3    9.70    2.80
   1  -8  -3    4.60    2.40
   1  -8  -3    6.10    2.40
   0   7   2   47.00    4.30
   0   7   2   52.69    4.20
   0   7   2   57.79    4.30
   0  -7  -2   49.60    4.40
   0  -7  -2   57.99    4.70
   0  -7  -2   58.89    3.40
   0  -7  -2   50.79    4.30
   0  -7  -2   49.70    3.40
   1   6   1  299.17   14.60
   1   6   1  319.17   16.10
   1   6   1  298.67   15.10
   1   6   1  315.47   15.10
   1   6   1  296.37   15.00
  -1  -6  -1  327.77   15.20
  -1  -6  -1  306.77   14.60
  -1  -6  -1  313.77   15.20
  -1  -6  -1  310.87   14.70
  -1  -6  -1  311.57   15.20
   2   5   0   19.40    2.50
   2   5   0   13.80    1.60
   2   5   0   11.80    1.90
   2   5   0   14.00    2.20
   2   5   0   15.00    2.30
  -2  -5   0   16.20    2.30
  -2  -5   0   17.50    2.40
  -2  -5   0   14.10    1.80
   3   4  -1  304.37   14.50
   3   4  -1  299.57   13.30
   3   4  -1  301.87   14.60
   3   4  -1  306.57   14.40
   3   4  -1  295.87   14.40
  -3  -4   1  323.07   14.90
  -3  -4   1  288.87   13.30
  -3  -4   1  296.77   14.10
   4   3  -2  335.07   15.60
   4   3  -2  347.67   16.30
   4   3  -2  316.57   16.10
  -4  -3   2  328.07   15.00
  -4  -3   2  325.97   16.30
   5   2  -3   21.20    3.30
   5   2  -3   22.10    2.80
   5   2  -3   22.60    3.20
   5   2  -3   15.60    2.40
  -5  -2   3   23.60    3.50
  -5  -2   3   19.00    3.20
   6   1  -4   22.30    5.10
   6   1  -4   25.70    3.40
   6   1  -4   23.20    1.90
  -6  -1   4   29.60    3.90
  -6  -1   4   20.90    1.90
   7   0  -5   27.50    3.90
   7   0  -5   33.90    5.10
   7   0  -5   22.00    2.90
  -7   0   5   27.80    4.10
  -7   0   5   30.00    4.90
  -3   9   5   12.20    3.50
  -3   9   5    6.00    3.20
   3  -9  -5   11.20    3.80
   3  -9  -5   13.90    3.80
  -2   8   4   -3.30    1.70
  -2   8   4   -3.40    1.40
  -2   8   4   -1.40    1.50
   2  -8  -4   -0.90    1.80
   2  -8  -4    1.50    1.80
   2  -8  -4   -0.30    4.50
  -1   7   3   97.59    6.60
  -1   7   3   98.99    6.10
  -1   7   3   96.29    6.40
   1  -7  -3   96.39    6.50
   1  -7  -3   88.99    6.40
   1  -7  -3   96.09    6.80
   0   6   2    0.80    1.10
   0   6   2    0.80    1.10
   0  -6  -2    1.50    0.80
   0  -6  -2    0.30    1.20
   0  -6  -2   -0.10    1.10
   0  -6  -2    1.10    0.80
   1   5   1  107.49    6.10
   1   5   1   96.79    5.80
   1   5   1  104.39    5.90
   1   5   1  105.79    5.70
   1   5   1  105.19    5.90
   1   5   1  111.19    6.00
  -1  -5  -1  112.29    6.00
  -1  -5  -1   97.39    5.70
  -1  -5  -1  109.09    6.10
  -1  -5  -1  103.49    5.70
  -1  -5  -1   99.19    5.90
   2   4   0    3.50    1.20
   2   4   0    9.40    1.60
   2   4   0    2.40    1.20
   2   4   0    5.10    1.00
   2   4   0    3.30    1.20
   2   4   0    2.60    1.20
  -2  -4   0    4.80    1.30
  -2  -4   0    3.00    0.80
  -2  -4   0    3.30    1.40
  -2  -4   0    4.00    1.30
  -2  -4   0    8.10    1.60
   3   3  -1  112.29    6.00
   3   3  -1  113.89    6.10
   3   3  -1  106.99    5.70
  -3  -3   1  104.69    4.70
  -3  -3   1  103.49    6.10
  -3  -3   1  105.79    4.70
  -3  -3   1  105.39    5.90
  -3  -3   1   99.49    5.40
   4   2  -2    3.50    1.30
   4   2  -2    3.00    1.10
  -4  -2   2    4.30    0.40
  -4  -2   2    4.20    0.40
  -4  -2   2    7.40    1.80
  -4  -2   2    4.70    0.90
   5   1  -3  188.58   10.60
   5   1  -3  198.98    9.10
   5   1  -3  200.48    9.80
   5   1  -3  178.58    9.60
   5   1  -3  200.68   10.80
  -5  -1   3  195.58   10.70
  -5  -1   3  189.48   10.30
  -5  -1   3  188.68    9.10
   6   0  -4   47.50    6.80
   6   0  -4   61.59    4.50
   6   0  -4   64.79    4.00
  -6   0   4   41.10    4.70
  -6   0   4   59.89    4.60
   7  -1  -5    6.40    2.20
   7  -1  -5    2.30    2.30
   7  -1  -5    5.30    2.30
  -7   1   5    3.80    2.90
  -7   1   5    6.10    2.00
  -3   8   5    8.70    3.00
  -3   8   5    4.50    2.50
   3  -8  -5    9.20    3.30
   3  -8  -5    6.90    2.40
  -2   7   4    5.90    2.10
  -2   7   4    6.80    2.20
  -2   7   4    8.60    2.30
   2  -7  -4    7.40    2.60
   2  -7  -4    4.80    2.10
  -1   6   3   34.50    3.10
  -1   6   3   30.60    3.20
  -1   6   3   38.10    3.20
   1  -6  -3   28.90    3.10
   1  -6  -3   34.00    3.30
   1  -6  -3   35.30    3.50
   1  -6  -3   35.30    1.70
   1  -6  -3   30.10    2.00
   0   5   2  199.18   10.20
   0   5   2  215.98   10.50
   0   5   2  204.48   10.30
   0   5   2  200.58   10.20
   0   5   2  214.88   10.30
   0  -5  -2  205.58   10.40
   0  -5  -2  210.88    9.60
   0  -5  -2  207.08   10.10
   0  -5  -2  198.48   10.60
   0  -5  -2  203.28   10.40
   1   4   1    6.20    1.40
   1   4   1    7.20    1.30
   1   4   1    7.80    1.40
   1   4   1    5.40    1.40
   1   4   1    7.50    1.50
   1   4   1    8.90    1.40
  -1  -4  -1   13.10    1.80
  -1  -4  -1   16.60    1.90
  -1  -4  -1    8.00    1.50
  -1  -4  -1    8.20    1.50
  -1  -4  -1    7.70    1.40
  -1  -4  -1    4.10    1.10
  -1  -4  -1   11.30    1.50
   2   3   0  258.87   12.10
   2   3   0  250.67   11.70
   2   3   0  261.97   12.40
   2   3   0  245.58   12.30
   2   3   0  261.37   12.10
   2   3   0  262.27   12.10
  -2  -3   0  268.17   12.00
  -2  -3   0  277.27   12.20
  -2  -3   0  280.17   12.70
  -2  -3   0  265.37   12.40
  -2  -3   0  258.57   11.80
  -2  -3   0  256.57   12.40
  -2  -3   0  255.87   12.00
   3   2  -1  133.49    6.40
   3   2  -1  126.09    6.90
   3   2  -1  128.29    6.40
   3   2  -1  126.49    6.80
   3   2  -1  134.29    6.90
  -3  -2   1  124.49    5.80
  -3  -2   1  129.49    6.90
  -3  -2   1  124.89    6.00
  -3  -2   1  138.09    7.00
  -3  -2   1  125.49    5.80
  -3  -2   1  131.99    6.80
   4   1  -2  360.56   16.20
   4   1  -2  363.76   17.40
   4   1  -2  362.56   17.40
   4   1  -2  366.56   16.60
   4   1  -2  371.06   16.60
  -4  -1   2  355.16   17.10
  -4  -1   2  364.96   16.30
  -4  -1   2  360.46   17.50
   5   0  -3  401.36   19.30
   5   0  -3  393.46   19.30
   5   0  -3  381.16   18.10
   5   0  -3  417.06   18.30
   5   0  -3  379.36   18.10
  -5   0   3  388.26   18.60
  -5   0   3  380.06   18.20
  -5   0   3  397.36   19.40
   6  -1  -4    2.70    1.60
   6  -1  -4   -0.20    1.20
   6  -1  -4   -0.30    1.70
   6  -1  -4   -1.10    1.30
  -6   1   4    1.70    1.20
  -6   1   4    0.20    1.60
   7  -2  -5    3.30    2.70
   7  -2  -5    1.40    2.00
   7  -2  -5    3.10    2.00
  -7   2   5    1.60    2.50
  -7   2   5    4.20    2.50
  -7   2   5    1.10    1.50
  -4   8   6    8.90    3.30
  -4   8   6    6.30    3.40
   4  -8  -6    6.80    3.30
   4  -8  -6   10.20    3.30
  -3   7   5    4.40    3.20
  -3   7   5    5.70    2.50
   3  -7  -5    4.10    2.30
   3  -7  -5    2.50    1.90
  -2   6   4    2.50    1.60
  -2   6   4   -0.10    1.40
  -2   6   4   -0.20    1.50
   2  -6  -4    1.40    1.80
   2  -6  -4    1.10    1.90
   2  -6  -4   -1.10    1.20
  -1   5   3   58.09    4.20
  -1   5   3   64.59    4.30
   1  -5  -3   63.69    3.10
   1  -5  -3   69.89    4.50
   1  -5  -3   67.89    4.40
   1  -5  -3   72.99    5.50
   0   4   2    1.10    0.90
   0   4   2    0.70    0.80
   0   4   2    1.00    0.70
   0   4   2    1.90    0.80
   0   4   2    0.80    0.90
   0  -4  -2    2.10    1.10
   0  -4  -2    0.00    0.80
   0  -4  -2    1.00    0.60
   0  -4  -2    0.20    0.90
   0  -4  -2    0.10    0.60
   0  -4  -2    1.00    0.60
   0  -4  -2   -0.40    0.60
   1   3   1  315.37   14.10
   1   3   1  312.97   14.20
   1   3   1  304.07   14.10
   1   3   1  308.37   14.00
  -1  -3  -1  300.47   14.10
  -1  -3  -1  305.77   14.10
  -1  -3  -1  309.97   14.10
  -1  -3  -1  302.17   13.80
  -1  -3  -1  307.27   14.10
  -1  -3  -1  311.37   14.10
  -1  -3  -1  322.07   14.10
   2   2   0   91.79    5.00
   2   2   0   90.99    4.60
   2   2   0   94.19    4.80
   2   2   0   91.29    4.90
   2   2   0   93.29    4.60
   2   2   0   91.79    4.40
  -2  -2   0   93.59    4.40
  -2  -2   0   90.99    5.00
  -2  -2   0   91.09    4.70
  -2  -2   0  100.09    5.10
  -2  -2   0   93.79    4.40
  -2  -2   0   94.29    4.90
  -2  -2   0   95.29    4.50
   3   1  -1   68.29    3.90
   3   1  -1   59.59    3.20
   3   1  -1   55.89    3.70
   3   1  -1   57.69    3.20
   3   1  -1   65.39    3.90
   3   1  -1   60.19    3.20
  -3  -1   1   59.89    3.80
  -3  -1   1   65.49    3.80
  -3  -1   1   60.69    3.80
  -3  -1   1   57.69    3.20
  -3  -1   1   65.49    3.80
   4   0  -2   14.10    1.90
   4   0  -2    6.80    1.80
   4   0  -2   11.00    1.50
   4   0  -2   12.80    1.80
   4   0  -2   11.10    1.60
  -4   0   2   15.20    1.90
  -4   0   2   10.10    1.90
  -4   0   2   10.10    1.70
   5  -1  -3    1.80    1.10
   5  -1  -3    0.60    1.50
   5  -1  -3   -0.50    1.10
   5  -1  -3    0.20    1.00
  -5   1   3    0.30    1.40
  -5   1   3   -1.10    0.80
   6  -2  -4    7.30    2.40
   6  -2  -4    5.20    1.90
   6  -2  -4    3.50    1.80
   6  -2  -4    4.00    2.20
  -6   2   4    6.00    2.40
  -6   2   4    3.40    2.10
  -6   2   4    6.00    1.50
   7  -3  -5    3.90    2.90
   7  -3  -5    4.00    2.70
  -7   3   5   -0.40    4.00
  -7   3   5    1.70    2.60
  -4   7   6   52.79    6.00
  -4   7   6   27.40    4.80
   4  -7  -6   25.70    4.70
   4  -7  -6   35.20    5.00
  -3   6   5   50.29    4.70
  -3   6   5   40.40    4.20
  -3   6   5   49.90    4.10
   3  -6  -5   50.09    4.70
   3  -6  -5   48.20    4.40
   3  -6  -5   51.89    5.10
  -2   5   4   81.39    5.30
  -2   5   4   80.79    5.40
  -2   5   4   90.39    5.80
   2  -5  -4   80.59    5.80
   2  -5  -4   93.49    5.80
   2  -5  -4   87.79    5.50
   2  -5  -4   75.99    5.40
  -1   4   3  855.11   37.90
  -1   4   3  862.41   38.00
  -1   4   3  852.31   37.70
  -1   4   3  835.22   36.70
  -1   4   3  873.21   37.70
  -1   4   3  874.81   37.60
   1  -4  -3  828.42   36.70
   1  -4  -3  828.62   37.70
   1  -4  -3  837.72   37.70
   1  -4  -3  864.71   38.20
   1  -4  -3  849.32   36.70
   0   3   2  495.25   21.50
   0   3   2  483.35   21.00
   0   3   2  490.55   21.60
   0   3   2  479.75   21.40
   0   3   2  497.55   21.20
   0   3   2  463.35   21.30
   0  -3  -2  475.95   21.40
   0  -3  -2  471.45   21.40
   0  -3  -2  469.55   20.90
   0  -3  -2  469.75   21.60
   0  -3  -2  492.35   21.40
   0  -3  -2  473.15   20.90
   0  -3  -2  457.75   21.10
   1   2   1 1016.60   44.90
   1   2   1 1051.29   45.00
   1   2   1 1057.59   44.90
   1   2   1  989.10   44.80
   1   2   1 1050.79   44.70
   1   2   1 1047.80   45.00
  -1  -2  -1 1067.09   45.00
  -1  -2  -1 1089.39   45.00
  -1  -2  -1 1062.19   45.00
  -1  -2  -1 1040.80   44.80
  -1  -2  -1  989.50   44.70
  -1  -2  -1 1050.39   44.80
  -1  -2  -1 1001.30   44.90
   2   1   0  282.07   12.80
   2   1   0  275.97   12.50
   2   1   0  278.17   12.50
   2   1   0  267.77   12.10
   2   1   0  264.97   11.80
  -2  -1   0  275.47   12.50
  -2  -1   0  284.57   12.40
  -2  -1   0  276.47   12.60
  -2  -1   0  264.27   12.10
  -2  -1   0  270.87   12.10
  -2  -1   0  268.47   12.50
   3   0  -1   -0.40    0.60
   3   0  -1    1.00    0.50
   3   0  -1    0.10    0.50
   3   0  -1   -0.10    0.80
   3   0  -1   -0.20    0.50
   3   0  -1    0.00    0.70
  -3   0   1    0.50    0.80
  -3   0   1    0.80    0.80
  -3   0   1   -0.20    0.50
  -3   0   1   -0.60    0.70
  -3   0   1    0.70    0.80
  -3   0   1   -0.20    0.60
   4  -1  -2   67.39    4.80
   4  -1  -2   73.79    4.80
   4  -1  -2   70.89    4.20
   4  -1  -2   75.29    4.00
   4  -1  -2   70.99    4.10
  -4   1   2   67.79    4.40
  -4   1   2   68.29    4.70
  -4   1   2   69.99    4.10
  -4   1   2   68.49    4.20
   5  -2  -3  142.29    7.20
   5  -2  -3  127.89    6.90
   5  -2  -3  130.19    8.10
  -5   2   3  127.39    8.00
  -5   2   3  118.89    7.90
  -5   2   3  116.69    6.70
  -5   2   3  123.39    6.60
   6  -3  -4   10.60    3.10
   6  -3  -4   17.30    3.60
   6  -3  -4   18.90    3.00
   6  -3  -4   13.50    2.90
  -6   3   4   13.30    3.50
  -6   3   4    8.30    2.90
  -6   3   4   16.70    1.70
  -4   6   6   10.20    2.90
  -4   6   6   11.20    3.10
   4  -6  -6   15.40    3.20
   4  -6  -6   18.50    3.50
   4  -6  -6   10.30    3.10
  -3   5   5  373.16   18.30
  -3   5   5  367.56   18.00
   3  -5  -5  340.07   17.90
   3  -5  -5  345.77   17.70
   3  -5  -5  363.26   17.90
   3  -5  -5  369.06   18.30
  -2   4   4  539.55   25.10
  -2   4   4  536.25   24.10
  -2   4   4  544.45   25.40
  -2   4   4  588.04   25.70
   2  -4  -4  539.05   25.80
   2  -4  -4  579.14   25.40
   2  -4  -4  533.45   24.00
   2  -4  -4  553.44   25.40
   2  -4  -4  568.84   25.50
  -1   3   3  187.68    9.40
  -1   3   3  193.08    9.20
  -1   3   3  198.38    9.70
  -1   3   3  192.48    9.50
  -1   3   3  185.18    9.30
  -1   3   3  184.28    8.70
  -1   3   3  188.78    9.30
   1  -3  -3  193.68    8.70
   1  -3  -3  181.98    9.40
   1  -3  -3  196.78    9.40
   1  -3  -3  201.58    9.30
   1  -3  -3  200.08    9.70
   1  -3  -3  193.08    9.40
   0   2   2 5991.00  308.47
   0   2   2 5921.11  259.17
   0  -2  -2 6013.00  259.07
   0  -2  -2 5888.61  309.77
   1   1   1  319.97   14.30
   1   1   1  315.57   14.00
   1   1   1  303.47   13.90
   1   1   1  320.27   14.00
   1   1   1  316.67   14.20
  -1  -1  -1  335.17   14.30
  -1  -1  -1  330.87   14.30
  -1  -1  -1  328.17   13.90
  -1  -1  -1  313.37   13.90
  -1  -1  -1  335.57   14.00
  -1  -1  -1  327.97   14.10
   2   0   0  310.97   14.30
   2   0   0  313.67   14.30
  -2   0   0  325.07   14.20
  -2   0   0  313.27   14.20
  -2   0   0  325.27   14.30
  -2   0   0  309.27   14.20
  -2   0   0  314.27   14.30
  -2   0   0  317.47   14.30
   3  -1  -1  938.21   40.00
   3  -1  -1  930.31   40.90
   3  -1  -1  948.41   41.10
   3  -1  -1  900.51   40.90
   3  -1  -1  922.11   40.10
   3  -1  -1  921.61   40.80
  -3   1   1  918.81   40.90
  -3   1   1  936.61   40.60
  -3   1   1  910.41   41.00
  -3   1   1  932.01   41.00
  -3   1   1  923.31   40.30
  -3   1   1  926.51   41.00
   4  -2  -2   39.20    3.30
   4  -2  -2   39.30    3.50
   4  -2  -2   37.80    2.70
   4  -2  -2   36.50    2.80
  -4   2   2   38.90    2.60
  -4   2   2   37.40    3.40
  -4   2   2   44.40    3.60
  -4   2   2   40.00    2.60
   5  -3  -3   12.80    2.30
   5  -3  -3   15.30    2.90
   5  -3  -3   14.20    3.00
   5  -3  -3   13.90    2.60
  -5   3   3   20.00    3.40
  -5   3   3   15.40    3.10
  -5   3   3   13.40    1.40
  -5   3   3   14.90    1.50
   6  -4  -4   13.00    3.60
   6  -4  -4   18.50    3.30
   6  -4  -4   18.20    3.50
  -6   4   4   13.70    3.50
  -6   4   4   16.10    4.00
  -5   6   7    5.80    2.80
   5  -6  -7    8.20    3.30
   5  -6  -7   -1.00    2.30
   5  -6  -7    1.20    2.60
  -4   5   6    2.30    0.50
  -4   5   6    3.40    3.30
  -4   5   6    3.80    1.90
   4  -5  -6    2.40    3.00
   4  -5  -6    2.10    2.00
   4  -5  -6    3.10    3.00
  -3   4   5  380.36   17.80
  -3   4   5  385.86   18.50
  -3   4   5  366.26   17.00
  -3   4   5  395.46   18.70
   3  -4  -5  382.86   18.60
   3  -4  -5  399.26   18.40
   3  -4  -5  361.96   18.40
   3  -4  -5  367.56   18.10
   3  -4  -5  359.86   16.90
  -2   3   4 1587.54   68.69
  -2   3   4 1521.25   68.29
  -2   3   4 1615.54   69.09
  -2   3   4 1538.75   68.89
   2  -3  -4 1604.14   68.89
   2  -3  -4 1578.34   68.09
   2  -3  -4 1595.74   68.99
   2  -3  -4 1553.04   69.09
   2  -3  -4 1615.64   68.79
  -1   2   3  228.18   11.20
  -1   2   3  240.28   11.10
  -1   2   3  226.28   11.20
  -1   2   3  236.68   10.90
  -1   2   3  240.98   11.30
  -1   2   3  238.98   11.10
   1  -2  -3  237.38   10.90
   1  -2  -3  245.18   11.20
   1  -2  -3  250.67   11.20
   1  -2  -3  236.18   11.30
   1  -2  -3  234.68   11.20
   1  -2  -3  254.77   11.50
   0   1   2  202.08    9.00
   0   1   2  206.18    8.80
   0   1   2  187.58    9.00
   0   1   2  202.58    9.00
   0   1   2  207.28    9.10
   0  -1  -2  208.38    9.10
   0  -1  -2  192.48    9.10
   0  -1  -2  187.88    9.00
   0  -1  -2  196.18    8.80
   0  -1  -2  194.58    9.00
   0  -1  -2  192.58    8.80
   1   0   1    0.80    0.60
   1   0   1    0.90    0.20
   1   0   1    0.70    0.30
   1   0   1    2.10    0.70
   1   0   1    0.90    0.50
   1   0   1    0.70    0.40
  -1   0  -1    0.20    0.50
  -1   0  -1    0.60    0.40
  -1   0  -1    1.00    0.40
  -1   0  -1    0.60    0.40
  -1   0  -1    0.00    0.60
  -1   0  -1   -0.10    0.40
  -1   0  -1    0.80    0.60
   2  -1   0    6.40    0.90
   2  -1   0    5.80    0.60
   2  -1   0    6.20    1.10
   2  -1   0    5.90    0.60
   2  -1   0    6.50    1.20
   2  -1   0    6.10    1.20
  -2   1   0    6.80    0.90
  -2   1   0    4.80    0.80
  -2   1   0    4.90    1.10
  -2   1   0    6.00    1.20
  -2   1   0    4.60    1.00
  -2   1   0    8.30    1.30
  -2   1   0    6.90    1.20
   3  -2  -1   -0.20    0.60
   3  -2  -1    4.70    1.40
   3  -2  -1    0.30    0.70
   3  -2  -1   -1.30    0.80
  -3   2   1    1.10    0.50
  -3   2   1    1.40    0.60
  -3   2   1    3.70    1.30
  -3   2   1   -0.40    1.20
  -3   2   1    0.20    0.80
   4  -3  -2   -0.50    0.90
   4  -3  -2    0.40    1.40
   4  -3  -2    1.80    1.50
   4  -3  -2    0.80    1.10
  -4   3   2   -0.80    1.20
  -4   3   2   -0.20    0.40
  -4   3   2    0.30    0.50
  -4   3   2    0.10    1.20
   5  -4  -3    5.10    2.30
   5  -4  -3    3.40    2.10
   5  -4  -3    7.20    2.60
   5  -4  -3    8.20    2.10
  -5   4   3    6.90    2.40
   6  -5  -4    6.90    2.50
   6  -5  -4    3.10    2.50
  -6   5   4    1.10    2.30
  -6   5   4    2.30    2.40
  -5   5   7   -0.50    2.10
  -5   5   7    4.30    2.60
   5  -5  -7   -2.40    1.80
   5  -5  -7    0.90    2.20
   5  -5  -7   -2.50    1.90
  -4   4   6    1.10    0.80
  -4   4   6    0.20    1.70
  -4   4   6    2.20    1.80
  -4   4   6    1.70    1.70
   4  -4  -6    5.20    2.10
   4  -4  -6   -0.30    2.60
   4  -4  -6    1.10    1.50
   4  -4  -6    0.00    1.60
  -3   3   5    2.90    1.50
  -3   3   5   -0.30    0.60
   3  -3  -5    1.20    1.30
   3  -3  -5   -0.50    0.90
   3  -3  -5    1.20    1.70
   3  -3  -5    0.10    0.90
   3  -3  -5   -1.50    0.90
  -2   2   4  891.21   39.80
  -2   2   4  899.61   40.00
  -2   2   4  875.81   39.90
  -2   2   4  897.51   39.90
  -2   2   4  908.51   39.50
   2  -2  -4  933.31   39.90
   2  -2  -4  911.81   39.90
   2  -2  -4  885.51   40.00
   2  -2  -4  896.21   40.00
   2  -2  -4  924.21   39.50
  -1   1   3 1408.86   58.39
  -1   1   3 1404.86   58.49
  -1   1   3 1350.06   58.39
  -1   1   3 1294.77   58.29
  -1   1   3 1329.37   58.39
  -1   1   3 1368.46   58.39
  -1   1   3 1339.67   58.39
   1  -1  -3 1317.87   58.29
   1  -1  -3 1334.77   58.29
   1  -1  -3 1304.57   58.39
   1  -1  -3 1349.77   58.39
   1  -1  -3 1393.46   58.49
   0   0   2  353.26   15.80
   0   0   2  365.56   16.20
   0   0   2  387.76   16.20
   0   0   2  354.56   16.30
   0   0   2  358.86   15.80
   0   0   2  357.16   16.20
   0   0   2  368.46   16.30
   0   0  -2  357.36   15.80
   0   0  -2  368.36   16.20
   0   0  -2  376.56   16.30
   0   0  -2  352.36   16.10
   0   0  -2  382.06   16.30
   0   0  -2  391.16   16.20
   0   0  -2  363.86   16.30
   1  -1   1    0.40    0.40
   1  -1   1    0.10    0.50
   1  -1   1    0.10    0.50
   1  -1   1   -0.60    0.40
   1  -1   1    0.00    0.20
   1  -1   1    0.10    0.30
  -1   1  -1    0.30    0.40
  -1   1  -1    0.30    0.50
  -1   1  -1    0.10    0.40
  -1   1  -1   -0.40    0.30
  -1   1  -1   -0.50    0.50
  -1   1  -1   -0.50    0.40
   2  -2   0   90.89    4.20
   2  -2   0   86.39    5.00
   2  -2   0   80.39    4.80
   2  -2   0   80.19    4.70
   2  -2   0   85.79    4.40
   2  -2   0   90.89    4.40
  -2   2   0   87.69    3.90
  -2   2   0   85.69    4.10
  -2   2   0   80.69    4.70
  -2   2   0   91.99    5.10
  -2   2   0   86.49    4.90
  -2   2   0   83.19    4.90
   3  -3  -1  212.28   12.00
   3  -3  -1  204.78   11.00
   3  -3  -1  219.08   10.30
  -3   3   1  227.48   11.00
  -3   3   1  218.28   11.90
  -3   3   1  196.48    9.30
   4  -4  -2   13.90    2.40
   4  -4  -2   12.40    2.60
   4  -4  -2    9.90    2.20
  -4   4   2   12.80    2.70
  -4   4   2   14.40    2.80
   5  -5  -3    9.10    2.50
   5  -5  -3   12.80    3.40
   5  -5  -3   13.10    3.50
  -5   5   3    5.50    2.50
  -5   5   3    7.40    2.70
   6  -6  -4    2.90    3.00
   6  -6  -4    5.70    2.80
  -6   6   4   -1.20    2.40
  -6   6   4    1.00    2.50
  -5   4   7    0.00    2.00
  -5   4   7    4.30    2.60
  -5   4   7    0.40    1.10
   5  -4  -7    1.60    2.10
   5  -4  -7   -0.10    1.80
   5  -4  -7    2.40    2.00
  -4   3   6    3.50    1.30
  -4   3   6    2.90    1.50
  -4   3   6    1.00    1.60
   4  -3  -6    1.30    2.20
   4  -3  -6    2.10    1.50
   4  -3  -6    0.70    1.30
   4  -3  -6    1.90    1.60
  -3   2   5    0.80    1.10
  -3   2   5    0.30    0.80
  -3   2   5    0.20    1.10
   3  -2  -5    1.80    1.20
   3  -2  -5    0.10    1.30
   3  -2  -5   -0.20    0.60
   3  -2  -5   -0.30    1.10
   3  -2  -5    1.60    1.10
  -2   1   4  319.87   14.40
  -2   1   4  310.97   14.50
  -2   1   4  298.67   14.20
  -2   1   4  292.47   14.20
  -2   1   4  298.97   14.10
  -2   1   4  302.17   14.30
  -2   1   4  304.37   14.40
   2  -1  -4  311.27   14.50
   2  -1  -4  315.97   14.40
   2  -1  -4  299.57   14.30
   2  -1  -4  298.47   14.20
  -1   0   3  665.63   29.50
  -1   0   3  664.13   29.30
  -1   0   3  655.43   29.30
  -1   0   3  683.23   29.50
  -1   0   3  677.03   29.60
  -1   0   3  689.53   29.50
   1   0  -3  631.64   29.50
   1   0  -3  658.73   29.30
   1   0  -3  676.03   29.50
   1   0  -3  696.23   29.90
   1   0  -3  675.63   29.50
   0  -1   2  337.87   15.50
   0  -1   2  343.67   15.60
   0  -1   2  337.17   15.50
   0  -1   2  362.06   15.10
   0  -1   2  346.17   15.50
   0   1  -2  341.97   15.60
   0   1  -2  367.36   15.10
   0   1  -2  346.37   15.50
   0   1  -2  330.27   15.40
   0   1  -2  348.27   15.50
   0   1  -2  333.47   15.60
   0   1  -2  352.76   15.50
   1  -2   1    1.90    0.80
   1  -2   1    1.90    0.70
   1  -2   1    2.50    0.70
   1  -2   1    2.80    0.90
   1  -2   1    1.80    0.80
  -1   2  -1    1.10    0.60
  -1   2  -1    2.10    0.70
  -1   2  -1    1.20    0.60
  -1   2  -1    2.80    0.90
  -1   2  -1    2.10    0.70
   2  -3   0   25.10    2.10
   2  -3   0   29.30    2.20
   2  -3   0   25.90    2.20
   2  -3   0   27.90    1.70
   2  -3   0   26.20    2.50
  -2   3   0   26.00    1.60
  -2   3   0   28.60    1.80
  -2   3   0   26.60    2.30
  -2   3   0   26.50    2.50
   3  -4  -1   22.10    2.60
   3  -4  -1   23.00    2.70
   3  -4  -1   15.60    2.70
  -3   4   1   13.60    1.30
  -3   4   1   23.10    3.10
  -3   4   1   18.00    2.80
   4  -5  -2    3.70    2.10
   4  -5  -2   -1.10    1.40
   4  -5  -2   -1.70    1.20
  -4   5   2    2.40    1.80
  -4   5   2    1.40    1.60
   5  -6  -3   17.50    3.80
   5  -6  -3   14.60    3.30
  -5   6   3   24.60    4.40
  -5   6   3   19.80    4.00
  -5   3   7    0.50    1.20
  -5   3   7   -0.40    1.90
   5  -3  -7    2.30    1.80
   5  -3  -7   -0.60    1.60
   5  -3  -7   -0.90    1.50
  -4   2   6    1.40    1.20
  -4   2   6   -2.80    1.40
  -4   2   6    3.00    1.80
   4  -2  -6   -0.40    1.00
   4  -2  -6    0.40    1.50
   4  -2  -6    2.40    2.00
   4  -2  -6    0.70    1.40
  -3   1   5   35.10    3.00
  -3   1   5   33.80    2.70
  -3   1   5   36.40    2.90
   3  -1  -5   35.10    2.80
   3  -1  -5   37.40    3.30
   3  -1  -5   30.90    3.10
  -2   0   4  308.07   14.00
  -2   0   4  316.77   14.40
  -2   0   4  306.37   14.50
  -2   0   4  288.57   14.30
  -2   0   4  284.07   14.20
  -2   0   4  315.07   14.40
  -2   0   4  299.37   14.50
   2   0  -4  305.77   14.40
   2   0  -4  317.27   14.70
   2   0  -4  305.27   14.50
   2   0  -4  308.57   14.00
   2   0  -4  313.37   14.50
   2   0  -4  323.67   14.40
  -1  -1   3  221.98   10.40
  -1  -1   3  209.28    9.90
  -1  -1   3  209.68   10.00
  -1  -1   3  229.18   10.50
  -1  -1   3  198.78   10.20
  -1  -1   3  213.48   10.30
   1   1  -3  214.18    9.90
   1   1  -3  216.18   10.40
   1   1  -3  238.68   10.70
   1   1  -3  215.48    9.90
   1   1  -3  216.58   10.30
   1   1  -3  211.18   10.20
   0  -2   2  596.94   25.70
   0  -2   2  589.54   25.70
   0  -2   2  558.74   25.50
   0  -2   2  566.84   25.20
   0  -2   2  597.74   25.70
   0  -2   2  574.04   25.60
   0   2  -2  604.74   25.60
   0   2  -2  565.04   25.80
   0   2  -2  556.54   25.20
   0   2  -2  554.64   25.60
   0   2  -2  583.94   25.60
   0   2  -2  574.04   25.60
   1  -3   1  163.58    8.40
   1  -3   1  183.98    8.40
   1  -3   1  153.68    8.50
   1  -3   1  172.88    8.10
   1  -3   1  156.68    8.20
   1  -3   1  178.08    8.80
  -1   3  -1  169.28    8.30
  -1   3  -1  166.78    8.00
  -1   3  -1  177.78    8.80
  -1   3  -1  173.48    8.20
  -1   3  -1  168.48    8.70
  -1   3  -1  175.98    8.20
   2  -4   0   18.80    1.30
   2  -4   0   20.00    2.50
  -2   4   0   19.90    2.60
  -2   4   0   19.30    1.40
  -2   4   0   17.30    1.70
   3  -5  -1   13.70    2.90
   3  -5  -1   12.00    2.40
  -3   5   1   13.80    2.70
  -3   5   1   12.40    1.60
  -3   5   1   11.40    2.50
   4  -6  -2   20.40    3.90
   4  -6  -2   22.80    3.50
  -4   6   2   19.80    3.70
  -4   6   2   21.70    3.70
   5  -7  -3    4.00    2.80
   5  -7  -3    0.90    2.70
  -5   7   3    1.60    2.50
  -5   7   3   -0.90    2.20
  -6   3   8   -1.90    2.60
   6  -3  -8    4.90    2.70
   6  -3  -8    1.10    2.80
  -5   2   7   14.50    3.20
  -5   2   7   14.00    2.70
   5  -2  -7   21.10    3.50
   5  -2  -7   13.70    3.20
   5  -2  -7   17.10    2.80
  -4   1   6   65.29    5.00
  -4   1   6   61.69    4.40
  -4   1   6   60.09    4.60
   4  -1  -6   68.79    5.20
   4  -1  -6   64.59    5.10
   4  -1  -6   62.09    4.20
   4  -1  -6   55.49    4.60
  -3   0   5   35.00    3.10
  -3   0   5   34.20    2.40
  -3   0   5   34.40    2.90
  -3   0   5   33.90    3.10
   3   0  -5   32.50    2.90
   3   0  -5   31.20    3.00
   3   0  -5   35.90    3.20
   3   0  -5   31.90    2.90
   3   0  -5   32.30    2.40
  -2  -1   4    1.40    0.60
  -2  -1   4    0.10    0.90
  -2  -1   4    2.10    1.20
  -2  -1   4    0.40    0.90
  -2  -1   4    0.60    0.80
   2   1  -4    0.70    0.50
   2   1  -4   -0.20    0.40
   2   1  -4    1.70    1.10
   2   1  -4    0.50    1.10
   2   1  -4    0.30    0.70
   2   1  -4   -0.20    0.80
  -1  -2   3   21.00    2.50
  -1  -2   3   23.80    2.10
  -1  -2   3   21.20    2.00
  -1  -2   3   21.50    1.70
  -1  -2   3   25.30    2.20
  -1  -2   3   19.20    1.70
   1   2  -3   17.90    2.00
   1   2  -3   20.30    2.00
   1   2  -3   20.30    1.60
   1   2  -3   22.30    1.80
   1   2  -3   18.20    1.60
   1   2  -3   19.30    2.10
   1   2  -3   24.80    2.10
   0  -3   2  643.24   27.70
   0  -3   2  633.24   27.80
   0  -3   2  629.14   27.40
   0  -3   2  603.44   27.80
   0  -3   2  601.84   27.70
   0  -3   2  620.64   27.70
   0   3  -2  584.74   27.50
   0   3  -2  608.64   27.40
   0   3  -2  672.13   28.20
   0   3  -2  638.04   27.70
   0   3  -2  578.94   28.80
   1  -4   1   46.60    3.40
   1  -4   1   45.40    3.20
   1  -4   1   50.39    3.00
   1  -4   1   48.40    3.40
   1  -4   1   45.80    3.60
  -1   4  -1   40.80    3.40
  -1   4  -1   46.60    3.20
  -1   4  -1   48.00    3.00
  -1   4  -1   51.79    3.40
   2  -5   0  173.98    8.20
   2  -5   0  182.58    9.50
   2  -5   0  177.08   10.00
   2  -5   0  170.28    9.40
  -2   5   0  180.58    9.60
  -2   5   0  167.58    8.80
  -2   5   0  191.18   10.00
  -2   5   0  180.38    8.20
   3  -6  -1  101.89    7.10
   3  -6  -1  104.99    6.90
   3  -6  -1  115.89    7.70
  -3   6   1  106.39    7.20
  -3   6   1  118.19    7.50
   4  -7  -2    0.00    2.00
   4  -7  -2   -2.80    1.60
  -4   7   2    0.50    2.20
  -4   7   2   -1.80    1.80
  -6   2   8   22.20    3.60
  -6   2   8   26.10    4.80
   6  -2  -8   27.20    3.90
   6  -2  -8   23.90    4.10
   6  -2  -8   22.90    4.30
  -5   1   7   14.50    3.20
  -5   1   7   25.70    3.70
   5  -1  -7   18.70    3.50
   5  -1  -7   18.70    3.60
   5  -1  -7   13.60    5.50
   5  -1  -7   18.50    2.70
  -4   0   6   39.50    3.80
  -4   0   6   49.80    4.20
   4   0  -6   47.50    3.10
   4   0  -6   50.19    4.40
   4   0  -6   48.30    4.20
   4   0  -6   35.60    3.80
   4   0  -6   45.60    4.00
  -3  -1   5   44.90    3.60
  -3  -1   5   39.30    2.40
  -3  -1   5   36.90    3.20
  -3  -1   5   35.50    3.10
   3   1  -5   44.10    3.40
   3   1  -5   41.80    2.50
   3   1  -5   40.60    3.40
   3   1  -5   41.30    3.60
   3   1  -5   34.50    2.60
   3   1  -5   36.90    3.20
  -2  -2   4   22.70    2.90
  -2  -2   4   20.00    2.00
  -2  -2   4   20.10    2.20
   2   2  -4   19.70    2.60
   2   2  -4   17.00    1.40
   2   2  -4   17.70    1.50
   2   2  -4   19.80    2.60
   2   2  -4   20.30    2.40
   2   2  -4   24.00    2.90
  -1  -3   3  280.67   14.00
  -1  -3   3  284.47   13.50
  -1  -3   3  286.57   13.50
  -1  -3   3  314.67   14.00
  -1  -3   3  288.07   14.00
   1   3  -3  264.87   13.80
   1   3  -3  306.57   13.70
   1   3  -3  286.27   13.50
   1   3  -3  299.47   13.50
   1   3  -3  293.47   14.00
   1   3  -3  296.47   14.20
   0  -4   2   47.80    3.60
   0  -4   2   56.39    3.70
   0  -4   2   52.59    3.40
   0  -4   2   53.89    3.90
   0  -4   2   49.40    3.50
   0   4  -2   55.09    3.50
   0   4  -2   45.60    3.80
   0   4  -2   55.99    3.60
   0   4  -2   53.29    3.70
   0   4  -2   53.19    3.60
   1  -5   1   14.10    1.80
   1  -5   1   11.80    2.30
   1  -5   1   12.70    2.40
  -1   5  -1    9.60    2.20
  -1   5  -1    9.00    1.90
  -1   5  -1   10.00    1.80
   2  -6   0  192.58   11.10
   2  -6   0  203.78   10.00
   2  -6   0  192.68   10.70
   2  -6   0  194.58   10.70
  -2   6   0  192.28    9.10
  -2   6   0  189.28   10.70
  -2   6   0  216.58   11.40
  -2   6   0  191.38    9.90
   3  -7  -1   -1.80    1.50
   3  -7  -1    2.30    3.30
   3  -7  -1    0.20    1.90
  -3   7   1    0.70    1.70
  -3   7   1    0.20    1.80
   4  -8  -2   14.80    3.90
   4  -8  -2   15.10    4.00
  -4   8   2   12.10    3.60
  -4   8   2   20.60    4.30
  -6   1   8   -1.20    1.90
  -6   1   8    1.50    2.20
   6  -1  -8    0.10    2.40
   6  -1  -8    1.90    2.40
  -5   0   7   13.80    3.00
   5   0  -7   13.50    4.80
   5   0  -7    9.90    1.80
   5   0  -7   12.80    3.10
  -4  -1   6   40.00    4.00
  -4  -1   6   47.60    4.10
  -4  -1   6   40.60    3.70
  -4  -1   6   47.30    2.70
   4   1  -6   44.10    2.90
   4   1  -6   52.09    4.40
   4   1  -6   39.80    3.90
   4   1  -6   43.00    2.70
   4   1  -6   43.40    3.90
   4   1  -6   52.29    4.50
  -3  -2   5   43.20    3.80
  -3  -2   5   44.40    3.50
   3   2  -5   44.80    3.80
   3   2  -5   43.50    2.50
   3   2  -5   39.90    3.70
   3   2  -5   42.50    2.50
   3   2  -5   48.00    3.90
   3   2  -5   39.40    3.60
  -2  -3   4   87.69    5.60
  -2  -3   4   86.09    5.40
   2   3  -4   76.49    4.40
   2   3  -4   85.99    5.50
   2   3  -4   91.99    5.40
   2   3  -4   84.79    5.10
   2   3  -4   82.59    5.40
   2   3  -4   87.79    4.50
  -1  -4   3  138.99    7.40
  -1  -4   3  146.09    7.90
  -1  -4   3  150.68    7.50
  -1  -4   3  141.09    7.80
  -1  -4   3  136.49    7.90
   1   4  -3  129.39    8.20
   1   4  -3  140.19    7.40
   1   4  -3  144.09    7.50
   1   4  -3  150.88    7.80
   0  -5   2   49.00    3.80
   0  -5   2   59.19    4.20
   0  -5   2   68.79    4.40
   0  -5   2   49.00    4.10
   0   5  -2   60.09    4.50
   0   5  -2   53.49    3.90
   0   5  -2   50.59    3.80
   1  -6   1    1.80    1.10
   1  -6   1    1.50    1.50
   1  -6   1    0.50    1.30
   1  -6   1   -0.10    1.60
  -1   6  -1    0.80    1.00
  -1   6  -1    0.80    1.20
  -1   6  -1    0.30    1.40
  -1   6  -1    1.10    1.40
   2  -7   0   51.99    4.60
   2  -7   0   43.70    4.50
  -2   7   0   44.30    4.30
  -2   7   0   39.20    4.40
  -2   7   0   49.70    3.70
  -2   7   0   38.20    2.60
   3  -8  -1   11.10    3.30
   3  -8  -1   10.10    3.20
  -3   8   1   13.40    3.30
  -3   8   1    9.70    3.20
  -6   0   8    2.20    2.40
  -6   0   8    4.20    2.50
   6   0  -8   -2.30    2.00
   6   0  -8    1.00    2.50
  -5  -1   7    0.00    2.10
   5   1  -7   -0.40    0.80
   5   1  -7    0.10    0.70
   5   1  -7   -0.70    1.60
  -4  -2   6   21.60    3.20
  -4  -2   6   16.20    3.30
  -4  -2   6   16.30    2.90
   4   2  -6   14.50    3.30
   4   2  -6   21.30    3.00
   4   2  -6   14.50    2.80
   4   2  -6   17.20    3.20
   4   2  -6   14.40    1.00
  -3  -3   5   15.90    2.90
  -3  -3   5   16.60    2.80
   3   3  -5    7.60    1.90
   3   3  -5   14.10    2.90
   3   3  -5   17.00    2.90
   3   3  -5   11.00    1.10
   3   3  -5   13.30    1.20
  -2  -4   4  142.99    7.90
  -2  -4   4  125.09    6.60
  -2  -4   4  122.89    7.50
   2   4  -4  129.39    7.80
   2   4  -4  130.99    6.70
   2   4  -4  126.49    6.60
   2   4  -4  135.09    7.30
   2   4  -4  127.89    7.50
  -1  -5   3   38.20    3.10
  -1  -5   3   37.10    3.40
  -1  -5   3   46.10    3.90
   1   5  -3   42.90    3.50
   1   5  -3   40.00    3.80
   1   5  -3   38.30    3.30
   0  -6   2   59.59    4.50
   0  -6   2   59.29    4.60
   0  -6   2   53.59    4.60
   0   6  -2   55.49    4.30
   0   6  -2   57.29    4.90
   0   6  -2   52.89    4.20
   1  -7   1   14.30    3.40
   1  -7   1   17.20    3.20
   1  -7   1   11.30    2.00
  -1   7  -1   13.10    3.00
  -1   7  -1   10.20    2.40
  -1   7  -1   11.70    2.70
   2  -8   0   18.70    3.70
   2  -8   0    6.90    2.80
  -2   8   0   16.40    3.60
  -2   8   0    8.00    3.10
   3  -9  -1   10.00    6.30
   3  -9  -1    8.40    3.40
  -3   9   1   10.00    5.60
  -3   9   1    6.20    3.20
  -6  -1   8   10.50    3.60
  -6  -1   8    9.80    2.90
   6   1  -8    5.20    3.00
   6   1  -8    1.90    2.20
   6   1  -8   11.30    3.40
  -5  -2   7   18.60    5.30
  -5  -2   7   19.50    3.90
   5   2  -7   18.80    3.60
  -4  -3   6   62.19    4.70
  -4  -3   6   61.49    5.40
   4   3  -6   49.30    4.50
   4   3  -6   61.19    4.90
   4   3  -6   51.49    7.50
   4   3  -6   66.99    5.40
  -3  -4   5  486.35   23.20
  -3  -4   5  481.85   22.80
   3   4  -5  438.46   22.40
   3   4  -5  510.35   23.50
   3   4  -5  472.55   22.90
   3   4  -5  474.25   21.10
  -2  -5   4  537.35   23.60
  -2  -5   4  539.65   24.70
  -2  -5   4  542.95   24.80
   2   5  -4  494.75   24.40
   2   5  -4  494.05   24.10
   2   5  -4  506.85   23.50
   2   5  -4  499.95   24.80
   2   5  -4  528.85   23.60
  -1  -6   3   99.19    6.30
  -1  -6   3   92.79    6.20
  -1  -6   3   94.79    6.60
   1   6  -3   94.79    6.00
   1   6  -3   82.49    6.50
   1   6  -3   94.99    6.20
   0  -7   2  119.39    7.60
   0  -7   2  128.69    7.20
   0  -7   2  110.49    7.60
   0   7  -2  115.09    7.40
   0   7  -2  114.19    7.20
   0   7  -2  122.29    8.30
   1  -8   1   40.20    3.50
   1  -8   1   43.60    4.60
   1  -8   1   51.79    4.90
  -1   8  -1   44.90    5.90
  -1   8  -1   52.29    4.40
  -1   8  -1   42.00    4.50
   2  -9   0    1.80    2.30
   2  -9   0    3.80    2.80
  -2   9   0    3.10    2.60
  -2   9   0    0.70    2.60
  -6  -2   8   -3.60    2.10
  -6  -2   8    0.40    2.50
   6   2  -8    4.10    2.50
   6   2  -8   -1.90    3.90
   6   2  -8    1.60    2.10
  -5  -3   7    2.80    1.90
  -5  -3   7   -1.50    2.00
   5   3  -7    3.00    2.20
   5   3  -7    1.30    2.00
   5   3  -7    1.90    1.90
  -4  -4   6   44.00    4.20
  -4  -4   6   39.00    4.50
   4   4  -6   45.40    4.40
   4   4  -6   51.69    4.80
   4   4  -6   45.50    4.20
  -3  -5   5    8.90    2.50
  -3  -5   5    7.10    2.60
   3   5  -5    9.40    1.50
   3   5  -5    6.10    1.40
   3   5  -5    8.50    2.20
   3   5  -5    6.70    2.40
   3   5  -5    8.20    2.40
  -2  -6   4   -1.80    1.70
  -2  -6   4    0.50    1.70
  -2  -6   4    3.80    1.40
   2   6  -4    1.40    1.60
   2   6  -4    0.80    1.80
   2   6  -4    1.90    1.30
   2   6  -4    1.20    1.50
  -1  -7   3   12.90    2.90
  -1  -7   3   14.70    2.70
  -1  -7   3   14.20    3.20
   1   7  -3   17.30    3.10
   1   7  -3   18.70    3.70
   1   7  -3   14.00    2.80
   0  -8   2   11.80    2.70
   0  -8   2   20.70    3.80
   0  -8   2    8.10    2.70
   0   8  -2   15.80    3.20
   0   8  -2   22.80    3.60
   0   8  -2   12.60    3.50
   1  -9   1   19.20    4.00
   1  -9   1   15.30    3.90
  -1   9  -1   19.70    4.50
  -1   9  -1   17.60    3.50
  -6  -3   8   21.30    4.30
   6   3  -8    7.60    3.50
   6   3  -8   17.10    3.80
   6   3  -8    8.50    3.50
  -5  -4   7   17.00    3.40
  -5  -4   7   35.20    5.30
   5   4  -7   17.80    3.50
   5   4  -7   24.80    4.30
   5   4  -7   19.30    3.80
  -4  -5   6    8.30    2.60
  -4  -5   6    8.70    3.00
   4   5  -6    5.10    2.30
   4   5  -6    9.30    2.70
   4   5  -6    8.60    2.40
  -3  -6   5   53.59    6.20
  -3  -6   5   38.60    5.00
   3   6  -5   40.90    3.40
   3   6  -5   41.10    4.50
   3   6  -5   38.00    3.90
   3   6  -5   48.00    4.50
   3   6  -5   43.30    3.10
  -2  -7   4   11.00    2.30
  -2  -7   4   14.00    3.10
  -2  -7   4   17.30    3.50
   2   7  -4   15.00    3.20
   2   7  -4   15.40    2.70
   2   7  -4   13.50    2.80
   2   7  -4   12.80    3.20
  -1  -8   3   -1.00    1.60
  -1  -8   3    5.00    2.40
  -1  -8   3    1.90    2.10
   1   8  -3    5.30    2.80
   1   8  -3    3.60    2.00
   1   8  -3    7.20    2.50
   0  -9   2   -1.20    1.80
   0  -9   2    1.10    2.30
   0  -9   2   -3.40    1.80
   0   9  -2    3.30    2.90
   0   9  -2    3.50    2.20
   1 -10   1   16.60    4.50
   1 -10   1   15.60    4.30
  -1  10  -1   23.70    4.50
  -1  10  -1   24.20    5.00
  -5  -5   7    4.70    3.10
   5   5  -7    1.90    2.40
   5   5  -7    4.50    2.40
   5   5  -7    1.40    2.50
  -4  -6   6   -0.20    2.20
   4   6  -6    2.00    2.30
   4   6  -6   -0.20    2.10
   4   6  -6    6.00    2.50
  -3  -7   5    2.40    2.40
  -3  -7   5   -0.70    1.10
  -3  -7   5   -0.10    2.00
   3   7  -5    0.90    1.90
   3   7  -5    0.80    1.90
   3   7  -5    3.90    1.70
   3   7  -5    0.80    2.40
  -2  -8   4    1.70    2.10
  -2  -8   4   -2.20    1.40
  -2  -8   4    1.70    2.10
   2   8  -4   -0.60    2.00
   2   8  -4    0.40    1.80
   2   8  -4   -0.50    2.10
  -1  -9   3    6.80    2.50
  -1  -9   3    7.60    3.00
  -1  -9   3    1.50    2.80
   1   9  -3    6.30    2.60
   1   9  -3    6.80    3.30
   0 -10   2    1.00    3.40
   0 -10   2   -2.30    2.40
   0 -10   2    0.70    2.70
   0  10  -2    0.20    2.80
   0  10  -2    4.00    3.60
  -5  -6   7    2.40    3.00
   5   6  -7    0.80    2.20
   5   6  -7    5.90    3.10
   5   6  -7   -1.70    2.50
  -4  -7   6    6.80    3.40
   4   7  -6    8.60    3.30
   4   7  -6   10.30    3.00
   4   7  -6    8.30    3.10
  -3  -8   5   22.70    3.20
  -3  -8   5   24.30    4.90
   3   8  -5   22.50    3.90
   3   8  -5   25.00    4.60
   3   8  -5   23.90    3.40
   3   8  -5   20.10    4.30
  -2  -9   4   40.30    4.30
  -2  -9   4   38.80    6.00
  -2  -9   4   43.50    6.00
   2   9  -4   43.40    6.10
   2   9  -4   42.80    5.40
  -1 -10   3   30.70    5.50
  -4 -11   1   25.30    5.00
   5  10  -2   12.20    3.60
   5  10  -2   15.60    4.20
  -5 -10   2   12.30    4.40
   6   9  -3    0.20    3.30
  -6  -9   3    0.70    2.90
   3  11   0    7.30    3.50
   3  11   0    2.80    2.80
   3  11   0    9.30    3.50
  -3 -11   0    6.90    2.90
  -3 -11   0    7.90    3.80
   4  10  -1   16.20    3.90
   4  10  -1    8.60    3.10
   4  10  -1   13.30    4.00
  -4 -10   1   11.00    2.40
  -4 -10   1   13.50    3.40
   5   9  -2    1.00    2.50
   5   9  -2    1.00    2.10
   5   9  -2    0.30    2.30
  -5  -9   2    4.10    2.70
   6   8  -3    8.10    2.80
   6   8  -3   10.50    3.20
   6   8  -3    4.80    2.90
  -6  -8   3    7.20    3.40
   7   7  -4   23.70    4.70
   7   7  -4   21.50    4.30
   7   7  -4   19.60    4.30
  -7  -7   4   29.10    5.60
   2  11   1   -0.90    2.60
   2  11   1   12.20    3.50
   2  11   1    6.90    3.00
  -2 -11  -1    1.20    2.40
  -2 -11  -1   -5.00    2.20
  -2 -11  -1    7.80    2.40
   3  10   0   22.50    4.10
   3  10   0   24.00    4.10
   3  10   0   13.00    3.60
  -3 -10   0   21.90    4.20
  -3 -10   0   20.00    3.50
   4   9  -1   45.10    5.80
   4   9  -1   55.09    5.10
   4   9  -1   57.19    5.10
  -4  -9   1   51.59    3.80
  -4  -9   1   41.90    4.80
   5   8  -2    0.50    1.80
   5   8  -2    0.20    1.90
  -5  -8   2   -1.30    1.80
   6   7  -3    1.70    2.30
   6   7  -3    0.90    2.10
   6   7  -3   -1.20    1.80
  -6  -7   3    3.70    2.60
   7   6  -4    0.20    2.20
   7   6  -4    4.40    2.70
   7   6  -4    4.20    2.90
  -7  -6   4    2.20    3.00
   1  11   2   17.00    4.00
   1  11   2   18.30    4.10
  -1 -11  -2   26.40    5.30
  -1 -11  -2   14.20    2.90
  -1 -11  -2   19.30    4.20
   2  10   1   19.30    3.80
   2  10   1   18.00    3.80
   2  10   1   20.40    3.90
  -2 -10  -1   19.00    3.50
  -2 -10  -1   27.00    4.50
  -2 -10  -1   18.70    3.20
   3   9   0   53.59    4.80
   3   9   0   45.30    4.80
   3   9   0   58.99    5.20
  -3  -9   0   59.19    4.60
  -3  -9   0   63.69    5.10
  -3  -9   0   46.40    4.80
   4   8  -1   99.69    7.10
   4   8  -1  107.99    6.10
   4   8  -1  112.69    7.40
  -4  -8   1  103.19    6.80
  -4  -8   1  102.99    5.90
  -4  -8   1  104.59    7.40
   5   7  -2    1.70    2.10
   5   7  -2    1.20    1.90
   5   7  -2    3.70    1.90
   5   7  -2   -0.10    2.90
  -5  -7   2    0.70    2.00
  -5  -7   2    1.20    1.90
   6   6  -3    2.50    2.00
   6   6  -3    0.70    1.90
   6   6  -3    3.80    2.20
  -6  -6   3    5.50    2.50
   7   5  -4    1.30    2.30
   7   5  -4    3.10    2.30
   7   5  -4   -0.10    2.00
  -7  -5   4    1.30    2.70
   0  11   3    5.40    3.40
   0  11   3    1.40    3.10
   0 -11  -3    4.50    2.90
   0 -11  -3    5.00    3.10
   1  10   2   51.19    7.20
   1  10   2   48.40    5.10
   1  10   2   54.89    5.50
  -1 -10  -2   48.00    6.00
  -1 -10  -2   51.49    4.10
  -1 -10  -2   46.40    5.00
   2   9   1  199.88   11.80
   2   9   1  226.78   13.20
   2   9   1  200.68   11.90
  -2  -9  -1  206.98   11.70
  -2  -9  -1  225.58   12.20
   3   8   0  287.27   14.80
   3   8   0  274.27   15.00
   3   8   0  273.77   14.80
  -3  -8   0  270.97   14.10
  -3  -8   0  323.97   15.20
   4   7  -1    1.40    1.80
   4   7  -1    1.10    1.00
   4   7  -1   -1.80    1.30
   4   7  -1    0.50    1.80
  -4  -7   1    2.40    1.90
  -4  -7   1   -0.40    0.70
  -4  -7   1    1.00    1.50
   5   6  -2   19.10    3.50
   5   6  -2   21.30    3.40
   5   6  -2   19.00    3.30
   5   6  -2   23.10    3.80
  -5  -6   2   24.20    4.00
  -5  -6   2   18.90    2.90
   6   5  -3    9.50    2.90
   6   5  -3    8.50    2.50
   6   5  -3    5.90    2.30
   6   5  -3    9.00    3.30
  -6  -5   3    8.00    2.80
   7   4  -4    0.60    1.70
   7   4  -4    4.60    2.50
   7   4  -4    8.00    2.90
  -7  -4   4    3.50    2.50
  -7  -4   4    3.90    2.70
   8   3  -5    0.40    2.00
  -8  -3   5    1.30    3.00
  -1  11   4    9.60    3.70
  -1  11   4    6.60    3.80
   1 -11  -4    0.80    3.30
   1 -11  -4    7.40    3.50
   0  10   3    3.40    2.60
   0  10   3   -4.70    2.10
   0  10   3   -2.70    1.70
   0 -10  -3    1.90    1.30
   0 -10  -3    2.10    2.40
   0 -10  -3    1.20    2.40
   1   9   2   -0.40    1.90
   1   9   2   -3.00    1.50
   1   9   2   -1.00    1.70
  -1  -9  -2   -0.40    1.80
  -1  -9  -2   -0.40    1.30
  -1  -9  -2   -1.00    1.50
   2   8   1  170.48   10.10
   2   8   1  191.18   10.20
   2   8   1  166.38    9.90
  -2  -8  -1  175.18    9.80
  -2  -8  -1  177.88    9.70
  -2  -8  -1  171.88   10.00
   3   7   0  104.49    7.00
   3   7   0   99.79    6.70
   3   7   0  111.19    7.20
   3   7   0  119.69    7.20
   3   7   0  107.99    6.90
  -3  -7   0  114.99    6.90
  -3  -7   0  119.09    7.10
  -3  -7   0  110.89    6.30
   4   6  -1   22.70    1.70
   4   6  -1   14.00    2.60
   4   6  -1   18.80    3.10
   4   6  -1   29.70    3.80
   4   6  -1   18.10    3.10
  -4  -6   1   23.10    3.10
  -4  -6   1   17.50    1.70
  -4  -6   1   22.30    3.50
   5   5  -2  138.29    8.10
   5   5  -2  148.69    8.80
   5   5  -2  145.89    8.80
  -5  -5   2  139.89    8.80
  -5  -5   2  144.69    7.50
   6   4  -3   22.90    3.70
   6   4  -3   22.20    3.60
  -6  -4   3   28.50    4.30
   7   3  -4   -0.40    1.90
   7   3  -4   -1.30    1.50
   7   3  -4   -0.40    1.30
  -7  -3   4    3.30    2.30
  -7  -3   4   -0.30    2.20
   8   2  -5   -2.60    2.10
   8   2  -5    3.00    2.20
   8   2  -5    2.00    2.40
  -8  -2   5    4.00    2.70
  -8  -2   5    2.50    2.80
  -1  10   4   12.90    3.70
  -1  10   4   22.90    4.20
   1 -10  -4   12.00    4.10
   1 -10  -4   11.50    3.60
   0   9   3    4.90    2.20
   0   9   3    9.10    2.90
   0   9   3   11.10    2.70
   0  -9  -3    8.00    1.50
   0  -9  -3   11.00    2.90
   1   8   2  214.78   11.10
   1   8   2  212.18   11.10
   1   8   2  203.78   11.30
  -1  -8  -2  191.88   10.10
  -1  -8  -2  187.18   11.00
  -1  -8  -2  182.68   10.90
   2   7   1  160.48    9.20
   2   7   1  164.58    9.30
   2   7   1  156.98    9.70
   2   7   1  179.58    9.30
  -2  -7  -1  158.18    8.90
  -2  -7  -1  170.08    9.10
  -2  -7  -1  164.88    9.30
   3   6   0   30.60    3.10
   3   6   0   28.30    2.80
   3   6   0   29.00    3.00
   3   6   0   30.60    3.10
   3   6   0   33.40    3.50
  -3  -6   0   26.70    2.30
  -3  -6   0   33.30    2.90
  -3  -6   0   28.60    3.00
   4   5  -1    6.60    1.80
   4   5  -1    4.70    1.60
   4   5  -1    4.30    1.50
   4   5  -1    5.30    0.70
   4   5  -1    5.90    1.90
  -4  -5   1    6.20    0.70
  -4  -5   1    9.00    1.70
  -4  -5   1    7.40    2.10
   5   4  -2  185.18    9.50
   5   4  -2  166.98    9.90
   5   4  -2  193.38   10.30
  -5  -4   2  176.38    8.50
  -5  -4   2  172.58   10.10
   6   3  -3   93.79    6.70
   6   3  -3   94.89    6.10
   6   3  -3   98.99    6.80
   6   3  -3   93.19    5.90
  -6  -3   3   95.09    6.80
   7   2  -4   -1.90    1.60
   7   2  -4    3.10    2.20
   7   2  -4    2.10    1.70
   7   2  -4    4.70    2.70
  -7  -2   4   -0.60    1.70
   8   1  -5    9.10    3.30
   8   1  -5    7.90    3.00
   8   1  -5    7.90    2.70
  -8  -1   5    4.30    2.80
  -8  -1   5    9.00    2.90
  -2  10   5   23.30    4.60
   2 -10  -5   20.00    7.80
   2 -10  -5   16.60    4.50
  -1   9   4   37.30    5.10
  -1   9   4   33.40    4.70
  -1   9   4   42.40    5.10
   1  -9  -4   29.10    4.90
   1  -9  -4   34.00    4.90
   0   8   3    5.10    2.20
   0   8   3    7.10    2.00
   0   8   3    5.60    2.10
   0  -8  -3    4.80    1.30
   0  -8  -3   10.00    3.00
   0  -8  -3    8.30    2.50
   0  -8  -3   10.00    1.70
   1   7   2    0.50    1.20
   1   7   2    2.30    1.30
   1   7   2    4.00    1.50
  -1  -7  -2    0.40    1.30
  -1  -7  -2   -0.20    1.10
  -1  -7  -2    1.10    1.10
  -1  -7  -2    0.00    1.10
   2   6   1  108.99    6.60
   2   6   1  107.89    6.90
   2   6   1  128.19    7.00
   2   6   1  118.89    6.60
   2   6   1  124.39    6.90
  -2  -6  -1  119.89    6.80
  -2  -6  -1  113.39    6.70
  -2  -6  -1  123.59    6.70
   3   5   0  103.09    5.80
   3   5   0   98.79    5.70
   3   5   0  102.39    5.20
   3   5   0  100.79    6.10
   3   5   0   94.79    5.80
  -3  -5   0   87.29    5.10
  -3  -5   0  104.29    6.10
  -3  -5   0  100.99    5.60
   4   4  -1   72.69    5.00
   4   4  -1   82.69    5.30
   4   4  -1   82.49    4.80
  -4  -4   1   72.49    4.20
  -4  -4   1   78.29    5.30
   5   3  -2   85.69    5.80
   5   3  -2   79.19    5.10
   5   3  -2   85.69    5.80
   5   3  -2   79.39    5.00
  -5  -3   2   88.89    5.90
   6   2  -3   22.60    2.90
   6   2  -3   26.20    3.20
   6   2  -3   27.00    3.80
   6   2  -3   26.30    3.90
  -6  -2   3   23.00    1.50
  -6  -2   3   24.60    3.70
  -6  -2   3   23.60    1.50
  -6  -2   3   32.30    3.40
   7   1  -4   49.10    5.70
   7   1  -4   39.80    5.20
   7   1  -4   33.70    2.60
   7   1  -4   32.00    3.30
   7   1  -4   27.70    4.40
  -7  -1   4   31.50    4.90
  -7  -1   4   36.20    4.00
  -7  -1   4   31.30    2.40
  -2   9   5    5.60    2.50
  -2   9   5    6.90    3.20
   2  -9  -5   10.80    3.50
   2  -9  -5   11.30    3.40
  -1   8   4    0.80    1.60
  -1   8   4    0.00    1.40
  -1   8   4    1.60    1.60
   1  -8  -4   -1.90    1.60
   1  -8  -4    1.20    1.80
   0   7   3    3.60    1.60
   0   7   3    2.30    1.70
   0   7   3    5.90    2.00
   0  -7  -3    4.20    1.10
   0  -7  -3    2.30    1.60
   0  -7  -3    4.90    1.90
   0  -7  -3    3.10    1.10
   1   6   2   70.39    4.80
   1   6   2   72.89    4.70
   1   6   2   81.99    5.00
  -1  -6  -2   74.89    5.60
  -1  -6  -2   76.79    4.50
  -1  -6  -2   71.19    4.90
  -1  -6  -2   75.09    5.00
  -1  -6  -2   75.49    5.10
  -1  -6  -2   74.09    4.50
   2   5   1  151.88    8.00
   2   5   1  143.19    7.80
   2   5   1  148.39    7.60
   2   5   1  138.49    7.70
   2   5   1  147.19    7.80
  -2  -5  -1  156.68    7.90
  -2  -5  -1  141.59    7.50
  -2  -5  -1  148.49    7.70
  -2  -5  -1  138.29    7.50
  -2  -5  -1  155.88    7.90
   3   4   0  488.75   22.50
   3   4   0  472.25   22.10
   3   4   0  484.75   22.20
   3   4   0  481.95   21.50
   3   4   0  496.85   22.30
  -3  -4   0  492.95   22.60
  -3  -4   0  466.75   22.20
  -3  -4   0  520.45   21.60
   4   3  -1  311.07   15.40
   4   3  -1  330.57   15.10
   4   3  -1  321.27   16.30
   4   3  -1  339.97   15.70
  -4  -3   1  323.77   14.10
  -4  -3   1  345.97   16.00
  -4  -3   1  306.47   14.40
   5   2  -2  298.77   14.30
   5   2  -2  303.97   14.30
   5   2  -2  305.77   15.30
   5   2  -2  329.77   15.50
  -5  -2   2  295.57   13.60
  -5  -2   2  301.77   15.20
  -5  -2   2  302.17   13.60
   6   1  -3  127.99    6.30
   6   1  -3  122.89    8.00
   6   1  -3  113.99    6.70
   6   1  -3  120.79    7.80
  -6  -1   3  125.39    6.30
  -6  -1   3   95.29    7.20
  -6  -1   3  117.59    7.50
  -6  -1   3  132.79    8.10
   7   0  -4    4.50    1.70
   7   0  -4    2.40    2.10
   7   0  -4    5.20    2.70
   7   0  -4    0.20    1.30
  -7   0   4    1.70    1.80
  -7   0   4   -2.10    1.70
  -3   9   6   13.70    3.60
  -3   9   6    5.00    5.50
   3  -9  -6   10.10    4.00
   3  -9  -6    8.40    3.90
  -2   8   5    1.40    2.10
  -2   8   5    7.40    2.40
  -2   8   5    2.50    2.20
   2  -8  -5    3.90    2.40
   2  -8  -5    1.20    1.80
  -1   7   4   10.50    2.20
  -1   7   4    8.40    2.30
  -1   7   4    3.00    1.80
   1  -7  -4    8.50    2.30
   1  -7  -4    7.20    0.70
   1  -7  -4   10.90    3.10
   1  -7  -4    8.20    2.40
   0   6   3    4.10    1.60
   0   6   3    2.70    1.20
   0   6   3    6.10    1.80
   0  -6  -3    5.00    1.70
   0  -6  -3    6.80    1.20
   0  -6  -3    3.80    1.00
   0  -6  -3    8.50    2.00
   0  -6  -3    3.90    1.50
   1   5   2   54.19    3.70
   1   5   2   61.99    3.90
   1   5   2   60.29    3.90
   1   5   2   56.19    3.80
  -1  -5  -2   54.89    3.90
  -1  -5  -2   57.39    3.40
  -1  -5  -2   44.40    3.30
  -1  -5  -2   50.09    3.70
  -1  -5  -2   59.09    3.50
   2   4   1   42.20    3.30
   2   4   1   50.29    3.00
   2   4   1   46.80    3.20
   2   4   1   42.10    3.00
   2   4   1   43.20    3.20
  -2  -4  -1   43.80    3.00
  -2  -4  -1   44.30    3.20
  -2  -4  -1   43.80    2.90
  -2  -4  -1   47.50    3.30
  -2  -4  -1   46.20    3.20
  -2  -4  -1   48.50    3.00
  -2  -4  -1   48.20    3.00
   3   3   0  776.62   33.50
   3   3   0  754.22   32.80
   3   3   0  733.33   33.10
   3   3   0  781.62   33.80
   3   3   0  737.83   33.10
   3   3   0  743.93   33.80
  -3  -3   0  788.32   33.90
  -3  -3   0  745.33   32.80
  -3  -3   0  743.73   33.70
  -3  -3   0  768.72   33.90
  -3  -3   0  760.92   32.80
  -3  -3   0  737.73   34.10
  -3  -3   0  757.72   32.80
  -3  -3   0  754.02   32.80
   4   2  -1   13.10    1.40
   4   2  -1   14.30    1.60
   4   2  -1    9.70    1.80
   4   2  -1   13.20    2.30
  -4  -2   1   12.50    1.10
  -4  -2   1   12.70    1.10
  -4  -2   1   12.80    2.20
   5   1  -2   -0.60    0.70
   5   1  -2    2.10    1.10
   5   1  -2   -0.20    0.70
   5   1  -2    0.50    1.20
   5   1  -2   -0.10    1.10
  -5  -1   2    0.30    1.30
  -5  -1   2    0.90    0.80
  -5  -1   2    0.10    1.10
   6   0  -3    7.50    2.40
   6   0  -3   10.00    1.90
   6   0  -3   13.00    2.30
   6   0  -3    8.50    2.40
   6   0  -3    6.60    1.80
  -6   0   3    9.90    2.60
  -6   0   3   10.40    2.20
   7  -1  -4    0.90    2.60
   7  -1  -4    1.10    1.70
   7  -1  -4    3.50    2.00
   7  -1  -4    0.30    2.00
  -7   1   4    7.30    2.60
  -7   1   4   -2.90    1.70
  -7   1   4    1.30    1.50
  -3   8   6   12.20    3.20
  -3   8   6    6.80    2.90
   3  -8  -6    9.10    3.20
   3  -8  -6   11.70    3.70
  -2   7   5    6.10    2.10
  -2   7   5    4.00    2.20
  -2   7   5    3.50    2.20
   2  -7  -5    4.60    3.10
   2  -7  -5    6.20    2.60
   2  -7  -5    8.50    2.70
  -1   6   4    4.60    1.80
  -1   6   4    3.80    1.50
  -1   6   4    1.50    1.50
   1  -6  -4    5.60    0.90
   1  -6  -4    2.30    1.50
   1  -6  -4    3.00    0.70
   1  -6  -4    2.30    1.60
   0   5   3    8.50    1.90
   0   5   3    9.90    2.00
   0   5   3   11.00    1.50
   0   5   3   11.80    1.70
   0   5   3   14.20    2.10
   0  -5  -3   14.10    1.80
   0  -5  -3   10.30    2.00
   0  -5  -3   12.90    2.10
   0  -5  -3   12.00    1.30
   0  -5  -3   10.90    1.40
   0  -5  -3    9.40    2.00
   1   4   2    7.10    1.40
   1   4   2    8.50    1.60
   1   4   2    9.40    1.50
   1   4   2    6.50    1.40
   1   4   2    7.80    1.10
   1   4   2    9.30    1.80
  -1  -4  -2    8.80    1.50
  -1  -4  -2   10.30    1.20
  -1  -4  -2    8.20    1.30
  -1  -4  -2    5.70    1.30
  -1  -4  -2    8.60    1.50
  -1  -4  -2   10.70    1.70
   2   3   1   29.80    2.20
   2   3   1   27.60    2.00
   2   3   1   29.50    2.30
   2   3   1   25.10    1.90
   2   3   1   27.00    1.90
   2   3   1   25.50    2.20
  -2  -3  -1   26.50    2.00
  -2  -3  -1   24.70    2.20
  -2  -3  -1   27.30    1.80
  -2  -3  -1   30.10    2.20
  -2  -3  -1   27.80    1.90
  -2  -3  -1   27.30    2.30
  -2  -3  -1   26.90    1.90
   3   2   0  189.48    8.70
   3   2   0  184.48    9.20
   3   2   0  191.88    8.70
   3   2   0  182.68    9.40
   3   2   0  196.38    9.40
  -3  -2   0  196.78    8.70
  -3  -2   0  184.68    8.70
  -3  -2   0  187.78    9.20
  -3  -2   0  194.88    9.50
  -3  -2   0  192.48    9.40
  -3  -2   0  183.38    9.50
   4   1  -1  359.86   15.70
   4   1  -1  362.66   16.80
   4   1  -1  354.16   16.00
   4   1  -1  346.17   15.70
   4   1  -1  343.57   16.60
   4   1  -1  362.16   16.80
  -4  -1   1  341.57   16.70
  -4  -1   1  354.16   16.60
  -4  -1   1  367.36   16.90
  -4  -1   1  339.57   16.00
   5   0  -2   37.50    2.60
   5   0  -2   35.80    2.70
   5   0  -2   37.00    2.90
   5   0  -2   38.00    3.50
   5   0  -2   32.50    3.40
  -5   0   2   45.40    3.80
  -5   0   2   35.50    2.90
  -5   0   2   35.30    3.10
   6  -1  -3   24.90    4.60
   6  -1  -3   26.40    2.90
   6  -1  -3   26.40    3.20
  -6   1   3   22.10    4.40
  -6   1   3   26.40    4.70
  -6   1   3   26.20    3.20
   7  -2  -4    7.40    2.20
   7  -2  -4    5.60    2.60
   7  -2  -4    6.40    2.50
  -7   2   4    8.20    2.90
  -7   2   4    3.60    2.70
  -4   8   7    4.30    3.10
   4  -8  -7    4.90    5.10
   4  -8  -7    3.10    2.90
  -3   7   6    6.80    3.50
  -3   7   6   16.60    3.60
   3  -7  -6    6.50    2.50
  -2   6   5    9.60    2.10
  -2   6   5    4.20    2.20
   2  -6  -5   12.20    2.80
   2  -6  -5   10.30    2.50
  -1   5   4    0.10    1.00
  -1   5   4    1.00    0.90
  -1   5   4    3.70    1.60
  -1   5   4    0.60    0.60
   1  -5  -4    1.50    1.30
   1  -5  -4    1.70    0.70
   1  -5  -4    1.70    0.70
   1  -5  -4    2.20    1.30
   1  -5  -4    1.70    1.30
   0   4   3    4.10    1.40
   0   4   3    7.10    1.40
   0   4   3    4.30    1.00
   0   4   3    1.00    1.00
   0   4   3    3.60    0.90
   0  -4  -3    2.90    1.30
   0  -4  -3    3.80    1.20
   0  -4  -3    7.50    1.40
   0  -4  -3    2.80    0.80
   0  -4  -3    2.60    0.80
   0  -4  -3    4.20    1.30
   1   3   2 1442.96   62.69
   1   3   2 1454.15   62.19
   1   3   2 1436.96   62.69
   1   3   2 1456.95   62.69
   1   3   2 1399.46   62.79
   1   3   2 1467.15   62.69
  -1  -3  -2 1416.06   62.59
  -1  -3  -2 1439.06   62.89
  -1  -3  -2 1473.25   62.19
  -1  -3  -2 1520.65   62.69
  -1  -3  -2 1390.56   62.59
  -1  -3  -2 1476.05   62.59
  -1  -3  -2 1468.45   62.69
   2   2   1  129.59    6.70
   2   2   1  132.39    6.20
   2   2   1  138.49    6.20
   2   2   1  124.89    6.30
   2   2   1  134.89    6.60
   2   2   1  131.79    6.30
  -2  -2  -1  131.29    5.90
  -2  -2  -1  131.79    6.70
  -2  -2  -1  131.69    6.40
  -2  -2  -1  136.69    6.50
  -2  -2  -1  136.89    5.90
  -2  -2  -1  130.99    6.20
  -2  -2  -1  135.59    6.70
   3   1   0  207.38   10.10
   3   1   0  212.68   10.10
   3   1   0  201.58   10.10
   3   1   0  213.68    9.80
  -3  -1   0  217.78   10.10
  -3  -1   0  208.98   10.20
  -3  -1   0  200.98   10.10
  -3  -1   0  212.48   10.20
  -3  -1   0  214.98    9.80
  -3  -1   0  205.78    9.90
   4   0  -1  246.08   11.60
   4   0  -1  224.88   10.30
   4   0  -1  205.78   10.90
   4   0  -1  224.58   11.00
   4   0  -1  219.38   10.30
   4   0  -1  234.28   11.50
  -4   0   1  246.58   11.20
  -4   0   1  211.88   11.00
  -4   0   1  232.58   11.10
  -4   0   1  236.88   11.50
   5  -1  -2   85.59    4.70
   5  -1  -2   63.09    4.90
   5  -1  -2   78.09    5.60
   5  -1  -2   88.69    4.60
  -5   1   2   86.19    4.90
  -5   1   2   78.49    4.90
  -5   1   2   82.39    5.70
  -5   1   2   74.89    5.50
   6  -2  -3    3.10    1.80
   6  -2  -3    2.10    2.00
   6  -2  -3    5.80    1.80
   6  -2  -3   -0.50    1.00
  -6   2   3    3.90    2.00
  -6   2   3    5.70    2.40
  -6   2   3    3.80    1.40
   7  -3  -4   12.50    2.80
   7  -3  -4    8.20    3.00
  -7   3   4   15.20    3.90
  -7   3   4   10.60    3.50
  -4   7   7   39.00    5.20
  -4   7   7   34.70    5.50
   4  -7  -7   35.00    5.30
   4  -7  -7   34.70    5.30
  -3   6   6   -3.10    1.80
  -3   6   6    3.10    1.90
  -3   6   6   -0.90    1.50
   3  -6  -6    1.50    1.80
   3  -6  -6    3.10    2.10
   3  -6  -6   -0.20    1.50
  -2   5   5  295.07   14.30
  -2   5   5  302.57   14.80
  -2   5   5  296.87   14.50
  -2   5   5  278.07   13.00
   2  -5  -5  315.77   14.80
   2  -5  -5  286.67   13.00
   2  -5  -5  262.17   14.30
   2  -5  -5  292.27   15.00
   2  -5  -5  280.27   14.50
  -1   4   4   88.69    5.80
  -1   4   4  107.09    6.00
  -1   4   4   98.99    5.50
  -1   4   4   98.09    5.50
  -1   4   4  111.59    5.90
   1  -4  -4  102.69    5.60
   1  -4  -4   94.69    5.70
   1  -4  -4  100.49    5.00
   1  -4  -4  100.09    6.10
   1  -4  -4   91.79    5.70
   0   3   3  483.05   20.40
   0   3   3  453.55   20.40
   0   3   3  429.36   20.70
   0   3   3  433.96   20.70
   0   3   3  483.65   21.60
   0   3   3  456.65   20.80
   0   3   3  459.05   20.80
   0  -3  -3  478.95   20.40
   0  -3  -3  472.15   20.80
   0  -3  -3  482.95   21.10
   0  -3  -3  449.86   20.70
   0  -3  -3  468.55   20.80
   0  -3  -3  456.45   20.40
   1   2   2 8670.03  457.95
   1   2   2 8880.31  386.16
  -1  -2  -2 9017.80  386.06
  -1  -2  -2 9182.88  434.46
   2   1   1 1017.10   44.40
   2   1   1 1009.00   44.40
   2   1   1 1038.80   44.70
   2   1   1 1026.50   44.60
  -2  -1  -1 1029.00   44.60
  -2  -1  -1 1010.60   44.40
  -2  -1  -1 1025.50   44.40
  -2  -1  -1 1012.50   44.40
  -2  -1  -1 1018.80   44.60
  -2  -1  -1 1061.99   44.30
   3   0   0   92.89    4.90
   3   0   0   73.99    4.60
   3   0   0   87.89    4.90
  -3   0   0   87.29    4.90
  -3   0   0   90.39    4.80
  -3   0   0   85.89    4.70
  -3   0   0   88.19    4.90
  -3   0   0   78.59    4.60
  -3   0   0   92.79    4.90
   4  -1  -1  192.28   11.50
   4  -1  -1  182.28    9.30
   4  -1  -1  170.88    8.40
   4  -1  -1  173.38    8.60
  -4   1   1  202.28   11.70
  -4   1   1  175.68    8.80
  -4   1   1  176.78    9.50
  -4   1   1  176.98    8.80
   5  -2  -2   37.70    3.10
   5  -2  -2   45.80    4.10
   5  -2  -2   42.40    3.10
   5  -2  -2   44.30    3.80
  -5   2   2   47.70    4.20
  -5   2   2   45.70    4.10
  -5   2   2   44.90    3.00
   6  -3  -3    4.80    1.90
   6  -3  -3    8.20    2.70
   6  -3  -3    6.20    2.40
   6  -3  -3    7.90    2.30
  -6   3   3    6.40    1.20
  -6   3   3    8.90    2.90
  -6   3   3   12.90    3.20
   7  -4  -4    1.20    2.20
   7  -4  -4    6.80    3.00
   7  -4  -4   -1.10    2.50
  -7   4   4    1.80    2.60
  -7   4   4    2.10    2.60
  -4   6   7   60.49    5.80
  -4   6   7   61.79    5.50
   4  -6  -7   57.69    5.50
   4  -6  -7   60.39    5.60
   4  -6  -7   67.59    5.90
  -3   5   6   63.69    6.50
  -3   5   6   74.09    5.30
  -3   5   6   69.19    5.50
  -3   5   6   64.59    3.80
   3  -5  -6   69.89    5.50
   3  -5  -6   82.39    5.70
   3  -5  -6   66.49    3.80
   3  -5  -6   63.49    5.10
   3  -5  -6   59.89    5.00
  -2   4   5   25.10    2.70
  -2   4   5   28.70    2.70
  -2   4   5   28.90    2.90
  -2   4   5   29.20    2.10
   2  -4  -5   31.50    3.00
   2  -4  -5   26.30    2.10
   2  -4  -5   26.50    2.70
   2  -4  -5   28.40    3.20
   2  -4  -5   33.80    3.10
  -1   3   4  499.15   21.90
  -1   3   4  465.55   21.80
  -1   3   4  449.86   21.50
  -1   3   4  470.45   21.30
  -1   3   4  453.45   21.90
  -1   3   4  469.85   21.60
   1  -3  -4  489.75   21.60
   1  -3  -4  461.45   21.70
   1  -3  -4  485.45   21.30
   1  -3  -4  491.25   21.80
   1  -3  -4  496.55   22.20
   1  -3  -4  508.75   21.90
   0   2   3  361.76   16.60
   0   2   3  370.26   16.60
   0   2   3  359.46   16.00
   0   2   3  319.37   16.40
   0   2   3  344.17   16.40
   0   2   3  372.26   16.40
   0  -2  -3  373.56   16.40
   0  -2  -3  378.16   16.70
   0  -2  -3  359.36   16.30
   0  -2  -3  389.56   16.40
   0  -2  -3  375.56   16.00
   0  -2  -3  356.36   16.20
   1   1   2  485.05   20.50
   1   1   2  479.65   20.80
   1   1   2  481.15   21.40
   1   1   2  504.15   20.90
   1   1   2  480.65   21.10
   1   1   2  467.55   20.60
  -1  -1  -2  485.95   20.70
  -1  -1  -2  479.25   20.50
  -1  -1  -2  449.06   21.20
  -1  -1  -2  470.95   21.10
  -1  -1  -2  460.85   20.70
   2   0   1 1634.24   73.49
   2   0   1 1807.72   73.69
  -2   0  -1 1743.33   73.69
  -2   0  -1 1671.13   73.39
  -2   0  -1 1706.33   73.49
  -2   0  -1 1686.53   73.49
  -2   0  -1 1709.03   73.49
  -2   0  -1 1690.43   73.39
   3  -1   0  160.58    8.20
   3  -1   0  162.38    7.70
   3  -1   0  157.58    7.20
   3  -1   0  161.08    8.20
   3  -1   0  160.08    7.20
   3  -1   0  148.49    8.00
  -3   1   0  162.58    8.30
  -3   1   0  150.88    7.60
  -3   1   0  161.48    8.10
  -3   1   0  169.08    8.20
  -3   1   0  144.29    8.10
  -3   1   0  170.48    8.30
  -3   1   0  160.78    7.70
   4  -2  -1    4.80    1.10
   4  -2  -1    3.10    1.50
   4  -2  -1    3.20    1.50
   4  -2  -1    4.70    1.10
  -4   2   1    4.10    1.00
  -4   2   1    8.10    1.30
  -4   2   1    4.40    1.60
  -4   2   1    3.70    1.50
   5  -3  -2    9.40    2.40
   5  -3  -2    6.70    1.70
   5  -3  -2    4.10    1.70
   5  -3  -2   13.20    2.80
  -5   3   2    7.30    2.40
  -5   3   2    6.50    2.10
  -5   3   2    6.70    1.20
   6  -4  -3    1.80    2.30
   6  -4  -3    2.30    3.00
   6  -4  -3    3.00    2.30
   6  -4  -3    0.80    1.60
  -6   4   3    0.70    2.00
  -6   4   3    2.30    2.10
   5  -6  -8    6.90    3.90
  -4   5   7  102.99    7.20
  -4   5   7   94.09    5.20
  -4   5   7   92.49    7.20
   4  -5  -7   93.89    6.90
   4  -5  -7  104.19    7.30
   4  -5  -7   99.79    7.20
  -3   4   6  449.66   21.30
  -3   4   6  439.76   21.50
  -3   4   6  441.06   20.00
   3  -4  -6  456.65   20.90
   3  -4  -6  413.06   21.20
   3  -4  -6  431.06   21.10
   3  -4  -6  431.86   21.40
   3  -4  -6  461.35   21.30
  -2   3   5   90.69    5.50
  -2   3   5   82.79    4.80
  -2   3   5   83.99    5.20
   2  -3  -5   83.09    5.50
   2  -3  -5   84.69    5.30
   2  -3  -5   84.49    5.20
   2  -3  -5   94.59    5.50
   2  -3  -5   88.09    4.80
  -1   2   4   18.90    2.00
  -1   2   4   18.50    1.90
  -1   2   4   19.20    1.90
  -1   2   4   24.10    3.00
  -1   2   4   20.10    1.80
  -1   2   4   19.80    1.80
   1  -2  -4   19.10    2.00
   1  -2  -4   21.60    2.00
   1  -2  -4   23.30    1.80
   1  -2  -4   20.20    2.10
   1  -2  -4   19.30    2.00
   1  -2  -4   17.60    1.70
   0   1   3  385.16   17.40
   0   1   3  376.46   17.30
   0   1   3  391.26   17.00
   0   1   3  364.46   17.00
   0   1   3  379.76   17.30
   0   1   3  383.76   17.40
   0  -1  -3  387.16   17.30
   0  -1  -3  420.76   17.60
   0  -1  -3  391.96   17.40
   0  -1  -3  390.16   17.10
   0  -1  -3  398.96   17.00
   0  -1  -3  376.96   17.30
   1   0   2  300.97   14.30
   1   0   2  324.17   14.10
   1   0   2  319.37   14.60
   1   0   2  321.47   14.40
   1   0   2  296.47   14.00
   1   0   2  318.37   14.00
  -1   0  -2  318.07   14.30
  -1   0  -2  314.97   13.70
  -1   0  -2  324.97   13.90
  -1   0  -2  306.27   14.10
  -1   0  -2  321.27   14.40
  -1   0  -2  321.97   14.40
  -1   0  -2  328.37   13.70
   2  -1   1   59.89    3.70
   2  -1   1   61.49    3.00
   2  -1   1   63.99    3.00
   2  -1   1   58.99    3.60
   2  -1   1   64.29    3.40
  -2   1  -1   61.69    3.60
  -2   1  -1   62.09    3.40
  -2   1  -1   62.59    3.80
  -2   1  -1   60.79    3.60
  -2   1  -1   61.09    3.40
  -2   1  -1   63.19    3.40
   3  -2   0   14.90    2.20
   3  -2   0   13.20    1.40
   3  -2   0   11.40    1.20
   3  -2   0   17.40    2.40
   3  -2   0   12.40    1.80
  -3   2   0   13.20    2.10
  -3   2   0   13.90    1.30
  -3   2   0   12.30    1.90
  -3   2   0   14.40    1.70
   4  -3  -1   40.20    3.70
   4  -3  -1   40.80    3.20
   4  -3  -1   39.70    3.60
   4  -3  -1   35.50    2.80
  -4   3   1   38.10    2.30
  -4   3   1   40.50    2.30
  -4   3   1   39.20    3.60
  -4   3   1   32.20    3.30
   5  -4  -2   18.40    2.90
   5  -4  -2   17.00    3.90
   5  -4  -2   13.90    2.90
  -5   4   2   20.50    3.60
  -5   4   2   10.00    3.10
   6  -5  -3    7.50    3.00
   6  -5  -3    3.10    2.30
  -6   5   3    4.10    2.60
  -6   5   3   10.00    3.30
  -5   5   8   -1.30    2.20
  -5   5   8   -1.40    2.10
   5  -5  -8    0.30    2.40
   5  -5  -8   -0.60    2.60
   5  -5  -8    4.60    2.60
  -4   4   7   52.39    4.40
  -4   4   7   58.19    3.90
  -4   4   7   62.89    5.30
  -4   4   7   55.49    5.10
   4  -4  -7   53.69    5.50
   4  -4  -7   50.19    4.90
   4  -4  -7   64.09    5.00
   4  -4  -7   50.39    4.80
  -3   3   6   23.90    3.40
  -3   3   6   20.70    3.10
  -3   3   6   20.00    2.20
   3  -3  -6   23.40    3.40
   3  -3  -6   25.00    3.60
   3  -3  -6   21.60    3.10
   3  -3  -6   29.50    3.60
   3  -3  -6   23.40    3.20
  -2   2   5    0.90    1.00
  -2   2   5    1.00    1.00
  -2   2   5    0.00    0.80
  -2   2   5    1.30    1.00
   2  -2  -5    1.30    1.00
   2  -2  -5   -1.30    0.70
   2  -2  -5    0.90    1.00
   2  -2  -5    1.80    1.20
  -1   1   4   85.19    4.60
  -1   1   4   86.09    4.90
  -1   1   4   88.69    4.90
  -1   1   4   87.29    4.80
  -1   1   4   91.29    4.80
  -1   1   4   90.99    4.80
   1  -1  -4   91.69    4.90
   1  -1  -4   70.19    4.70
   1  -1  -4   91.89    4.90
   1  -1  -4   87.69    4.60
   1  -1  -4   90.39    4.90
   1  -1  -4   86.09    4.80
   0   0   3    1.60    0.80
   0   0   3    2.30    0.40
   0   0   3    4.10    1.00
   0   0   3    4.80    0.90
   0   0   3    2.60    0.80
   0   0   3    3.10    1.00
   0   0  -3    2.00    0.80
   0   0  -3    3.30    0.50
   0   0  -3    4.10    0.90
   0   0  -3    7.30    1.20
   0   0  -3    4.00    1.00
   0   0  -3    1.90    1.00
   0   0  -3    4.00    1.00
   1  -1   2  128.79    6.20
   1  -1   2  127.89    6.40
   1  -1   2  130.19    6.40
   1  -1   2  128.89    6.30
   1  -1   2  133.59    6.00
   1  -1   2  132.89    6.70
  -1   1  -2  123.79    6.00
  -1   1  -2  129.39    6.40
  -1   1  -2  131.49    6.20
  -1   1  -2  130.89    6.60
  -1   1  -2  134.39    6.50
  -1   1  -2  138.39    6.30
   2  -2   1  105.39    5.90
   2  -2   1  100.49    5.30
   2  -2   1  101.29    5.20
   2  -2   1  100.59    5.60
   2  -2   1  112.39    5.50
   2  -2   1   97.09    5.10
  -2   2  -1  102.99    4.60
  -2   2  -1   96.59    5.10
  -2   2  -1   93.69    5.60
  -2   2  -1  102.89    4.60
  -2   2  -1  115.79    5.90
  -2   2  -1   98.39    5.40
  -2   2  -1  110.49    5.90
   3  -3   0    3.90    1.60
   3  -3   0    5.10    1.20
   3  -3   0    4.60    0.90
   3  -3   0    4.10    1.20
  -3   3   0    4.50    0.80
  -3   3   0    1.90    1.20
  -3   3   0    4.10    1.30
  -3   3   0    4.90    0.90
   4  -4  -1  155.18    8.20
   4  -4  -1  148.49    8.10
   4  -4  -1  137.89    8.90
  -4   4   1  152.48    8.90
  -4   4   1  160.58    9.20
   5  -5  -2   88.59    6.60
   5  -5  -2  102.89    7.40
   5  -5  -2  107.99    6.60
  -5   5   2  102.19    7.40
  -5   5   2   88.09    7.00
   6  -6  -3    5.50    2.90
   6  -6  -3    3.50    3.20
  -6   6   3    0.60    2.70
  -6   6   3    4.00    2.80
  -5   4   8    2.80    2.60
  -5   4   8    5.40    1.70
  -5   4   8    1.60    2.30
   5  -4  -8    1.50    2.00
   5  -4  -8    8.30    2.90
   5  -4  -8    5.80    3.00
  -4   3   7   71.99    5.70
   4  -3  -7   74.59    5.60
   4  -3  -7   75.39    6.00
   4  -3  -7   73.49    5.70
  -3   2   6    1.30    1.20
  -3   2   6    1.60    1.50
  -3   2   6    0.30    1.10
   3  -2  -6    0.00    1.10
   3  -2  -6   -0.40    1.30
   3  -2  -6    1.80    1.20
   3  -2  -6    2.30    1.50
  -2   1   5  215.78   10.30
  -2   1   5  206.18   10.20
  -2   1   5  203.08   10.10
  -2   1   5  195.78   10.30
  -2   1   5  191.28    9.90
   2  -1  -5  188.18   10.20
   2  -1  -5  199.38   10.00
   2  -1  -5  206.48   10.30
   2  -1  -5  217.78   10.40
  -1   0   4   93.49    5.00
  -1   0   4   92.09    5.20
  -1   0   4   90.89    5.00
  -1   0   4   87.69    4.60
  -1   0   4   82.59    5.90
  -1   0   4   86.19    4.60
  -1   0   4   84.29    4.70
   1   0  -4   94.09    5.10
   1   0  -4   95.49    5.00
   1   0  -4   84.79    5.00
   1   0  -4   86.79    5.00
   1   0  -4   92.59    4.60
   1   0  -4   82.29    4.70
   0  -1   3  257.07   11.40
   0  -1   3  265.17   12.10
   0  -1   3  260.07   12.20
   0  -1   3  258.77   12.00
   0  -1   3  262.97   12.10
   0  -1   3  255.67   12.00
   0   1  -3  247.58   11.90
   0   1  -3  271.17   12.20
   0   1  -3  257.47   12.20
   0   1  -3  267.47   12.00
   0   1  -3  243.98   11.90
   0   1  -3  256.77   11.40
   0   1  -3  250.87   12.00
   1  -2   2  382.36   16.30
   1  -2   2  354.16   16.30
   1  -2   2  333.77   16.10
   1  -2   2  341.27   16.40
   1  -2   2  357.26   15.80
  -1   2  -2  344.27   16.10
  -1   2  -2  358.16   15.80
  -1   2  -2  354.56   15.90
  -1   2  -2  367.26   16.00
  -1   2  -2  354.76   16.50
  -1   2  -2  354.56   16.40
   2  -3   1    9.60    1.90
   2  -3   1    8.30    1.50
   2  -3   1    8.60    1.20
   2  -3   1    9.10    1.50
   2  -3   1   10.20    1.60
  -2   3  -1    8.70    1.60
  -2   3  -1    9.40    1.30
  -2   3  -1    9.60    1.00
  -2   3  -1    8.60    1.70
   3  -4   0   12.70    2.60
   3  -4   0   10.50    2.00
   3  -4   0    8.20    1.80
   3  -4   0    9.20    1.10
  -3   4   0   11.30    2.30
  -3   4   0   10.10    1.20
  -3   4   0   14.20    2.40
   4  -5  -1   25.00    3.40
   4  -5  -1   21.30    3.20
   4  -5  -1   19.50    3.50
  -4   5   1   28.60    4.00
  -4   5   1   16.20    3.20
   5  -6  -2    4.70    2.80
   5  -6  -2    9.10    2.80
  -5   6   2    4.90    2.60
  -5   6   2   10.60    3.20
  -5   3   8    3.10    2.30
  -5   3   8    1.30    1.70
   5  -3  -8    0.60    1.80
   5  -3  -8   -1.70    1.70
   5  -3  -8    0.70    2.10
  -4   2   7    3.90    1.60
  -4   2   7    0.60    1.50
  -4   2   7    0.60    1.90
   4  -2  -7    0.80    1.30
   4  -2  -7    1.20    2.50
   4  -2  -7    0.10    1.70
   4  -2  -7    0.40    1.50
  -3   1   6   40.10    3.40
  -3   1   6   38.40    3.40
  -3   1   6   36.20    3.00
   3  -1  -6   41.00    3.60
   3  -1  -6   36.90    3.10
   3  -1  -6   33.20    3.30
   3  -1  -6   35.30    3.30
  -2   0   5   65.69    4.50
  -2   0   5   65.49    4.10
  -2   0   5   67.39    4.20
  -2   0   5   65.39    3.90
  -2   0   5   72.29    4.50
   2   0  -5   74.89    4.50
   2   0  -5   66.19    4.50
   2   0  -5   67.79    4.20
   2   0  -5   68.09    4.00
   2   0  -5   66.89    4.50
  -1  -1   4  512.35   22.70
  -1  -1   4  489.75   22.10
  -1  -1   4  497.05   22.60
  -1  -1   4  491.65   22.50
  -1  -1   4  489.75   22.10
  -1  -1   4  498.05   22.80
   1   1  -4  491.85   22.60
   1   1  -4  506.05   22.20
   1   1  -4  487.25   22.50
   1   1  -4  530.85   23.30
   1   1  -4  472.65   22.00
   1   1  -4  507.15   22.70
   1   1  -4  490.35   22.10
   0  -2   3  670.63   30.20
   0  -2   3  687.23   30.20
   0  -2   3  691.33   30.40
   0  -2   3  709.33   30.40
   0  -2   3  662.43   30.30
   0  -2   3  695.93   29.70
   0   2  -3  662.63   29.70
   0   2  -3  668.93   30.20
   0   2  -3  697.83   30.60
   0   2  -3  667.33   30.20
   0   2  -3  677.33   30.30
   0   2  -3  668.93   30.20
   0   2  -3  686.23   30.20
   1  -3   2  119.79    6.70
   1  -3   2  113.99    6.40
   1  -3   2  123.29    6.60
   1  -3   2  125.49    6.20
  -1   3  -2  124.29    6.20
  -1   3  -2  111.99    6.20
  -1   3  -2  127.79    6.30
  -1   3  -2  126.09    6.80
   2  -4   1    0.90    0.70
   2  -4   1    0.20    1.00
   2  -4   1    1.20    1.30
  -2   4  -1    1.20    0.70
  -2   4  -1    0.30    1.00
  -2   4  -1    1.60    0.80
  -2   4  -1    1.90    1.10
   3  -5   0   30.50    4.10
   3  -5   0   27.10    2.80
   3  -5   0   27.90    1.70
  -3   5   0   26.70    1.60
  -3   5   0   25.40    3.80
  -3   5   0   28.80    3.60
   4  -6  -1    2.30    1.90
   4  -6  -1    5.80    2.40
  -4   6   1    2.60    2.10
   5  -7  -2    2.70    3.20
   5  -7  -2   -1.00    2.70
  -5   7   2   -0.10    2.60
  -5   7   2    1.60    3.00
  -5   2   8   23.70    3.60
  -5   2   8   24.50    4.00
   5  -2  -8   25.30    4.10
   5  -2  -8   23.40    4.20
   5  -2  -8   24.10    3.40
  -4   1   7    2.90    1.90
  -4   1   7    2.40    1.80
  -4   1   7    2.40    2.70
   4  -1  -7    1.80    1.70
   4  -1  -7    3.60    2.30
   4  -1  -7    1.30    1.10
   4  -1  -7    4.00    2.10
  -3   0   6   47.80    3.80
  -3   0   6   45.50    3.10
  -3   0   6   46.30    3.80
  -3   0   6   45.80    3.90
   3   0  -6   50.29    3.30
   3   0  -6   48.40    4.20
   3   0  -6   48.10    3.70
   3   0  -6   41.10    3.70
   3   0  -6   47.80    4.00
  -2  -1   5   61.39    3.60
  -2  -1   5   61.99    4.00
  -2  -1   5   68.19    5.00
  -2  -1   5   65.89    4.30
   2   1  -5   64.49    4.40
   2   1  -5   64.99    3.80
   2   1  -5   59.69    4.20
   2   1  -5   61.79    3.70
   2   1  -5   65.29    4.00
   2   1  -5   68.49    4.50
  -1  -2   4   14.90    1.80
  -1  -2   4   15.90    2.50
  -1  -2   4   15.90    2.20
  -1  -2   4   15.40    2.40
   1   2  -4   13.80    2.10
   1   2  -4   15.40    1.80
   1   2  -4   17.10    2.20
   1   2  -4   13.80    1.50
   1   2  -4   14.80    1.50
   1   2  -4   18.80    2.50
   0  -3   3  216.98   11.00
   0  -3   3  218.58   10.40
   0  -3   3  233.48   11.00
   0  -3   3  227.88   11.10
   0  -3   3  219.78   10.90
   0   3  -3  201.78   11.20
   0   3  -3  227.88   10.50
   0   3  -3  236.08   11.00
   0   3  -3  210.18   10.80
   1  -4   2    3.80    1.20
   1  -4   2    6.70    1.70
   1  -4   2    4.10    1.40
   1  -4   2    6.60    1.80
   1  -4   2    3.70    1.10
  -1   4  -2    5.50    1.30
  -1   4  -2    3.70    1.20
  -1   4  -2    4.70    1.60
  -1   4  -2    5.60    1.40
   2  -5   1   92.89    6.20
   2  -5   1   86.99    4.80
   2  -5   1   83.59    5.60
   2  -5   1   77.99    5.90
  -2   5  -1   85.29    4.80
  -2   5  -1   93.89    5.10
  -2   5  -1   93.49    6.20
  -2   5  -1   85.19    6.00
   3  -6   0    6.60    2.40
   3  -6   0    5.40    2.00
  -3   6   0    4.70    2.10
  -3   6   0    3.60    2.00
   4  -7  -1    2.90    2.40
   4  -7  -1    2.80    2.70
  -4   7   1    5.80    2.50
  -4   7   1    7.20    2.90
  -5   1   8    2.00    1.90
  -5   1   8    2.00    2.00
   5  -1  -8    0.60    2.20
   5  -1  -8    2.00    1.60
   5  -1  -8   -0.20    2.00
  -4   0   7    0.50    1.10
  -4   0   7   -1.00    1.30
  -4   0   7    0.30    1.70
  -4   0   7    1.10    1.80
   4   0  -7    1.50    1.60
   4   0  -7   -0.80    1.30
   4   0  -7    0.20    2.20
   4   0  -7    0.30    1.50
   4   0  -7    2.00    1.10
  -3  -1   6   12.70    2.50
  -3  -1   6   15.10    2.40
  -3  -1   6   13.20    1.60
  -3  -1   6   13.00    2.80
   3   1  -6   10.80    2.10
   3   1  -6    9.00    2.10
   3   1  -6   12.40    1.70
   3   1  -6   12.80    1.70
   3   1  -6   10.80    2.30
  -2  -2   5  210.48   11.80
  -2  -2   5  250.87   12.40
  -2  -2   5  235.28   11.60
   2   2  -5  241.38   11.10
   2   2  -5  232.88   12.00
   2   2  -5  234.88   11.20
   2   2  -5  245.98   11.60
   2   2  -5  238.18   12.20
   2   2  -5  240.38   12.10
  -1  -3   4  181.28    9.10
  -1  -3   4  179.48    9.60
  -1  -3   4  175.48    9.50
  -1  -3   4  185.08    9.40
  -1  -3   4  177.78   10.20
   1   3  -4  195.98   10.70
   1   3  -4  183.08    9.50
   1   3  -4  185.28    9.10
   1   3  -4  184.58    9.10
   1   3  -4  181.68    9.00
   0  -4   3    2.70    1.40
   0  -4   3    4.00    1.50
   0  -4   3    2.70    1.40
   0  -4   3    4.20    1.20
   0  -4   3    2.50    1.10
   0   4  -3    3.00    1.10
   0   4  -3    5.30    1.40
   0   4  -3    3.50    1.60
   1  -5   2   17.90    2.90
   1  -5   2   18.90    3.00
   1  -5   2   20.90    2.60
   1  -5   2   21.80    3.10
  -1   5  -2   17.90    2.90
  -1   5  -2   14.90    2.30
  -1   5  -2   21.20    2.70
   2  -6   1   45.50    4.00
   2  -6   1   35.00    3.70
   2  -6   1   41.00    4.10
   2  -6   1   43.00    2.90
  -2   6  -1   31.30    3.40
  -2   6  -1   36.10    4.00
  -2   6  -1   41.60    3.20
   3  -7   0   77.59    6.10
   3  -7   0   67.79    6.20
  -3   7   0   89.89    6.40
  -3   7   0   72.39    6.30
   4  -8  -1   28.80    4.70
  -4   8   1   22.40    5.50
  -4   8   1   20.60    4.40
  -5   0   8    8.90    2.80
  -5   0   8    3.40    2.20
   5   0  -8    8.00    2.50
   5   0  -8    4.00    2.50
   5   0  -8    3.80    1.50
  -4  -1   7   20.80    3.80
  -4  -1   7   16.20    2.90
  -4  -1   7   15.70    3.00
  -4  -1   7   14.30    1.70
   4   1  -7   10.80    2.70
   4   1  -7   18.60    1.80
   4   1  -7   14.70    2.70
   4   1  -7   10.70    2.70
   4   1  -7   15.80    3.60
   4   1  -7   16.90    1.70
  -3  -2   6   -0.70    1.40
  -3  -2   6    1.20    1.10
  -3  -2   6   -0.10    1.20
   3   2  -6    1.00    0.80
   3   2  -6    2.50    2.00
   3   2  -6   -1.40    1.10
   3   2  -6   -1.10    1.20
   3   2  -6   -0.20    0.70
   3   2  -6   -0.80    1.10
  -2  -3   5    5.30    2.00
  -2  -3   5    4.10    1.70
   2   3  -5    7.10    1.40
   2   3  -5    6.70    1.60
   2   3  -5    6.90    1.90
   2   3  -5    6.10    1.20
   2   3  -5    5.70    1.80
  -1  -4   4    0.40    0.90
  -1  -4   4    2.50    1.60
  -1  -4   4    2.00    1.40
  -1  -4   4    2.70    1.60
  -1  -4   4    2.40    1.30
   1   4  -4    0.10    1.10
   1   4  -4    2.10    1.20
   1   4  -4    1.00    1.40
   1   4  -4    1.50    1.10
   1   4  -4    4.30    1.30
   0  -5   3   21.10    2.90
   0   5  -3   19.80    3.40
   0   5  -3   21.20    2.70
   0   5  -3   29.60    3.50
   1  -6   2    1.00    1.70
   1  -6   2    0.30    1.10
   1  -6   2   -0.50    1.40
   1  -6   2    0.00    1.60
  -1   6  -2   -2.10    1.10
  -1   6  -2    1.00    1.40
  -1   6  -2   -0.90    1.20
   2  -7   1   25.90    4.30
   2  -7   1   18.50    2.10
   2  -7   1   20.20    3.70
   2  -7   1   26.40    3.90
  -2   7  -1   22.50    3.80
  -2   7  -1   20.30    3.40
  -2   7  -1   21.70    2.90
  -2   7  -1   22.10    2.20
   3  -8   0   74.39    6.70
   3  -8   0   72.69    6.10
  -3   8   0   64.99    6.10
  -3   8   0   72.39    6.60
  -5  -1   8   30.10    4.30
  -5  -1   8   26.20    4.50
   5   1  -8   33.60    4.60
   5   1  -8   34.60    5.10
   5   1  -8   31.50    4.80
  -4  -2   7   61.39    6.00
  -4  -2   7   66.39    5.00
  -4  -2   7   63.49    4.90
   4   2  -7   63.59    3.30
   4   2  -7   69.69    5.00
   4   2  -7   59.49    3.30
   4   2  -7   59.39    7.60
   4   2  -7   54.89    5.00
  -3  -3   6   51.89    4.80
  -3  -3   6   59.19    4.50
   3   3  -6   54.59    3.30
   3   3  -6   58.59    4.30
   3   3  -6   53.29    4.50
   3   3  -6   50.19    3.20
   3   3  -6   53.39    4.70
  -2  -4   5  337.87   16.80
  -2  -4   5  339.97   17.10
   2   4  -5  335.17   17.10
   2   4  -5  326.97   16.20
   2   4  -5  337.67   15.80
   2   4  -5  318.07   16.60
   2   4  -5  359.06   15.90
  -1  -5   4  135.89    8.40
  -1  -5   4  148.89    8.60
  -1  -5   4  127.69    7.80
   1   5  -4  153.18    8.90
   1   5  -4  146.49    7.90
   1   5  -4  153.68    8.10
   1   5  -4  134.49    8.10
   0  -6   3    7.40    2.10
   0  -6   3   10.20    2.30
   0  -6   3    8.10    2.60
   0  -6   3   10.60    2.70
   0   6  -3    8.70    2.50
   0   6  -3    7.80    2.00
   0   6  -3    8.30    1.90
   1  -7   2   15.10    3.30
   1  -7   2   17.30    3.30
   1  -7   2   24.30    4.10
  -1   7  -2   15.50    4.30
  -1   7  -2   21.30    3.40
  -1   7  -2   14.80    2.90
   2  -8   1    7.10    3.00
   2  -8   1   12.80    3.40
   2  -8   1   12.20    2.00
  -2   8  -1   12.40    3.40
   3  -9   0    9.50    3.90
   3  -9   0    5.50    3.50
  -3   9   0    9.80    3.50
  -3   9   0    7.60    3.40
  -5  -2   8   42.00    5.90
  -5  -2   8   39.90    5.00
   5   2  -8   40.00    5.40
   5   2  -8   35.70    5.10
   5   2  -8   40.50    4.40
  -4  -3   7   49.60    4.50
  -4  -3   7   43.30    4.70
  -4  -3   7   39.60    4.10
   4   3  -7   47.50    4.50
   4   3  -7   38.70    4.00
   4   3  -7   47.50    4.80
  -3  -4   6   24.80    4.10
  -3  -4   6   22.60    3.60
   3   4  -6   21.30    3.60
   3   4  -6   16.10    2.80
   3   4  -6   17.40    1.80
   3   4  -6   22.80    2.00
   3   4  -6   22.30    3.60
  -2  -5   5    0.90    1.80
  -2  -5   5    1.50    1.90
  -2  -5   5    1.80    1.10
   2   5  -5   -0.80    1.30
   2   5  -5    1.10    1.10
   2   5  -5   -0.30    1.60
   2   5  -5    0.30    1.30
  -1  -6   4  108.99    6.80
  -1  -6   4  109.09    7.20
  -1  -6   4  104.59    7.20
   1   6  -4  119.69    7.20
   1   6  -4   96.79    6.50
   1   6  -4  110.89    7.60
   0  -7   3  132.49    8.10
   0  -7   3  110.39    7.90
   0   7  -3  140.19    9.00
   0   7  -3  115.09    7.50
   0   7  -3  122.99    7.60
   1  -8   2    2.30    2.10
   1  -8   2   -0.90    1.50
  -1   8  -2    1.30    1.80
  -1   8  -2   -2.30    2.00
   2  -9   1   17.70    4.20
   2  -9   1   24.90    4.50
  -2   9  -1   21.10    4.90
  -2   9  -1    9.40    3.10
  -5  -3   8    3.80    2.70
  -5  -3   8    5.10    2.50
   5   3  -8    6.70    2.50
   5   3  -8    2.60    2.20
   5   3  -8    3.60    2.70
  -4  -4   7   42.10    4.30
  -4  -4   7   45.80    5.10
   4   4  -7   47.40    5.00
   4   4  -7   47.30    4.40
   4   4  -7   54.09    5.20
  -3  -5   6   26.90    4.40
  -3  -5   6   27.40    4.00
   3   5  -6   20.00    2.10
   3   5  -6   18.00    3.50
   3   5  -6   25.80    3.60
   3   5  -6   14.00    3.10
  -2  -6   5   -0.70    2.60
  -2  -6   5    3.60    2.10
  -2  -6   5    2.40    1.30
   2   6  -5    1.40    1.90
   2   6  -5    3.40    1.70
   2   6  -5    2.30    1.60
   2   6  -5   -0.10    1.80
  -1  -7   4    0.20    2.00
  -1  -7   4    5.80    2.10
  -1  -7   4    9.10    2.50
   1   7  -4    9.60    2.40
   1   7  -4    3.70    2.20
   1   7  -4    2.20    2.10
   0  -8   3    8.60    2.50
   0  -8   3   10.10    3.00
   0   8  -3    8.10    3.10
   0   8  -3    7.60    2.50
   1  -9   2    9.10    3.40
   1  -9   2    6.30    2.50
   1  -9   2    7.00    3.10
  -1   9  -2   11.10    3.90
  -1   9  -2    6.00    2.80
  -5  -4   8    7.60    2.80
   5   4  -8    3.30    2.70
   5   4  -8    5.40    2.50
  -4  -5   7    7.50    3.20
   4   5  -7    4.70    2.50
   4   5  -7    4.10    2.50
   4   5  -7    7.20    2.70
  -3  -6   6   -1.60    1.90
  -3  -6   6   -0.90    1.80
   3   6  -6    1.50    2.10
   3   6  -6    5.40    2.00
   3   6  -6    0.10    1.30
   3   6  -6    3.10    2.30
  -2  -7   5    1.90    2.30
  -2  -7   5    1.60    1.60
  -2  -7   5   -0.40    2.10
   2   7  -5    3.20    2.30
   2   7  -5    1.10    1.90
   2   7  -5    0.80    1.80
   2   7  -5   -0.60    1.50
  -1  -8   4    0.50    2.00
  -1  -8   4    1.10    1.70
  -1  -8   4    1.70    2.50
   1   8  -4   -2.00    3.20
   1   8  -4    1.20    1.90
   1   8  -4   -0.90    2.10
   0  -9   3    1.90    2.60
   0  -9   3    1.90    2.40
   0  -9   3    0.80    2.20
   0   9  -3    6.60    3.50
   0   9  -3    3.60    2.30
  -4  -6   7   -1.30    2.40
   4   6  -7    2.60    2.60
   4   6  -7    2.40    2.50
   4   6  -7    1.00    2.00
  -3  -7   6   48.20    6.50
   3   7  -6   64.29    6.00
   3   7  -6   47.10    4.10
   3   7  -6   49.50    5.50
  -2  -8   5   51.99    5.50
  -2  -8   5   51.69    5.40
  -2  -8   5   41.20    4.40
   2   8  -5   56.19    5.80
   2   8  -5   59.59    5.90
   2   8  -5   56.89    4.80
  -1  -9   4    2.10    2.20
  -1  -9   4    1.60    3.10
  -1  -9   4    0.00    2.30
   1   9  -4    0.40    2.20
   1   9  -4    3.00    3.50
  -3  -8   6   -2.00    3.10
   4  11   0    5.60    3.20
   4  11   0   17.00    4.90
  -4 -11   0    9.20    3.30
  -4 -11   0    6.70    2.40
   5  10  -1    4.30    2.90
   5  10  -1    3.20    2.70
   5  10  -1   -3.80    2.10
  -5 -10   1    5.70    3.00
   6   9  -2   11.90    3.60
   6   9  -2   13.30    3.60
   6   9  -2   14.80    4.00
  -6  -9   2   16.70    4.90
  -7  -8   3    1.80    3.20
   3  11   1    6.30    3.10
   3  11   1   -4.20    2.30
   3  11   1    1.40    2.20
  -3 -11  -1    1.40    2.60
  -3 -11  -1   -0.50    2.80
   4  10   0   18.30    3.50
   4  10   0   15.90    3.90
   4  10   0   10.60    3.30
  -4 -10   0   16.40    3.60
  -4 -10   0   16.40    2.80
   5   9  -1   22.10    4.10
   5   9  -1   14.70    3.30
   5   9  -1   18.20    3.60
  -5  -9   1   21.70    4.40
  -5  -9   1   19.60    2.00
   6   8  -2    5.80    2.50
   6   8  -2    9.60    2.90
   6   8  -2    2.80    2.50
  -6  -8   2   11.10    3.60
   7   7  -3    1.10    2.50
   7   7  -3    0.70    2.50
   7   7  -3   -0.30    2.20
  -7  -7   3    4.30    3.00
   2  11   2    4.50    2.70
   2  11   2    5.70    2.90
   2  11   2    7.70    3.20
  -2 -11  -2    6.30    3.20
  -2 -11  -2   14.80    3.70
  -2 -11  -2   11.20    3.00
   3  10   1   14.00    3.60
   3  10   1   11.70    3.50
   3  10   1   16.00    3.70
  -3 -10  -1   18.70    3.50
  -3 -10  -1   16.40    3.20
  -3 -10  -1   13.80    3.30
   4   9   0   52.19    5.10
   4   9   0   47.80    5.10
   4   9   0   57.99    4.90
  -4  -9   0   53.59    4.60
   5   8  -1   10.10    1.60
   5   8  -1    7.80    4.00
   5   8  -1    8.90    2.60
   5   8  -1    7.40    2.80
   5   8  -1   12.20    3.00
  -5  -8   1    5.60    2.70
  -5  -8   1    8.90    1.50
   6   7  -2    6.90    2.50
   6   7  -2   15.00    3.60
   6   7  -2    6.90    2.50
  -6  -7   2    7.90    3.00
   7   6  -3    2.90    2.30
   7   6  -3    2.50    2.40
   7   6  -3    6.40    2.50
  -7  -6   3   -0.40    2.50
   8   5  -4    1.40    2.00
  -8  -5   4   -2.50    3.00
   1  11   3   39.90    5.50
   1  11   3   48.40    7.20
   1  11   3   42.50    6.00
  -1 -11  -3   41.60    4.00
  -1 -11  -3   39.40    5.90
  -1 -11  -3   38.20    5.80
   2  10   2    0.60    2.30
   2  10   2    1.00    2.20
   2  10   2    4.00    2.60
  -2 -10  -2   -0.80    1.80
  -2 -10  -2    1.50    1.90
  -2 -10  -2   -1.10    2.20
   3   9   1   28.20    4.20
   3   9   1   23.00    3.50
  -3  -9  -1   26.40    3.90
  -3  -9  -1   22.10    3.70
  -3  -9  -1   23.50    3.30
   4   8   0   18.60    3.50
   4   8   0   13.30    3.50
   4   8   0   17.00    2.90
   4   8   0   15.60    3.30
  -4  -8   0   16.40    3.10
  -4  -8   0   19.80    2.50
  -4  -8   0   15.80    3.20
   5   7  -1    2.20    2.20
   5   7  -1    2.80    0.80
   5   7  -1    1.70    1.90
   5   7  -1    3.60    1.70
   5   7  -1   -0.10    1.60
  -5  -7   1    1.30    1.70
  -5  -7   1    1.50    0.60
  -5  -7   1    2.90    1.70
  -5  -7   1    2.00    0.50
   6   6  -2   23.10    4.00
   6   6  -2   21.30    3.30
   6   6  -2   12.40    3.70
   6   6  -2   18.50    4.00
  -6  -6   2   18.90    3.80
   7   5  -3   -2.70    1.60
   7   5  -3    0.10    1.90
   7   5  -3    1.40    2.00
  -7  -5   3    0.20    2.30
   8   4  -4    9.50    2.80
   8   4  -4    7.00    3.30
  -8  -4   4    9.20    3.20
  -8  -4   4    7.60    3.70
   0  11   4   52.19    5.50
   0  11   4   48.60    6.60
   0 -11  -4   37.40    5.90
   0 -11  -4   51.39    6.90
   1  10   3  146.39    9.20
   1  10   3  128.29    9.30
   1  10   3  144.39    9.10
  -1 -10  -3  130.09    9.10
  -1 -10  -3  137.59    9.10
   2   9   2   73.59    6.10
   2   9   2   73.09    5.50
  -2  -9  -2   66.49    5.10
  -2  -9  -2   85.69    6.10
  -2  -9  -2   71.19    5.70
   3   8   1  103.39    6.50
   3   8   1   96.89    6.80
   3   8   1   96.69    6.80
  -3  -8  -1   99.29    6.60
  -3  -8  -1   99.79    6.60
  -3  -8  -1   96.09    6.50
   4   7   0  166.38    8.10
   4   7   0  153.58    9.10
   4   7   0  150.38    9.30
   4   7   0  151.68    9.00
   4   7   0  145.79    8.90
  -4  -7   0  155.08    8.00
  -4  -7   0  165.98    8.80
  -4  -7   0  162.58    9.40
   5   6  -1    9.10    2.60
   5   6  -1   17.70    3.00
   5   6  -1   12.90    2.90
   5   6  -1   19.20    3.10
  -5  -6   1   10.80    2.90
  -5  -6   1   13.30    2.20
   6   5  -2   26.50    3.80
   6   5  -2   24.90    4.00
  -6  -5   2   36.30    5.00
   7   4  -3    0.20    1.30
   7   4  -3    2.20    2.00
   7   4  -3    0.60    1.70
   7   4  -3   -4.10    2.50
  -7  -4   3   -3.80    1.70
   8   3  -4   -3.60    1.90
  -8  -3   4    0.20    2.70
  -1  11   5   37.00    5.40
  -1  11   5   31.90    5.70
   1 -11  -5   29.00    5.50
   1 -11  -5   41.00    6.10
   0  10   4   94.79    7.60
   0  10   4   97.59    7.20
   0  10   4   96.59    7.00
   0 -10  -4  101.69    5.30
   0 -10  -4   89.29    7.30
   0 -10  -4   97.49    7.70
   1   9   3    8.90    2.80
   1   9   3    8.20    2.50
   1   9   3   12.80    3.30
  -1  -9  -3    5.30    2.40
  -1  -9  -3   17.40    3.50
  -1  -9  -3    9.20    2.00
   2   8   2   88.69    6.50
   2   8   2   91.79    6.40
   2   8   2  100.79    6.40
  -2  -8  -2   99.39    6.60
  -2  -8  -2   97.39    6.40
   3   7   1   12.00    2.50
   3   7   1   16.30    3.00
   3   7   1   19.00    3.10
   3   7   1   12.50    2.60
  -3  -7  -1   13.50    2.40
  -3  -7  -1   14.10    2.70
  -3  -7  -1   11.30    2.10
   4   6   0  345.47   16.10
   4   6   0  364.66   17.60
   4   6   0  328.87   16.90
   4   6   0  347.77   17.10
   4   6   0  353.66   17.20
  -4  -6   0  350.96   16.10
  -4  -6   0  357.76   16.60
  -4  -6   0  371.66   17.70
   5   5  -1   81.09    5.70
   5   5  -1   83.19    5.50
   5   5  -1   90.69    6.20
  -5  -5   1   86.29    4.60
  -5  -5   1   83.09    6.20
   6   4  -2    0.50    1.50
   6   4  -2   -0.10    1.20
   6   4  -2    2.50    2.00
   6   4  -2    5.50    1.90
  -6  -4   2    5.00    2.10
   7   3  -3   11.20    2.80
   7   3  -3   16.80    3.60
   7   3  -3    9.90    2.30
   7   3  -3   11.90    3.00
  -7  -3   3   13.30    3.20
  -7  -3   3   11.60    3.70
   8   2  -4   23.60    4.60
  -8  -2   4   34.90    5.20
  -1  10   5   14.40    3.60
  -1  10   5   19.60    3.60
   1 -10  -5   13.50    3.90
   1 -10  -5   11.80    3.90
   0   9   4    9.50    3.00
   0   9   4   18.90    3.40
   0   9   4   12.30    2.70
   0  -9  -4   11.50    1.70
   0  -9  -4   11.50    3.10
   0  -9  -4   21.30    4.00
   0  -9  -4   11.60    2.20
   1   8   3  179.08    9.70
   1   8   3  167.48   10.10
   1   8   3  180.88   10.10
  -1  -8  -3  179.18    9.20
  -1  -8  -3  175.98   10.30
  -1  -8  -3  170.08   10.00
   2   7   2   34.90    3.40
   2   7   2   35.00    3.40
   2   7   2   38.60    3.20
   2   7   2   38.30    3.60
  -2  -7  -2   29.70    3.30
  -2  -7  -2   28.90    3.10
  -2  -7  -2   39.30    6.20
   3   6   1   15.80    2.70
   3   6   1   21.20    2.90
   3   6   1   17.50    2.70
   3   6   1   19.90    2.60
   3   6   1   18.60    2.40
  -3  -6  -1   16.10    2.20
  -3  -6  -1   20.30    3.00
  -3  -6  -1   21.60    2.80
   4   5   0   38.40    3.20
   4   5   0   44.10    3.70
   4   5   0   41.30    2.50
   4   5   0   39.80    3.30
   4   5   0   37.30    3.20
  -4  -5   0   41.50    2.80
  -4  -5   0   33.80    3.00
  -4  -5   0   44.00    3.80
   5   4  -1   95.59    6.40
   5   4  -1   94.59    6.20
   5   4  -1   97.09    5.70
   5   4  -1   94.79    5.70
  -5  -4   1  106.59    6.70
   6   3  -2    7.20    2.20
   6   3  -2    6.90    1.90
   6   3  -2    6.40    1.70
   6   3  -2    2.70    1.60
  -6  -3   2    4.50    2.30
   7   2  -3   -0.70    1.40
   7   2  -3    1.40    1.90
   7   2  -3    2.60    1.60
   7   2  -3    1.50    1.50
  -7  -2   3    0.90    1.90
  -7  -2   3    2.40    2.10
   8   1  -4    1.00    2.80
  -8  -1   4    3.70    2.50
  -2  10   6   -4.20    1.90
  -2  10   6    5.20    3.00
   2 -10  -6    0.40    2.90
   2 -10  -6   -1.80    2.70
  -1   9   5   12.20    3.30
  -1   9   5    8.10    2.70
  -1   9   5    8.20    2.70
   1  -9  -5    6.60    2.80
   1  -9  -5   10.60    3.00
   0   8   4    1.00    1.40
   0   8   4   -0.90    1.70
   0   8   4   -1.00    1.50
   0  -8  -4    1.60    1.00
   0  -8  -4    3.10    2.00
   0  -8  -4    1.40    1.90
   0  -8  -4    2.50    1.10
   1   7   3   20.50    3.10
   1   7   3   16.20    2.90
  -1  -7  -3   20.10    2.60
  -1  -7  -3   16.60    2.90
  -1  -7  -3   15.90    2.80
  -1  -7  -3   16.80    2.30
   2   6   2  225.78   12.50
   2   6   2  241.58   11.70
   2   6   2  229.88   11.20
   2   6   2  223.48   11.60
  -2  -6  -2  217.78   11.00
  -2  -6  -2  258.67   11.80
  -2  -6  -2  218.58   11.40
  -2  -6  -2  214.28   11.40
   3   5   1  856.31   37.90
   3   5   1  837.42   37.10
   3   5   1  853.11   37.60
  -3  -5  -1  817.72   37.20
  -3  -5  -1  802.22   37.40
  -3  -5  -1  874.81   38.00
  -3  -5  -1  863.41   37.30
   4   4   0  660.03   29.40
   4   4   0  641.64   28.40
   4   4   0  679.43   30.70
   4   4   0  652.63   29.10
  -4  -4   0  595.44   30.50
  -4  -4   0  649.64   28.50
  -4  -4   0  648.24   28.30
  -4  -4   0  670.73   28.40
   5   3  -1   22.90    3.30
   5   3  -1   18.20    2.70
   5   3  -1   19.20    2.30
   5   3  -1   20.70    2.40
  -5  -3   1   15.70    1.30
  -5  -3   1   22.10    3.20
  -5  -3   1   14.80    1.30
   6   2  -2    8.00    1.70
   6   2  -2   16.50    3.10
   6   2  -2   17.00    2.40
   6   2  -2   10.10    2.60
  -6  -2   2    8.50    2.40
  -6  -2   2   16.40    1.80
  -6  -2   2   14.50    1.50
  -6  -2   2   14.50    3.10
   7   1  -3   12.50    2.30
   7   1  -3   16.60    2.90
   7   1  -3   16.10    2.20
   7   1  -3   10.40    2.70
   7   1  -3   16.60    3.50
  -7  -1   3   14.70    3.20
  -7  -1   3   14.50    2.00
  -7  -1   3   11.80    3.20
   8   0  -4    0.90    1.90
   8   0  -4   -3.00    2.40
  -8   0   4    1.30    2.50
  -8   0   4    1.40    2.50
  -8   0   4    2.30    2.10
  -2   9   6   -2.50    1.90
  -2   9   6   -1.90    2.20
   2  -9  -6    2.70    2.90
   2  -9  -6    4.00    2.50
  -1   8   5   18.30    3.60
  -1   8   5   16.20    2.90
   1  -8  -5   16.50    5.30
   1  -8  -5   19.70    3.70
   0   7   4   46.50    4.00
   0   7   4   30.30    3.00
   0   7   4   43.40    3.90
   0  -7  -4   41.70    2.80
   0  -7  -4   41.70    4.00
   0  -7  -4   35.30    3.60
   0  -7  -4   42.20    2.90
   1   6   3   12.70    1.90
   1   6   3    9.50    2.40
   1   6   3    7.90    1.90
  -1  -6  -3   10.40    1.70
  -1  -6  -3   12.40    2.40
  -1  -6  -3   14.20    1.80
  -1  -6  -3   11.50    2.30
  -1  -6  -3    8.80    1.70
   2   5   2   28.50    2.70
   2   5   2   28.80    2.60
   2   5   2   28.70    2.40
   2   5   2   29.20    2.20
  -2  -5  -2   23.80    2.40
  -2  -5  -2   34.20    2.30
  -2  -5  -2   26.40    2.40
  -2  -5  -2   29.60    2.50
  -2  -5  -2   30.40    2.60
   3   4   1    0.40    0.60
   3   4   1    1.10    0.50
   3   4   1    0.60    0.90
   3   4   1   -0.30    0.70
  -3  -4  -1    2.90    1.30
  -3  -4  -1   -0.90    0.50
  -3  -4  -1    0.80    0.70
  -3  -4  -1    0.90    0.60
   4   3   0  148.29    7.80
   4   3   0  140.19    7.20
   4   3   0  150.28    7.30
   4   3   0  146.49    8.00
  -4  -3   0  152.28    8.20
  -4  -3   0  148.59    7.00
  -4  -3   0  148.69    7.10
   5   2  -1  105.79    5.60
   5   2  -1  107.09    5.50
   5   2  -1  107.79    6.60
   5   2  -1  106.59    6.60
   5   2  -1  106.69    5.60
  -5  -2   1  111.19    5.60
  -5  -2   1  111.79    5.60
  -5  -2   1   95.49    6.50
   6   1  -2    0.20    1.50
   6   1  -2    0.40    1.00
   6   1  -2    2.90    1.80
   6   1  -2    0.90    1.10
   6   1  -2    0.40    1.00
  -6  -1   2    1.50    1.10
  -6  -1   2   -0.70    1.40
  -6  -1   2    1.30    0.90
  -6  -1   2   -0.10    1.60
   7   0  -3    1.10    2.00
   7   0  -3    2.80    1.60
   7   0  -3    7.60    2.20
   7   0  -3    4.30    1.60
   7   0  -3    6.80    2.60
  -7   0   3    4.60    2.50
  -7   0   3    7.70    2.40
   8  -1  -4   15.40    3.90
   8  -1  -4   19.50    3.10
   8  -1  -4   12.10    3.60
  -8   1   4   10.00    3.80
  -8   1   4   12.80    3.70
  -8   1   4   16.20    4.30
  -3   9   7    2.50    2.40
  -3   9   7    0.50    2.80
   3  -9  -7   -0.80    2.80
   3  -9  -7    0.00    3.00
  -2   8   6    5.90    2.50
  -2   8   6    7.10    2.50
  -2   8   6    7.50    2.70
   2  -8  -6    8.20    2.90
   2  -8  -6    5.90    2.50
  -1   7   5   18.50    3.20
  -1   7   5   18.90    2.80
  -1   7   5   10.50    3.00
   1  -7  -5    8.30    2.50
   1  -7  -5   13.40    1.30
   1  -7  -5   12.20    1.40
   1  -7  -5   13.20    3.00
   0   6   4   16.50    1.70
   0   6   4   11.30    1.90
   0   6   4   15.40    2.20
   0   6   4   20.50    2.90
   0   6   4   17.80    2.80
   0  -6  -4   17.80    2.80
   0  -6  -4   17.10    1.70
   0  -6  -4   15.90    1.90
   0  -6  -4   20.40    3.00
   0  -6  -4   21.80    2.80
   0  -6  -4   17.90    2.90
   1   5   3    0.00    0.70
   1   5   3    3.60    1.40
   1   5   3    1.10    0.90
   1   5   3    0.50    1.00
   1   5   3    0.40    0.70
  -1  -5  -3   -2.00    1.00
  -1  -5  -3    1.10    0.70
  -1  -5  -3    1.80    0.70
  -1  -5  -3    0.20    0.80
  -1  -5  -3   -0.10    0.70
  -1  -5  -3   -0.70    0.80
   2   4   2 1025.50   44.90
   2   4   2 1029.30   44.80
   2   4   2 1032.70   45.00
   2   4   2 1046.90   44.80
   2   4   2 1060.79   44.30
   2   4   2 1026.80   44.80
  -2  -4  -2  983.40   44.80
  -2  -4  -2 1016.80   44.60
  -2  -4  -2 1016.10   45.00
  -2  -4  -2 1047.40   45.00
  -2  -4  -2  964.40   44.80
  -2  -4  -2 1019.90   44.60
  -2  -4  -2 1018.40   44.30
   3   3   1   54.89    3.80
   3   3   1   63.19    3.30
   3   3   1   59.89    3.80
   3   3   1   54.49    3.20
   3   3   1   56.89    3.90
   3   3   1   57.49    3.20
  -3  -3  -1   55.19    2.60
  -3  -3  -1   54.29    3.30
  -3  -3  -1   53.59    3.20
  -3  -3  -1   56.19    3.90
  -3  -3  -1   57.89    2.90
  -3  -3  -1   59.49    3.40
  -3  -3  -1   54.59    3.80
  -3  -3  -1   58.39    3.70
   4   2   0   23.90    1.60
   4   2   0   24.40    1.60
   4   2   0   21.10    2.30
   4   2   0   27.90    2.40
  -4  -2   0   23.70    2.50
  -4  -2   0   24.40    3.10
  -4  -2   0   22.80    1.80
  -4  -2   0   23.60    1.80
   5   1  -1   24.00    2.60
   5   1  -1   25.10    3.30
   5   1  -1   18.10    1.90
   5   1  -1   18.80    1.60
   5   1  -1   17.60    1.70
  -5  -1   1   20.80    2.00
  -5  -1   1   23.10    3.00
  -5  -1   1   26.90    2.80
  -5  -1   1   18.60    2.00
   6   0  -2   10.30    1.90
   6   0  -2    5.60    1.50
   6   0  -2    7.00    2.30
   6   0  -2    9.10    2.50
   6   0  -2    8.30    2.00
  -6   0   2   11.90    2.70
  -6   0   2    9.40    2.20
   7  -1  -3    5.50    2.40
   7  -1  -3    2.90    2.00
   7  -1  -3    7.70    1.90
   7  -1  -3    6.60    2.20
  -7   1   3    4.50    1.90
  -7   1   3    3.50    2.40
  -7   1   3    2.80    2.20
  -3   8   7   -0.30    2.20
  -3   8   7    3.30    2.20
   3  -8  -7    5.60    3.10
   3  -8  -7    2.10    2.40
  -2   7   6    2.20    2.20
  -2   7   6    6.00    2.00
   2  -7  -6    5.50    2.40
   2  -7  -6    6.60    3.00
  -1   6   5   34.90    2.40
  -1   6   5   38.10    3.20
  -1   6   5   37.00    4.00
  -1   6   5   35.50    3.50
   1  -6  -5   35.50    2.40
   1  -6  -5   30.70    3.30
   1  -6  -5   34.70    3.70
   1  -6  -5   32.70    2.30
   1  -6  -5   38.10    3.70
   0   5   4   -1.00    0.90
   0   5   4    0.90    1.10
   0   5   4    2.10    0.90
   0   5   4   -0.50    1.00
   0   5   4    0.20    1.10
   0   5   4    0.80    0.70
   0  -5  -4    1.00    1.20
   0  -5  -4    0.90    0.80
   0  -5  -4    0.20    1.00
   0  -5  -4    0.40    1.20
   1   4   3   26.50    1.70
   1   4   3   24.70    2.30
   1   4   3   27.70    2.30
   1   4   3   32.50    2.40
   1   4   3   26.60    1.70
   1   4   3   24.50    2.10
   1   4   3   26.30    2.30
  -1  -4  -3   24.70    2.40
  -1  -4  -3   20.90    2.10
  -1  -4  -3   23.40    2.10
  -1  -4  -3   26.00    1.70
  -1  -4  -3   24.60    2.40
  -1  -4  -3   26.40    2.10
   2   3   2   18.00    1.90
   2   3   2   17.40    1.60
   2   3   2   18.20    1.70
   2   3   2   16.40    1.60
   2   3   2   17.20    1.20
   2   3   2   18.80    1.60
  -2  -3  -2   15.50    1.60
  -2  -3  -2   17.50    1.60
  -2  -3  -2   17.20    1.80
  -2  -3  -2   16.10    1.20
  -2  -3  -2   22.50    2.00
  -2  -3  -2   17.70    1.60
   3   2   1 1281.97   56.09
   3   2   1 1265.67   54.89
   3   2   1 1270.67   55.49
   3   2   1 1286.17   55.79
  -3  -2  -1 1281.17   55.49
  -3  -2  -1 1239.78   55.99
  -3  -2  -1 1255.47   55.59
  -3  -2  -1 1296.87   55.59
  -3  -2  -1 1356.06   56.19
   4   1   0   28.40    1.60
   4   1   0   33.00    2.40
   4   1   0   32.60    2.70
   4   1   0   32.00    1.60
   4   1   0   31.70    2.60
  -4  -1   0   33.40    2.80
  -4  -1   0   32.90    2.40
  -4  -1   0   27.10    2.60
  -4  -1   0   31.90    2.70
  -4  -1   0   28.60    2.30
   5   0  -1   42.30    2.60
   5   0  -1   44.30    2.60
   5   0  -1   44.50    3.40
   5   0  -1   55.09    4.10
   5   0  -1   42.90    3.70
  -5   0   1   38.30    3.70
  -5   0   1   40.60    3.30
   6  -1  -2    6.70    2.20
   6  -1  -2    2.60    1.40
   6  -1  -2    3.70    1.30
   6  -1  -2    3.70    1.70
  -6   1   2    4.70    2.00
  -6   1   2    5.70    2.10
  -6   1   2    2.40    1.30
   7  -2  -3   14.40    3.00
   7  -2  -3    9.30    2.30
   7  -2  -3    9.80    2.90
   7  -2  -3    8.50    3.20
  -7   2   3   11.60    3.30
  -7   2   3   11.60    2.10
  -7   2   3    7.60    3.00
  -3   7   7   29.20    4.20
  -3   7   7   32.40    5.10
   3  -7  -7   37.70    5.20
   3  -7  -7   40.40    5.30
  -2   6   6   11.30    2.70
  -2   6   6    8.40    2.20
  -2   6   6   17.80    3.00
   2  -6  -6   12.00    2.70
   2  -6  -6   14.90    3.20
   2  -6  -6   12.10    1.50
   2  -6  -6   11.70    2.80
   2  -6  -6   19.70    3.90
  -1   5   5   90.29    6.20
  -1   5   5   86.29    5.00
  -1   5   5  101.69    6.10
   1  -5  -5   93.89    5.00
   1  -5  -5   95.89    6.30
   1  -5  -5  106.49    5.80
   1  -5  -5  100.69    6.10
   1  -5  -5   90.29    5.90
   0   4   4  170.48    8.50
   0   4   4  162.38    8.10
   0   4   4  176.28    8.50
   0   4   4  161.08    8.00
   0   4   4  161.98    8.00
   0   4   4  166.28    8.60
   0  -4  -4  175.58    9.00
   0  -4  -4  161.78    8.00
   0  -4  -4  156.08    8.40
   0  -4  -4  177.68    8.70
   0  -4  -4  160.08    8.50
   1   3   3  637.44   27.70
   1   3   3  620.24   27.80
   1   3   3  622.94   27.00
   1   3   3  624.94   28.00
   1   3   3  622.44   27.00
   1   3   3  624.04   27.70
   1   3   3  595.14   27.70
  -1  -3  -3  653.93   27.70
  -1  -3  -3  636.54   27.70
  -1  -3  -3  623.64   27.60
  -1  -3  -3  631.84   27.80
  -1  -3  -3  632.84   28.10
   2   2   2  836.22   35.90
   2   2   2  801.42   35.70
   2   2   2  806.62   35.80
   2   2   2  836.32   36.50
   2   2   2  808.92   36.30
  -2  -2  -2  833.52   36.50
  -2  -2  -2  866.31   35.50
  -2  -2  -2  819.52   35.70
  -2  -2  -2  823.62   36.10
  -2  -2  -2  834.22   35.50
  -2  -2  -2  852.41   36.40
   3   1   1    9.60    1.50
   3   1   1    9.10    1.30
   3   1   1   10.70    1.70
   3   1   1    8.80    1.40
  -3  -1  -1    8.20    1.30
  -3  -1  -1    8.50    1.40
  -3  -1  -1    8.50    1.30
  -3  -1  -1   10.30    1.60
  -3  -1  -1    9.50    1.40
  -3  -1  -1    8.70    1.50
   4   0   0    4.10    0.40
   4   0   0    4.70    1.40
   4   0   0    5.80    1.50
   4   0   0    2.30    1.10
  -4   0   0    4.70    1.30
  -4   0   0    3.00    1.20
  -4   0   0    4.90    1.40
  -4   0   0    4.30    1.20
  -4   0   0    5.40    1.30
   5  -1  -1   -0.60    1.00
   5  -1  -1    1.60    0.90
   5  -1  -1    0.40    0.70
   5  -1  -1    2.60    2.00
  -5   1   1    0.90    1.40
  -5   1   1    0.50    1.00
  -5   1   1   -0.50    1.30
  -5   1   1    0.50    0.90
   6  -2  -2   -1.50    1.10
   6  -2  -2    4.60    2.10
   6  -2  -2    1.60    1.40
   6  -2  -2    0.40    1.50
  -6   2   2    1.20    1.70
  -6   2   2    0.60    1.00
   7  -3  -3    3.00    2.30
   7  -3  -3    0.20    2.20
   7  -3  -3    2.40    1.80
  -7   3   3   -0.20    2.10
  -7   3   3    1.20    2.30
  -4   7   8    5.70    2.90
   4  -7  -8   -0.20    2.40
   4  -7  -8    5.20    3.20
  -3   6   7  115.59    8.00
  -3   6   7  132.69    8.70
  -3   6   7  123.29    8.10
   3  -6  -7  124.39    8.30
   3  -6  -7  125.99    6.40
   3  -6  -7  161.08    9.00
   3  -6  -7  131.89   11.50
  -2   5   6  110.09    6.80
  -2   5   6  122.49    7.30
  -2   5   6  112.49    5.90
  -2   5   6  121.69    6.90
   2  -5  -6  126.99    7.50
   2  -5  -6  100.59    5.80
   2  -5  -6  107.29    7.00
   2  -5  -6   97.19    6.60
   2  -5  -6  109.49    7.30
  -1   4   5    0.10    0.70
  -1   4   5    0.00    0.40
  -1   4   5    2.40    0.90
  -1   4   5   -1.00    0.90
  -1   4   5    0.00    1.00
   1  -4  -5   -0.70    1.00
   1  -4  -5    0.10    0.70
   1  -4  -5    1.40    0.90
   1  -4  -5    1.00    1.20
   1  -4  -5   -1.10    0.90
   0   3   4  711.93   29.00
   0   3   4  668.13   29.30
   0   3   4  641.44   29.70
   0   3   4  651.13   29.40
   0   3   4  645.04   29.50
   0   3   4  660.53   29.40
   0   3   4  679.63   29.30
   0  -3  -4  634.64   29.50
   0  -3  -4  672.73   29.10
   0  -3  -4  653.93   29.30
   0  -3  -4  666.33   29.40
   0  -3  -4  661.63   29.80
   1   2   3  359.76   16.10
   1   2   3  352.06   16.20
   1   2   3  356.86   16.50
   1   2   3  339.47   15.90
   1   2   3  378.56   16.40
   1   2   3  357.16   15.50
  -1  -2  -3  371.36   16.10
  -1  -2  -3  359.36   16.30
  -1  -2  -3  363.56   15.90
  -1  -2  -3  366.06   16.50
  -1  -2  -3  349.27   15.40
  -1  -2  -3  364.96   16.10
   2   1   2  325.47   14.50
   2   1   2  328.87   15.00
   2   1   2  321.57   14.10
   2   1   2  311.67   14.40
   2   1   2  324.17   14.10
   2   1   2  329.47   14.90
   2   1   2  321.07   15.00
  -2  -1  -2  327.67   14.90
  -2  -1  -2  329.67   14.40
  -2  -1  -2  335.97   14.90
  -2  -1  -2  323.57   14.90
  -2  -1  -2  320.57   14.40
  -2  -1  -2  327.27   14.50
   3   0   1 1204.58   52.79
   3   0   1 1202.78   52.59
   3   0   1 1180.68   52.69
  -3   0  -1 1188.98   52.59
  -3   0  -1 1187.18   52.69
  -3   0  -1 1230.38   52.69
  -3   0  -1 1210.08   52.59
  -3   0  -1 1250.67   52.79
  -3   0  -1 1170.28   52.49
  -3   0  -1 1249.38   52.69
   4  -1   0  210.28    9.50
   4  -1   0  205.48   10.90
   4  -1   0  215.88   10.30
   4  -1   0  204.28   10.70
   4  -1   0  221.98    9.60
  -4   1   0  203.28   10.20
  -4   1   0  204.38   10.50
  -4   1   0  213.78   11.00
  -4   1   0  217.78   10.80
   5  -2  -1    0.10    1.30
   5  -2  -1    2.00    1.00
   5  -2  -1   -0.10    1.00
   5  -2  -1    1.80    1.50
  -5   2   1   -1.60    1.10
  -5   2   1   -1.80    1.00
  -5   2   1    0.10    0.80
   6  -3  -2   15.50    3.40
   6  -3  -2   14.20    2.60
   6  -3  -2   17.60    2.70
   6  -3  -2   13.90    3.10
  -6   3   2   13.40    1.70
  -6   3   2   15.90    3.60
  -6   3   2   15.60    3.40
   7  -4  -3    0.90    2.80
   7  -4  -3   -2.00    1.80
  -7   4   3    1.90    2.40
  -4   6   8   53.89    5.70
  -4   6   8   71.49    6.00
   4  -6  -8   56.29    5.70
   4  -6  -8   56.49    5.60
   4  -6  -8   56.09    5.70
  -3   5   7   35.30    2.80
  -3   5   7   41.10    3.90
  -3   5   7   37.30    3.90
  -3   5   7   42.60    4.20
   3  -5  -7   37.30    4.00
   3  -5  -7   36.60    3.70
   3  -5  -7   34.20    3.80
   3  -5  -7   33.00    4.80
   3  -5  -7   37.90    3.20
  -2   4   6   38.40    2.80
  -2   4   6   40.30    3.30
  -2   4   6   36.40    3.40
  -2   4   6   37.90    3.40
   2  -4  -6   34.90    2.80
   2  -4  -6   33.10    3.70
   2  -4  -6   42.30    3.90
   2  -4  -6   37.50    4.00
  -1   3   5  159.38    7.90
  -1   3   5  152.68    8.10
  -1   3   5  161.88    8.00
  -1   3   5  158.78    8.50
   1  -3  -5  151.98    7.90
   1  -3  -5  161.88    8.30
   1  -3  -5  163.28    9.70
   1  -3  -5  151.58    8.30
   1  -3  -5  154.08    8.50
   0   2   4  223.28   10.30
   0   2   4  218.18   10.10
   0   2   4  215.38   10.50
   0   2   4  212.78   12.40
   0   2   4  215.08   10.60
   0   2   4  220.48   10.60
   0  -2  -4  221.48   10.50
   0  -2  -4  220.98   10.50
   0  -2  -4  223.98   10.10
   0  -2  -4  228.88   10.80
   0  -2  -4  242.88   10.70
   0  -2  -4  214.18   10.20
   1   1   3  679.03   30.60
   1   1   3  689.53   31.00
   1   1   3  718.23   31.00
   1   1   3  703.13   30.10
   1   1   3  699.13   30.30
  -1  -1  -3  767.02   31.10
  -1  -1  -3  700.93   30.50
  -1  -1  -3  699.93   30.30
  -1  -1  -3  683.53   31.00
  -1  -1  -3  698.53   30.50
  -1  -1  -3  677.03   30.90
  -1  -1  -3  699.53   30.10
   2   0   2  272.27   11.90
   2   0   2  275.77   12.10
   2   0   2  269.97   12.60
   2   0   2  276.97   11.90
   2   0   2  272.07   12.40
   2   0   2  263.97   12.70
  -2   0  -2  264.57   12.70
  -2   0  -2  268.97   12.40
  -2   0  -2  274.47   12.10
  -2   0  -2  277.07   12.60
  -2   0  -2  267.57   12.40
  -2   0  -2  273.87   12.10
  -2   0  -2  265.67   12.80
   3  -1   1  349.47   16.40
   3  -1   1  358.36   15.60
   3  -1   1  365.96   16.30
   3  -1   1  350.56   16.70
   3  -1   1  355.26   15.60
   3  -1   1  376.96   17.00
  -3   1  -1  370.56   16.70
  -3   1  -1  339.97   16.60
  -3   1  -1  352.96   16.90
  -3   1  -1  352.26   16.40
  -3   1  -1  352.76   16.20
  -3   1  -1  359.06   16.40
   4  -2   0   13.70    2.50
   4  -2   0   12.90    1.40
   4  -2   0   13.70    1.40
   4  -2   0   12.20    2.30
   4  -2   0   12.90    1.70
  -4   2   0   16.00    2.50
  -4   2   0   12.60    1.70
  -4   2   0   13.70    1.80
   5  -3  -1   18.60    2.50
   5  -3  -1   18.70    3.30
   5  -3  -1   20.70    3.30
   5  -3  -1   23.80    2.80
  -5   3   1   16.20    1.60
  -5   3   1   26.90    3.70
  -5   3   1   18.50    3.30
  -5   3   1   15.40    1.60
   6  -4  -2    1.60    1.70
   6  -4  -2    4.40    2.50
   6  -4  -2    0.00    1.90
  -6   4   2   -0.70    1.70
  -6   4   2    0.50    1.90
  -4   5   8    3.50    2.50
  -4   5   8    4.40    2.30
  -4   5   8    0.70    1.20
   4  -5  -8   -1.50    1.60
   4  -5  -8    3.60    2.50
   4  -5  -8    3.10    2.20
  -3   4   7   15.40    2.80
  -3   4   7   12.50    2.80
  -3   4   7   14.40    3.00
  -3   4   7   12.20    2.10
   3  -4  -7   13.90    2.80
   3  -4  -7   21.80    3.50
   3  -4  -7   15.40    3.30
   3  -4  -7   10.80    2.60
  -2   3   6    9.10    1.70
  -2   3   6    6.70    1.80
  -2   3   6    9.20    2.10
   2  -3  -6    8.20    2.00
   2  -3  -6    9.20    2.10
   2  -3  -6    8.80    2.10
   2  -3  -6    7.90    1.80
   2  -3  -6    9.80    2.20
  -1   2   5  149.88    7.80
  -1   2   5  154.88    7.60
  -1   2   5  142.59    7.50
  -1   2   5  141.39    8.20
  -1   2   5  139.69    7.70
  -1   2   5  143.99    7.50
  -1   2   5  150.18    7.70
   1  -2  -5  150.88    7.80
   1  -2  -5  149.29    7.90
   1  -2  -5  142.89    7.50
   1  -2  -5  167.58    7.70
   1  -2  -5  153.78    7.90
   1  -2  -5  149.49    7.70
   0   1   4    3.40    1.00
   0   1   4    7.80    1.10
   0   1   4    5.50    0.80
   0   1   4    9.00    1.50
   0   1   4    9.10    1.60
   0   1   4    5.40    0.80
   0   1   4    8.70    1.50
   0  -1  -4    5.30    0.90
   0  -1  -4    5.00    1.20
   0  -1  -4    5.30    0.80
   0  -1  -4    3.90    1.10
   0  -1  -4    6.40    1.30
   1   0   3  289.37   13.20
   1   0   3  300.97   13.20
   1   0   3  290.27   13.50
   1   0   3  294.47   13.50
   1   0   3  286.17   13.60
  -1   0  -3  296.57   13.60
  -1   0  -3  279.57   13.50
  -1   0  -3  286.67   13.00
  -1   0  -3  285.07   13.50
  -1   0  -3  291.07   13.10
   2  -1   2   51.29    2.80
   2  -1   2   48.30    2.70
   2  -1   2   49.20    3.20
   2  -1   2   48.10    3.40
   2  -1   2   50.49    2.80
   2  -1   2   40.50    2.90
  -2   1  -2   49.00    3.00
  -2   1  -2   46.50    2.70
  -2   1  -2   52.19    3.40
  -2   1  -2   55.49    3.10
  -2   1  -2   46.10    3.10
  -2   1  -2   44.50    3.40
   3  -2   1  582.74   25.30
   3  -2   1  552.64   24.00
   3  -2   1  521.95   24.20
   3  -2   1  509.25   24.40
  -3   2  -1  508.45   24.50
  -3   2  -1  538.15   24.10
  -3   2  -1  569.74   24.70
  -3   2  -1  569.94   25.00
   4  -3   0   63.49    3.70
   4  -3   0   53.09    3.60
   4  -3   0   55.09    3.20
   4  -3   0   63.99    4.80
  -4   3   0   54.79    4.40
  -4   3   0   50.59    3.20
  -4   3   0   49.99    4.10
  -4   3   0   51.59    3.10
   5  -4  -1    3.60    2.00
   5  -4  -1    0.30    1.50
   5  -4  -1    3.30    2.20
  -5   4   1    0.90    1.50
  -5   4   1    2.80    1.70
   6  -5  -2    0.60    1.90
   6  -5  -2    0.60    2.40
  -6   5   2    2.50    2.60
  -6   5   2    1.70    2.50
  -4   4   8    2.90    2.10
  -4   4   8   -1.10    1.60
  -4   4   8    2.20    1.30
   4  -4  -8    2.10    1.80
   4  -4  -8   -3.20    1.60
   4  -4  -8    1.80    1.90
  -3   3   7    3.40    1.60
  -3   3   7    5.20    1.90
  -3   3   7    1.70    1.90
   3  -3  -7   -0.70    1.40
   3  -3  -7    4.50    1.80
   3  -3  -7    1.30    2.00
   3  -3  -7    2.30    1.30
  -2   2   6   98.59    6.00
  -2   2   6  110.09    5.90
  -2   2   6   98.19    5.80
   2  -2  -6   97.09    6.00
   2  -2  -6   90.59    5.80
   2  -2  -6   99.59    6.10
   2  -2  -6   91.99    5.90
  -1   1   5   10.90    1.90
  -1   1   5    6.30    1.30
  -1   1   5    8.40    1.30
  -1   1   5    8.30    1.50
  -1   1   5    8.50    1.70
  -1   1   5    8.70    1.70
  -1   1   5    9.60    1.60
   1  -1  -5    6.60    1.40
   1  -1  -5    5.00    1.40
   1  -1  -5   10.50    1.90
   1  -1  -5    7.60    1.40
   1  -1  -5    8.40    1.80
   0   0   4   55.59    3.50
   0   0   4   59.69    2.90
   0   0   4   62.19    3.60
   0   0   4   53.19    2.80
   0   0   4   56.69    3.60
   0   0   4   54.49    3.70
   0   0   4   55.69    3.50
   0   0  -4   58.79    3.70
   0   0  -4   57.89    3.50
   0   0  -4   56.79    3.60
   0   0  -4   58.69    3.50
   0   0  -4   58.69    3.40
   0   0  -4   56.59    3.80
   1  -1   3  291.47   13.20
   1  -1   3  283.27   13.00
   1  -1   3  265.67   13.20
   1  -1   3  283.87   13.00
  -1   1  -3  291.57   13.10
  -1   1  -3  284.47   13.20
  -1   1  -3  272.87   12.70
  -1   1  -3  268.97   12.80
  -1   1  -3  269.97   12.20
  -1   1  -3  284.27   13.30
   2  -2   2   82.39    4.40
   2  -2   2   80.49    4.60
   2  -2   2   78.99    4.90
   2  -2   2   84.69    4.60
   2  -2   2   89.09    5.20
   2  -2   2   87.29    4.50
  -2   2  -2   82.09    4.00
  -2   2  -2   85.99    5.00
  -2   2  -2   82.59    4.60
  -2   2  -2   81.59    4.40
  -2   2  -2   78.89    3.90
   3  -3   1   95.09    6.10
   3  -3   1   92.49    5.20
   3  -3   1   88.79    4.90
   3  -3   1   88.49    5.10
  -3   3  -1   96.09    4.90
  -3   3  -1   96.39    6.00
  -3   3  -1   91.89    5.50
   4  -4   0  142.69    9.10
   4  -4   0  158.08    8.20
  -4   4   0  149.09    8.70
  -4   4   0  161.08    9.30
  -4   4   0  147.89    7.10
  -4   4   0  149.09    7.10
   5  -5  -1   11.10    3.30
   5  -5  -1   13.00    3.40
   5  -5  -1   13.20    2.70
  -5   5   1    9.90    2.90
  -5   5   1   14.10    3.10
   6  -6  -2    3.10    3.20
   6  -6  -2    7.00    2.90
  -6   6   2    7.00    3.40
  -6   6   2    6.80    3.20
  -5   4   9    8.20    3.20
  -5   4   9    7.20    2.60
  -5   4   9    4.90    2.70
   5  -4  -9    6.90    3.00
   5  -4  -9    5.50    3.10
   5  -4  -9   11.00    3.70
  -4   3   8   -2.20    1.70
  -4   3   8    1.50    1.40
   4  -3  -8    1.80    2.30
   4  -3  -8    5.00    2.10
   4  -3  -8    1.40    1.80
  -3   2   7   28.10    3.10
  -3   2   7   24.80    2.80
  -3   2   7   27.40    3.60
   3  -2  -7   32.90    4.00
   3  -2  -7   27.50    3.70
   3  -2  -7   23.50    3.80
   3  -2  -7   33.20    4.50
  -2   1   6    3.10    1.20
  -2   1   6    5.40    1.60
  -2   1   6    0.70    1.00
  -2   1   6    6.00    1.70
   2  -1  -6    4.10    1.30
   2  -1  -6    2.80    1.40
   2  -1  -6    3.40    1.30
  -1   0   5   10.90    1.40
  -1   0   5    8.10    1.30
  -1   0   5    4.10    1.30
  -1   0   5    8.60    1.90
  -1   0   5    7.60    1.60
  -1   0   5    7.40    1.70
  -1   0   5    5.90    1.50
   1   0  -5   10.30    1.80
   1   0  -5    6.40    1.30
   1   0  -5    6.90    1.20
   1   0  -5    7.00    1.80
   1   0  -5    3.70    1.00
   0  -1   4    3.30    1.10
   0  -1   4    3.00    1.20
   0  -1   4    4.00    1.30
   0  -1   4    1.30    1.00
   0  -1   4    3.10    0.60
   0   1  -4    1.90    1.00
   0   1  -4    2.00    1.10
   0   1  -4    1.70    0.90
   0   1  -4    2.20    1.10
   0   1  -4    2.70    0.60
   0   1  -4    3.80    1.20
   0   1  -4    2.90    1.10
   1  -2   3  135.49    7.20
   1  -2   3  124.79    6.90
   1  -2   3  138.29    6.90
   1  -2   3  136.29    7.00
   1  -2   3  135.79    7.00
   1  -2   3  128.09    6.30
  -1   2  -3  130.29    6.30
  -1   2  -3  137.59    7.00
  -1   2  -3  121.99    7.10
  -1   2  -3  142.39    6.70
  -1   2  -3  132.39    7.20
   2  -3   2  192.68    9.90
   2  -3   2  184.48    9.10
   2  -3   2  179.38    9.20
   2  -3   2  199.18    9.20
   2  -3   2  186.48    9.00
  -2   3  -2  181.38    9.10
  -2   3  -2  175.18    9.70
  -2   3  -2  174.38    8.60
   3  -4   1  261.77   12.10
   3  -4   1  239.48   12.10
   3  -4   1  240.98   13.00
   3  -4   1  240.58   11.40
  -3   4  -1  224.48   11.30
  -3   4  -1  263.77   13.00
   4  -5   0    0.80    1.90
   4  -5   0    5.40    2.40
   4  -5   0    1.40    1.60
  -4   5   0    4.00    1.90
  -4   5   0    1.20    1.70
   5  -6  -1   12.90    3.10
   5  -6  -1   13.50    3.60
  -5   6   1    3.60    2.50
  -5   6   1   10.40    3.10
  -5   3   9    2.20    2.60
  -5   3   9    6.00    2.40
   5  -3  -9    4.40    2.50
   5  -3  -9    3.70    2.60
   5  -3  -9    3.30    2.30
  -4   2   8    8.40    2.70
  -4   2   8   13.20    2.70
  -4   2   8   17.70    3.20
   4  -2  -8    8.60    3.80
   4  -2  -8   11.90    2.50
   4  -2  -8   11.90    2.90
  -3   1   7    1.40    1.50
  -3   1   7    1.20    1.40
  -3   1   7    2.90    1.60
   3  -1  -7    4.50    2.20
   3  -1  -7    0.90    1.30
   3  -1  -7    3.70    1.80
   3  -1  -7    3.10    1.80
  -2   0   6   40.80    3.50
  -2   0   6   38.50    2.90
  -2   0   6   39.10    3.60
   2   0  -6   36.80    3.40
   2   0  -6   41.10    3.00
   2   0  -6   41.80    3.40
   2   0  -6   39.30    3.00
   2   0  -6   36.50    3.50
  -1  -1   5    1.70    0.80
  -1  -1   5   -0.30    0.90
  -1  -1   5    1.20    1.10
  -1  -1   5    2.40    0.90
  -1  -1   5    1.60    1.20
   1   1  -5    0.80    0.90
   1   1  -5    0.80    0.80
   1   1  -5    1.10    1.00
   1   1  -5    1.20    1.00
   1   1  -5    0.60    1.20
   0  -2   4    1.10    1.00
   0  -2   4    0.70    0.90
   0  -2   4    1.70    1.10
   0  -2   4    0.20    1.00
   0  -2   4    1.30    0.60
   0   2  -4    0.70    0.80
   0   2  -4    1.40    0.60
   0   2  -4    1.30    0.90
   0   2  -4    0.60    1.00
   0   2  -4    2.20    1.10
   1  -3   3    1.50    1.20
   1  -3   3    2.70    1.20
   1  -3   3    2.80    1.20
   1  -3   3    3.20    1.20
   1  -3   3    1.70    0.70
  -1   3  -3    2.50    0.80
  -1   3  -3    3.60    1.40
  -1   3  -3    2.00    1.00
  -1   3  -3    2.50    1.30
   2  -4   2  121.69    6.30
   2  -4   2  121.99    7.30
   2  -4   2  106.29    6.60
  -2   4  -2  116.49    6.00
  -2   4  -2  110.09    6.10
  -2   4  -2  117.29    6.50
  -2   4  -2  118.39    7.20
   3  -5   1   21.50    3.60
   3  -5   1   21.90    4.70
   3  -5   1   18.20    3.10
   3  -5   1   21.60    1.90
  -3   5  -1   19.80    3.30
  -3   5  -1   16.10    2.90
  -3   5  -1   18.00    1.80
   4  -6   0    7.90    3.30
   4  -6   0    7.90    2.80
   4  -6   0   14.50    3.10
  -4   6   0    6.10    2.60
  -4   6   0   12.60    3.10
  -5   7   1   36.40    5.90
  -5   7   1   31.20    5.10
  -5   2   9    1.60    2.40
   5  -2  -9    0.40    2.20
   5  -2  -9    2.60    2.30
   5  -2  -9    0.00    2.20
  -4   1   8   46.80    4.10
  -4   1   8   30.50    4.40
  -4   1   8   42.50    4.30
   4  -1  -8   37.20    3.60
   4  -1  -8   38.40    4.10
  -3   0   7   70.99    4.50
  -3   0   7   77.09    5.40
  -3   0   7   71.39    5.40
  -3   0   7   81.79    5.20
   3   0  -7   62.89    5.20
   3   0  -7   75.39    4.70
   3   0  -7   75.79    5.10
   3   0  -7   71.79    5.30
   3   0  -7   70.69    6.00
  -2  -1   6    2.80    1.70
  -2  -1   6    0.80    0.90
  -2  -1   6    3.10    1.60
  -2  -1   6    3.30    1.10
   2   1  -6    0.20    0.70
   2   1  -6    1.70    1.10
   2   1  -6   -1.10    1.40
   2   1  -6   -0.10    1.10
   2   1  -6    1.50    1.40
   2   1  -6    0.60    0.80
  -1  -2   5    3.30    1.00
  -1  -2   5    4.90    1.60
  -1  -2   5    2.70    1.50
  -1  -2   5    1.00    1.20
   1   2  -5    2.20    0.80
   1   2  -5    2.70    1.30
   1   2  -5    2.30    1.00
   1   2  -5    0.30    1.10
   1   2  -5    2.40    1.00
   0  -3   4    5.60    1.70
   0  -3   4    7.80    1.20
   0  -3   4    4.90    1.60
   0  -3   4    4.00    1.50
   0  -3   4    4.50    1.40
   0   3  -4    3.80    1.00
   0   3  -4    3.40    1.30
   0   3  -4    4.30    1.90
   0   3  -4    4.60    1.40
   1  -4   3  196.78    9.60
   1  -4   3  194.58    9.80
   1  -4   3  171.58    9.30
   1  -4   3  173.98    9.70
   1  -4   3  180.88    9.00
  -1   4  -3  182.48    9.20
  -1   4  -3  177.68   10.00
  -1   4  -3  169.88    9.00
   2  -5   2   14.80    2.90
   2  -5   2   19.60    3.10
   2  -5   2   21.10    2.50
   2  -5   2   17.20    3.30
  -2   5  -2   15.70    3.00
  -2   5  -2   20.40    2.40
  -2   5  -2   19.40    2.10
   3  -6   1   94.49    6.60
   3  -6   1   87.99    6.90
   3  -6   1   99.29    7.20
   3  -6   1   97.09    5.00
  -3   6  -1   93.09    7.00
  -3   6  -1   82.59    4.90
  -3   6  -1  102.19    6.50
   4  -7   0    5.70    3.10
   4  -7   0    2.70    2.30
  -4   7   0    6.20    2.80
  -4   7   0    2.50    2.50
  -5   1   9    3.70    2.20
  -5   1   9    0.40    1.80
   5  -1  -9    0.70    2.20
   5  -1  -9   -0.20    2.20
   5  -1  -9    2.80    2.50
  -4   0   8    3.90    2.30
  -4   0   8    6.80    2.60
  -4   0   8    7.60    2.20
   4   0  -8    3.30    2.00
   4   0  -8    7.40    1.80
   4   0  -8    6.80    2.40
  -3  -1   7   24.00    3.80
  -3  -1   7   20.60    2.30
  -3  -1   7   13.00    2.30
   3   1  -7   17.70    2.20
   3   1  -7   11.40    2.20
   3   1  -7   11.40    2.80
   3   1  -7   18.90    2.30
   3   1  -7   13.60    2.80
  -2  -2   6  109.29    7.10
  -2  -2   6  113.99    6.80
   2   2  -6  102.09    6.10
   2   2  -6  115.29    7.00
   2   2  -6  112.19    6.00
   2   2  -6  107.99    6.70
   2   2  -6  106.69    5.90
  -1  -3   5    5.40    1.30
  -1  -3   5    3.70    1.30
  -1  -3   5    4.30    1.80
  -1  -3   5    2.10    1.60
   1   3  -5    4.20    1.30
   1   3  -5    5.50    1.60
   1   3  -5    7.50    2.00
   1   3  -5    3.90    1.10
   1   3  -5    4.70    1.40
   0  -4   4    2.60    1.50
   0  -4   4    0.00    1.20
   0  -4   4    1.60    1.40
   0  -4   4    1.00    0.90
   0  -4   4   -0.10    1.40
   0   4  -4   -0.90    1.30
   0   4  -4    2.90    1.40
   0   4  -4   -0.20    1.10
   0   4  -4    2.40    1.00
   1  -5   3   76.19    5.40
   1  -5   3   79.99    5.60
   1  -5   3   85.39    5.80
  -1   5  -3   84.09    5.20
  -1   5  -3   76.39    5.00
  -1   5  -3   75.79    5.90
   2  -6   2  266.17   13.60
   2  -6   2  261.17   13.70
   2  -6   2  281.57   14.30
   2  -6   2  248.18   12.50
  -2   6  -2  258.27   13.30
  -2   6  -2  237.48   12.50
  -2   6  -2  256.67   14.20
   3  -7   1    0.80    1.10
   3  -7   1    1.00    2.00
   3  -7   1    1.10    2.10
  -3   7  -1    1.10    2.10
  -3   7  -1    3.00    2.20
   4  -8   0   10.30    3.60
  -4   8   0   10.30    3.90
  -4   8   0   15.50    3.90
  -5   0   9   -1.00    2.20
  -5   0   9    0.50    1.90
   5   0  -9   -0.70    2.20
   5   0  -9    1.40    2.20
  -4  -1   8   28.50    4.30
  -4  -1   8   17.40    3.10
  -4  -1   8   18.00    3.40
   4   1  -8   20.20    3.60
   4   1  -8   21.60    3.40
   4   1  -8   18.60    3.40
   4   1  -8   20.60    2.20
  -3  -2   7    2.30    1.10
  -3  -2   7    7.80    2.50
  -3  -2   7    7.60    2.30
   3   2  -7    3.80    1.90
   3   2  -7    8.40    2.00
   3   2  -7    7.20    1.40
   3   2  -7    7.20    2.50
  -2  -3   6   27.60    3.80
  -2  -3   6   41.30    4.90
   2   3  -6   27.00    2.50
   2   3  -6   20.80    2.80
   2   3  -6   24.90    2.50
   2   3  -6   24.40    3.60
   2   3  -6   32.20    4.20
  -1  -4   5   19.30    3.20
  -1  -4   5   18.30    2.60
  -1  -4   5   24.10    3.60
   1   4  -5   17.70    2.50
   1   4  -5   20.70    2.50
   1   4  -5   19.10    3.00
   1   4  -5   17.70    3.10
   0  -5   4   88.69    6.20
   0  -5   4  100.19    6.40
   0  -5   4  109.79    6.60
   0  -5   4  100.29    6.70
   0   5  -4   92.29    6.90
   0   5  -4   95.99    5.80
   0   5  -4  103.19    6.30
   1  -6   3  161.98    9.00
   1  -6   3  136.49    8.10
   1  -6   3  140.59    8.70
   1  -6   3  137.59    8.70
  -1   6  -3  142.19    8.10
  -1   6  -3  137.49    8.10
  -1   6  -3  143.89    9.30
   2  -7   2  110.69    7.40
   2  -7   2  106.29    7.60
   2  -7   2  101.39    6.10
  -2   7  -2  101.39    7.70
  -2   7  -2  106.79    7.00
   3  -8   1   25.70    4.90
   3  -8   1   27.20    5.10
  -3   8  -1   34.60    4.80
  -3   8  -1   29.60    5.10
  -5  -1   9   15.50    3.30
  -5  -1   9   13.10    3.60
   5   1  -9   19.60    4.10
   5   1  -9   14.70    3.80
  -4  -2   8    0.70    1.90
  -4  -2   8    3.40    2.10
  -4  -2   8    3.10    1.80
   4   2  -8    0.20    1.00
   4   2  -8   -3.50    1.60
   4   2  -8    0.50    2.20
   4   2  -8   -0.20    1.40
  -3  -3   7   34.60    3.90
  -3  -3   7   44.50    6.50
  -3  -3   7   37.80    3.50
   3   3  -7   35.50    4.80
   3   3  -7   45.70    4.30
   3   3  -7   38.20    2.90
   3   3  -7   43.80    3.70
  -2  -4   6  136.89    8.30
  -2  -4   6  131.29    8.50
   2   4  -6  122.69    7.90
   2   4  -6  131.59    7.20
   2   4  -6  122.29    8.20
  -1  -5   5    7.10    1.90
  -1  -5   5    8.40    2.50
  -1  -5   5   13.00    2.90
   1   5  -5    7.90    2.50
   1   5  -5    9.40    2.10
   1   5  -5    8.10    2.30
   1   5  -5   11.20    2.30
   0  -6   4   -2.00    1.80
   0  -6   4    2.40    1.70
   0  -6   4   -0.20    1.70
   0   6  -4    3.00    2.50
   0   6  -4    2.00    1.50
   0   6  -4    2.00    1.70
   1  -7   3   11.90    2.50
   1  -7   3   14.40    4.20
   1  -7   3   13.90    4.50
   1  -7   3   10.10    2.90
  -1   7  -3    7.50    3.00
  -1   7  -3   11.50    2.60
   2  -8   2   13.80    3.60
  -2   8  -2   14.00    3.80
  -5  -2   9   15.00    3.50
  -5  -2   9   21.30    4.50
   5   2  -9   15.90    4.10
   5   2  -9   18.80    3.60
   5   2  -9   15.60    4.00
  -4  -3   8   40.40    5.80
  -4  -3   8   22.60    3.80
   4   3  -8   35.30    3.80
   4   3  -8   36.90    5.20
   4   3  -8   36.50    5.20
  -3  -4   7    4.30    2.10
  -3  -4   7    1.50    2.10
   3   4  -7    2.50    1.40
   3   4  -7    2.20    1.90
   3   4  -7    1.20    1.10
   3   4  -7    0.70    1.70
  -2  -5   6    9.10    2.90
  -2  -5   6    9.40    2.70
   2   5  -6   11.30    2.30
   2   5  -6   14.90    2.40
   2   5  -6   10.80    2.80
   2   5  -6    8.20    2.60
  -1  -6   5   24.10    4.00
  -1  -6   5   23.50    3.40
  -1  -6   5   27.30    4.10
   1   6  -5   16.60    3.20
   1   6  -5   20.80    3.30
   1   6  -5   20.40    3.00
   1   6  -5   20.50    3.80
   0  -7   4    2.10    1.90
   0  -7   4    7.80    2.40
   0  -7   4    2.80    2.60
   0   7  -4    4.00    2.60
   0   7  -4    6.10    2.00
   0   7  -4    5.90    2.00
   1  -8   3   30.10    4.70
   1  -8   3   28.30    3.90
   1  -8   3   29.50    4.90
  -1   8  -3   24.90    5.00
  -1   8  -3   38.40    4.10
   2  -9   2   16.60    4.50
  -2   9  -2   15.40    3.60
  -2   9  -2   20.70    4.90
  -5  -3   9   -0.10    2.70
   5   3  -9   -5.50    2.00
  -4  -4   8   18.20    4.20
  -4  -4   8    4.50    2.00
   4   4  -8   17.90    4.00
   4   4  -8    7.90    2.60
   4   4  -8    8.80    3.10
  -3  -5   7    7.80    3.30
  -3  -5   7    6.20    2.70
   3   5  -7    7.60    1.80
   3   5  -7    6.70    2.70
   3   5  -7    4.40    2.10
   3   5  -7   11.10    3.00
  -2  -6   6    0.30    1.90
  -2  -6   6    0.10    2.00
   2   6  -6    1.20    1.50
   2   6  -6    1.20    2.20
   2   6  -6   -0.30    1.80
   2   6  -6    1.30    1.50
  -1  -7   5    5.10    2.80
  -1  -7   5    9.70    2.50
  -1  -7   5    8.50    3.00
   1   7  -5   12.00    3.20
   1   7  -5    2.70    2.30
   1   7  -5    6.30    2.40
   1   7  -5   12.10    2.60
   0  -8   4    1.50    2.00
   0   8  -4    7.50    2.30
   0   8  -4    3.50    2.80
   1  -9   3    1.90    3.10
   1  -9   3   -2.30    2.50
   1  -9   3   -3.60    2.40
  -1   9  -3   -1.40    2.70
  -1   9  -3    0.70    2.40
  -4  -5   8    1.20    3.00
  -4  -5   8    0.80    2.10
   4   5  -8    0.00    2.00
   4   5  -8   -1.00    2.50
  -3  -6   7    1.10    2.40
  -3  -6   7    1.10    2.50
   3   6  -7    1.90    2.70
   3   6  -7    0.20    1.70
   3   6  -7   -1.90    2.10
   3   6  -7   -1.30    2.30
  -2  -7   6   -3.00    2.10
  -2  -7   6    3.00    1.70
  -2  -7   6    1.40    2.50
   2   7  -6    3.60    2.10
   2   7  -6   -1.80    2.30
   2   7  -6   -1.50    2.10
   2   7  -6    2.90    2.00
  -1  -8   5   10.20    4.30
  -1  -8   5    2.80    2.60
  -1  -8   5   -1.20    2.70
   1   8  -5    3.20    2.10
   1   8  -5    2.00    2.50
   1   8  -5    1.90    2.80
   0  -9   4    7.30    2.80
   0  -9   4    4.20    3.10
   0  -9   4    3.50    3.00
   0   9  -4    8.00    2.90
   0   9  -4    7.10    3.40
  -3  -7   7   19.80    4.80
   3   7  -7   23.60    4.70
   3   7  -7   28.00    4.40
  -2  -8   6   -1.50    2.80
  -2  -8   6    6.70    2.50
  -2  -8   6    7.90    3.70
   2   8  -6    3.00    3.20
   2   8  -6    6.60    3.00
   5  11   0   -1.90    2.30
   5  11   0   -1.60    2.90
  -5 -11   0   -0.40    2.60
   6  10  -1    4.30    2.80
   6  10  -1    1.10    2.60
   6  10  -1    6.20    3.50
  -6 -10   1    3.80    3.30
   3  12   2    5.60    3.20
  -3 -12  -2   -1.30    2.80
   4  11   1    1.40    2.30
   4  11   1    5.20    3.00
  -4 -11  -1   -2.00    1.70
  -4 -11  -1    1.60    2.50
   5  10   0   10.70    3.40
   5  10   0   14.20    3.50
   5  10   0   17.70    3.50
  -5 -10   0    8.80    3.40
   6   9  -1    9.30    2.80
   6   9  -1   -0.30    2.40
   6   9  -1    4.70    2.90
  -6  -9   1    2.60    3.00
   7   8  -2   15.20    3.70
   7   8  -2   26.70    4.50
   2  12   3   11.00    3.90
   2  12   3    5.90    3.20
  -2 -12  -3   14.30    3.80
  -2 -12  -3    9.60    3.20
   3  11   2    1.20    2.60
   3  11   2   -0.50    2.10
   3  11   2   -2.50    2.10
  -3 -11  -2    1.70    2.20
   4  10   1    8.40    3.00
   4  10   1    1.00    2.30
   4  10   1    6.80    2.40
  -4 -10  -1   10.80    2.60
  -4 -10  -1    5.00    2.70
   5   9   0    2.00    2.30
   5   9   0    9.90    3.00
   5   9   0    3.10    2.30
  -5  -9   0    8.70    3.10
  -5  -9   0    5.40    1.50
   6   8  -1   24.40    4.10
   6   8  -1   18.10    3.90
   6   8  -1   19.30    3.60
  -6  -8   1   19.80    4.20
   7   7  -2    0.60    2.00
   7   7  -2   -0.50    2.10
   7   7  -2    3.90    2.20
  -7  -7   2    5.20    2.80
   8   6  -3    7.50    3.10
   8   6  -3   11.80    5.40
  -8  -6   3    9.90    3.50
   2  11   3    2.80    2.80
   2  11   3   15.70    3.60
   2  11   3    2.90    3.10
  -2 -11  -3   14.60    3.10
  -2 -11  -3   12.70    3.30
  -2 -11  -3   15.20    3.90
   3  10   2    2.20    2.20
   3  10   2    7.20    2.60
   3  10   2   -0.50    1.60
  -3 -10  -2    9.30    2.60
  -3 -10  -2    7.40    2.40
  -3 -10  -2    0.40    2.00
   4   9   1   12.40    3.00
   4   9   1    5.40    1.90
   4   9   1    2.70    2.30
  -4  -9  -1    4.80    2.40
  -4  -9  -1    7.00    1.90
  -4  -9  -1    9.60    3.00
   5   8   0   11.10    2.00
   5   8   0   10.90    2.90
   5   8   0   19.00    3.30
   5   8   0   13.30    3.10
   5   8   0   11.50    3.40
  -5  -8   0   11.40    2.80
  -5  -8   0   14.00    3.40
  -5  -8   0   13.60    1.90
   6   7  -1    8.50    2.70
   6   7  -1   12.70    2.90
   6   7  -1   12.60    3.00
   6   7  -1   10.10    3.80
  -6  -7   1   15.70    3.60
   7   6  -2    2.30    1.90
   7   6  -2    5.90    2.50
   7   6  -2    1.50    2.20
  -7  -6   2   -0.10    2.30
   8   5  -3    3.60    2.40
   8   5  -3    2.60    2.70
  -8  -5   3    0.60    4.20
  -8  -5   3    0.40    2.70
   1  11   4    7.10    3.20
   1  11   4   10.10    3.50
   1  11   4    7.10    3.50
  -1 -11  -4    0.00    2.40
  -1 -11  -4    5.60    2.60
  -1 -11  -4    7.70    3.00
   2  10   3  121.19    8.00
   2  10   3  109.69    7.60
   2  10   3  111.59    8.20
  -2 -10  -3  125.49    7.40
  -2 -10  -3  115.29    8.10
  -2 -10  -3  114.89    8.20
   3   9   2   20.70    3.40
   3   9   2   10.40    2.50
  -3  -9  -2    6.80    3.50
  -3  -9  -2   18.60    3.20
  -3  -9  -2   18.50    3.30
   4   8   1   29.30    3.70
   4   8   1   24.90    3.80
   4   8   1   32.70    4.50
  -4  -8  -1   39.80    4.80
  -4  -8  -1   29.50    3.80
  -4  -8  -1   27.70    2.80
   5   7   0    6.40    2.10
   5   7   0    7.70    2.10
   5   7   0    5.80    2.40
   5   7   0    9.50    3.00
   5   7   0    7.80    1.40
  -5  -7   0    7.00    1.30
  -5  -7   0    4.80    1.60
  -5  -7   0    6.60    2.40
   6   6  -1    6.00    2.20
   6   6  -1    1.00    1.50
  -6  -6   1    5.60    3.00
   7   5  -2   10.80    2.70
   7   5  -2   21.10    3.90
   7   5  -2   11.00    2.60
   7   5  -2   13.70    3.40
  -7  -5   2   16.70    3.60
   8   4  -3    3.20    2.50
   8   4  -3    6.50    2.30
   8   4  -3   10.20    3.10
  -8  -4   3   -1.00    2.60
  -8  -4   3   -0.20    2.10
   0  11   5   19.60    4.10
   0  11   5   12.00    4.10
   0 -11  -5   18.60    4.40
   0 -11  -5    7.50    3.10
   1  10   4   54.69    5.50
   1  10   4   45.70    4.60
   1  10   4   41.20    4.60
  -1 -10  -4   55.39    5.20
  -1 -10  -4   45.30    5.00
  -1 -10  -4   43.50    3.90
   2   9   3    1.50    2.00
   2   9   3    0.20    1.10
   2   9   3   -0.30    1.80
  -2  -9  -3    4.00    2.30
  -2  -9  -3    1.30    1.80
  -2  -9  -3    3.40    1.80
   3   8   2   93.69    6.60
   3   8   2   98.79    6.80
   3   8   2   91.09    6.70
  -3  -8  -2   99.69    6.50
  -3  -8  -2   95.59    6.40
  -3  -8  -2  117.79    6.90
   4   7   1   -1.10    1.00
   4   7   1    4.30    1.90
   4   7   1    0.10    1.70
   4   7   1    0.70    1.40
   4   7   1    1.40    1.20
  -4  -7  -1    1.20    1.70
  -4  -7  -1   -0.30    1.00
   5   6   0   20.00    1.60
   5   6   0   18.70    2.90
   5   6   0   18.00    2.80
   5   6   0   16.20    2.90
   5   6   0   26.10    3.80
  -5  -6   0   19.00    1.60
  -5  -6   0   16.10    3.20
  -5  -6   0   15.70    1.60
  -5  -6   0   16.40    1.80
   6   5  -1   26.70    3.40
   6   5  -1   24.10    3.40
   6   5  -1   25.50    3.60
   6   5  -1   24.00    3.90
  -6  -5   1   33.90    4.70
   7   4  -2   18.90    2.90
   7   4  -2   15.70    3.30
   7   4  -2   17.20    3.60
  -7  -4   2   20.30    3.90
   8   3  -3    9.40    2.50
   8   3  -3    6.60    3.00
   8   3  -3    9.90    3.10
  -8  -3   3    3.00    2.60
  -8  -3   3    8.10    3.30
   1 -11  -6   16.90    4.40
   0  10   5    1.10    2.00
   0  10   5    0.00    2.50
   0  10   5    3.30    2.40
   0 -10  -5    2.10    2.50
   0 -10  -5    0.60    1.20
   0 -10  -5    0.70    2.30
   1   9   4   -0.40    0.90
   1   9   4   -0.30    2.80
   1   9   4   -0.20    1.90
  -1  -9  -4    0.20    1.30
  -1  -9  -4    0.00    1.70
  -1  -9  -4    2.20    2.00
   2   8   3   90.49    6.50
   2   8   3  105.09    6.70
   2   8   3   89.59    5.90
  -2  -8  -3   82.39    6.20
  -2  -8  -3   92.49    6.30
   3   7   2  169.98    9.90
   3   7   2  177.18   10.00
   3   7   2  187.28   10.30
   3   7   2  196.28    9.60
  -3  -7  -2  183.38    9.80
  -3  -7  -2  182.88   10.10
  -3  -7  -2  187.78    9.90
   4   6   1   17.70    2.20
   4   6   1   15.20    2.90
   4   6   1   13.20    2.10
   4   6   1   16.60    2.50
  -4  -6  -1   15.10    2.80
  -4  -6  -1   15.70    2.20
  -4  -6  -1   16.10    2.10
   5   5   0   19.90    2.90
   5   5   0   22.60    3.30
   5   5   0   26.50    2.60
   5   5   0   17.40    2.50
  -5  -5   0   24.90    3.80
  -5  -5   0   20.20    1.70
   6   4  -1    2.50    1.60
   6   4  -1    1.50    1.50
   6   4  -1    3.30    1.90
   6   4  -1    2.20    1.30
  -6  -4   1    1.90    1.90
  -6  -4   1    2.60    0.50
   7   3  -2   58.19    5.10
   7   3  -2   50.59    3.80
   7   3  -2   57.19    4.20
   7   3  -2   58.19    5.10
  -7  -3   2   45.50    4.80
  -7  -3   2   57.69    5.20
  -7  -3   2   45.20    2.60
   8   2  -3   52.79    5.40
   8   2  -3   49.10    4.20
   8   2  -3   51.49    5.40
  -8  -2   3   49.70    5.30
  -8  -2   3   54.79    6.80
  -1  10   6    4.00    3.10
  -1  10   6    5.00    2.60
   1 -10  -6    2.30    3.00
   1 -10  -6   -1.70    2.70
   0   9   5   26.00    4.10
   0   9   5   25.30    4.00
   0  -9  -5   21.10    4.10
   0  -9  -5   23.00    4.00
   0  -9  -5   23.20    2.20
   1   8   4   14.60    3.10
   1   8   4    6.00    2.30
   1   8   4    7.10    2.00
  -1  -8  -4    9.90    2.70
  -1  -8  -4    4.30    2.00
  -1  -8  -4    6.90    1.90
   2   7   3   29.60    3.20
   2   7   3   43.60    3.10
   2   7   3   30.90    3.20
   2   7   3   33.90    3.40
  -2  -7  -3   37.80    3.40
  -2  -7  -3   36.10    2.80
  -2  -7  -3   35.10    3.20
  -2  -7  -3   32.00    3.30
   3   6   2   88.19    5.60
   3   6   2   87.59    5.00
   3   6   2   88.19    5.90
   3   6   2   83.69    5.80
   3   6   2   90.79    5.50
  -3  -6  -2   81.29    4.90
  -3  -6  -2   78.39    5.20
  -3  -6  -2   82.99    5.10
   4   5   1   70.29    4.60
   4   5   1   80.29    5.30
   4   5   1   74.29    4.30
   4   5   1   79.19    5.20
  -4  -5  -1   86.29    5.50
  -4  -5  -1   76.79    4.40
  -4  -5  -1   71.49    4.10
   5   4   0    0.80    1.00
   5   4   0    0.90    1.00
   5   4   0   -0.50    1.20
   5   4   0    1.30    1.00
  -5  -4   0    1.20    0.60
  -5  -4   0    2.70    1.50
  -5  -4   0    0.50    0.50
   6   3  -1   63.29    4.90
   6   3  -1   63.89    4.00
   6   3  -1   61.89    3.90
   6   3  -1   61.29    4.90
  -6  -3   1   62.29    5.00
  -6  -3   1   56.39    3.50
  -6  -3   1   59.29    3.50
   7   2  -2   12.50    3.10
   7   2  -2    6.10    2.40
   7   2  -2   12.20    2.10
   7   2  -2    9.60    2.20
  -7  -2   2   13.60    3.20
  -7  -2   2    9.90    1.60
  -7  -2   2   13.40    3.10
   8   1  -3   17.10    4.00
   8   1  -3   16.10    4.10
   8   1  -3   18.50    4.10
   8   1  -3   18.30    2.80
  -8  -1   3   20.20    5.40
  -8  -1   3   19.60    4.30
  -2  10   7    1.30    2.60
   2 -10  -7    1.70    3.00
   2 -10  -7    3.10    3.10
  -1   9   6   -1.70    1.40
  -1   9   6    3.70    2.40
  -1   9   6    1.70    2.30
   1  -9  -6   -1.00    2.00
   1  -9  -6   -1.40    2.00
   0   8   5    3.80    2.10
   0   8   5    1.20    1.20
   0   8   5    3.90    2.10
   0  -8  -5    2.60    2.00
   0  -8  -5    5.80    2.20
   0  -8  -5    1.80    1.20
   0  -8  -5    2.20    1.80
   1   7   4   55.29    4.40
   1   7   4   49.20    3.60
   1   7   4   47.30    3.50
  -1  -7  -4   52.59    4.40
  -1  -7  -4   45.90    4.00
  -1  -7  -4   43.60    3.40
  -1  -7  -4   47.00    3.50
   2   6   3  228.78   11.50
   2   6   3  228.48   11.50
   2   6   3  209.88   11.50
   2   6   3  233.28   10.90
  -2  -6  -3  248.38   11.60
  -2  -6  -3  220.18   11.70
  -2  -6  -3  225.68   11.50
  -2  -6  -3  223.68   10.80
   3   5   2  280.57   13.50
   3   5   2  286.07   13.60
   3   5   2  268.47   13.10
   3   5   2  272.27   13.80
  -3  -5  -2  276.27   13.20
  -3  -5  -2  282.27   13.60
  -3  -5  -2  318.07   14.20
  -3  -5  -2  283.87   13.40
   4   4   1    3.10    0.90
   4   4   1    2.60    1.30
   4   4   1   -0.20    0.30
   4   4   1    0.70    0.90
  -4  -4  -1    1.50    0.70
  -4  -4  -1    0.90    0.70
  -4  -4  -1    1.30    0.80
  -4  -4  -1   -0.10    1.40
   5   3   0   60.69    5.70
   5   3   0   61.49    3.70
   5   3   0   68.29    3.80
   5   3   0   66.29    4.70
  -5  -3   0   63.89    4.80
  -5  -3   0   62.99    3.70
  -5  -3   0   61.09    3.70
   6   2  -1  232.38   12.10
   6   2  -1  213.08   10.60
   6   2  -1  229.48   10.50
   6   2  -1  209.48   10.40
   6   2  -1  219.08   11.80
  -6  -2   1  217.58   10.70
  -6  -2   1  212.28   11.80
  -6  -2   1  224.98   12.10
  -6  -2   1  210.58   10.60
   7   1  -2   19.00    2.80
   7   1  -2   24.50    4.00
   7   1  -2   19.60    2.60
   7   1  -2   22.00    2.90
   7   1  -2   23.50    3.90
  -7  -1   2   20.80    3.60
  -7  -1   2   27.70    4.50
  -7  -1   2   19.70    2.60
   8   0  -3    0.00    1.60
   8   0  -3    3.70    2.80
   8   0  -3    2.00    2.30
  -8   0   3    7.20    2.90
  -8   0   3   -0.70    1.60
  -8   0   3   -1.10    1.80
  -8   0   3    3.90    2.70
  -2   9   7    5.40    2.40
  -2   9   7    7.30    3.30
   2  -9  -7    7.50    2.90
   2  -9  -7    5.50    3.10
  -1   8   6    2.30    2.10
  -1   8   6   -0.40    1.20
  -1   8   6    2.40    2.10
   1  -8  -6    0.80    2.10
   1  -8  -6   -1.80    1.70
   1  -8  -6    2.60    1.10
   0   7   5   84.89    5.90
   0   7   5   72.49    5.00
   0   7   5   75.99    5.70
   0   7   5   74.99    4.60
   0  -7  -5   91.39    5.60
   0  -7  -5   90.49    6.00
   0  -7  -5   82.89    4.70
   0  -7  -5   70.69    5.90
   1   6   4   67.49    3.80
   1   6   4   63.49    4.60
   1   6   4   70.39    3.90
   1   6   4   65.39    4.50
   1   6   4   61.89    4.50
   1   6   4   61.99    4.10
  -1  -6  -4   58.69    4.00
  -1  -6  -4   65.59    4.20
  -1  -6  -4   65.39    3.80
  -1  -6  -4   63.89    4.50
  -1  -6  -4   59.19    4.70
   2   5   3   82.49    4.90
   2   5   3   74.49    4.80
   2   5   3   83.79    4.60
   2   5   3   81.49    5.00
   2   5   3   80.29    5.00
  -2  -5  -3   83.59    4.80
  -2  -5  -3   74.49    4.90
  -2  -5  -3   80.39    5.00
  -2  -5  -3   79.19    5.00
  -2  -5  -3   80.99    4.20
   3   4   2  154.48    8.10
   3   4   2  156.78    8.60
   3   4   2  160.68    8.10
   3   4   2  169.68    8.10
   3   4   2  172.78    8.50
   3   4   2  159.18    7.80
  -3  -4  -2  160.38    7.80
  -3  -4  -2  166.28    8.80
  -3  -4  -2  172.48    8.80
  -3  -4  -2  161.08    8.20
  -3  -4  -2  161.38    7.70
   4   3   1    6.70    1.10
   4   3   1    5.90    1.50
  -4  -3  -1    7.30    1.30
  -4  -3  -1    3.60    1.40
  -4  -3  -1    5.80    1.20
  -4  -3  -1    5.20    1.10
   5   2   0  163.48    8.40
   5   2   0  174.08   11.50
   5   2   0  169.28    7.90
   5   2   0  172.28    9.20
   5   2   0  171.28    7.90
  -5  -2   0  161.38    8.40
  -5  -2   0  170.68    8.50
   6   1  -1   53.59    3.80
   6   1  -1   50.19    3.20
   6   1  -1   50.49    3.30
   6   1  -1   54.49    4.60
   6   1  -1   50.19    4.40
  -6  -1   1   60.39    4.00
  -6  -1   1   60.39    4.50
  -6  -1   1   54.09    4.60
   7   0  -2    1.40    1.70
   7   0  -2    1.50    1.50
   7   0  -2    1.10    1.90
   7   0  -2    2.30    1.70
   7   0  -2    0.10    1.10
  -7   0   2    1.20    1.40
  -7   0   2    1.60    1.50
  -7   0   2   -2.20    1.50
  -7   0   2    1.30    1.90
   8  -1  -3    3.50    2.60
   8  -1  -3    5.30    2.90
   8  -1  -3    2.80    2.00
  -8   1   3    3.10    3.20
  -8   1   3    1.20    4.10
  -8   1   3    2.60    2.00
  -8   1   3    0.70    1.90
  -2   8   7    1.50    1.90
  -2   8   7   -2.20    1.80
   2  -8  -7    2.70    2.50
   2  -8  -7    3.70    2.40
  -1   7   6   21.00    2.00
  -1   7   6   28.90    4.00
  -1   7   6   24.20    3.90
   1  -7  -6   20.40    3.70
   1  -7  -6   32.50    4.40
   1  -7  -6   22.30    2.10
   1  -7  -6   26.80    2.20
   0   6   5   13.70    2.60
   0   6   5   13.50    2.00
   0   6   5   11.00    1.80
   0   6   5   20.10    2.30
   0   6   5   14.50    2.70
   0  -6  -5   14.90    2.80
   0  -6  -5   18.90    2.20
   0  -6  -5   17.00    2.80
   0  -6  -5   18.60    2.30
   1   5   4 1073.79   48.80
   1   5   4 1148.59   48.00
   1   5   4 1129.79   49.00
   1   5   4 1063.49   48.60
   1   5   4 1100.19   49.00
   1   5   4 1086.09   48.00
  -1  -5  -4 1141.79   48.00
  -1  -5  -4 1126.69   49.00
  -1  -5  -4 1142.69   49.40
  -1  -5  -4 1068.29   48.50
   2   4   3  993.30   44.70
   2   4   3 1060.39   45.10
   2   4   3 1066.49   44.80
   2   4   3 1014.70   43.90
   2   4   3 1023.10   44.80
   2   4   3 1013.00   45.10
  -2  -4  -3 1044.30   45.10
  -2  -4  -3 1013.80   43.90
  -2  -4  -3 1021.30   44.80
  -2  -4  -3  956.50   44.50
  -2  -4  -3 1015.70   44.60
  -2  -4  -3 1040.80   45.00
  -2  -4  -3 1003.40   45.10
   3   3   2    4.30    0.90
   3   3   2    2.10    0.80
   3   3   2    3.80    1.40
   3   3   2    5.00    1.40
   3   3   2    5.80    1.20
   3   3   2    4.40    0.90
  -3  -3  -2    3.40    1.00
  -3  -3  -2    2.60    1.20
  -3  -3  -2    5.70    1.20
  -3  -3  -2    3.00    1.20
  -3  -3  -2    1.60    0.70
  -3  -3  -2    6.90    1.60
   4   2   1    1.80    1.00
   4   2   1    1.10    0.40
   4   2   1    1.70    0.40
   4   2   1    0.80    0.80
   4   2   1    0.10    1.10
  -4  -2  -1    2.70    1.20
  -4  -2  -1    0.60    0.70
  -4  -2  -1    1.20    0.70
  -4  -2  -1    0.90    0.70
   5   1   0   16.00    1.20
   5   1   0   17.50    2.40
   5   1   0   18.10    1.30
   5   1   0   23.10    3.10
   5   1   0   19.30    2.80
  -5  -1   0   19.60    2.10
  -5  -1   0   20.00    2.10
  -5  -1   0   24.40    3.10
  -5  -1   0   19.90    3.00
   6   0  -1   22.50    2.10
   6   0  -1   23.40    3.50
   6   0  -1   21.70    1.90
   6   0  -1   28.70    3.40
   6   0  -1   20.20    3.40
  -6   0   1   27.80    3.90
  -6   0   1   16.70    3.20
  -6   0   1   26.50    3.30
   7  -1  -2    4.80    1.80
   7  -1  -2    0.10    1.70
   7  -1  -2    3.50    1.40
   7  -1  -2    3.60    2.10
  -7   1   2    8.60    2.70
  -7   1   2    3.40    1.70
  -7   1   2    3.80    2.50
  -3   8   8    1.10    2.50
  -3   8   8    1.10    2.30
   3  -8  -8    2.50    2.50
   3  -8  -8   -1.80    2.50
  -2   7   7    2.20    2.20
  -2   7   7    4.80    2.30
  -2   7   7    2.10    1.70
   2  -7  -7    6.20    2.50
   2  -7  -7    2.30    1.30
   2  -7  -7    3.90    2.40
   2  -7  -7    0.70    1.20
  -1   6   6   44.20    3.00
  -1   6   6   45.90    4.00
  -1   6   6   45.80    4.00
  -1   6   6   33.80    3.20
   1  -6  -6   45.40    4.50
   1  -6  -6   49.90    4.30
   0   5   5    1.70    1.30
   0   5   5    2.90    0.90
   0   5   5    2.90    1.10
   0   5   5    2.70    1.30
   0   5   5    2.10    0.80
   0   5   5    1.20    1.40
   0  -5  -5    2.20    1.30
   0  -5  -5    2.30    1.50
   0  -5  -5    2.10    1.00
   0  -5  -5    3.40    1.50
   1   4   4  382.86   17.20
   1   4   4  362.86   17.30
   1   4   4  366.06   16.40
   1   4   4  371.86   17.20
   1   4   4  383.16   17.40
   1   4   4  366.56   16.40
  -1  -4  -4  394.56   17.20
  -1  -4  -4  388.06   17.70
  -1  -4  -4  352.86   17.10
  -1  -4  -4  368.76   17.30
  -1  -4  -4  367.16   17.20
   2   3   3   20.60    1.10
   2   3   3   23.80    2.10
   2   3   3   20.00    1.80
   2   3   3   29.10    2.20
   2   3   3   20.30    2.10
  -2  -3  -3   21.30    1.10
  -2  -3  -3   24.90    2.20
  -2  -3  -3   21.40    1.80
  -2  -3  -3   20.70    1.70
  -2  -3  -3   21.80    2.10
  -2  -3  -3   23.20    1.70
   3   2   2    1.40    0.50
   3   2   2    2.40    0.90
   3   2   2    0.90    0.60
   3   2   2    1.50    0.50
   3   2   2    1.10    0.80
   3   2   2    2.00    1.20
  -3  -2  -2    3.80    1.00
  -3  -2  -2    2.20    0.90
  -3  -2  -2    0.10    0.80
  -3  -2  -2    1.10    0.60
  -3  -2  -2    1.10    0.70
  -3  -2  -2    0.90    1.00
   4   1   1  172.58    8.70
   4   1   1  167.08    8.70
   4   1   1  169.68    8.90
   4   1   1  162.28    8.70
  -4  -1  -1  165.18    8.60
  -4  -1  -1  164.88    8.60
  -4  -1  -1  175.98    8.70
  -4  -1  -1  175.28    9.30
  -4  -1  -1  164.58    8.60
  -4  -1  -1  177.58    8.90
  -4  -1  -1  177.88    8.80
   5   0   0    7.30    1.80
   5   0   0    6.90    0.80
   5   0   0    5.20    1.80
   5   0   0    5.30    1.70
   5   0   0    5.90    0.80
  -5   0   0    4.60    1.70
  -5   0   0    5.40    1.60
  -5   0   0    5.30    1.80
   6  -1  -1   32.10    3.20
   6  -1  -1   33.40    4.30
   6  -1  -1   30.90    2.50
   6  -1  -1   29.10    2.30
  -6   1   1   26.20    2.80
  -6   1   1   33.10    4.40
  -6   1   1   36.20    3.80
   7  -2  -2    8.70    2.70
   7  -2  -2   13.40    3.40
   7  -2  -2   17.20    2.70
   7  -2  -2   15.10    2.90
  -7   2   2   14.50    3.60
  -7   2   2   18.10    3.90
  -7   2   2   18.40    2.60
  -3   7   8    6.70    2.70
  -3   7   8    7.20    2.90
   3  -7  -8    7.70    2.90
   3  -7  -8    7.50    3.00
  -2   6   7   11.10    2.50
  -2   6   7   12.40    2.50
  -2   6   7    9.00    1.60
  -2   6   7    7.10    2.30
   2  -6  -7   15.50    3.10
   2  -6  -7    5.10    2.30
   2  -6  -7   14.60    2.80
   2  -6  -7    8.50    2.20
  -1   5   6   56.79    4.20
  -1   5   6   51.99    3.70
  -1   5   6   54.29    4.30
  -1   5   6   48.10    3.40
   1  -5  -6   54.39    3.50
   1  -5  -6   39.90    4.40
   1  -5  -6   50.19    4.40
   1  -5  -6   45.70    4.00
   1  -5  -6   50.99    3.70
   0   4   5  263.07   12.20
   0   4   5  240.08   12.20
   0   4   5  254.27   11.70
   0   4   5  250.47   12.20
   0   4   5  244.48   11.70
   0   4   5  260.97   12.60
   0  -4  -5  243.48   12.80
   0  -4  -5  264.87   12.50
   0  -4  -5  237.38   12.50
   0  -4  -5  257.97   12.50
   0  -4  -5  260.57   11.80
   0  -4  -5  252.27   12.00
   1   3   4 1403.26   58.29
   1   3   4 1332.27   58.29
   1   3   4 1336.97   59.39
   1   3   4 1351.46   59.29
   1   3   4 1395.96   59.69
  -1  -3  -4 1419.16   59.19
  -1  -3  -4 1315.07   59.29
  -1  -3  -4 1396.76   59.29
  -1  -3  -4 1299.77   58.99
  -1  -3  -4 1380.16   59.69
   2   2   3  435.36   19.80
   2   2   3  435.26   19.10
   2   2   3  443.16   19.20
  -2  -2  -3  392.76   21.10
  -2  -2  -3  432.16   18.90
  -2  -2  -3  446.26   19.20
  -2  -2  -3  430.26   18.70
  -2  -2  -3  429.76   19.70
  -2  -2  -3  440.66   19.80
   3   1   2  143.49    7.30
   3   1   2  142.09    7.40
  -3  -1  -2  140.19    7.30
  -3  -1  -2  133.29    6.90
  -3  -1  -2  134.49    6.90
  -3  -1  -2  136.29    7.30
  -3  -1  -2  142.39    7.00
  -3  -1  -2  148.19    7.40
   4   0   1    4.90    1.50
   4   0   1    4.00    1.20
   4   0   1    2.10    0.90
   4   0   1    5.10    1.40
  -4   0  -1    6.00    1.30
  -4   0  -1    3.60    1.30
  -4   0  -1    5.50    1.30
  -4   0  -1    4.00    1.30
   5  -1   0    7.00    1.00
   5  -1   0    7.40    1.90
   5  -1   0    6.70    1.10
   5  -1   0    8.20    2.00
  -5   1   0    9.00    2.30
  -5   1   0    5.20    1.70
  -5   1   0    7.90    2.10
  -5   1   0    5.80    1.50
   6  -2  -1    0.00    1.50
   6  -2  -1    0.90    3.30
   6  -2  -1    1.70    1.40
  -6   2   1    0.90    2.80
  -6   2   1   -0.10    1.50
  -6   2   1    0.80    1.00
   7  -3  -2    9.00    2.30
   7  -3  -2    8.30    3.20
   7  -3  -2    3.60    6.00
   7  -3  -2   10.00    3.00
  -7   3   2   10.10    3.30
  -7   3   2    5.70    2.60
  -3   6   8   41.70    4.50
  -3   6   8   52.99    5.10
  -3   6   8   48.80    3.50
   3  -6  -8   53.99    5.10
   3  -6  -8   50.99    4.80
   3  -6  -8   46.90    5.00
  -2   5   7   12.40    2.30
  -2   5   7   12.00    2.70
  -2   5   7   14.50    2.20
  -2   5   7   11.60    2.50
   2  -5  -7   10.40    2.20
   2  -5  -7    8.90    2.50
   2  -5  -7   13.60    2.90
   2  -5  -7   14.00    2.90
  -1   4   6  205.88    9.90
  -1   4   6  184.98    9.80
  -1   4   6  191.78   10.40
  -1   4   6  199.08   10.30
  -1   4   6  213.58   10.10
   1  -4  -6  196.28    9.90
   1  -4  -6  193.98   10.70
   1  -4  -6  189.88   10.40
   1  -4  -6  218.68   10.70
   1  -4  -6  193.38    9.90
   0   3   5  126.59    7.10
   0   3   5  136.89    6.40
   0   3   5  129.49    6.90
   0   3   5  127.89    7.00
   0  -3  -5  125.69    6.80
   0  -3  -5  129.89    6.40
   0  -3  -5  139.79    7.40
   0  -3  -5  128.29    7.40
   0  -3  -5  135.99    7.10
   1   2   4  140.19    6.20
   1   2   4  132.49    7.10
   1   2   4  139.79    6.90
   1   2   4  144.29    7.20
   1   2   4  130.99    6.40
  -1  -2  -4  140.29    6.40
  -1  -2  -4  134.99    6.80
  -1  -2  -4  144.19    6.90
  -1  -2  -4  139.39    7.30
  -1  -2  -4  129.99    6.20
  -1  -2  -4  130.69    7.00
   2   1   3   36.20    2.60
   2   1   3   34.90    2.00
   2   1   3   33.40    1.90
   2   1   3   32.80    2.10
   2   1   3   34.80    2.10
   2   1   3   32.30    2.60
  -2  -1  -3   32.90    2.00
  -2  -1  -3   31.40    2.00
  -2  -1  -3   33.80    1.90
  -2  -1  -3   36.40    2.60
  -2  -1  -3   32.40    2.60
  -2  -1  -3   30.50    2.50
   3   0   2   86.49    4.00
   3   0   2   91.19    5.30
   3   0   2   89.19    4.70
   3   0   2   93.79    5.20
  -3   0  -2   88.89    4.90
  -3   0  -2   91.59    4.80
  -3   0  -2   91.29    5.30
  -3   0  -2   89.29    5.00
  -3   0  -2   85.19    4.70
  -3   0  -2   80.59    5.10
  -3   0  -2   93.09    5.00
   4  -1   1   10.00    2.00
   4  -1   1    8.00    1.60
   4  -1   1    7.50    0.90
   4  -1   1    7.90    0.80
   4  -1   1    7.70    1.80
  -4   1  -1    8.20    1.60
  -4   1  -1    5.80    1.60
  -4   1  -1   11.70    1.70
  -4   1  -1    7.30    1.70
   5  -2   0   69.79    5.20
   5  -2   0   76.29    5.50
   5  -2   0   68.79    4.10
   5  -2   0   72.49    4.00
  -5   2   0   70.39    5.10
  -5   2   0   68.49    4.30
  -5   2   0   65.39    4.20
  -5   2   0   69.69    5.30
   6  -3  -1   15.30    2.40
   6  -3  -1   11.40    2.80
   6  -3  -1   11.70    2.30
  -6   3   1    7.10    2.50
  -6   3   1   10.30    2.90
  -6   3   1   12.50    1.70
   7  -4  -2    4.60    2.90
   7  -4  -2    5.10    2.40
  -7   4   2    2.70    2.70
  -7   4   2    1.10    2.40
  -4   6   9   14.00    3.70
  -4   6   9   10.30    3.20
   4  -6  -9    8.60    3.40
   4  -6  -9    9.50    3.20
   4  -6  -9    7.10    3.60
  -3   5   8    1.60    2.20
  -3   5   8    5.20    1.90
  -3   5   8    3.20    2.30
  -3   5   8    4.30    1.50
   3  -5  -8    4.70    2.30
   3  -5  -8    1.30    2.20
   3  -5  -8    5.30    2.20
  -2   4   7   -1.50    0.80
  -2   4   7   -0.80    1.30
  -2   4   7   -0.60    1.10
   2  -4  -7    1.30    1.50
   2  -4  -7   -0.10    1.50
   2  -4  -7   -1.70    0.90
  -1   3   6   16.30    2.30
  -1   3   6   19.80    2.60
  -1   3   6   19.30    2.30
  -1   3   6   16.80    2.60
   1  -3  -6   23.50    3.20
   1  -3  -6   15.80    2.50
   1  -3  -6   14.20    2.00
   1  -3  -6   17.00    2.60
   0   2   5    2.80    1.20
   0   2   5    2.10    0.70
   0   2   5    1.30    0.70
   0   2   5    0.90    0.90
   0   2   5    4.20    0.90
   0   2   5    1.40    1.00
   0   2   5    1.90    1.00
   0  -2  -5    2.20    1.10
   0  -2  -5    1.50    0.70
   0  -2  -5    0.80    0.60
   0  -2  -5    2.80    1.10
   0  -2  -5    0.70    1.00
   0  -2  -5    1.50    1.00
   1   1   4  674.83   29.40
   1   1   4  692.43   30.20
   1   1   4  664.43   29.80
   1   1   4  670.03   28.90
   1   1   4  683.83   30.10
   1   1   4  678.23   29.70
  -1  -1  -4  676.33   29.70
  -1  -1  -4  656.23   29.60
  -1  -1  -4  655.23   28.90
  -1  -1  -4  714.53   30.30
  -1  -1  -4  684.83   30.20
  -1  -1  -4  633.84   29.40
  -1  -1  -4  684.53   30.10
   2   0   3  800.52   34.10
   2   0   3  760.32   34.30
   2   0   3  803.82   34.80
   2   0   3  807.42   34.10
   2   0   3  788.52   34.90
  -2   0  -3  843.42   34.50
  -2   0  -3  756.82   33.80
  -2   0  -3  784.12   34.90
  -2   0  -3  761.22   34.70
  -2   0  -3  745.73   34.80
  -2   0  -3  768.72   33.80
   3  -1   2    1.40    0.60
   3  -1   2    1.50    0.60
   3  -1   2    5.70    1.60
  -3   1  -2    0.00    0.70
  -3   1  -2    3.90    1.20
  -3   1  -2    2.70    0.90
  -3   1  -2    2.20    0.80
   4  -2   1   26.80    2.90
   4  -2   1   25.00    2.30
   4  -2   1   24.90    2.00
   4  -2   1   24.20    1.90
  -4   2  -1   26.60    2.20
  -4   2  -1   35.20    3.10
  -4   2  -1   26.80    2.30
  -4   2  -1   25.90    2.60
   5  -3   0   12.30    2.70
   5  -3   0   14.80    2.20
   5  -3   0   14.70    2.20
  -5   3   0   13.50    1.90
  -5   3   0   16.80    2.00
  -5   3   0    7.60    2.40
  -5   3   0    6.60    2.20
   6  -4  -1    7.30    2.80
   6  -4  -1    2.40    1.80
   6  -4  -1   -2.20    2.20
  -6   4   1    4.90    2.40
  -6   4   1    2.40    2.10
  -4   5   9    4.90    2.60
  -4   5   9    5.60    3.00
  -4   5   9    5.70    1.80
   4  -5  -9    2.70    2.50
   4  -5  -9    4.10    2.60
   4  -5  -9    8.70    3.20
  -3   4   8    2.70    1.70
  -3   4   8   -1.00    1.70
  -3   4   8    1.40    1.30
   3  -4  -8   -0.90    2.00
   3  -4  -8    1.40    1.70
   3  -4  -8    1.00    1.70
  -2   3   7    2.20    1.30
  -2   3   7    1.20    1.30
   2  -3  -7   -1.60    1.80
   2  -3  -7    0.40    1.20
   2  -3  -7    0.20    1.50
   2  -3  -7    0.80    1.60
  -1   2   6   56.69    3.70
  -1   2   6   57.39    3.70
  -1   2   6   60.69    3.80
  -1   2   6   58.99    4.20
  -1   2   6   59.79    4.10
   1  -2  -6   53.59    3.70
   1  -2  -6   55.99    3.70
   1  -2  -6   57.49    4.10
   1  -2  -6   59.99    4.20
   1  -2  -6   59.89    4.10
   0   1   5   32.70    1.90
   0   1   5   29.70    2.30
   0   1   5   31.00    1.90
   0   1   5   30.80    2.50
   0   1   5   27.60    2.40
   0   1   5   30.80    2.60
   0   1   5   31.60    2.70
   0  -1  -5   29.80    2.40
   0  -1  -5   32.20    2.60
   0  -1  -5   29.50    2.20
   0  -1  -5   28.80    2.50
   1   0   4   84.29    4.90
   1   0   4   83.69    4.80
   1   0   4   85.19    5.10
   1   0   4   93.19    5.20
   1   0   4   88.29    4.70
  -1   0  -4   91.09    5.20
  -1   0  -4   95.39    4.90
  -1   0  -4   78.79    4.70
  -1   0  -4   93.79    5.20
  -1   0  -4   91.79    5.20
  -1   0  -4   88.39    4.70
   2  -1   3 1147.89   50.39
   2  -1   3 1187.28   51.29
   2  -1   3 1144.59   50.69
   2  -1   3 1213.98   50.89
   2  -1   3 1190.28   51.59
   2  -1   3 1111.59   51.09
  -2   1  -3 1175.58   51.29
  -2   1  -3 1170.78   50.39
  -2   1  -3 1155.08   50.19
  -2   1  -3 1220.88   51.69
  -2   1  -3 1174.08   50.19
  -2   1  -3 1156.88   51.19
  -2   1  -3 1164.28   50.39
   3  -2   2  142.59    7.60
   3  -2   2  165.18    7.80
   3  -2   2  146.09    7.30
   3  -2   2  149.49    7.60
   3  -2   2  147.69    8.40
  -3   2  -2  160.38    7.70
  -3   2  -2  139.09    7.50
  -3   2  -2  146.79    8.10
  -3   2  -2  145.29    7.60
   4  -3   1    1.80    1.00
   4  -3   1    0.90    1.40
   4  -3   1    4.50    1.30
   4  -3   1    2.40    1.20
  -4   3  -1    0.40    1.30
  -4   3  -1    3.50    1.50
   5  -4   0   11.70    2.40
   5  -4   0   11.90    2.30
   5  -4   0   14.40    4.40
  -5   4   0   12.40    2.90
  -5   4   0    9.20    2.60
  -5   4   0   11.20    1.40
   6  -5  -1    1.20    2.60
   6  -5  -1    2.90    2.10
  -6   5   1    2.40    2.40
  -6   5   1    0.70    2.20
  -4   4   9    6.70    2.00
  -4   4   9    6.40    2.40
   4  -4  -9    6.00    2.40
   4  -4  -9    6.70    2.90
   4  -4  -9    0.70    2.10
  -3   3   8    0.80    1.50
  -3   3   8    2.40    2.00
  -3   3   8    0.40    1.40
   3  -3  -8    0.70    1.60
   3  -3  -8   -1.90    1.30
   3  -3  -8    1.90    1.70
  -2   2   7   30.40    3.20
  -2   2   7   35.50    3.50
   2  -2  -7   44.20    3.60
   2  -2  -7   36.80    3.30
   2  -2  -7   32.60    3.20
  -1   1   6   92.19    5.60
  -1   1   6   86.99    5.40
  -1   1   6   81.49    5.30
  -1   1   6   84.89    4.80
   1  -1  -6   84.89    5.30
   1  -1  -6   97.29    5.30
   1  -1  -6   82.29    5.40
   1  -1  -6   86.79    5.30
   0   0   5  167.98    8.10
   0   0   5  151.08    8.00
   0   0   5  166.48    8.20
   0   0   5  154.98    7.10
   0   0   5  163.38    8.10
   0   0   5  152.98    7.10
   0   0   5  154.28    8.30
   0   0  -5  152.48    8.10
   0   0  -5  159.28    8.40
   0   0  -5  145.59    7.90
   0   0  -5  149.99    7.80
   0   0  -5  141.19    7.90
   1  -1   4  441.46   19.30
   1  -1   4  464.75   20.80
   1  -1   4  479.05   20.90
   1  -1   4  415.96   20.40
   1  -1   4  433.16   20.50
   1  -1   4  451.05   20.40
  -1   1  -4  486.85   21.60
  -1   1  -4  461.05   20.80
  -1   1  -4  427.86   19.30
  -1   1  -4  435.36   20.60
  -1   1  -4  455.15   20.20
   2  -2   3  191.28   10.00
   2  -2   3  207.98    9.80
   2  -2   3  220.38   11.00
   2  -2   3  222.08   10.50
   2  -2   3  210.58   10.30
  -2   2  -3  211.88    9.80
  -2   2  -3  205.18    9.80
  -2   2  -3  238.08   10.90
  -2   2  -3  209.68    9.60
  -2   2  -3  193.78   10.30
   3  -3   2  476.65   23.70
   3  -3   2  501.35   22.70
   3  -3   2  503.85   22.70
   3  -3   2  503.85   22.80
  -3   3  -2  514.15   23.70
  -3   3  -2  506.55   22.90
  -3   3  -2  490.05   22.60
   4  -4   1  130.29    6.70
   4  -4   1  139.99    7.50
   4  -4   1  122.19    7.30
   4  -4   1  143.49    8.60
  -4   4  -1  127.99    7.80
  -4   4  -1  123.89    6.60
  -4   4  -1  134.49    8.30
   5  -5   0   12.70    2.60
   5  -5   0    7.60    2.70
  -5   5   0    2.00    2.50
  -5   5   0    6.70    2.50
   6  -6  -1   15.10    3.50
   6  -6  -1    8.50    3.60
  -6   6   1    6.60    3.10
  -4   3   9    1.10    2.10
  -4   3   9    4.20    2.00
   4  -3  -9   -2.80    1.60
   4  -3  -9    0.20    1.90
   4  -3  -9   -0.50    1.90
  -3   2   8   24.10    3.40
  -3   2   8   20.30    3.30
  -3   2   8   15.70    3.00
   3  -2  -8   18.30    3.30
   3  -2  -8   15.90    3.00
   3  -2  -8   20.40    3.20
  -2   1   7    5.60    1.80
  -2   1   7    3.80    1.20
  -2   1   7    5.80    2.00
   2  -1  -7    7.60    2.10
   2  -1  -7    7.80    1.70
   2  -1  -7    4.70    1.60
  -1   0   6    2.60    0.90
  -1   0   6    3.10    1.40
  -1   0   6    2.30    1.30
  -1   0   6    1.00    1.20
  -1   0   6    2.10    1.10
  -1   0   6    2.90    0.90
   1   0  -6    1.90    1.00
   1   0  -6    1.70    1.20
   1   0  -6    2.70    1.30
   0  -1   5   29.90    1.80
   0  -1   5   31.60    1.90
   0  -1   5   34.80    3.00
   0  -1   5   34.30    2.90
   0  -1   5   33.60    2.70
   0   1  -5   28.50    1.80
   0   1  -5   27.10    2.50
   0   1  -5   26.70    2.60
   0   1  -5   31.90    2.70
   0   1  -5   30.60    2.60
   1  -2   4   14.60    2.30
   1  -2   4   15.40    1.20
   1  -2   4   18.50    2.50
   1  -2   4   15.20    2.20
   1  -2   4   17.10    1.90
  -1   2  -4   15.30    1.20
  -1   2  -4   17.70    2.50
  -1   2  -4   17.70    1.80
  -1   2  -4   14.50    2.30
   2  -3   3    6.20    1.80
   2  -3   3    7.70    1.50
   2  -3   3    5.80    1.60
  -2   3  -3    7.50    1.30
  -2   3  -3    7.50    1.80
  -2   3  -3    6.50    1.30
   3  -4   2  351.66   16.70
   3  -4   2  350.06   16.90
   3  -4   2  357.26   16.40
   3  -4   2  378.16   18.00
  -3   4  -2  348.47   16.80
  -3   4  -2  327.67   16.20
  -3   4  -2  347.57   17.70
   4  -5   1   37.10    4.10
   4  -5   1   33.90    4.00
   4  -5   1   36.30    3.60
   4  -5   1   30.20    2.50
  -4   5  -1   32.30    4.60
  -4   5  -1   32.00    2.40
  -4   5  -1   42.80    4.00
   5  -6   0   17.30    4.20
   5  -6   0   29.30    4.20
  -5   6   0   26.00    4.80
  -5   6   0   24.90    4.10
  -4   2   9    3.00    2.00
  -4   2   9    6.90    2.40
   4  -2  -9    5.30    2.40
   4  -2  -9    1.50    1.80
  -3   1   8    2.20    1.80
  -3   1   8   -1.60    1.10
  -3   1   8    2.30    1.70
   3  -1  -8   -0.40    1.40
   3  -1  -8   -0.70    1.40
  -2   0   7   12.60    2.50
  -2   0   7   10.00    1.90
  -2   0   7   14.50    2.80
   2   0  -7    6.70    1.90
   2   0  -7    7.70    1.80
   2   0  -7    8.90    2.20
  -1  -1   6  228.28   11.10
  -1  -1   6  239.58   12.20
  -1  -1   6  234.18   11.10
  -1  -1   6  232.58   12.30
   1   1  -6  246.78   12.10
   1   1  -6  261.17   12.70
   1   1  -6  218.88   11.70
   1   1  -6  239.58   11.20
   1   1  -6  237.58   14.20
   0  -2   5  124.39    7.00
   0  -2   5  114.99    5.80
   0  -2   5  122.39    6.90
   0  -2   5  119.29    6.80
   0  -2   5  127.89    7.20
   0   2  -5  121.29    6.70
   0   2  -5  109.09    6.70
   0   2  -5  124.39    7.10
   1  -3   4   -0.20    0.60
   1  -3   4   -0.20    1.00
   1  -3   4    0.00    1.10
   1  -3   4   -0.50    1.10
   1  -3   4    0.10    1.00
  -1   3  -4    2.10    1.10
  -1   3  -4   -0.10    1.10
  -1   3  -4    1.80    0.70
  -1   3  -4    0.50    1.20
   2  -4   3  139.19    7.60
   2  -4   3  132.89    8.10
   2  -4   3  137.29    7.40
   2  -4   3  141.59    7.80
  -2   4  -3  137.29    7.20
  -2   4  -3  127.69    8.00
  -2   4  -3  122.09    6.80
   3  -5   2   28.50    4.10
   3  -5   2   31.80    3.30
   3  -5   2   24.50    2.50
  -3   5  -2   22.80    3.20
  -3   5  -2   31.80    4.30
  -3   5  -2   23.40    2.90
   4  -6   1  118.49    7.50
   4  -6   1  106.09    8.00
  -4   6  -1  111.79    8.20
  -4   6  -1  110.29    7.60
   5  -7   0   17.50    4.10
   5  -7   0   10.70    3.90
  -5   7   0   16.80    4.30
  -5   7   0   11.50    3.50
  -4   1   9    7.90    2.70
  -4   1   9    7.50    2.70
   4  -1  -9   10.60    2.80
   4  -1  -9    6.70    2.20
   4  -1  -9   11.00    3.00
  -3   0   8   -0.90    1.50
  -3   0   8    1.20    1.60
  -3   0   8    0.10    0.90
   3   0  -8    0.60    1.70
   3   0  -8    1.50    1.60
   3   0  -8   -0.30    1.10
  -2  -1   7   77.29    4.90
  -2  -1   7   74.39    5.50
  -2  -1   7   82.49    5.90
   2   1  -7   89.69    5.10
   2   1  -7   73.99    5.50
   2   1  -7   80.59    4.90
   2   1  -7   68.39    5.30
  -1  -2   6  108.49    5.90
  -1  -2   6  105.39    6.60
  -1  -2   6  101.39    6.70
   1   2  -6  101.19    5.50
   1   2  -6  104.59    6.60
   1   2  -6  103.89    6.50
   1   2  -6  106.59    6.20
   0  -3   5  202.78    9.90
   0  -3   5  208.38   11.10
   0  -3   5  223.58   11.30
   0  -3   5  200.98   10.80
   0  -3   5  211.58   11.00
   0   3  -5  214.28   10.00
   0   3  -5  212.58   11.30
   0   3  -5  198.88   10.80
   0   3  -5  220.18   10.90
   1  -4   4  126.69    7.10
   1  -4   4  118.89    7.00
   1  -4   4  116.29    7.30
   1  -4   4  118.09    7.20
   1  -4   4  117.49    6.20
  -1   4  -4  110.39    7.40
  -1   4  -4  109.39    6.20
  -1   4  -4  118.49    6.70
   2  -5   3   15.20    3.00
   2  -5   3   17.60    3.30
   2  -5   3   16.30    2.70
   2  -5   3   23.50    3.60
  -2   5  -3   17.90    2.40
  -2   5  -3   21.30    2.80
  -2   5  -3    9.30    2.50
   3  -6   2   14.50    2.30
   3  -6   2   10.40    3.70
   3  -6   2   16.80    3.30
   3  -6   2   16.90    3.20
  -3   6  -2   14.30    2.90
  -3   6  -2   15.50    3.40
   4  -7   1    4.10    2.90
   4  -7   1    5.00    2.60
  -4   7  -1    1.40    2.70
  -4   7  -1   -1.20    2.20
  -5   1  10    2.30    2.50
   5  -1 -10   -0.30    2.90
  -4   0   9    2.40    2.00
  -4   0   9    3.70    2.30
   4   0  -9    3.40    1.90
   4   0  -9    1.60    2.30
   4   0  -9    0.30    1.90
  -3  -1   8    3.90    1.60
  -3  -1   8    0.00    1.60
  -3  -1   8    3.70    2.30
   3   1  -8    3.00    2.00
   3   1  -8    1.80    1.40
   3   1  -8    5.10    1.60
   3   1  -8    3.90    2.20
  -2  -2   7  301.17   13.50
  -2  -2   7  276.37   14.80
  -2  -2   7  273.17   14.30
   2   2  -7  275.57   14.30
   2   2  -7  279.57   13.50
   2   2  -7  253.87   14.30
   2   2  -7  264.77   13.30
  -1  -3   6  352.56   17.80
  -1  -3   6  335.17   17.40
  -1  -3   6  340.77   16.20
   1   3  -6  338.57   16.20
   1   3  -6  367.66   17.30
   1   3  -6  374.06   17.00
   1   3  -6  338.07   17.50
   0  -4   5  126.69    8.40
   0  -4   5  134.39    7.40
   0  -4   5  151.48    8.60
   0  -4   5  157.18    8.70
   0  -4   5  140.09    8.40
   0   4  -5  152.88    9.00
   0   4  -5  151.28    8.30
   0   4  -5  148.99    8.40
   0   4  -5  151.98    7.60
   1  -5   4  194.38   10.90
   1  -5   4  213.68   10.70
   1  -5   4  208.78   10.80
   1  -5   4  182.88   10.80
  -1   5  -4  158.88   10.30
  -1   5  -4  190.08   11.30
  -1   5  -4  197.78    9.90
   2  -6   3   24.40    3.20
   2  -6   3   18.00    3.50
   2  -6   3   23.20    5.50
   2  -6   3   18.80    3.80
  -2   6  -3   14.60    3.50
  -2   6  -3   14.50    2.70
   3  -7   2    1.20    2.30
   3  -7   2    7.40    2.60
   3  -7   2    3.10    1.70
  -3   7  -2    7.60    3.00
  -3   7  -2    1.50    1.90
  -4  -1   9    7.50    2.90
   4   1  -9    7.20    3.20
   4   1  -9    5.40    1.80
   4   1  -9    6.10    2.50
  -3  -2   8   14.60    3.50
  -3  -2   8   13.10    3.00
  -3  -2   8   16.30    2.80
   3   2  -8   12.30    3.00
   3   2  -8   14.40    2.60
   3   2  -8   13.70    3.50
   3   2  -8   16.50    3.30
   3   2  -8   10.50    1.90
  -2  -3   7   26.50    4.20
  -2  -3   7   27.80    4.30
   2   3  -7   24.80    3.80
   2   3  -7   22.10    2.50
   2   3  -7   26.70    2.70
   2   3  -7   29.00    4.20
  -1  -4   6   32.80    4.40
  -1  -4   6   37.40    4.00
   1   4  -6   38.00    4.00
   1   4  -6   37.60    3.80
   1   4  -6   37.30    3.40
   1   4  -6   35.00    2.90
   0  -5   5  146.99    9.30
   0  -5   5  151.58    9.60
   0  -5   5  168.28    9.50
   0   5  -5  189.78   10.40
   0   5  -5  152.78    9.30
   0   5  -5  178.98    8.80
   0   5  -5  156.98    9.10
   1  -6   4   51.49    5.00
   1  -6   4   59.19    5.20
   1  -6   4   47.80    4.80
   1  -6   4   56.19    4.50
  -1   6  -4   59.99    4.30
  -1   6  -4   54.99    5.50
   2  -7   3    5.90    2.70
   2  -7   3    0.80    1.80
   2  -7   3    2.90    2.30
  -2   7  -3    5.00    2.60
  -2   7  -3    1.90    2.00
   3  -8   2   13.40    5.70
   3  -8   2   12.20    3.90
  -3   8  -2    7.90    3.30
  -3   8  -2   12.60    3.40
  -4  -2   9    7.60    3.10
  -4  -2   9    3.40    2.10
   4   2  -9    2.60    1.90
   4   2  -9    2.90    2.50
   4   2  -9    8.20    2.80
  -3  -3   8   27.00    4.30
  -3  -3   8   18.50    3.00
  -3  -3   8   32.50    5.20
   3   3  -8   23.70    4.10
   3   3  -8   22.40    3.90
   3   3  -8   24.60    3.30
   3   3  -8   22.70    2.40
  -2  -4   7    2.50    2.20
  -2  -4   7   -2.60    1.50
   2   4  -7    0.70    1.30
   2   4  -7    0.50    1.10
   2   4  -7    1.80    2.10
   2   4  -7    0.70    1.60
  -1  -5   6    9.70    2.70
  -1  -5   6    2.90    1.80
  -1  -5   6    5.00    2.50
   1   5  -6    3.00    1.60
   1   5  -6    4.30    2.20
   1   5  -6    5.50    2.30
   1   5  -6    3.70    1.90
   0  -6   5   30.40    4.20
   0  -6   5   34.60    4.80
   0  -6   5   38.70    4.80
   0   6  -5   27.00    4.40
   0   6  -5   26.00    2.90
   0   6  -5   28.00    4.00
   0   6  -5   30.20    3.30
   1  -7   4   21.10    3.90
   1  -7   4   18.50    3.80
   1  -7   4   13.90    3.10
  -1   7  -4   13.80    3.70
  -1   7  -4   23.30    3.30
   2  -8   3    5.80    3.20
   2  -8   3    8.00    2.60
   2  -8   3    7.80    3.50
  -2   8  -3    7.20    3.40
  -4  -3   9    5.30    3.20
   4   3  -9    5.10    3.00
   4   3  -9    2.90    2.80
  -3  -4   8    0.90    2.30
  -3  -4   8    3.00    1.80
  -3  -4   8    3.70    2.50
   3   4  -8   -1.20    1.40
   3   4  -8    1.20    1.60
   3   4  -8    3.10    2.30
   3   4  -8    1.90    2.20
  -2  -5   7    0.70    2.10
  -2  -5   7    2.40    2.30
   2   5  -7    2.50    2.10
   2   5  -7    1.50    1.40
   2   5  -7    0.80    1.60
   2   5  -7   -2.50    1.60
  -1  -6   6   -1.90    1.60
  -1  -6   6   -0.40    2.40
  -1  -6   6    2.00    1.70
   1   6  -6   -0.10    1.60
   1   6  -6    0.70    1.40
   1   6  -6   -0.70    1.80
   1   6  -6    1.60    1.90
   0  -7   5   -1.20    1.80
   0  -7   5    2.00    2.50
   0  -7   5    0.50    2.10
   0   7  -5   -1.80    1.60
   0   7  -5   -1.30    1.40
   0   7  -5    3.20    2.70
   1  -8   4   -0.90    2.20
   1  -8   4    3.80    2.70
   1  -8   4    3.50    2.40
  -1   8  -4    0.90    1.90
  -1   8  -4    0.60    3.00
  -4  -4   9    0.90    2.30
  -4  -4   9    6.60    3.60
   4   4  -9    5.10    3.20
   4   4  -9    5.90    2.40
  -3  -5   8   14.30    3.90
   3   5  -8   16.60    2.90
   3   5  -8   12.70    3.60
   3   5  -8   11.30    3.70
  -2  -6   7   21.90    4.40
  -2  -6   7   11.80    3.60
   2   6  -7   19.70    3.20
   2   6  -7   15.40    3.90
   2   6  -7   13.70    3.40
   2   6  -7   15.90    2.90
  -1  -7   6    1.00    2.40
  -1  -7   6    0.10    1.80
  -1  -7   6    2.80    2.40
   1   7  -6    0.30    2.00
   1   7  -6    4.50    2.10
   1   7  -6   -2.80    2.20
   0  -8   5    6.20    2.70
   0  -8   5    3.40    2.70
   0  -8   5   -1.40    2.20
   0   8  -5    0.50    2.40
   0   8  -5    2.00    2.10
  -3  -6   8    8.00    3.40
  -2  -7   7    0.10    3.20
   2   7  -7    4.30    2.30
   2   7  -7    4.10    3.00
   2   7  -7    0.00    2.80
  -1  -8   6    3.60    3.40
   5  11   1   58.09    7.10
   5  11   1   42.10    4.60
   5  11   1   31.40    6.50
  -5 -11  -1   54.49    6.80
  -5 -11  -1   42.00    4.10
   6  10   0   24.00    4.60
   6  10   0   27.90    4.40
  -6 -10   0   33.10    5.50
   7   9  -1    5.80    3.00
   7   9  -1    7.60    3.00
   7   9  -1    3.50    2.70
  -7  -9   1    4.20    3.20
   3  12   3    4.40    2.70
   3  12   3    5.40    3.80
   3  12   3    4.00    3.30
  -3 -12  -3    1.50    2.90
  -3 -12  -3    1.00    2.50
   4  11   2   53.49    5.90
   4  11   2   54.39    5.30
   4  11   2   58.29    7.90
  -4 -11  -2   62.69    5.70
  -4 -11  -2   55.69    5.10
   5  10   1   25.50    4.40
   5  10   1   25.80    4.70
   5  10   1   29.40    4.50
  -5 -10  -1   28.00    3.50
  -5 -10  -1   23.50    4.40
   6   9   0   16.60    3.40
   6   9   0   14.10    3.60
   6   9   0   10.10    3.40
  -6  -9   0   15.40    3.80
   7   8  -1    7.20    2.50
   7   8  -1   11.70    3.30
   7   8  -1    8.40    3.00
  -7  -8   1    3.30    3.00
   8   7  -2   -2.40    2.10
  -8  -7   2    0.80    2.70
   2  12   4   -0.10    1.90
   2  12   4   -5.20    2.40
  -2 -12  -4    1.90    2.90
  -2 -12  -4    2.50    2.80
   3  11   3    6.80    3.10
   3  11   3    3.70    2.70
   3  11   3    1.50    1.40
  -3 -11  -3    7.30    2.70
  -3 -11  -3    1.40    2.00
   4  10   2   50.59    6.10
   4  10   2   45.40    4.80
  -4 -10  -2   55.39    4.60
  -4 -10  -2   43.70    4.70
   5   9   1    5.80    2.20
   5   9   1    6.80    2.80
   5   9   1    7.80    2.80
  -5  -9  -1    4.20    1.70
  -5  -9  -1    4.70    2.60
   6   8   0    0.90    2.00
   6   8   0    0.70    1.90
   6   8   0    3.50    2.30
  -6  -8   0    0.10    2.00
   7   7  -1   10.80    2.80
   7   7  -1    9.60    2.80
   7   7  -1   11.20    3.30
  -7  -7   1    9.10    3.20
   8   6  -2   -0.70    2.10
  -8  -6   2    2.90    3.10
   2  11   4    8.30    2.70
   2  11   4    1.30    2.50
   2  11   4    1.00    2.50
  -2 -11  -4    3.40    2.50
  -2 -11  -4    1.80    2.30
  -2 -11  -4   -1.30    2.10
   3  10   3    9.10    2.50
   3  10   3    4.40    2.30
   3  10   3   10.10    3.10
  -3 -10  -3    8.00    2.50
  -3 -10  -3   12.60    2.80
  -3 -10  -3   11.60    2.90
   4   9   2    8.00    2.90
   4   9   2    6.90    2.60
  -4  -9  -2    9.00    2.90
  -4  -9  -2    4.80    1.90
  -4  -9  -2    3.50    2.10
   5   8   1    0.00    1.50
   5   8   1   -1.10    1.20
   5   8   1    0.50    2.20
   5   8   1   -1.60    1.70
  -5  -8  -1   -1.30    1.40
  -5  -8  -1   -1.10    2.00
  -5  -8  -1    1.80    1.10
   6   7   0    1.10    1.80
   6   7   0    2.20    1.60
   6   7   0    1.10    2.30
   6   7   0    0.60    1.30
  -6  -7   0    4.60    2.20
  -6  -7   0    0.70    0.60
  -6  -7   0    1.10    0.80
   7   6  -1   -0.50    1.70
   7   6  -1    2.40    1.80
   7   6  -1   -0.80    1.50
   7   6  -1    1.80    3.00
  -7  -6   1    2.70    2.40
   8   5  -2    5.80    2.60
   8   5  -2   10.70    2.60
   8   5  -2    6.30    2.90
  -8  -5   2    5.80    3.30
   1  11   5   18.90    4.10
   1  11   5   24.40    4.90
   1  11   5   22.40    4.80
  -1 -11  -5   20.10    4.40
  -1 -11  -5   25.50    4.60
  -1 -11  -5   21.80    4.30
   2  10   4    6.90    2.90
   2  10   4   13.80    3.30
   2  10   4    4.30    2.20
  -2 -10  -4    5.00    2.90
  -2 -10  -4   10.70    3.00
  -2 -10  -4   10.20    2.60
   3   9   3   41.90    5.30
   3   9   3   43.90    3.80
   3   9   3   37.90    4.20
  -3  -9  -3   42.00    4.20
  -3  -9  -3   42.00    4.20
  -3  -9  -3   46.00    4.30
   4   8   2   41.40    4.20
   4   8   2   37.00    3.90
   4   8   2   43.30    3.60
   4   8   2   42.80    4.20
  -4  -8  -2   41.50    4.40
  -4  -8  -2   44.50    4.30
   5   7   1   37.60    4.80
   5   7   1   39.00    4.00
   5   7   1   28.10    2.70
   5   7   1   28.50    3.10
   5   7   1   28.10    3.10
  -5  -7  -1   40.10    5.00
  -5  -7  -1   31.50    2.70
   6   6   0   51.79    4.10
   6   6   0   51.09    4.70
   6   6   0   50.89    4.10
   6   6   0   49.70    4.30
  -6  -6   0   49.50    4.80
  -6  -6   0   47.30    2.80
  -6  -6   0   46.40    2.80
   7   5  -1   22.60    4.40
   7   5  -1   20.30    3.00
   7   5  -1   19.70    3.90
  -7  -5   1   19.50    4.00
   8   4  -2    0.20    2.00
   8   4  -2    4.60    2.50
   8   4  -2    6.70    2.10
  -8  -4   2    9.80    3.50
  -8  -4   2    3.10    2.50
   0  11   6    2.30    2.50
   0 -11  -6   -4.30    2.90
   0 -11  -6    7.60    3.70
   1  10   5   11.80    3.50
   1  10   5   11.60    3.40
   1  10   5   18.60    3.30
  -1 -10  -5   10.70    3.80
  -1 -10  -5    9.80    3.20
   2   9   4   97.69    6.20
   2   9   4   98.09    7.10
   2   9   4   88.09    6.70
  -2  -9  -4   93.19    6.90
  -2  -9  -4   97.79    6.20
  -2  -9  -4   93.29    6.60
   3   8   3   11.70    2.60
   3   8   3   12.30    2.10
   3   8   3    9.00    2.60
   3   8   3    7.90    2.50
  -3  -8  -3    7.70    2.20
  -3  -8  -3   10.60    2.60
  -3  -8  -3    8.50    2.30
   4   7   2   13.90    2.90
   4   7   2   12.80    2.60
   4   7   2   16.80    2.40
   4   7   2   14.40    2.80
  -4  -7  -2   16.70    2.50
  -4  -7  -2   10.00    2.10
  -4  -7  -2   12.50    2.80
   5   6   1   48.90    4.20
   5   6   1   58.39    4.90
   5   6   1   77.59    5.40
   5   6   1   66.79    5.20
   5   6   1   66.99    4.60
  -5  -6  -1   72.49    5.50
  -5  -6  -1   69.99    4.10
  -5  -6  -1   59.39    3.90
   6   5   0   87.79    5.50
   6   5   0   87.09    5.60
   6   5   0   82.29    6.30
   6   5   0   90.49    6.00
  -6  -5   0   92.09    5.00
  -6  -5   0   88.49    6.60
  -6  -5   0   86.49    4.60
   7   4  -1   49.40    4.50
   7   4  -1   34.60    3.50
   7   4  -1   47.80    4.50
   7   4  -1   45.30    3.50
  -7  -4   1   36.50    2.30
  -7  -4   1   37.70    2.30
   8   3  -2   18.30    3.60
   8   3  -2   18.40    2.80
   8   3  -2   17.40    3.50
   8   3  -2   12.60    3.50
  -8  -3   2   13.30    3.80
  -8  -3   2   17.40    3.90
   0  10   6    6.80    2.40
   0  10   6    2.30    2.40
   0  10   6   -1.50    2.30
   0 -10  -6    5.30    2.70
   0 -10  -6    2.40    1.60
   0 -10  -6    1.40    2.30
   1   9   5    8.70    2.20
   1   9   5    9.80    2.90
  -1  -9  -5    6.60    2.60
  -1  -9  -5    5.50    2.70
  -1  -9  -5    8.60    2.00
   2   8   4    6.00    2.60
   2   8   4    3.70    1.40
   2   8   4    5.10    2.20
  -2  -8  -4    4.70    2.20
  -2  -8  -4    5.50    2.10
   3   7   3   13.20    2.60
   3   7   3   10.50    2.40
   3   7   3    8.80    2.40
   3   7   3    7.20    1.60
  -3  -7  -3   13.40    1.90
  -3  -7  -3   10.80    2.90
  -3  -7  -3   12.20    2.50
  -3  -7  -3   12.50    2.50
   4   6   2   91.99    5.20
   4   6   2   89.09    5.90
   4   6   2   96.49    5.80
   4   6   2   89.79    5.40
   4   6   2   91.29    5.60
  -4  -6  -2   84.49    5.40
  -4  -6  -2   89.39    5.00
  -4  -6  -2   94.29    6.30
  -4  -6  -2   83.39    5.30
   5   5   1   53.19    3.70
   5   5   1   53.59    4.40
   5   5   1   51.09    3.30
   5   5   1   49.00    3.60
  -5  -5  -1   51.79    4.60
  -5  -5  -1   44.60    3.80
  -5  -5  -1   52.19    3.40
   6   4   0  195.58    9.60
   6   4   0  182.28    9.50
   6   4   0  194.28   10.80
   6   4   0  200.98   10.50
  -6  -4   0  183.38   10.90
  -6  -4   0  190.48    9.20
  -6  -4   0  180.68    9.20
   7   3  -1  206.58   10.50
   7   3  -1  208.68   11.80
   7   3  -1  208.48   10.40
   7   3  -1  200.48   11.90
  -7  -3   1  199.98   10.10
  -7  -3   1  217.28   12.10
  -7  -3   1  220.08   12.20
   8   2  -2   19.80    3.20
   8   2  -2   21.30    3.00
   8   2  -2   21.40    4.10
   8   2  -2   14.30    3.50
  -8  -2   2   16.50    3.70
  -8  -2   2   21.90    4.30
  -1  10   7   -0.20    2.00
  -1  10   7    6.10    3.20
   1 -10  -7   -1.70    2.40
   1 -10  -7   -2.80    2.40
   0   9   6   13.00    3.30
   0   9   6   13.80    2.60
   0   9   6   16.20    3.40
   0  -9  -6   14.40    3.50
   0  -9  -6   10.50    1.90
   0  -9  -6   13.20    3.40
   1   8   5   92.29    5.80
   1   8   5  103.89    6.90
  -1  -8  -5   97.99    6.00
  -1  -8  -5   99.89    6.80
  -1  -8  -5  111.69    7.40
   2   7   4   29.60    3.10
   2   7   4   32.10    2.70
   2   7   4   34.80    3.30
   2   7   4   31.20    3.40
   2   7   4   33.10    3.40
  -2  -7  -4   33.40    2.50
  -2  -7  -4   35.50    3.20
  -2  -7  -4   31.00    3.40
  -2  -7  -4   36.80    3.30
   3   6   3    2.10    0.80
   3   6   3    1.80    1.40
   3   6   3    0.60    1.40
   3   6   3    2.10    1.40
   3   6   3    1.90    1.60
  -3  -6  -3    4.20    1.00
  -3  -6  -3    2.20    1.60
  -3  -6  -3    2.60    1.30
  -3  -6  -3    2.60    1.20
   4   5   2   50.89    3.90
   4   5   2   47.20    3.20
   4   5   2   53.29    3.50
   4   5   2   45.50    3.30
  -4  -5  -2   45.00    3.90
  -4  -5  -2   45.90    3.20
  -4  -5  -2   46.00    3.40
   5   4   1   18.30    2.90
   5   4   1   16.70    2.40
   5   4   1   22.50    2.00
   5   4   1   20.70    2.00
  -5  -4  -1   20.60    2.00
  -5  -4  -1   23.30    2.40
  -5  -4  -1   22.20    3.40
   6   3   0   42.80    3.00
   6   3   0   51.19    3.10
   6   3   0   36.70    3.70
   6   3   0   49.40    4.20
  -6  -3   0   40.70    4.00
  -6  -3   0   41.80    3.10
  -6  -3   0   41.00    3.10
   7   2  -1    1.30    1.70
   7   2  -1    2.10    1.40
   7   2  -1    0.50    1.70
   7   2  -1    1.60    1.10
  -7  -2   1    2.40    1.90
  -7  -2   1   -0.20    1.00
  -7  -2   1    4.70    2.10
   8   1  -2   22.20    4.40
   8   1  -2   21.20    4.20
   8   1  -2   21.90    2.90
   8   1  -2   22.70    3.20
  -8  -1   2   32.20    5.10
  -8  -1   2   26.90    4.70
  -8  -1   2   16.80    2.80
  -8  -1   2   25.80    4.10
  -1   9   7    3.10    2.40
  -1   9   7   -0.40    2.10
  -1   9   7   -1.80    1.80
   1  -9  -7    1.70    2.40
   1  -9  -7    4.50    2.70
   0   8   6    1.00    1.90
   0   8   6    3.10    1.50
   0   8   6    2.50    2.00
   0   8   6    2.30    1.20
   0  -8  -6    2.50    2.10
   0  -8  -6    4.90    1.60
   0  -8  -6    3.10    1.40
   0  -8  -6    3.00    1.90
   1   7   5   49.30    4.60
   1   7   5   74.89    5.20
   1   7   5   66.39    4.40
   1   7   5   63.69    3.90
   1   7   5   62.79    4.00
  -1  -7  -5   59.29    4.30
  -1  -7  -5   66.69    5.00
  -1  -7  -5   62.99    5.20
   2   6   4  398.46   18.00
   2   6   4  397.06   19.00
   2   6   4  413.46   19.10
   2   6   4  406.16   19.20
   2   6   4  393.46   18.00
  -2  -6  -4  403.86   22.10
  -2  -6  -4  399.06   18.90
  -2  -6  -4  392.66   17.90
  -2  -6  -4  418.16   19.10
   3   5   3    1.70    0.70
   3   5   3    1.70    1.10
   3   5   3    1.90    1.20
   3   5   3    3.80    1.50
   3   5   3    5.60    1.50
  -3  -5  -3    1.90    1.10
  -3  -5  -3    2.30    1.40
  -3  -5  -3    4.80    0.90
  -3  -5  -3    3.20    1.30
   4   4   2   56.99    3.90
   4   4   2   52.49    3.40
   4   4   2   50.49    3.20
   4   4   2   51.29    3.20
  -4  -4  -2   52.19    3.50
  -4  -4  -2   49.70    3.30
  -4  -4  -2   47.30    3.40
   5   3   1   26.10    1.90
   5   3   1   31.90    3.00
   5   3   1   21.30    1.80
   5   3   1   27.20    2.50
  -5  -3  -1   29.60    2.40
  -5  -3  -1   29.60    3.70
  -5  -3  -1   26.50    2.30
   6   2   0    0.70    1.40
   6   2   0    0.30    1.10
   6   2   0    0.60    0.80
   6   2   0    0.10    1.10
   6   2   0    0.50    0.70
  -6  -2   0    1.60    1.50
  -6  -2   0   -0.40    1.30
  -6  -2   0    0.90    1.00
   7   1  -1    8.60    1.70
   7   1  -1    8.30    2.00
   7   1  -1    9.80    3.30
   7   1  -1   10.20    1.70
   7   1  -1    4.50    2.20
  -7  -1   1    8.30    2.40
  -7  -1   1   11.00    2.90
  -7  -1   1   11.00    2.10
  -7  -1   1    7.50    2.90
   8   0  -2   33.80    4.40
   8   0  -2   38.50    4.00
   8   0  -2   34.80    5.20
   8   0  -2   32.40    3.20
  -8   0   2   37.80    3.80
  -8   0   2   51.79    6.30
  -8   0   2   35.00    5.50
  -8   0   2   36.90    4.10
  -2   9   8   -3.80    2.40
  -2   9   8    1.20    2.20
   2  -9  -8    0.50    2.90
   2  -9  -8   -0.40    2.50
  -1   8   7   14.40    2.70
  -1   8   7   21.00    3.90
  -1   8   7   14.80    2.00
  -1   8   7   15.80    3.40
   1  -8  -7   13.00    1.90
   1  -8  -7   11.30    3.40
   1  -8  -7   20.50    3.80
   0   7   6   72.69    4.70
   0   7   6   74.39    4.70
   0   7   6   69.29    5.30
   0   7   6   65.19    5.20
   0  -7  -6   74.99    5.50
   0  -7  -6   71.19    4.60
   0  -7  -6   71.79    4.50
   0  -7  -6   78.89    6.00
   1   6   5   74.89    4.70
   1   6   5   73.49    4.90
   1   6   5   78.19    4.10
   1   6   5   66.39    5.00
   1   6   5   70.59    4.90
   1   6   5   73.09    4.10
  -1  -6  -5   70.99    5.30
  -1  -6  -5   67.99    4.90
   2   5   4  165.78    9.00
   2   5   4  165.18    8.90
   2   5   4  176.98    9.30
   2   5   4  175.58    7.90
   2   5   4  179.58    7.90
   2   5   4  188.28    9.20
  -2  -5  -4  169.98    8.90
  -2  -5  -4  181.48    7.90
  -2  -5  -4  177.58    9.20
  -2  -5  -4  168.68    9.30
   3   4   3    0.50    0.40
   3   4   3   -0.10    0.80
   3   4   3    2.20    1.20
   3   4   3   -0.10    0.80
   3   4   3    1.80    0.90
   3   4   3    1.30    1.00
  -3  -4  -3    2.90    1.10
  -3  -4  -3    0.20    0.60
  -3  -4  -3    0.00    1.00
  -3  -4  -3    0.50    0.50
  -3  -4  -3    0.60    0.80
   4   3   2    1.90    0.70
   4   3   2    1.30    0.70
   4   3   2    0.50    1.20
   4   3   2    1.00    0.60
   4   3   2    1.20    1.00
   4   3   2    1.60    0.90
  -4  -3  -2    2.00    0.90
  -4  -3  -2    3.10    0.90
  -4  -3  -2    2.00    1.00
  -4  -3  -2    3.00    1.50
   5   2   1    4.10    1.50
   5   2   1    3.50    1.70
   5   2   1    4.10    0.60
   5   2   1    5.20    1.40
   5   2   1    2.90    1.40
  -5  -2  -1    3.80    1.50
  -5  -2  -1    4.60    1.90
  -5  -2  -1    5.80    1.50
   6   1   0   -0.60    1.20
   6   1   0    0.30    0.50
   6   1   0   -0.70    0.60
   6   1   0   -0.50    1.10
   6   1   0   -0.10    1.20
  -6  -1   0   -2.20    1.10
  -6  -1   0    0.90    1.10
  -6  -1   0   -0.30    1.20
  -6  -1   0    0.20    1.40
   7   0  -1   25.10    2.30
   7   0  -1   29.60    4.30
   7   0  -1   27.00    3.70
  -7   0   1   28.60    4.50
  -7   0   1   33.60    4.10
  -7   0   1   28.90    3.90
  -7   0   1   26.80    4.30
   8  -1  -2    0.10    1.60
   8  -1  -2    1.30    2.40
   8  -1  -2    0.70    4.70
   8  -1  -2    3.00    2.60
  -8   1   2   -0.20    1.90
  -8   1   2    1.90    1.80
  -8   1   2    0.80    2.30
  -8   1   2   -1.90    2.10
  -2   8   8    0.40    2.30
  -2   8   8    1.20    1.60
   2  -8  -8    0.50    2.50
   2  -8  -8    0.00    2.30
  -1   7   7    7.80    1.60
  -1   7   7    4.70    1.80
  -1   7   7    8.70    2.60
  -1   7   7    6.10    2.20
   1  -7  -7    6.90    2.70
   1  -7  -7    6.20    2.40
   1  -7  -7    7.50    1.90
   0   6   6   17.50    2.10
   0   6   6   20.70    2.60
   0   6   6   19.50    3.10
   0   6   6   18.60    2.30
   0   6   6   14.20    2.70
   0  -6  -6   20.00    2.90
   0  -6  -6   16.00    2.90
   0  -6  -6   16.80    3.20
   1   5   5   30.00    2.00
   1   5   5   35.00    2.80
   1   5   5   31.70    2.80
   1   5   5   32.10    2.00
   1   5   5   28.20    2.70
   1   5   5   28.10    2.80
  -1  -5  -5   29.70    2.70
  -1  -5  -5   31.80    3.00
  -1  -5  -5   28.10    3.20
   2   4   4  854.11   37.40
   2   4   4  846.62   37.30
   2   4   4  828.02   37.70
   2   4   4  838.12   37.40
  -2  -4  -4  833.72   37.20
  -2  -4  -4  872.41   38.00
   3   3   3    5.40    1.60
   3   3   3    5.60    1.10
   3   3   3    4.00    0.70
   3   3   3    5.00    1.20
   3   3   3    6.10    1.40
   3   3   3    4.10    0.90
  -3  -3  -3    3.50    1.20
  -3  -3  -3    4.30    0.70
  -3  -3  -3    5.10    0.80
  -3  -3  -3    5.10    1.30
   4   2   2    0.30    0.70
   4   2   2    1.90    1.20
   4   2   2   -1.20    0.70
   4   2   2    1.10    0.30
  -4  -2  -2    1.70    0.70
  -4  -2  -2    0.00    0.70
  -4  -2  -2    1.20    0.90
  -4  -2  -2    2.80    1.30
  -4  -2  -2    0.10    0.80
  -4  -2  -2    1.40    0.80
   5   1   1  106.99    6.30
   5   1   1  102.89    6.30
   5   1   1  102.19    6.10
  -5  -1  -1  100.69    6.30
  -5  -1  -1   98.39    6.00
  -5  -1  -1  107.09    6.40
   6   0   0    9.30    2.40
   6   0   0   14.70    1.30
   6   0   0   21.80    3.30
   6   0   0   16.80    2.80
   6   0   0   14.00    1.40
  -6   0   0   15.70    2.70
  -6   0   0   13.80    2.80
  -6   0   0   12.90    2.70
  -6   0   0   16.80    2.80
   7  -1  -1   28.70    4.00
   7  -1  -1   29.30    4.40
   7  -1  -1   26.30    2.40
  -7   1   1   27.80    3.10
  -7   1   1   29.80    4.40
  -7   1   1   24.60    4.20
   8  -2  -2    9.80    2.50
  -3   8   9    3.50    2.60
   3  -8  -9    1.50    3.20
  -2   7   8    3.10    2.10
  -2   7   8    2.20    1.20
  -2   7   8    0.40    1.20
  -2   7   8   -3.00    1.60
   2  -7  -8   -2.70    1.70
   2  -7  -8    2.40    2.40
  -1   6   7    7.90    2.20
  -1   6   7   11.90    2.80
  -1   6   7   11.60    2.00
  -1   6   7   12.10    2.60
   1  -6  -7   12.00    2.30
   1  -6  -7    9.90    3.10
   1  -6  -7   11.40    2.80
   0   5   6   19.00    1.90
   0   5   6   26.70    3.40
   0   5   6   16.60    1.70
   0   5   6   21.30    2.80
   0   5   6   18.70    3.00
   0  -5  -6   18.40    1.80
   0  -5  -6   19.90    3.10
   0  -5  -6   19.40    3.00
   1   4   5  439.96   20.00
   1   4   5  441.56   19.00
   1   4   5  448.06   20.30
   1   4   5  437.76   20.20
   1   4   5  418.56   18.90
  -1  -4  -5  441.26   20.60
  -1  -4  -5  442.96   20.60
  -1  -4  -5  415.26   20.00
  -1  -4  -5  433.06   19.80
   2   3   4  101.19    5.40
   2   3   4   96.79    5.20
   2   3   4  110.89    5.90
   2   3   4   98.49    5.70
  -2  -3  -4   92.69    5.60
  -2  -3  -4  105.49    5.90
  -2  -3  -4   97.69    5.10
  -2  -3  -4   95.89    5.10
   3   2   3  496.75   21.50
   3   2   3  466.45   22.30
   3   2   3  494.75   22.60
   3   2   3  484.95   21.90
   3   2   3  499.25   22.00
  -3  -2  -3  493.35   21.70
  -3  -2  -3  492.45   22.50
  -3  -2  -3  494.95   21.90
  -3  -2  -3  489.75   22.50
  -3  -2  -3  489.15   21.60
   4   1   2  131.09    7.10
   4   1   2  126.09    6.70
   4   1   2  132.09    7.20
   4   1   2  123.19    6.70
  -4  -1  -2  130.99    6.80
  -4  -1  -2  120.09    6.70
  -4  -1  -2  127.19    6.70
  -4  -1  -2  125.39    7.00
  -4  -1  -2  128.79    7.00
  -4  -1  -2  113.39    6.60
   5   0   1   32.10    3.20
   5   0   1   35.50    3.10
   5   0   1   32.50    3.30
  -5   0  -1   37.10    3.40
  -5   0  -1   43.80    3.40
  -5   0  -1   37.10    3.40
  -5   0  -1   34.40    3.10
   6  -1   0   11.10    1.50
   6  -1   0    6.20    2.40
   6  -1   0   15.00    2.80
   6  -1   0    8.40    1.40
  -6   1   0    9.80    2.50
  -6   1   0   11.70    2.30
  -6   1   0    7.50    2.40
   7  -2  -1   11.40    2.20
   7  -2  -1    8.80    2.90
   7  -2  -1    9.90    3.40
  -7   2   1    9.00    2.90
  -7   2   1    9.80    2.90
  -7   2   1    9.80    2.20
  -3   7   9   37.20    4.90
  -3   7   9   25.80    4.60
   3  -7  -9   40.10    5.20
   3  -7  -9   31.00    5.30
  -2   6   8   74.89    5.60
  -2   6   8   58.49    4.30
   2  -6  -8   66.09    4.90
   2  -6  -8   65.49    6.70
   2  -6  -8   62.19    5.40
  -1   5   7    6.20    2.00
  -1   5   7    5.30    1.50
  -1   5   7   10.00    2.00
  -1   5   7    7.40    2.10
   1  -5  -7    6.80    2.20
   1  -5  -7   15.90    3.00
   1  -5  -7    7.40    1.70
   0   4   6    1.00    0.70
   0   4   6   -1.60    1.10
   0   4   6    2.00    1.40
   0   4   6    0.80    0.90
   0   4   6   -0.20    0.80
   0   4   6    0.60    0.60
   0  -4  -6    0.30    1.20
   0  -4  -6   -0.30    0.50
   0  -4  -6    1.20    1.20
   1   3   5    5.30    1.50
   1   3   5    6.10    1.50
   1   3   5    6.80    0.80
   1   3   5    6.80    1.50
   1   3   5    7.30    1.30
  -1  -3  -5    6.30    1.40
  -1  -3  -5    6.90    1.70
  -1  -3  -5    6.40    1.10
  -1  -3  -5    6.40    0.70
   2   2   4  161.78    8.50
   2   2   4  160.58    7.90
   2   2   4  179.98    8.80
   2   2   4  156.18    8.00
   2   2   4  160.18    7.70
   2   2   4  176.98    7.40
  -2  -2  -4  171.88    8.80
  -2  -2  -4  160.58    7.70
  -2  -2  -4  162.88    7.70
  -2  -2  -4  149.69    8.40
  -2  -2  -4  164.68    7.40
  -2  -2  -4  170.48    7.50
  -2  -2  -4  166.38    7.70
  -2  -2  -4  164.88    8.60
   3   1   3    1.50    0.50
   3   1   3    1.10    1.00
   3   1   3    1.60    0.60
   3   1   3    1.00    1.10
   3   1   3    2.60    0.80
  -3  -1  -3    2.60    0.80
  -3  -1  -3    0.50    0.90
  -3  -1  -3    2.30    0.80
  -3  -1  -3    0.80    1.00
  -3  -1  -3    1.90    0.70
  -3  -1  -3    2.40    0.70
   4   0   2   63.59    4.20
   4   0   2   62.09    4.40
  -4   0  -2   58.69    4.30
  -4   0  -2   65.99    4.00
  -4   0  -2   62.69    4.00
  -4   0  -2   64.29    4.20
   5  -1   1   36.00    3.00
   5  -1   1   24.20    3.40
   5  -1   1   24.90    1.70
   5  -1   1   24.70    3.40
   5  -1   1   23.80    1.70
  -5   1  -1   19.50    3.00
  -5   1  -1   31.90    2.80
  -5   1  -1   29.00    3.60
   6  -2   0   41.00    3.10
   6  -2   0   38.70    4.90
  -6   2   0   36.80    3.20
  -6   2   0   49.70    4.40
   7  -3  -1    1.00    1.60
   7  -3  -1    5.50    2.70
   7  -3  -1   -0.30    2.30
  -7   3   1    2.10    2.30
  -3   6   9   13.60    3.10
  -3   6   9   12.20    3.20
   3  -6  -9   16.70    5.60
   3  -6  -9   19.50    3.40
   3  -6  -9   11.20    3.50
  -2   5   8    0.80    1.50
  -2   5   8   -0.20    1.00
  -2   5   8    0.00    1.50
   2  -5  -8   -2.70    1.10
   2  -5  -8    2.70    2.00
   2  -5  -8    2.30    2.00
  -1   4   7    5.30    1.60
  -1   4   7    5.20    1.70
  -1   4   7    2.00    1.50
   1  -4  -7    5.20    2.00
   1  -4  -7    6.50    1.90
   1  -4  -7    2.30    1.20
   0   3   6  201.38   10.00
   0   3   6  204.38   10.60
   0   3   6  209.58   11.10
   0   3   6  215.18   10.50
   0   3   6  209.38    9.80
   0  -3  -6  211.98   10.90
   0  -3  -6  199.68    9.80
   0  -3  -6  190.58    9.90
   0  -3  -6  213.88   10.50
   1   2   5  216.08   10.90
   1   2   5  226.68   11.20
   1   2   5  214.38   10.20
   1   2   5  253.47   11.00
   1   2   5  217.58   10.10
  -1  -2  -5  222.58   10.10
  -1  -2  -5  220.08   10.10
  -1  -2  -5  231.28   11.40
  -1  -2  -5  216.88   10.70
   2   1   4    4.90    0.90
   2   1   4    2.70    1.20
   2   1   4    4.80    1.10
   2   1   4    4.40    0.50
   2   1   4    4.90    1.10
  -2  -1  -4    3.20    1.00
  -2  -1  -4    2.80    0.80
  -2  -1  -4    5.30    0.90
  -2  -1  -4    2.60    1.00
   3   0   3   44.60    3.60
   3   0   3   44.50    3.10
   3   0   3   50.89    2.70
   3   0   3   48.70    2.60
   3   0   3   48.20    3.50
  -3   0  -3   44.80    2.80
  -3   0  -3   49.80    3.20
  -3   0  -3   46.60    2.80
  -3   0  -3   42.50    3.50
  -3   0  -3   47.90    3.20
  -3   0  -3   44.40    3.50
   4  -1   2   21.10    3.00
   4  -1   2   22.80    1.50
   4  -1   2   21.30    1.60
   4  -1   2   22.80    2.30
  -4   1  -2   22.60    2.20
   5  -2   1    0.70    1.10
   5  -2   1    1.80    1.00
   5  -2   1    1.40    1.00
   5  -2   1    0.40    1.50
  -5   2  -1   -0.10    1.20
  -5   2  -1    0.40    1.40
  -5   2  -1    1.50    1.10
   6  -3   0   23.90    4.10
   6  -3   0   18.00    2.70
   6  -3   0   20.10    2.70
  -6   3   0   25.50    4.10
  -6   3   0   16.20    2.20
   7  -4  -1    3.30    2.30
   7  -4  -1   -5.00    2.20
  -7   4   1    6.20    2.90
  -7   4   1    5.60    2.90
  -3   5   9    8.00    2.40
  -3   5   9   10.00    2.70
  -3   5   9    9.10    2.20
   3  -5  -9    6.90    2.80
   3  -5  -9    5.20    2.40
   3  -5  -9    5.70    2.40
  -2   4   8    1.90    1.60
  -2   4   8    0.30    1.60
  -2   4   8    1.90    1.40
   2  -4  -8    1.40    1.20
   2  -4  -8    1.20    1.70
   2  -4  -8    4.20    1.90
  -1   3   7    0.50    0.60
  -1   3   7    4.30    1.60
   1  -3  -7    3.10    1.50
   1  -3  -7    7.50    1.90
   1  -3  -7    3.20    1.20
   0   2   6  153.78    7.60
   0   2   6  161.78    7.90
   0   2   6  155.68    8.40
   0   2   6  152.88    8.30
   0   2   6  152.68    8.40
   0   2   6  166.68    7.70
   0  -2  -6  155.38    7.80
   0  -2  -6  151.18    8.60
   0  -2  -6  164.98    8.70
   0  -2  -6  159.48    7.70
   1   1   5  249.88   12.40
   1   1   5  265.97   12.50
   1   1   5  257.17   12.00
   1   1   5  257.67   12.80
   1   1   5  262.17   11.20
   1   1   5  246.58   11.20
  -1  -1  -5  287.07   12.10
  -1  -1  -5  255.47   12.90
  -1  -1  -5  261.67   12.30
   2   0   4   14.30    1.50
   2   0   4   14.00    2.20
   2   0   4   15.60    1.50
   2   0   4   14.80    2.30
   2   0   4   14.50    1.80
  -2   0  -4   13.90    2.20
  -2   0  -4   13.30    0.80
  -2   0  -4   16.20    1.60
  -2   0  -4   12.40    1.10
  -2   0  -4   12.20    0.70
   3  -1   3    0.60    1.00
  -3   1  -3    1.70    1.00
  -3   1  -3    0.10    0.60
  -3   1  -3    1.70    0.80
   4  -2   2   19.20    1.90
   4  -2   2   20.00    1.80
   4  -2   2   20.10    2.20
   4  -2   2   24.90    3.40
  -4   2  -2   17.10    2.50
  -4   2  -2   18.30    2.90
   5  -3   1    1.50    1.20
   5  -3   1    5.70    1.40
   5  -3   1    5.20    1.50
   5  -3   1    6.20    2.30
  -5   3  -1    4.40    1.30
  -5   3  -1    3.90    1.80
  -5   3  -1    3.90    2.00
  -5   3  -1    5.50    1.40
   6  -4   0    2.30    2.30
   6  -4   0    2.00    1.70
   6  -4   0    0.30    2.20
  -6   4   0   -0.50    2.10
  -6   4   0    0.00    1.90
  -4   5  10    1.20    2.70
  -4   5  10    3.50    2.30
  -4   5  10    0.10    2.20
   4  -5 -10    3.30    2.70
   4  -5 -10   -1.40    2.50
   4  -5 -10    2.30    2.80
  -3   4   9    9.10    2.90
  -3   4   9    7.20    2.50
  -3   4   9   10.30    2.50
   3  -4  -9    2.90    1.90
   3  -4  -9    7.60    3.00
   3  -4  -9    7.90    2.70
  -2   3   8    0.60    1.80
  -2   3   8    0.20    1.30
  -2   3   8    3.10    1.40
   2  -3  -8   -0.10    1.80
   2  -3  -8    2.70    1.60
   2  -3  -8   -1.20    1.20
  -1   2   7   14.80    2.60
  -1   2   7   13.80    2.70
  -1   2   7   15.70    2.10
  -1   2   7   16.90    2.20
   1  -2  -7   15.30    2.20
   1  -2  -7   18.70    2.90
   1  -2  -7   16.50    3.90
   0   1   6  218.98   10.00
   0   1   6  219.28   11.00
   0   1   6  216.38   11.10
   0   1   6  207.48   10.60
   0   1   6  224.68   11.30
   0  -1  -6  218.08   11.10
   0  -1  -6  230.58   10.70
   0  -1  -6  207.68   10.80
   1   0   5 1231.18   52.99
   1   0   5 1229.88   53.09
   1   0   5 1213.38   53.49
   1   0   5 1184.18   52.89
  -1   0  -5 1250.97   53.49
  -1   0  -5 1148.59   52.79
   2  -1   4  406.56   18.80
   2  -1   4  388.56   18.60
   2  -1   4  412.96   19.40
   2  -1   4  407.86   18.60
   2  -1   4  410.66   19.10
  -2   1  -4  399.06   18.00
  -2   1  -4  404.76   17.70
  -2   1  -4  390.86   17.70
  -2   1  -4  422.16   19.40
  -2   1  -4  434.66   19.00
   3  -2   3   16.70    2.20
   3  -2   3   14.60    2.50
   3  -2   3   13.20    1.80
  -3   2  -3   11.40    1.70
  -3   2  -3   21.10    3.30
  -3   2  -3   18.10    2.60
   4  -3   2   56.39    3.90
   4  -3   2   67.69    4.20
   4  -3   2   54.09    4.90
   4  -3   2   57.89    4.00
  -4   3  -2   59.19    4.80
   5  -4   1    1.00    1.30
   5  -4   1    4.00    2.20
   5  -4   1    1.20    1.80
   5  -4   1    0.00    1.10
  -5   4  -1    0.50    0.90
  -5   4  -1    0.80    1.50
  -5   4  -1   -0.80    1.90
   6  -5   0    1.50    2.10
   6  -5   0    2.20    2.70
  -6   5   0   -0.60    2.40
  -6   5   0   -1.30    2.00
  -4   4  10    3.80    2.50
  -4   4  10    1.00    1.90
   4  -4 -10    1.80    2.60
   4  -4 -10   -0.20    2.00
   4  -4 -10    2.00    2.30
  -3   3   9   -1.80    1.30
  -3   3   9    6.00    2.30
  -3   3   9    1.80    1.70
   3  -3  -9    5.20    2.00
   3  -3  -9    2.90    2.10
   3  -3  -9    1.10    1.30
  -2   2   8    1.30    1.40
  -2   2   8    4.70    2.00
  -2   2   8    0.60    0.80
   2  -2  -8    2.80    1.90
   2  -2  -8    0.80    1.30
   2  -2  -8   -0.80    1.10
  -1   1   7   17.50    2.10
  -1   1   7   18.80    3.00
  -1   1   7   16.30    1.80
  -1   1   7   18.20    3.00
   1  -1  -7   11.10    2.20
   1  -1  -7   16.90    2.70
   1  -1  -7   18.40    2.50
   0   0   6   94.29    5.70
   0   0   6   96.09    4.50
   0   0   6   94.39    6.00
   0   0   6   92.19    4.60
   0   0   6   94.79    5.80
   0   0  -6   97.39    5.60
   0   0  -6   91.89    5.50
   0   0  -6   89.39    5.70
   1  -1   5   32.70    3.10
   1  -1   5   38.70    3.00
   1  -1   5   37.90    3.20
   1  -1   5   35.50    2.90
  -1   1  -5   36.40    2.80
  -1   1  -5   35.40    3.00
  -1   1  -5   38.70    3.20
   2  -2   4    0.10    0.90
   2  -2   4    2.40    1.10
   2  -2   4    0.20    0.50
   2  -2   4   -1.40    0.90
  -2   2  -4    1.30    0.70
  -2   2  -4    2.10    1.30
  -2   2  -4   -0.60    1.00
  -2   2  -4    1.60    0.70
  -2   2  -4    0.60    0.50
   3  -3   3   41.20    4.00
   3  -3   3   40.30    3.30
   3  -3   3   47.60    3.40
   3  -3   3   47.60    3.40
   3  -3   3   38.90    3.10
  -3   3  -3   40.50    3.80
  -3   3  -3   40.20    3.00
  -3   3  -3   42.30    3.20
   4  -4   2   15.40    3.30
   4  -4   2   25.40    2.70
   4  -4   2   20.50    2.60
   4  -4   2   16.50    2.80
  -4   4  -2   21.70    3.10
  -4   4  -2   21.00    3.60
   5  -5   1   55.39    4.70
   5  -5   1   54.19    5.60
  -5   5  -1   50.49    6.20
  -5   5  -1   54.69    5.30
  -4   3  10    7.70    2.80
  -4   3  10    7.70    2.70
   4  -3 -10   11.30    3.00
   4  -3 -10    2.40    2.70
   4  -3 -10    6.30    3.00
  -3   2   9   22.70    5.40
  -3   2   9   21.20    3.60
  -3   2   9   22.70    3.60
   3  -2  -9   17.30    3.40
   3  -2  -9   25.10    3.70
   3  -2  -9   11.90    2.80
  -2   1   8   30.70    4.10
  -2   1   8   28.50    3.10
  -2   1   8   36.40    4.40
   2  -1  -8   26.20    3.50
   2  -1  -8   29.70    3.10
   2  -1  -8   31.80    3.40
  -1   0   7   76.39    4.30
  -1   0   7   77.59    5.40
  -1   0   7   86.59    5.70
   1   0  -7   71.09    5.10
   1   0  -7   68.59    5.00
   0  -1   6   12.00    1.00
   0  -1   6    9.90    1.00
   0  -1   6   10.60    2.20
   0  -1   6   14.20    2.40
   0  -1   6   16.00    2.80
   0   1  -6   11.30    1.00
   0   1  -6   12.50    2.30
   0   1  -6   12.80    2.20
   0   1  -6    7.60    1.90
   1  -2   5  126.09    7.20
   1  -2   5  131.19    7.40
   1  -2   5  144.19    7.30
   1  -2   5  124.79    7.40
   1  -2   5  130.09    5.80
  -1   2  -5  118.29    7.50
  -1   2  -5  120.49    5.80
  -1   2  -5  122.69    6.80
  -1   2  -5  123.09    7.40
   2  -3   4  232.08   11.90
   2  -3   4  228.98   11.70
   2  -3   4  228.38   12.30
   2  -3   4  223.98   10.80
  -2   3  -4  220.38   10.80
  -2   3  -4  236.08   10.90
  -2   3  -4  234.68   12.20
  -2   3  -4  234.78   12.30
   3  -4   3  179.28   10.80
   3  -4   3  184.28    9.90
   3  -4   3  183.28    9.70
   3  -4   3  183.38   10.10
  -3   4  -3  202.48   10.90
  -3   4  -3  189.18    9.70
   4  -5   2    3.40    1.40
   4  -5   2    5.10    2.50
   4  -5   2    5.00    2.00
   4  -5   2    4.00    2.40
  -4   5  -2    5.40    1.90
  -4   5  -2    1.20    2.00
   5  -6   1    3.80    2.50
   5  -6   1    3.60    3.00
  -5   6  -1    0.60    2.40
  -5   6  -1    5.10    2.50
  -4   2  10    0.20    2.00
  -4   2  10    1.60    2.00
   4  -2 -10    2.80    2.40
   4  -2 -10    3.80    2.40
   4  -2 -10    4.80    2.50
  -3   1   9    0.50    1.10
  -3   1   9    8.40    2.40
  -3   1   9    6.00    2.30
   3  -1  -9    4.10    1.80
   3  -1  -9    3.40    2.20
   3  -1  -9    5.60    2.50
  -2   0   8   27.10    2.70
  -2   0   8   26.30    4.00
  -2   0   8   23.30    3.90
   2   0  -8   26.80    4.00
   2   0  -8   22.00    3.40
   2   0  -8   31.50    5.80
  -1  -1   7   31.70    3.40
  -1  -1   7   29.50    2.30
  -1  -1   7   30.30    2.50
  -1  -1   7   35.30    3.60
   1   1  -7   31.80    3.30
   1   1  -7   30.00    3.20
   1   1  -7   30.30    2.30
   1   1  -7   22.70    3.10
   0  -2   6    1.10    0.70
   0  -2   6   -0.60    1.20
   0   2  -6    1.50    1.30
   0   2  -6    2.50    1.80
   0   2  -6    0.70    0.50
   0   2  -6    0.00    1.20
   1  -3   5   32.30    3.30
   1  -3   5   37.40    2.40
   1  -3   5   34.70    3.50
   1  -3   5   37.50    3.60
   1  -3   5   38.20    3.60
  -1   3  -5   38.30    3.20
  -1   3  -5   36.00    3.70
  -1   3  -5   39.70    3.60
  -1   3  -5   37.70    2.40
   2  -4   4    1.20    1.60
   2  -4   4    2.80    1.30
   2  -4   4    3.40    1.80
   2  -4   4    1.90    1.80
   2  -4   4    5.70    1.90
  -2   4  -4    0.00    1.50
  -2   4  -4    2.40    1.10
  -2   4  -4    4.30    1.40
   3  -5   3  109.49    8.40
   3  -5   3  109.69    7.00
  -3   5  -3  113.09    6.90
  -3   5  -3  127.09    9.10
   4  -6   2    9.80    3.40
   4  -6   2   13.00    3.20
   4  -6   2   13.30    2.20
  -4   6  -2    9.70    2.70
  -4   6  -2    8.50    3.20
  -4   1  10    6.10    2.60
  -4   1  10    8.30    2.90
   4  -1 -10    3.90    2.60
   4  -1 -10    8.10    2.50
   4  -1 -10    2.30    2.20
  -3   0   9   27.50    4.40
  -3   0   9   29.80    4.40
  -3   0   9   29.80    3.70
   3   0  -9   29.10    3.70
   3   0  -9   26.60    4.90
   3   0  -9   30.70    4.50
  -2  -1   8   45.10    3.50
  -2  -1   8   45.70    4.60
  -2  -1   8   45.20    4.30
   2   1  -8   59.59    4.60
   2   1  -8   43.90    3.40
   2   1  -8   48.10    3.80
   2   1  -8   46.60    4.30
  -1  -2   7  352.06   18.00
  -1  -2   7  381.96   16.60
  -1  -2   7  361.06   18.40
   1   2  -7  349.07   17.90
   1   2  -7  352.46   17.80
   1   2  -7  362.16   16.50
   0  -3   6  138.59    8.00
   0  -3   6  134.99    8.30
   0  -3   6  121.89    7.80
   0  -3   6  133.09    6.60
   0  -3   6  127.49    8.10
   0   3  -6  143.79    8.10
   0   3  -6  133.29    8.20
   0   3  -6  131.99    6.60
   0   3  -6  137.49    7.80
   1  -4   5   60.19    4.80
   1  -4   5   54.29    4.70
   1  -4   5   52.69    4.40
   1  -4   5   56.49    4.10
   1  -4   5   48.80    4.40
  -1   4  -5   55.99    3.60
  -1   4  -5   57.69    4.70
  -1   4  -5   55.09    5.00
   2  -5   4   64.69    5.40
   2  -5   4   50.19    4.30
   2  -5   4   60.49    4.90
   2  -5   4   68.49    5.10
  -2   5  -4   61.19    5.50
  -2   5  -4   54.59    4.10
   3  -6   3    1.50    1.50
   3  -6   3    1.00    2.10
   3  -6   3    2.40    2.20
  -3   6  -3    3.90    1.90
  -3   6  -3    2.90    2.40
   4  -7   2   18.60    4.00
   4  -7   2   17.80    6.20
  -4   7  -2   18.50    3.60
  -4   7  -2   20.20    7.00
  -4   0  10    1.90    2.30
  -4   0  10    0.90    1.70
   4   0 -10    7.40    2.90
   4   0 -10    3.80    2.50
   4   0 -10   -0.60    2.00
  -3  -1   9   13.30    3.40
  -3  -1   9   15.10    2.70
  -3  -1   9   15.00    3.50
   3   1  -9   14.00    3.20
   3   1  -9    8.10    2.80
  -2  -2   8   65.29    5.70
  -2  -2   8   65.89    4.50
  -2  -2   8   67.29    5.50
   2   2  -8   65.59    4.40
   2   2  -8   63.09    5.40
   2   2  -8   72.39    5.60
   2   2  -8   74.39    6.90
  -1  -3   7   66.49    5.20
  -1  -3   7   65.99    5.40
  -1  -3   7   57.89    4.00
   1   3  -7   58.09    3.80
   1   3  -7   66.39    4.70
   1   3  -7   64.09    5.20
   1   3  -7   51.69    4.60
   0  -4   6  200.58   10.80
   0  -4   6  181.68   10.30
   0  -4   6  167.58   10.40
   0  -4   6  179.68    9.00
   0   4  -6  179.48   10.70
   0   4  -6  184.78   10.10
   0   4  -6  183.58    9.10
   0   4  -6  184.38   10.30
   1  -5   5   68.99    5.70
   1  -5   5   73.59    5.60
   1  -5   5   60.89    5.50
  -1   5  -5   99.69    7.40
  -1   5  -5   83.19    4.80
  -1   5  -5   67.99    5.60
  -1   5  -5   75.89    6.30
   2  -6   4   -1.40    1.60
   2  -6   4    1.20    2.10
   2  -6   4   -2.80    1.30
  -2   6  -4   -1.20    2.00
  -2   6  -4   -0.60    1.40
   3  -7   3    3.10    2.80
   3  -7   3    9.90    2.60
   3  -7   3    7.70    3.50
  -3   7  -3    7.60    2.40
  -3   7  -3    7.60    3.30
  -4  -1  10    0.70    2.10
  -4  -1  10   -0.60    2.50
   4   1 -10    1.00    2.50
   4   1 -10    6.00    3.80
  -3  -2   9    6.30    2.90
  -3  -2   9    3.40    2.30
  -3  -2   9    4.60    1.90
   3   2  -9    5.30    1.80
   3   2  -9    7.80    2.90
   3   2  -9    7.60    2.70
   3   2  -9    4.40    1.70
  -2  -3   8   51.09    5.20
   2   3  -8   49.80    4.90
   2   3  -8   50.99    4.20
   2   3  -8   54.09    4.80
   2   3  -8   49.70    5.00
  -1  -4   7   60.49    5.20
  -1  -4   7   47.70    4.90
   1   4  -7   55.49    4.90
   1   4  -7   61.69    4.70
   1   4  -7   55.69    3.80
   1   4  -7   45.70    6.90
   0  -5   6    0.70    1.60
   0  -5   6    0.30    1.40
   0  -5   6    0.10    2.00
   0   5  -6    1.30    1.10
   0   5  -6   -2.90    1.40
   0   5  -6   -1.40    1.60
   0   5  -6   -2.00    1.10
   1  -6   5   -0.10    1.80
   1  -6   5   -1.30    1.70
  -1   6  -5    0.70    1.20
  -1   6  -5    0.30    2.40
  -1   6  -5    4.50    2.20
   2  -7   4   -1.00    2.10
   2  -7   4   -2.00    1.90
   2  -7   4   -1.20    2.30
  -2   7  -4    0.20    1.60
  -2   7  -4    2.00    2.70
  -4  -2  10   15.20    3.80
  -4  -2  10    6.40    2.60
   4   2 -10    3.40    4.10
   4   2 -10   16.60    4.00
  -3  -3   9   12.60    3.70
  -3  -3   9   16.30    2.80
  -3  -3   9    7.80    3.40
   3   3  -9   11.70    2.70
   3   3  -9   18.00    4.00
   3   3  -9   12.80    3.50
   3   3  -9   11.40    2.40
  -2  -4   8    0.90    2.30
  -2  -4   8   -4.20    1.90
   2   4  -8   -1.90    1.70
   2   4  -8    2.30    1.50
   2   4  -8    1.80    1.80
   2   4  -8   -0.50    2.00
  -1  -5   7   19.10    3.90
  -1  -5   7   26.20    4.50
   1   5  -7   26.30    3.60
   1   5  -7   31.00    4.30
   1   5  -7   29.50    4.70
   1   5  -7   23.10    3.50
   0  -6   6    5.90    2.40
   0  -6   6    3.50    2.20
   0  -6   6    3.40    2.50
   0   6  -6    4.80    1.60
   0   6  -6    1.20    1.60
   0   6  -6    0.10    2.10
   1  -7   5   28.30    4.80
   1  -7   5   24.80    4.70
   1  -7   5   29.90    4.90
  -1   7  -5   29.20    3.70
  -1   7  -5   31.80    5.20
  -1   7  -5   29.30    5.50
   2  -8   4    6.80    2.90
   2  -8   4    7.30    3.10
  -2   8  -4    4.00    3.60
  -3  -4   9   -1.60    2.00
   3   4  -9   -0.40    1.70
   3   4  -9   -0.90    2.40
   3   4  -9   -0.40    2.30
  -2  -5   8   11.80    3.60
  -2  -5   8   15.80    4.00
   2   5  -8   20.20    2.80
   2   5  -8   10.30    3.30
   2   5  -8   12.60    5.80
   2   5  -8    7.40    2.50
  -1  -6   7   22.60    4.60
  -1  -6   7   27.10    4.90
   1   6  -7   21.20    4.30
   1   6  -7   25.00    3.10
   1   6  -7   25.60    4.20
   0  -7   6    2.70    2.40
   0  -7   6   -2.10    2.00
   0  -7   6    1.90    2.60
   0   7  -6    0.00    1.70
   0   7  -6   -2.50    2.00
   0   7  -6    2.00    2.60
   1  -8   5    8.20    3.70
  -2  -6   8   18.30    4.30
  -2  -6   8   17.00    4.40
   2   6  -8    9.50    3.60
   2   6  -8   20.00    4.00
  -1  -7   7    1.00    3.40
  -1  -7   7    2.30    2.60
  -1  -7   7    3.50    2.60
   1   7  -7    5.60    2.70
   1   7  -7    4.70    2.80
   4  12   3    4.90    3.60
  -4 -12  -3   -4.00    2.70
   5  11   2    1.00    2.70
   5  11   2    2.00    1.80
  -5 -11  -2    1.40    2.10
  -5 -11  -2    2.90    3.10
   6  10   1    7.90    2.80
   6  10   1    6.30    3.20
   6  10   1    8.00    3.10
  -6 -10  -1    5.30    3.20
   7   9   0    3.20    2.20
   7   9   0    2.30    2.60
   3  12   4   -1.90    2.30
   3  12   4   -1.20    2.20
   3  12   4   -0.80    2.80
  -3 -12  -4   -1.30    2.50
  -3 -12  -4   -4.00    2.40
   4  11   3    0.80    2.40
   4  11   3   -2.00    1.70
   4  11   3   -1.50    2.30
  -4 -11  -3    2.00    2.40
   5  10   2   19.20    3.20
   5  10   2   24.90    4.50
   5  10   2   22.80    4.30
  -5 -10  -2   24.20    3.50
  -5 -10  -2   18.60    4.10
   6   9   1    2.70    2.40
   6   9   1    1.80    1.90
   6   9   1    3.40    2.30
  -6  -9  -1   -3.10    2.20
  -6  -9  -1    1.60    1.30
   7   8   0   12.20    3.00
   7   8   0   12.70    2.90
   7   8   0    7.20    3.00
  -7  -8   0    9.30    3.40
   8   7  -1    3.60    2.70
   8   7  -1    1.90    2.90
   8   7  -1    2.40    2.40
   2  12   5    1.20    3.90
   2  12   5    4.20    3.40
   2  12   5    1.70    2.60
  -2 -12  -5   -3.50    2.80
  -2 -12  -5   -0.40    3.00
   3  11   4    4.30    2.00
   3  11   4    1.50    2.50
   3  11   4    3.30    2.40
  -3 -11  -4   -2.30    1.80
  -3 -11  -4    1.90    1.80
   4  10   3    2.60    1.60
   4  10   3    0.70    2.10
   4  10   3   -0.90    1.90
  -4 -10  -3    0.20    1.70
   5   9   2    1.00    1.40
   5   9   2   -3.20    1.60
  -5  -9  -2    0.70    2.20
  -5  -9  -2    0.70    1.30
   6   8   1   16.80    2.90
   6   8   1   13.20    2.90
   6   8   1   16.70    3.60
  -6  -8  -1   13.40    2.10
  -6  -8  -1   14.70    3.60
   7   7   0    2.20    2.10
   7   7   0    1.40    2.00
  -7  -7   0    1.90    2.50
   8   6  -1   11.00    2.80
   8   6  -1   11.10    3.40
   8   6  -1   11.50    3.00
  -8  -6   1    6.40    3.20
   2  11   5   10.90    3.30
   2  11   5   12.30    3.10
   2  11   5    9.20    3.20
  -2 -11  -5   10.20    3.40
  -2 -11  -5   13.30    3.20
  -2 -11  -5   10.80    3.70
   3  10   4    4.60    2.60
   3  10   4    0.70    1.60
   3  10   4    1.80    2.40
  -3 -10  -4    5.00    2.20
  -3 -10  -4    5.70    2.50
  -3 -10  -4    2.70    2.40
   4   9   3   15.30    2.50
   4   9   3    5.80    2.40
   4   9   3   10.10    2.90
   4   9   3   15.40    3.80
  -4  -9  -3   12.00    2.70
  -4  -9  -3   10.00    2.90
  -4  -9  -3    8.40    2.50
   5   8   2   44.80    4.20
   5   8   2   61.19    5.20
   5   8   2   49.20    4.00
  -5  -8  -2   49.40    4.00
  -5  -8  -2   44.00    4.70
   6   7   1   13.30    2.60
   6   7   1   14.20    2.80
   6   7   1   15.20    3.20
   6   7   1   13.60    2.10
  -6  -7  -1   12.80    2.00
  -6  -7  -1   13.50    2.00
  -6  -7  -1   13.50    3.50
   7   6   0    1.00    1.60
   7   6   0   -0.30    1.70
   7   6   0    2.70    1.70
   7   6   0    0.80    2.20
  -7  -6   0    1.10    0.50
  -7  -6   0    1.20    2.30
   8   5  -1    3.20    2.30
   8   5  -1    4.10    2.60
   8   5  -1    2.60    1.90
  -8  -5   1    3.80    2.80
   1  11   6   17.50    3.70
   1  11   6   15.40    4.20
   1  11   6    5.00    3.30
  -1 -11  -6   15.00    3.70
  -1 -11  -6    9.90    3.50
  -1 -11  -6    6.20    2.60
   2  10   5   44.20    4.60
   2  10   5   23.00    4.40
   2  10   5   34.30    4.10
  -2 -10  -5   31.20    4.00
  -2 -10  -5   37.00    5.10
  -2 -10  -5   42.10    4.70
   3   9   4   55.99    5.00
   3   9   4   49.60    3.90
   3   9   4   53.09    5.00
  -3  -9  -4   46.60    4.60
  -3  -9  -4   55.59    4.70
  -3  -9  -4   61.69    5.10
   4   8   3   31.80    2.90
   4   8   3   37.70    4.70
   4   8   3   33.10    4.30
   4   8   3   33.20    4.30
  -4  -8  -3   29.40    3.80
  -4  -8  -3   32.70    4.50
  -4  -8  -3   28.50    3.20
   5   7   2   54.09    4.40
   5   7   2   55.09    4.70
   5   7   2   56.59    4.70
   5   7   2   51.39    4.70
  -5  -7  -2   52.99    4.00
  -5  -7  -2   55.79    5.10
   6   6   1   60.69    4.70
   6   6   1   69.09    5.60
   6   6   1   76.19    5.00
   6   6   1   65.29    4.90
  -6  -6  -1   61.79    4.10
  -6  -6  -1   76.09    6.00
  -6  -6  -1   71.39    4.30
   7   5   0   -0.60    1.30
   7   5   0    1.30    1.70
   7   5   0    2.70    1.60
   7   5   0   -3.40    1.10
  -7  -5   0    0.30    1.80
  -7  -5   0    1.10    0.70
   8   4  -1    4.10    2.40
   8   4  -1    4.20    2.50
   8   4  -1    4.80    1.80
   8   4  -1    2.90    2.30
  -8  -4   1    4.40    2.60
  -8  -4   1    5.40    2.70
   0  11   7    2.10    2.90
   0 -11  -7    4.80    3.20
   0 -11  -7   -0.40    2.60
   1  10   6    9.00    3.20
   1  10   6   14.20    3.70
   1  10   6   17.70    3.10
  -1 -10  -6    8.50    2.20
  -1 -10  -6    7.50    3.20
  -1 -10  -6   11.10    3.50
   2   9   5    2.80    1.60
   2   9   5   -1.90    1.80
   2   9   5    2.00    2.10
  -2  -9  -5    0.90    1.50
  -2  -9  -5   -1.00    1.40
  -2  -9  -5    0.80    1.70
   3   8   4   33.00    4.30
   3   8   4   25.50    3.90
   3   8   4   33.70    4.20
   3   8   4   27.70    2.50
  -3  -8  -4   31.70    3.40
  -3  -8  -4   20.40    3.40
  -3  -8  -4   27.50    2.50
  -3  -8  -4   31.60    3.20
   4   7   3  215.58   11.00
   4   7   3  188.98   10.70
   4   7   3  216.68   10.10
   4   7   3  194.08   11.00
  -4  -7  -3  206.28   10.20
  -4  -7  -3  183.28    9.90
  -4  -7  -3  212.58   11.40
   5   6   2  300.47   15.70
   5   6   2  350.76   16.00
   5   6   2  313.57   15.60
   5   6   2  323.97   16.50
  -5  -6  -2  343.27   17.00
  -5  -6  -2  333.47   15.70
   6   5   1  107.69    7.00
   6   5   1  102.69    6.00
   6   5   1  103.89    5.90
   6   5   1   99.29    6.30
  -6  -5  -1   88.49    5.40
  -6  -5  -1  102.59    7.20
  -6  -5  -1   96.89    5.60
   7   4   0   18.50    2.50
   7   4   0   18.70    2.60
   7   4   0   19.40    3.60
   7   4   0   22.50    3.50
  -7  -4   0   17.10    1.90
  -7  -4   0   17.80    2.30
  -7  -4   0   24.30    4.30
   8   3  -1    5.30    2.30
   8   3  -1    2.80    1.40
   8   3  -1   -0.30    2.00
   8   3  -1    1.50    1.90
  -8  -3   1    1.20    2.40
  -8  -3   1    3.20    1.30
  -8  -3   1    4.80    2.40
   0  10   7    1.20    2.80
   0  10   7    0.70    2.10
   0  10   7    8.90    3.20
   0 -10  -7    0.90    1.90
   0 -10  -7    0.80    2.70
   0 -10  -7    4.90    3.00
   1   9   6    2.70    2.30
   1   9   6    4.20    2.70
  -1  -9  -6   -0.50    1.80
  -1  -9  -6    4.30    2.30
   2   8   5    9.10    2.70
   2   8   5    6.40    2.00
   2   8   5    7.10    1.60
   2   8   5    9.50    2.60
   2   8   5    8.60    1.60
  -2  -8  -5    2.70    1.50
  -2  -8  -5   10.60    1.70
  -2  -8  -5    7.00    2.40
   3   7   4   -0.60    1.20
   3   7   4    1.30    0.80
   3   7   4    0.80    1.30
   3   7   4   -1.70    1.30
   3   7   4   -0.90    1.30
  -3  -7  -4    1.10    0.80
  -3  -7  -4    1.90    1.50
  -3  -7  -4   -0.80    1.20
  -3  -7  -4    0.50    1.60
   4   6   3   28.40    3.60
   4   6   3   21.00    3.40
   4   6   3   22.30    1.90
   4   6   3   18.50    2.60
  -4  -6  -3   22.40    2.00
  -4  -6  -3   23.50    3.50
  -4  -6  -3   24.90    3.10
   5   5   2   37.30    3.00
   5   5   2   34.70    3.00
   5   5   2   41.00    3.10
   5   5   2   37.00    3.60
   5   5   2   39.20    3.00
  -5  -5  -2   35.40    3.00
  -5  -5  -2   33.40    5.10
  -5  -5  -2   40.10    4.00
   6   4   1  226.18   12.40
   6   4   1  239.68   12.10
   6   4   1  240.18   11.20
   6   4   1  227.78   11.20
  -6  -4  -1  234.88   11.50
  -6  -4  -1  236.78   11.40
  -6  -4  -1  213.28   12.60
   7   3   0   45.90    4.30
   7   3   0   48.20    3.30
  -7  -3   0   45.50    4.60
  -7  -3   0   50.49    3.70
   8   2  -1    5.00    2.40
   8   2  -1    9.20    2.10
   8   2  -1    8.10    2.70
   8   2  -1    6.00    1.60
  -8  -2   1   14.10    3.60
  -8  -2   1    2.80    2.40
  -8  -2   1    4.50    1.70
  -8  -2   1    7.50    2.70
  -1  10   8    7.00    3.10
   1 -10  -8    6.30    3.50
   1 -10  -8    9.10    3.90
   0   9   7   73.19    6.50
   0   9   7   77.29    5.40
   0  -9  -7   77.29    5.00
   0  -9  -7   76.09    6.80
   0  -9  -7   79.39    6.40
   1   8   6   35.90    4.60
   1   8   6   33.60    2.90
   1   8   6   34.20    4.50
   1   8   6   38.70    3.40
  -1  -8  -6   33.40    3.20
  -1  -8  -6   31.90    4.60
  -1  -8  -6   35.60    4.00
   2   7   5   17.60    1.70
   2   7   5   21.30    3.20
   2   7   5   16.90    1.70
   2   7   5   19.20    3.40
   2   7   5   15.40    2.80
   2   7   5   18.50    3.00
  -2  -7  -5   13.50    1.50
  -2  -7  -5   18.80    3.00
  -2  -7  -5   18.20    3.10
  -2  -7  -5   13.20    2.60
   3   6   4    3.00    1.50
   3   6   4    3.10    0.70
   3   6   4    3.10    1.40
   3   6   4    3.10    1.50
   3   6   4    4.60    1.80
  -3  -6  -4    4.50    1.90
  -3  -6  -4    2.00    1.70
  -3  -6  -4    4.00    0.80
   4   5   3    5.60    1.00
   4   5   3    4.10    1.30
   4   5   3    5.50    1.40
   4   5   3    6.60    2.10
  -4  -5  -3    6.70    1.60
  -4  -5  -3    6.00    0.80
  -4  -5  -3    8.10    2.20
  -4  -5  -3    6.00    1.20
   5   4   2   47.80    4.40
   5   4   2   55.69    3.50
   5   4   2   52.49    4.20
   5   4   2   60.79    3.90
   5   4   2   54.29    3.40
  -5  -4  -2   68.69    4.90
  -5  -4  -2   57.99    4.00
   6   3   1  101.59    5.40
   6   3   1  105.69    6.50
   6   3   1  107.69    6.80
   6   3   1  111.89    5.50
  -6  -3  -1  103.59    7.10
  -6  -3  -1  111.59    6.30
   7   2   0   19.50    1.80
   7   2   0   19.00    3.40
   7   2   0   22.50    4.00
  -7  -2   0   21.50    3.60
  -7  -2   0   25.80    4.00
  -7  -2   0   25.40    4.50
  -7  -2   0   15.70    3.00
   8   1  -1    5.20    2.40
   8   1  -1    7.10    1.90
   8   1  -1    4.10    2.60
   8   1  -1    3.90    1.40
   8   1  -1    4.20    2.10
  -8  -1   1   13.70    3.10
  -8  -1   1    6.10    2.80
  -8  -1   1    5.40    2.00
  -8  -1   1    0.80    2.30
  -1   9   8   19.50    4.20
  -1   9   8   14.10    3.10
   1  -9  -8   17.70    4.20
   1  -9  -8   15.00    3.90
   0   8   7    1.90    1.40
   0   8   7    1.40    1.80
   0   8   7   -1.10    1.90
   0  -8  -7    0.50    1.40
   0  -8  -7   -1.00    1.80
   0  -8  -7   -1.70    1.80
   1   7   6   62.59    5.00
   1   7   6   53.19    3.60
   1   7   6   60.99    4.90
   1   7   6   63.19    4.50
  -1  -7  -6   67.59    5.40
  -1  -7  -6   64.29    4.90
  -1  -7  -6   63.79    4.50
   2   6   5   -1.80    1.00
   2   6   5    1.30    0.50
   2   6   5    1.30    1.20
   2   6   5    1.70    0.60
   2   6   5    2.60    1.60
  -2  -6  -5    2.30    1.30
  -2  -6  -5   -0.70    1.10
  -2  -6  -5   -1.10    1.10
   3   5   4   14.00    1.00
   3   5   4   12.50    2.00
   3   5   4   17.10    2.40
  -3  -5  -4   17.40    1.10
  -3  -5  -4   16.10    1.70
  -3  -5  -4   13.30    2.30
   4   4   3  115.09    5.90
   4   4   3  121.79    6.20
   4   4   3  124.09    7.30
   4   4   3  118.79    6.10
   4   4   3  113.69    6.60
  -4  -4  -3  111.19    5.90
  -4  -4  -3  124.49    6.80
  -4  -4  -3  117.69    7.20
   5   3   2   -0.30    0.60
   5   3   2    0.20    0.60
   5   3   2    0.40    1.00
   5   3   2   -0.40    1.40
   5   3   2   -0.50    0.80
  -5  -3  -2   -2.10    1.10
  -5  -3  -2    0.50    1.10
   6   2   1    6.90    1.90
   6   2   1    4.70    0.80
   6   2   1    3.90    1.70
   6   2   1    6.50    0.90
  -6  -2  -1    0.80    1.60
  -6  -2  -1    4.90    2.10
  -6  -2  -1    3.40    1.40
  -6  -2  -1    3.10    1.30
   7   1   0   55.29    3.30
   7   1   0   60.49    5.20
   7   1   0   60.39    4.60
   7   1   0   57.89    3.50
  -7  -1   0   63.79    8.90
  -7  -1   0   57.99    4.80
  -7  -1   0   50.39    4.30
  -7  -1   0   57.49    5.10
   8   0  -1   29.10    3.20
   8   0  -1   27.80    4.60
   8   0  -1   23.60    2.50
   8   0  -1   34.40    4.50
  -8   0   1   25.00    3.80
  -8   0   1   26.70    4.90
  -8   0   1   30.60    4.40
  -8   0   1   21.30    4.30
  -2   9   9   -0.20    2.40
   2  -9  -9    1.70    2.80
   2  -9  -9    2.50    2.90
  -1   8   8    4.80    2.30
  -1   8   8    0.30    1.50
  -1   8   8    3.30    2.40
  -1   8   8    5.80    1.80
   1  -8  -8    1.50    1.50
   1  -8  -8    2.30    2.20
   1  -8  -8    3.90    2.70
   0   7   7    6.20    1.80
   0   7   7    1.00    1.70
   0   7   7    3.30    1.40
   0   7   7    3.40    2.00
   0  -7  -7    6.10    2.20
   0  -7  -7    8.30    2.60
   1   6   6    1.30    0.70
   1   6   6    1.20    1.50
   1   6   6    4.00    1.80
   1   6   6    2.90    1.40
   1   6   6    0.90    0.60
   1   6   6   -0.80    1.50
  -1  -6  -6   -0.70    1.00
  -1  -6  -6    4.70    1.80
   2   5   5   22.20    2.90
   2   5   5   23.90    3.10
   2   5   5   22.40    2.70
   2   5   5   21.50    2.40
  -2  -5  -5   22.10    2.80
  -2  -5  -5   29.10    2.90
   3   4   4   41.50    2.90
   3   4   4   49.00    3.70
   3   4   4   40.90    2.90
  -3  -4  -4   47.80    3.50
  -3  -4  -4   39.30    1.90
  -3  -4  -4   41.30    2.50
  -3  -4  -4   38.30    1.90
  -3  -4  -4   43.70    3.00
   4   3   3    2.00    0.70
   4   3   3    1.80    0.80
   4   3   3    0.40    0.60
   4   3   3    1.50    1.00
  -4  -3  -3   -0.90    0.60
  -4  -3  -3    0.20    0.90
  -4  -3  -3    0.40    0.60
  -4  -3  -3    0.10    0.50
   5   2   2   13.60    2.60
   5   2   2   12.70    2.50
   5   2   2    6.90    1.60
  -5  -2  -2   10.70    2.10
  -5  -2  -2   12.70    2.50
  -5  -2  -2   13.10    2.10
   6   1   1   85.99    5.70
   6   1   1   79.59    5.50
   6   1   1   75.19    5.40
  -6  -1  -1   88.59    5.60
  -6  -1  -1   74.89    5.50
  -6  -1  -1   69.69    5.40
  -6  -1  -1   82.99    5.70
   7   0   0   -0.30    0.80
   7   0   0    1.00    1.00
   7   0   0    2.80    2.10
   7   0   0   -1.90    0.80
  -7   0   0    0.20    1.70
  -7   0   0    0.20    1.30
  -7   0   0    0.20    1.50
  -7   0   0    0.50    1.80
   8  -1  -1   39.40    3.10
   8  -1  -1   32.70    5.50
   8  -1  -1   36.80    3.80
  -8   1   1   36.20    4.90
  -8   1   1   39.40    5.70
  -8   1   1   33.20    5.30
  -8   1   1   35.70    3.80
  -2   8   9   10.80    3.00
  -2   8   9    3.80    3.00
   2  -8  -9    6.20    3.30
   2  -8  -9   15.30    4.20
  -1   7   8    1.00    1.30
  -1   7   8    2.60    2.00
  -1   7   8    1.00    1.30
  -1   7   8    3.80    2.20
   1  -7  -8    3.50    2.20
   1  -7  -8    4.10    2.20
   0   6   7   11.20    1.90
   0   6   7   13.90    2.60
   0   6   7   21.30    3.50
   0   6   7   15.90    2.00
   0   6   7   23.90    3.20
   0  -6  -7   19.10    3.20
   0  -6  -7   16.50    3.20
   1   5   6  108.39    5.30
   1   5   6  111.99    6.70
   1   5   6  111.09    5.40
   1   5   6  112.59    6.60
   1   5   6  110.69    6.40
  -1  -5  -6  118.89    6.70
  -1  -5  -6  111.79    7.10
   2   4   5   66.09    4.70
   2   4   5   70.89    4.40
   2   4   5   70.79    4.50
   2   4   5   73.09    4.30
  -2  -4  -5   66.39    4.30
  -2  -4  -5   78.79    4.30
  -2  -4  -5   73.09    5.00
   3   3   4  193.18   10.00
   3   3   4  184.28    9.00
   3   3   4  192.68    9.00
   3   3   4  184.88    9.10
  -3  -3  -4  190.28    8.40
  -3  -3  -4  192.18    8.40
  -3  -3  -4  174.18    9.70
  -3  -3  -4  183.88    9.10
   4   2   3  628.14   27.80
   4   2   3  618.94   26.80
   4   2   3  635.74   28.50
   4   2   3  618.54   27.60
   4   2   3  609.54   26.90
  -4  -2  -3  639.44   28.40
  -4  -2  -3  618.94   28.20
  -4  -2  -3  601.44   27.70
  -4  -2  -3  607.34   27.60
   5   1   2   86.79    5.50
   5   1   2   91.49    6.60
   5   1   2   90.09    5.60
   5   1   2   94.49    5.80
  -5  -1  -2   88.59    5.70
  -5  -1  -2   85.89    5.50
  -5  -1  -2   83.59    5.50
  -5  -1  -2   91.69    6.60
   6   0   1   80.29    3.80
   6   0   1   87.69    5.80
   6   0   1   81.19    5.80
  -6   0  -1   80.99    5.60
  -6   0  -1   79.49    5.50
  -6   0  -1   78.09    5.80
  -6   0  -1   75.09    5.60
   7  -1   0   93.39    5.30
   7  -1   0   94.09    5.10
   7  -1   0   97.99    7.00
   7  -1   0   91.69    7.10
  -7   1   0   94.99    6.20
  -7   1   0   91.99    7.10
  -7   1   0   96.49    7.00
  -7   1   0   99.09    7.00
   8  -2  -1    6.40    2.10
   8  -2  -1    4.20    3.20
  -8   2   1    5.20    2.90
  -2   7   9    7.40    2.30
  -2   7   9   13.20    2.90
  -2   7   9    6.50    2.90
   2  -7  -9   17.70    3.20
   2  -7  -9   24.80    4.40
   2  -7  -9    6.00    3.10
  -1   6   8   -0.50    1.70
  -1   6   8    3.30    1.50
  -1   6   8    0.20    1.40
   1  -6  -8   -0.90    1.40
   1  -6  -8   -0.20    1.10
   1  -6  -8    0.70    1.90
   0   5   7    5.60    2.00
   0   5   7    2.70    1.00
   0   5   7    2.90    1.00
   0   5   7    4.30    1.70
   0   5   7    1.90    1.40
   0  -5  -7   -0.40    1.40
   0  -5  -7   -0.80    1.30
   0  -5  -7    1.50    0.80
   1   4   6    6.10    0.80
   1   4   6    5.00    1.50
   1   4   6    5.80    0.80
   1   4   6    4.60    1.20
   1   4   6    4.60    1.70
   1   4   6    3.30    1.40
  -1  -4  -6    4.40    1.60
  -1  -4  -6    5.30    0.70
  -1  -4  -6    3.70    1.50
  -1  -4  -6    3.70    1.10
   2   3   5  141.39    7.30
   2   3   5  147.79    7.90
   2   3   5  140.69    6.90
   2   3   5  134.59    7.10
  -2  -3  -5  139.29    6.80
  -2  -3  -5  143.19    7.90
  -2  -3  -5  132.19    7.00
   3   2   4   22.10    2.40
   3   2   4   19.30    1.60
   3   2   4   16.60    1.50
   3   2   4   19.40    1.60
  -3  -2  -4   17.20    1.50
  -3  -2  -4   18.10    1.40
  -3  -2  -4   19.40    1.60
  -3  -2  -4   21.90    2.80
   4   1   3   -0.60    0.30
   4   1   3    0.50    0.70
   4   1   3   -0.90    0.90
   4   1   3    0.00    0.40
   4   1   3    0.10    0.90
  -4  -1  -3   -0.50    0.70
  -4  -1  -3   -0.80    0.70
  -4  -1  -3    1.50    0.80
  -4  -1  -3    1.50    1.20
  -4  -1  -3    0.90    0.80
   5   0   2   14.80    2.60
   5   0   2   15.10    2.50
   5   0   2   15.30    2.70
  -5   0  -2   12.60    2.50
  -5   0  -2   13.30    2.40
  -5   0  -2   14.50    2.60
  -5   0  -2   11.20    2.40
   6  -1   1    5.00    2.10
   6  -1   1    3.70    1.00
  -6   1  -1    2.10    1.80
  -6   1  -1    3.00    1.70
  -6   1  -1    4.50    2.00
  -6   1  -1    0.50    1.70
   7  -2   0   49.40    3.70
   7  -2   0   53.19    3.90
   7  -2   0   52.89    5.10
  -7   2   0   59.19    5.50
  -7   2   0   52.99    5.20
  -3   7  10   -0.90    2.30
   3  -7 -10    2.60    3.00
  -2   6   9    9.00    2.70
  -2   6   9   11.90    2.50
  -2   6   9    5.20    2.50
  -2   6   9    8.40    2.10
   2  -6  -9   11.80    2.50
   2  -6  -9   10.20    3.20
   2  -6  -9    9.20    3.30
  -1   5   8   -0.60    1.30
  -1   5   8    0.30    1.20
  -1   5   8    0.40    1.70
  -1   5   8    3.50    1.30
   1  -5  -8    0.50    1.70
   1  -5  -8   -1.20    1.70
   1  -5  -8    1.20    1.20
   0   4   7   43.80    4.00
   0   4   7   44.50    3.40
   0   4   7   48.60    3.10
   0  -4  -7   42.80    3.70
   0  -4  -7   39.10    3.90
   0  -4  -7   50.99    3.10
   1   3   6  135.29    6.80
   1   3   6  140.29    7.70
   1   3   6  136.39    7.60
   1   3   6  132.59    6.50
   1   3   6  135.09    7.40
  -1  -3  -6  148.49    7.40
  -1  -3  -6  145.09    8.90
  -1  -3  -6  130.09    6.70
  -1  -3  -6  135.09    6.40
   2   2   5    5.40    1.60
   2   2   5    8.20    0.90
   2   2   5    5.60    0.80
   2   2   5    5.10    1.40
  -2  -2  -5    9.70    1.90
  -2  -2  -5    7.20    0.90
  -2  -2  -5   12.20    1.60
  -2  -2  -5    7.40    0.90
   3   1   4  122.89    7.00
   3   1   4  123.69    6.10
   3   1   4  117.29    6.10
   3   1   4  121.79    6.00
   3   1   4  118.09    6.00
  -3  -1  -4  138.99    7.30
  -3  -1  -4  115.09    5.90
  -3  -1  -4  122.49    6.30
  -3  -1  -4  120.79    6.20
  -3  -1  -4  120.39    6.00
   4   0   3    0.70    0.60
   4   0   3    0.70    1.10
   4   0   3    0.80    0.50
   4   0   3   -0.60    1.00
  -4   0  -3    0.20    0.80
  -4   0  -3    0.80    1.20
  -4   0  -3   -0.60    0.80
  -4   0  -3    0.90    0.80
   5  -1   2    4.10    1.70
   5  -1   2    2.40    0.80
   5  -1   2    3.20    0.80
   5  -1   2    1.40    1.50
  -5   1  -2    2.90    1.50
  -5   1  -2    3.80    1.80
  -5   1  -2    3.70    1.40
  -5   1  -2    3.30    1.50
   6  -2   1    5.90    2.30
   6  -2   1    8.90    1.80
  -6   2  -1    4.10    2.10
  -6   2  -1    6.30    1.80
   7  -3   0    0.80    1.60
   7  -3   0    2.80    2.50
   7  -3   0   -1.80    2.20
  -7   3   0    0.70    2.20
  -7   3   0   -0.80    2.20
  -3   6  10    3.60    2.30
  -3   6  10    3.70    1.80
  -3   6  10    1.40    2.60
   3  -6 -10    5.00    2.50
   3  -6 -10    1.40    2.50
   3  -6 -10    6.60    3.30
  -2   5   9    1.20    1.30
  -2   5   9    1.30    1.70
  -2   5   9   -0.10    1.20
  -2   5   9    4.40    2.00
   2  -5  -9   -1.20    1.80
   2  -5  -9   -1.10    1.20
   2  -5  -9    1.60    1.90
  -1   4   8  191.68   10.50
  -1   4   8  196.38   10.90
   1  -4  -8  209.98   11.20
   1  -4  -8  183.78   10.70
   1  -4  -8  191.98   10.00
   0   3   7  247.58   11.80
   0   3   7  223.98   12.50
   0   3   7  247.18   11.70
   0   3   7  253.17   12.60
   0   3   7  263.17   12.60
   0  -3  -7  236.38   12.80
   0  -3  -7  225.98   11.60
   0  -3  -7  255.67   11.70
   0  -3  -7  249.88   12.40
   1   2   6    7.00    1.00
   1   2   6    7.70    1.00
   1   2   6    7.20    1.20
   1   2   6   10.10    1.90
   1   2   6    6.00    1.60
   1   2   6    8.40    1.90
  -1  -2  -6    5.60    1.70
  -1  -2  -6    6.40    0.90
  -1  -2  -6    6.10    1.50
  -1  -2  -6    6.10    1.00
   2   1   5  303.27   14.40
   2   1   5  315.07   14.80
   2   1   5  337.27   15.50
  -2  -1  -5  313.27   14.50
  -2  -1  -5  316.87   15.50
  -2  -1  -5  311.47   14.30
   3   0   4    0.80    1.00
   3   0   4    0.90    0.80
   3   0   4    0.80    0.70
   3   0   4    0.50    0.80
   3   0   4    1.60    1.10
  -3   0  -4    1.90    1.00
  -3   0  -4    0.80    0.90
  -3   0  -4    0.40    0.90
  -3   0  -4    0.50    0.50
  -3   0  -4   -0.20    0.50
   4  -1   3   24.20    2.70
   4  -1   3   27.30    2.00
   4  -1   3   27.40    3.10
   4  -1   3   28.20    2.10
  -4   1  -3   27.30    2.90
  -4   1  -3   27.80    2.40
  -4   1  -3   29.50    2.50
  -4   1  -3   30.10    3.20
   5  -2   2   53.79    4.10
   5  -2   2   50.39    3.40
   5  -2   2   57.69    4.90
   5  -2   2   55.09    3.50
  -5   2  -2   52.19    4.20
  -5   2  -2   56.99    4.10
  -5   2  -2   55.89    4.70
   6  -3   1   34.20    3.10
   6  -3   1   45.00    5.70
  -6   3  -1   35.40    3.10
  -6   3  -1   38.50    5.20
  -6   3  -1   44.70    4.20
   7  -4   0   24.60    3.50
   7  -4   0   20.00    4.70
  -7   4   0   20.50    4.40
  -7   4   0   30.80    5.40
  -3   5  10    0.20    1.70
  -3   5  10   -0.60    1.80
  -3   5  10   -0.40    1.70
   3  -5 -10   -0.20    2.30
   3  -5 -10    1.60    2.00
  -2   4   9    0.40    1.50
  -2   4   9    1.80    2.00
  -2   4   9   -0.20    1.40
   2  -4  -9    1.30    2.10
   2  -4  -9    0.10    1.30
   2  -4  -9    1.30    1.70
  -1   3   8   11.00    2.00
  -1   3   8    8.40    2.20
  -1   3   8   10.80    2.50
   1  -3  -8   13.00    2.60
   1  -3  -8    9.80    1.90
   1  -3  -8   13.50    2.80
   0   2   7  142.99    7.10
   0   2   7  147.39    8.20
   0   2   7  146.99    7.10
   0   2   7  133.79    7.40
   0   2   7  139.59    8.00
   0   2   7  148.89    8.30
   0  -2  -7  133.19    8.20
   0  -2  -7  148.39    7.50
   1   1   6  146.39    8.10
   1   1   6  167.48    8.30
   1   1   6  142.89    7.60
   1   1   6  163.38    8.70
  -1  -1  -6  146.49    8.50
  -1  -1  -6  156.38    7.70
  -1  -1  -6  154.78    8.00
   2   0   5   61.89    3.80
   2   0   5   58.09    4.60
  -2   0  -5   66.19    5.30
  -2   0  -5   61.69    3.50
  -2   0  -5   57.59    3.90
   3  -1   4  132.89    8.10
   3  -1   4  131.89    7.10
   3  -1   4  143.49    7.10
   3  -1   4  134.69    7.70
  -3   1  -4  139.59    6.70
  -3   1  -4  130.29    7.50
  -3   1  -4  151.68    8.30
  -3   1  -4  135.49    6.60
   4  -2   3  115.29    6.20
   4  -2   3  109.89    6.60
   4  -2   3  106.69    5.90
   4  -2   3  104.19    7.20
  -4   2  -3  103.99    6.90
  -4   2  -3  115.19    6.30
  -4   2  -3  120.59    7.50
   5  -3   2    1.20    1.40
   5  -3   2    5.50    1.60
   5  -3   2    4.40    2.70
  -5   3  -2    0.80    1.10
  -5   3  -2    0.40    1.30
  -5   3  -2    2.70    1.80
   6  -4   1   33.30    5.40
   6  -4   1   36.30    4.40
   6  -4   1   38.10    3.70
  -6   4  -1   32.30    5.10
  -6   4  -1   41.80    4.40
  -3   4  10    5.00    2.10
  -3   4  10    3.30    2.10
   3  -4 -10    7.50    2.70
   3  -4 -10    7.90    2.70
   3  -4 -10    1.50    1.70
  -2   3   9   30.10    4.00
  -2   3   9   28.90    4.20
   2  -3  -9   40.50    4.90
   2  -3  -9   22.10    3.30
   2  -3  -9   33.50    4.30
  -1   2   8   36.80    2.90
  -1   2   8   32.40    3.50
  -1   2   8   32.10    3.40
   1  -2  -8   36.60    3.60
   1  -2  -8   32.80    3.40
   1  -2  -8   28.20    3.10
   0   1   7   13.00    2.40
   0   1   7    7.40    2.00
   0   1   7    9.60    2.40
   0   1   7    8.50    1.20
   0  -1  -7   10.00    1.80
   0  -1  -7   12.30    2.20
   0  -1  -7    6.60    1.80
   1   0   6    2.10    1.40
   1   0   6    2.50    1.30
   1   0   6    1.50    1.00
   1   0   6    0.90    1.20
  -1   0  -6    2.00    1.20
  -1   0  -6    1.50    1.30
  -1   0  -6    2.40    1.10
   2  -1   5   51.29    3.60
   2  -1   5   46.40    3.80
   2  -1   5   51.49    4.10
  -2   1  -5   49.50    3.00
  -2   1  -5   47.20    4.00
  -2   1  -5   51.19    3.80
   3  -2   4  537.25   24.80
   3  -2   4  491.15   23.40
   3  -2   4  516.05   23.60
  -3   2  -4  508.05   22.90
  -3   2  -4  521.05   23.00
  -3   2  -4  530.85   24.80
  -3   2  -4  502.65   24.20
   4  -3   3  119.69    8.10
   4  -3   3  130.49    7.00
   4  -3   3  114.59    7.00
   4  -3   3  127.59    7.10
  -4   3  -3  125.19    8.00
  -4   3  -3  124.19    7.10
   5  -4   2    0.90    1.50
   5  -4   2    3.60    2.20
   5  -4   2    4.00    2.10
   5  -4   2    0.20    1.50
  -5   4  -2    3.20    2.20
  -5   4  -2    2.60    2.00
  -5   4  -2    2.80    1.40
   6  -5   1    6.80    3.30
  -6   5  -1    7.50    3.40
  -6   5  -1    6.80    2.50
  -3   3  10   21.20    3.50
   3  -3 -10   21.60    3.60
   3  -3 -10   21.20    4.10
  -2   2   9    0.50    1.30
  -2   2   9   -0.70    1.30
  -2   2   9    4.70    1.90
   2  -2  -9   -0.40    1.40
   2  -2  -9   -1.10    1.80
   2  -2  -9    0.40    1.40
  -1   1   8  156.58    7.90
  -1   1   8  154.58    9.20
  -1   1   8  145.69    9.00
  -1   1   8  156.08    7.90
   1  -1  -8  166.98    9.00
   1  -1  -8  142.59    8.50
   1  -1  -8  154.18    8.90
   0   0   7   10.80    2.50
   0   0   7   13.20    2.60
   0   0   7   11.00    1.00
   0   0   7   11.40    1.10
   0   0   7   14.50    2.70
   0   0  -7   14.40    2.50
   0   0  -7   12.10    2.30
   0   0  -7   11.90    2.10
   1  -1   6  139.39    7.90
   1  -1   6  134.59    7.40
   1  -1   6  123.09    7.40
  -1   1  -6  132.99    7.70
  -1   1  -6  121.99    7.30
  -1   1  -6  125.09    7.00
   2  -2   5   57.19    4.30
   2  -2   5   54.69    4.10
   2  -2   5   58.39    4.00
   2  -2   5   59.29    4.60
  -2   2  -5   53.19    3.40
  -2   2  -5   48.90    2.70
  -2   2  -5   55.39    4.40
  -2   2  -5   50.39    2.70
  -2   2  -5   46.60    4.10
   3  -3   4    5.90    2.30
   3  -3   4    9.70    2.00
   3  -3   4    6.90    1.40
   3  -3   4    5.60    1.80
  -3   3  -4    6.70    2.10
  -3   3  -4    9.30    2.60
  -3   3  -4    5.80    1.40
  -3   3  -4    6.90    1.50
   4  -4   3   28.80    3.60
   4  -4   3   32.20    4.50
   4  -4   3   20.60    3.00
  -4   4  -3   23.80    3.20
  -4   4  -3   25.50    4.10
   5  -5   2   12.50    2.50
   5  -5   2   15.90    3.30
   5  -5   2   15.30    3.80
  -5   5  -2   13.30    2.10
  -5   5  -2   13.40    3.10
  -5   5  -2   13.60    3.70
  -3   2  10    3.10    2.40
  -3   2  10    3.70    2.10
   3  -2 -10    9.10    2.90
   3  -2 -10    0.40    1.80
   3  -2 -10    2.80    2.20
  -2   1   9   47.60    4.70
  -2   1   9   53.09    4.80
  -2   1   9   48.90    3.90
   2  -1  -9   48.70    4.40
   2  -1  -9   47.60    4.30
  -1   0   8   27.00    4.00
  -1   0   8   26.90    3.90
  -1   0   8   23.30    2.40
  -1   0   8   21.50    2.00
   1   0  -8   19.90    3.00
   1   0  -8   27.10    3.70
   1   0  -8   12.00    2.50
   0  -1   7   42.80    4.00
   0  -1   7   41.20    2.20
   0  -1   7   34.80    3.70
   0  -1   7   40.80    2.30
   0  -1   7   41.60    3.80
   0   1  -7   42.40    3.60
   0   1  -7   38.50    3.60
   0   1  -7   39.00    3.60
   1  -2   6   90.89    6.10
   1  -2   6   99.69    6.40
   1  -2   6   91.49    6.00
   1  -2   6   89.69    6.20
  -1   2  -6   93.19    6.20
  -1   2  -6   96.39    5.70
  -1   2  -6   97.99    6.30
   2  -3   5  252.17   12.50
   2  -3   5  220.88   12.70
   2  -3   5  249.88   12.50
   2  -3   5  229.68   10.90
  -2   3  -5  248.48   11.50
  -2   3  -5  227.58   12.70
  -2   3  -5  233.48   11.00
  -2   3  -5  234.08   10.90
  -2   3  -5  237.38   12.90
   3  -4   4    2.20    1.70
   3  -4   4    6.30    1.80
   3  -4   4    4.80    2.30
  -3   4  -4    4.30    2.30
  -3   4  -4    4.50    1.50
  -3   4  -4    2.40    1.90
   4  -5   3   18.30    3.30
   4  -5   3   20.20    3.50
   4  -5   3   23.10    4.00
   4  -5   3   17.70    3.70
  -4   5  -3   16.30    3.00
  -4   5  -3   17.80    3.70
   5  -6   2    6.90    3.40
  -5   6  -2    6.20    2.70
  -3   1  10   37.70    5.10
  -3   1  10   33.50    4.30
  -3   1  10   34.90    5.50
   3  -1 -10   34.10    4.70
   3  -1 -10   31.40    4.80
   3  -1 -10   37.90    3.90
  -2   0   9   17.90    3.70
  -2   0   9   14.70    3.30
   2   0  -9   21.20    3.90
   2   0  -9   18.40    3.20
   2   0  -9   14.30    3.00
  -1  -1   8   27.80    4.20
  -1  -1   8   20.30    1.90
   1   1  -8   18.00    3.00
   1   1  -8   10.40    2.30
   1   1  -8   20.50    3.30
   0  -2   7   77.19    6.00
   0  -2   7   82.89    4.10
   0  -2   7   78.09    5.80
   0  -2   7   79.49    4.00
   0  -2   7   77.79    5.80
   0   2  -7   87.59    5.90
   0   2  -7   87.79    5.70
   0   2  -7   72.39    5.60
   0   2  -7   82.39    4.00
   1  -3   6   70.79    5.40
   1  -3   6   72.99    5.40
   1  -3   6   71.39    5.40
   1  -3   6   63.19    5.00
   1  -3   6   67.09    3.60
  -1   3  -6   71.29    3.60
  -1   3  -6   77.69    5.80
  -1   3  -6   68.39    5.30
  -1   3  -6   63.89    5.30
   2  -4   5    8.00    2.40
   2  -4   5    5.20    2.10
   2  -4   5    6.20    1.50
   2  -4   5    7.20    2.40
   2  -4   5    6.50    2.50
  -2   4  -5    6.60    1.40
  -2   4  -5    4.00    2.20
  -2   4  -5    8.50    2.60
   3  -5   4    4.80    2.00
   3  -5   4    3.70    1.90
   3  -5   4    7.00    3.20
   3  -5   4    2.30    2.00
  -3   5  -4    3.90    1.70
  -3   5  -4    3.40    2.30
   4  -6   3   10.20    2.80
   4  -6   3    5.20    2.90
   4  -6   3    3.40    2.50
  -4   6  -3    2.40    2.20
  -4   6  -3    0.30    2.60
  -3   0  10   18.00    4.00
  -3   0  10   14.10    2.90
   3   0 -10   23.00    4.00
   3   0 -10   14.10    3.50
   3   0 -10   16.40    3.20
  -2  -1   9  118.29    6.60
  -2  -1   9  111.59    7.80
  -2  -1   9  113.49    8.00
   2   1  -9  109.59    7.70
   2   1  -9  115.49    7.10
   2   1  -9  109.69    7.70
  -1  -2   8  127.19    6.60
  -1  -2   8  135.39    8.40
  -1  -2   8  130.79   11.90
   1   2  -8  127.49    6.60
   1   2  -8  136.09    8.00
   1   2  -8  136.89    8.20
   1   2  -8  111.09    7.90
   0  -3   7    0.60    1.80
   0  -3   7    0.80    1.80
   0  -3   7    2.10    0.90
   0   3  -7   -0.10    1.40
   0   3  -7    0.10    1.30
   0   3  -7    0.60    0.60
   0   3  -7    0.20    1.60
   1  -4   6    1.00    1.70
   1  -4   6    0.40    1.60
   1  -4   6    2.10    1.10
   1  -4   6    0.20    1.80
  -1   4  -6    3.30    1.00
  -1   4  -6    5.80    2.40
  -1   4  -6    2.90    1.90
  -1   4  -6    4.30    2.00
   2  -5   5   -0.90    1.50
   2  -5   5    1.60    3.00
   2  -5   5    1.20    1.60
   2  -5   5    1.60    2.00
  -2   5  -5    3.30    1.30
  -2   5  -5    0.20    1.80
  -2   5  -5    0.50    2.20
   3  -6   4   -0.10    2.30
   3  -6   4    0.10    2.50
   3  -6   4   -0.20    1.80
  -3   6  -4    0.80    1.70
  -3   6  -4    4.70    2.90
   4  -7   3    1.00    2.90
  -3  -1  10   68.69    6.40
  -3  -1  10   72.39    5.30
   3   1 -10   70.49    5.40
   3   1 -10   64.89    6.20
   3   1 -10   67.99    6.30
  -2  -2   9   36.30    3.40
  -2  -2   9   27.90    4.60
  -2  -2   9   43.90    5.70
   2   2  -9   38.30    4.90
   2   2  -9   34.20    3.70
   2   2  -9   25.00    4.20
  -1  -3   8   12.40    3.20
  -1  -3   8    9.80    1.60
  -1  -3   8   12.00    3.10
   1   3  -8   10.50    2.60
   1   3  -8    7.60    1.50
   1   3  -8   10.90    2.50
   1   3  -8   11.80    4.80
   0  -4   7   -0.40    1.90
   0  -4   7   -0.40    2.00
   0   4  -7    1.40    1.70
   0   4  -7    2.60    1.90
   0   4  -7    3.90    1.90
   0   4  -7    0.40    0.80
   1  -5   6    2.80    2.60
   1  -5   6    6.70    2.90
   1  -5   6    6.70    2.40
  -1   5  -6    5.90    3.80
  -1   5  -6    5.40    2.50
  -1   5  -6    4.70    1.40
   2  -6   5    4.80    2.70
   2  -6   5    9.70    3.20
   2  -6   5    1.70    1.60
  -2   6  -5   11.10    3.60
  -2   6  -5    8.50    2.00
  -2   6  -5    8.70    3.00
   3  -7   4   40.10    8.30
   3  -7   4   26.10    4.60
   3  -7   4   29.20    4.30
  -3   7  -4   34.30    7.30
  -3   7  -4   25.50    3.80
  -3  -2  10    3.40    2.30
  -3  -2  10    1.60    2.70
   3   2 -10    3.20    2.80
   3   2 -10   -0.10    2.30
   3   2 -10    2.00    2.40
  -2  -3   9    8.40    3.10
  -2  -3   9    2.80    2.60
   2   3  -9    1.40    2.00
   2   3  -9    2.80    1.90
   2   3  -9    1.60    2.40
  -1  -4   8    3.00    2.20
  -1  -4   8    0.00    1.90
   1   4  -8    1.60    1.80
   1   4  -8   -1.60    0.90
   1   4  -8    1.30    1.90
   1   4  -8    4.70    2.20
   0  -5   7    3.90    2.50
   0  -5   7    9.80    3.20
   0  -5   7    3.30    2.20
   0   5  -7    6.90    1.50
   0   5  -7    7.20    2.40
   0   5  -7   11.00    2.90
   1  -6   6    5.80    2.70
   1  -6   6   -0.70    2.10
   1  -6   6    5.40    2.50
  -1   6  -6    3.50    2.30
  -1   6  -6    1.90    2.70
  -1   6  -6    6.80    2.40
   2  -7   5    3.60    3.00
   2  -7   5   13.40    3.40
   2  -7   5    8.80    3.40
  -2   7  -5   12.00    2.50
  -2   7  -5    8.50    3.30
  -2   7  -5   14.80    6.30
  -3  -3  10    3.00    3.20
  -2  -4   9    2.70    2.00
  -2  -4   9    3.40    2.70
  -2  -4   9    5.50    2.80
   2   4  -9    2.50    2.60
   2   4  -9   -2.20    2.10
  -1  -5   8    8.30    3.00
  -1  -5   8    7.20    2.80
   1   5  -8   12.20    3.40
   1   5  -8    9.30    2.90
   0  -6   7   24.90    4.60
   0  -6   7   46.00    6.10
   0  -6   7   26.10    4.30
   0   6  -7   31.20    4.50
   0   6  -7   26.40    4.70
   1  -7   6   -3.70    2.30
   1  -7   6   -2.40    2.80
   1  -7   6    0.50    2.40
  -1   7  -6   -2.70    2.10
  -1   7  -6    1.50    3.00
  -2  -5   9    4.20    3.60
  -1  -6   8    7.90    4.10
   1   6  -8   12.00    3.50
   1   6  -8   10.20    3.30
   6  11   2    3.30    3.10
   4  12   4   -1.50    2.90
   4  12   4   -1.60    2.20
  -4 -12  -4    1.30    2.70
  -4 -12  -4    2.30    2.80
   5  11   3   -0.30    2.30
   5  11   3    0.00    2.50
   5  11   3    0.10    2.00
  -5 -11  -3   -1.50    1.90
  -5 -11  -3   -5.60    2.20
   6  10   2   10.60    2.70
   6  10   2    9.60    3.20
   6  10   2    5.60    3.00
  -6 -10  -2   10.60    3.40
  -6 -10  -2    6.50    2.10
   7   9   1    4.40    2.10
   7   9   1   -0.30    2.40
   7   9   1    5.60    2.80
  -7  -9  -1    3.70    3.10
   8   8   0    1.30    2.20
   8   8   0    0.10    1.90
   8   8   0    0.30    2.40
  -8  -8   0   -4.40    2.20
   3  12   5    2.50    2.40
   3  12   5    0.50    2.70
  -3 -12  -5   -1.90    2.40
  -3 -12  -5    3.10    2.80
   4  11   4    0.20    1.80
   4  11   4    8.10    3.20
   4  11   4    4.60    2.50
  -4 -11  -4   11.10    3.50
  -4 -11  -4    3.60    2.30
   5  10   3   13.60    3.40
   5  10   3    7.40    3.10
   5  10   3    7.90    2.40
  -5 -10  -3   10.80    2.70
  -5 -10  -3    7.90    2.90
   6   9   2    1.90    2.30
   6   9   2    0.80    2.10
   6   9   2    0.00    1.40
  -6  -9  -2    2.30    2.40
  -6  -9  -2    0.10    1.40
   7   8   1    3.70    2.10
   7   8   1    3.30    2.30
   7   8   1    2.50    2.50
  -7  -8  -1    0.10    2.60
   8   7   0   -3.00    1.90
   8   7   0   -1.90    2.00
   8   7   0    0.90    2.10
  -8  -7   0   -2.10    2.40
   2  12   6    3.70    3.60
  -2 -12  -6    0.70    3.10
   3  11   5    4.50    2.80
   3  11   5    1.10    1.80
   3  11   5    2.80    2.50
  -3 -11  -5    2.30    2.40
  -3 -11  -5   -0.30    2.00
   4  10   4    1.20    2.10
   4  10   4    0.70    2.10
   4  10   4    1.80    1.60
  -4 -10  -4    2.00    2.00
   5   9   3    0.30    5.40
   5   9   3    1.40    2.00
   5   9   3    3.80    2.00
   5   9   3    1.50    1.40
  -5  -9  -3    3.40    2.20
  -5  -9  -3    0.60    1.60
   6   8   2    1.90    1.50
   6   8   2    2.60    1.90
   6   8   2    2.20    2.70
   6   8   2    1.80    2.00
  -6  -8  -2   -2.60    1.70
  -6  -8  -2    0.10    1.20
   7   7   1    9.20    2.40
   7   7   1    2.90    1.60
   7   7   1    3.60    2.30
   7   7   1    4.30    3.10
  -7  -7  -1    6.60    1.40
  -7  -7  -1    1.70    2.40
   8   6   0    9.60    2.70
   8   6   0    7.60    2.40
   8   6   0   10.00    3.10
  -8  -6   0    8.00    3.30
   2  11   6   42.40    4.90
   2  11   6   44.60    6.30
   2  11   6   52.09    6.90
  -2 -11  -6   46.80    4.60
  -2 -11  -6   42.50    6.10
   3  10   5   59.29    5.50
   3  10   5   66.69    5.80
  -3 -10  -5   65.09    5.30
  -3 -10  -5   54.59    5.20
  -3 -10  -5   56.89    5.40
   4   9   4   71.19    6.70
   4   9   4   60.99    4.30
   4   9   4   61.39    5.30
   4   9   4   64.39    5.90
  -4  -9  -4   68.99    5.70
  -4  -9  -4   84.89    7.40
  -4  -9  -4   65.89    5.50
   5   8   3    4.80    2.70
   5   8   3    7.60    1.80
   5   8   3    9.60    2.60
   5   8   3    3.30    2.10
  -5  -8  -3    2.70    1.50
  -5  -8  -3    9.40    2.80
  -5  -8  -3    2.20    1.60
   6   7   2    5.70    2.00
   6   7   2    1.70    1.90
   6   7   2    1.80    1.30
  -6  -7  -2    1.00    1.20
  -6  -7  -2    2.30    2.20
   7   6   1   10.10    2.30
   7   6   1   10.90    3.10
   7   6   1    8.60    2.30
   7   6   1    6.10    2.00
  -7  -6  -1    5.50    2.80
  -7  -6  -1   10.20    1.70
   8   5   0    0.40    2.10
   8   5   0    2.30    2.50
   8   5   0    0.00    1.40
   8   5   0    0.00    1.70
  -8  -5   0   -2.60    2.20
   1  11   7   -1.90    2.30
   1  11   7   -4.70    2.80
   1  11   7    7.10    2.70
  -1 -11  -7    1.90    2.60
  -1 -11  -7    1.40    2.70
   2  10   6    1.80    2.50
   2  10   6    6.80    2.60
  -2 -10  -6   -3.00    1.70
  -2 -10  -6    0.00    2.40
  -2 -10  -6   -0.10    1.80
   3   9   5   27.30    4.40
   3   9   5   29.30    2.70
   3   9   5   34.30    4.60
   3   9   5   30.40    3.00
  -3  -9  -5   27.30    4.20
  -3  -9  -5   35.20    4.40
  -3  -9  -5   32.60    4.30
  -3  -9  -5   31.40    4.00
   4   8   4  124.49    6.70
   4   8   4  122.29    8.00
   4   8   4  131.89    8.20
   4   8   4  129.69    8.10
  -4  -8  -4  120.59    7.30
  -4  -8  -4  135.59    6.80
  -4  -8  -4  131.29    8.30
  -4  -8  -4  121.99    7.90
   5   7   3  114.89    7.10
   5   7   3  120.99    6.50
   5   7   3  117.99    7.70
  -5  -7  -3  109.79    7.80
  -5  -7  -3  115.39    7.10
   6   6   2   16.70    3.20
   6   6   2   11.00    2.20
   6   6   2   11.20    2.30
   6   6   2   12.40    2.40
  -6  -6  -2   15.90    2.30
  -6  -6  -2   11.40    3.00
   7   5   1   85.69    6.50
   7   5   1   88.99    5.40
   7   5   1   82.59    6.00
   7   5   1   84.59    5.50
  -7  -5  -1   88.19    5.30
  -7  -5  -1  100.39    7.10
   8   4   0    1.20    1.40
   8   4   0    2.40    2.30
   8   4   0    1.30    1.90
   8   4   0    2.50    1.80
  -8  -4   0    1.00    2.10
  -8  -4   0    6.40    2.80
  -8  -4   0   -0.10    1.10
   1  10   7   12.80    3.70
   1  10   7   13.70    2.70
   1  10   7    9.20    3.40
  -1 -10  -7   13.60    3.90
  -1 -10  -7   17.70    3.80
  -1 -10  -7    9.00    2.60
   2   9   6    7.20    2.70
   2   9   6    3.50    1.60
   2   9   6    7.60    2.80
   2   9   6    6.00    1.80
  -2  -9  -6    2.60    1.80
  -2  -9  -6    7.00    2.50
   3   8   5    9.10    1.50
   3   8   5    8.40    2.60
   3   8   5   10.70    2.60
   3   8   5   10.40    3.10
   3   8   5    9.00    2.80
   3   8   5    9.80    1.60
  -3  -8  -5    9.80    2.60
  -3  -8  -5   12.00    2.80
  -3  -8  -5   12.00    1.60
  -3  -8  -5    9.50    2.50
   4   7   4  130.19    8.30
   4   7   4  150.88    8.30
   4   7   4  140.19    6.70
   4   7   4  129.69    7.80
   4   7   4  140.09    8.00
  -4  -7  -4  115.29    7.80
  -4  -7  -4  141.79    8.50
  -4  -7  -4  127.19    7.10
  -4  -7  -4  123.39    6.60
   5   6   3  152.28    7.80
   5   6   3  165.18    9.00
   5   6   3  156.08    8.30
  -5  -6  -3  139.29    8.40
  -5  -6  -3  137.89    7.90
  -5  -6  -3  164.08    9.40
   6   5   2  147.99    8.20
   6   5   2  170.88    9.50
   6   5   2  164.18    8.30
   6   5   2  159.18    8.70
  -6  -5  -2  149.69    9.60
  -6  -5  -2  158.68    8.60
   7   4   1   44.60    5.70
   7   4   1   36.40    4.30
   7   4   1   31.00    2.90
   7   4   1   33.30    3.10
  -7  -4  -1   47.60    5.80
  -7  -4  -1   39.50    3.20
   8   3   0    1.40    1.10
   8   3   0    0.80    2.00
   8   3   0    0.00    1.40
   8   3   0    2.10    2.10
  -8  -3   0    2.20    2.00
  -8  -3   0   -0.30    1.90
  -8  -3   0    1.60    1.30
   0  10   8    3.50    3.00
   0  10   8    0.30    2.00
   0 -10  -8   -0.90    2.90
   0 -10  -8   -1.40    2.50
   0 -10  -8    3.40    2.80
   1   9   7    3.50    2.30
   1   9   7    0.70    1.30
   1   9   7   -1.00    1.50
   1   9   7   -0.70    1.90
  -1  -9  -7    2.70    1.90
  -1  -9  -7    3.20    2.10
  -1  -9  -7    4.70    2.50
   2   8   6   14.00    1.80
   2   8   6   14.90    1.80
   2   8   6   14.70    3.20
   2   8   6   17.60    3.40
   2   8   6   16.80    3.00
  -2  -8  -6    9.30    2.80
  -2  -8  -6   18.30    3.40
  -2  -8  -6   20.00    3.20
   3   7   5    0.60    1.30
   3   7   5    0.40    0.50
   3   7   5    0.30    1.60
   3   7   5    1.00    1.40
   3   7   5    1.80    0.70
   3   7   5    2.70    1.70
  -3  -7  -5    0.90    0.60
  -3  -7  -5   -0.50    1.20
  -3  -7  -5    2.00    1.70
  -3  -7  -5    0.40    1.30
   4   6   4    5.90    1.90
   4   6   4    3.90    0.80
   4   6   4    7.70    2.30
   4   6   4    4.60    1.70
  -4  -6  -4    3.50    1.60
  -4  -6  -4    3.70    0.90
  -4  -6  -4    3.20    1.80
   5   5   3    1.10    1.70
   5   5   3   -0.70    0.80
   5   5   3    1.70    1.00
   5   5   3   -1.30    1.50
   5   5   3    2.00    1.60
  -5  -5  -3    0.50    0.80
  -5  -5  -3    0.20    1.20
  -5  -5  -3   -0.70    1.40
   6   4   2   43.00    3.90
   6   4   2   44.10    3.00
   6   4   2   41.80    3.50
  -6  -4  -2   51.89    3.80
  -6  -4  -2   36.40    4.10
   7   3   1   12.00    1.80
   7   3   1   10.90    1.60
   7   3   1   13.30    3.00
   7   3   1    8.70    2.40
  -7  -3  -1   10.70    2.80
  -7  -3  -1   12.40    3.20
  -7  -3  -1   10.40    2.20
   8   2   0    1.80    1.00
   8   2   0    2.60    1.30
   8   2   0    4.70    2.20
   8   2   0    0.30    1.90
  -8  -2   0    2.30    2.20
  -8  -2   0    1.70    2.10
  -8  -2   0    5.00    2.20
  -8  -2   0    3.80    1.80
   0   9   8    5.00    2.70
   0   9   8    6.10    2.10
   0   9   8    9.90    3.10
   0  -9  -8    0.10    2.40
   0  -9  -8   11.10    3.40
   0  -9  -8   12.90    3.30
   1   8   7   -0.50    1.00
   1   8   7    0.50    1.80
   1   8   7    0.00    1.50
   1   8   7   -0.60    1.80
   1   8   7    2.50    1.30
  -1  -8  -7    0.30    1.90
  -1  -8  -7    1.50    2.20
  -1  -8  -7    2.00    1.70
   2   7   6  131.99    7.60
   2   7   6  127.59    7.40
   2   7   6  115.49    7.40
   2   7   6  117.99    5.80
   2   7   6  112.79    5.70
   2   7   6  119.59    7.60
  -2  -7  -6  128.19    7.40
  -2  -7  -6  116.29    7.30
  -2  -7  -6  120.69    7.90
   3   6   5  104.59    6.80
   3   6   5  112.79    6.60
   3   6   5  105.59    6.50
   3   6   5  108.09    6.50
  -3  -6  -5  109.49    6.90
  -3  -6  -5   90.49    5.90
  -3  -6  -5  114.29    6.90
   4   5   4    5.30    0.80
   4   5   4    6.30    1.60
   4   5   4    6.80    1.70
   4   5   4    6.50    2.10
   4   5   4    5.50    1.70
  -4  -5  -4    9.70    3.10
  -4  -5  -4    6.30    2.10
  -4  -5  -4    7.50    1.10
   5   4   3   80.49    5.30
   5   4   3   82.89    4.50
   5   4   3   88.49    6.10
   5   4   3   81.69    4.60
   5   4   3   78.59    4.70
  -5  -4  -3   81.29    4.80
  -5  -4  -3   78.69    5.30
  -5  -4  -3   82.79    5.90
   6   3   2  103.79    5.00
   6   3   2  101.09    6.80
   6   3   2   96.99    4.90
   6   3   2  111.79    6.60
  -6  -3  -2   95.89    7.00
  -6  -3  -2  105.49    7.00
  -6  -3  -2   82.29    5.90
   7   2   1   31.50    4.00
   7   2   1   30.60    4.20
   7   2   1   26.60    1.80
   7   2   1   27.10    1.90
  -7  -2  -1   30.90    3.20
  -7  -2  -1   29.90    4.20
  -7  -2  -1   31.10    4.10
  -7  -2  -1   34.90    4.50
   8   1   0    1.90    2.20
   8   1   0   -0.60    1.80
   8   1   0    1.70    1.30
   8   1   0    3.40    2.10
   8   1   0    0.30    0.90
  -8  -1   0    4.70    2.40
  -8  -1   0   -2.10    1.80
  -8  -1   0    0.40    2.10
  -8  -1   0    1.50    1.60
  -1   9   9    2.70    2.10
  -1   9   9    5.50    2.90
   1  -9  -9   -1.40    2.40
   1  -9  -9    1.90    3.20
   0   8   8   19.20    3.70
   0   8   8   17.40    2.80
   0   8   8   19.30    2.60
   0  -8  -8   19.80    4.00
   0  -8  -8   22.10    4.10
   0  -8  -8   19.20    3.00
   1   7   7    1.20    1.50
   1   7   7    8.20    2.70
   1   7   7    6.70    1.20
   1   7   7    5.60    1.20
   1   7   7    6.20    2.30
  -1  -7  -7    7.50    2.40
  -1  -7  -7    3.70    2.10
   2   6   6  104.69    7.20
   2   6   6  106.59    6.50
   2   6   6  101.29    6.60
   2   6   6  104.49    6.70
  -2  -6  -6  112.59    7.20
  -2  -6  -6  115.09    6.60
   3   5   5    3.80    1.50
   3   5   5    3.80    1.40
   3   5   5    5.30    1.80
   3   5   5    5.00    1.50
  -3  -5  -5    8.20    2.00
  -3  -5  -5    3.60    1.20
   4   4   4   34.30    2.60
   4   4   4   36.80    3.60
   4   4   4   40.90    2.70
   4   4   4   35.40    2.10
   4   4   4   26.20    2.60
  -4  -4  -4   31.90    3.40
  -4  -4  -4   31.00    2.10
  -4  -4  -4   36.40    3.30
  -4  -4  -4   39.80    2.20
   5   3   3  108.39    6.20
   5   3   3  113.79    7.30
   5   3   3  116.49    5.60
   5   3   3  124.29    6.70
   5   3   3  114.59    5.50
  -5  -3  -3  103.79    6.10
  -5  -3  -3  110.29    7.50
  -5  -3  -3  102.69    7.10
  -5  -3  -3  119.89    6.30
   6   2   2   71.99    5.50
   6   2   2   78.99    5.30
   6   2   2   80.19    5.20
  -6  -2  -2   68.59    5.10
  -6  -2  -2   68.89    5.10
  -6  -2  -2   59.19    4.90
  -6  -2  -2   76.29    5.60
   7   1   1  108.89    7.40
   7   1   1  104.89    5.00
   7   1   1  108.59    5.10
   7   1   1   97.49    7.00
  -7  -1  -1  116.99    7.40
  -7  -1  -1   97.79    6.90
  -7  -1  -1  116.89    7.50
  -7  -1  -1  115.49    7.60
   8   0   0    1.20    1.10
   8   0   0    1.10    1.30
   8   0   0    2.60    2.50
  -8   0   0    2.60    2.80
  -8   0   0    0.20    2.60
  -8   0   0    3.50    2.80
  -8   0   0    9.30    2.80
  -1   8   9    0.20    2.10
  -1   8   9    2.40    2.40
  -1   8   9    1.40    1.80
  -1   8   9    3.40    1.60
   1  -8  -9    2.70    2.10
   1  -8  -9   -4.30    2.00
   0   7   8   16.70    2.30
   0   7   8   12.70    2.90
   0   7   8   11.70    2.40
   0   7   8   16.10    3.40
   0  -7  -8   16.10    3.30
   0  -7  -8   10.20    4.40
   1   6   7   82.09    4.20
   1   6   7   75.59    5.40
   1   6   7   77.99    5.40
  -1  -6  -7   84.49    5.60
  -1  -6  -7   75.89    6.00
   2   5   6  308.07   14.90
   2   5   6  303.17   15.10
   2   5   6  304.17   15.30
  -2  -5  -6  292.37   14.70
  -2  -5  -6  328.07   15.90
   3   4   5  187.08    8.90
   3   4   5  172.88    8.90
   3   4   5  176.78    8.80
   3   4   5  174.78    9.60
  -3  -4  -5  177.98    8.40
  -3  -4  -5  166.68    9.60
  -3  -4  -5  168.48    8.70
   4   3   4    7.90    1.50
   4   3   4   11.00    2.30
   4   3   4    9.60    1.40
   4   3   4    9.80    1.50
  -4  -3  -4   10.40    1.30
  -4  -3  -4   10.00    1.30
  -4  -3  -4    7.40    1.50
  -4  -3  -4    7.80    2.30
   5   2   3  152.08    8.30
   5   2   3  156.88    7.10
   5   2   3  156.28    7.10
   5   2   3  152.68    9.10
  -5  -2  -3  153.88    8.90
  -5  -2  -3  164.98    9.20
  -5  -2  -3  166.48    8.40
  -5  -2  -3  163.78    8.60
   6   1   2   28.90    3.70
   6   1   2   25.60    3.50
   6   1   2   27.50    3.80
   6   1   2   32.30    3.50
  -6  -1  -2   31.10    3.30
  -6  -1  -2   25.70    3.70
  -6  -1  -2   20.40    3.20
  -6  -1  -2   24.20    3.40
   7   0   1   60.69    5.40
   7   0   1   58.89    5.20
   7   0   1   62.29    3.30
  -7   0  -1   63.29    5.20
  -7   0  -1   59.89    5.30
  -7   0  -1   56.49    5.10
  -7   0  -1   65.09    5.10
   8  -1   0   28.10    4.70
   8  -1   0   28.80    5.00
   8  -1   0   29.30    2.70
   8  -1   0   26.90    3.00
  -8   1   0   37.20    5.20
  -8   1   0   40.00    5.50
  -8   1   0   27.90    4.80
  -2   8  10    6.20    2.60
  -2   8  10    5.50    3.20
   2  -8 -10    5.30    3.30
  -1   7   9    4.30    2.50
  -1   7   9    4.60    1.80
  -1   7   9    2.70    1.60
  -1   7   9    2.80    2.40
   1  -7  -9    2.80    2.70
   1  -7  -9   -0.30    1.90
   0   6   8   29.10    3.80
   0   6   8   22.50    2.40
   0   6   8   25.60    2.30
   0   6   8   22.80    3.40
   0   6   8   30.90    4.30
   0  -6  -8   36.30    4.60
   0  -6  -8   29.20    4.30
   1   5   7   37.50    3.70
   1   5   7   34.10    3.10
   1   5   7   37.60    3.60
   1   5   7   41.20    2.40
   1   5   7   38.50    3.60
   1   5   7   44.00    2.30
  -1  -5  -7   45.90    4.10
  -1  -5  -7   41.40    3.60
   2   4   6   24.20    3.50
   2   4   6   18.60    2.20
   2   4   6   16.80    2.40
   2   4   6   20.10    3.10
  -2  -4  -6   17.10    2.80
  -2  -4  -6   19.60    2.50
  -2  -4  -6   15.30    1.70
   3   3   5   95.29    5.50
   3   3   5   93.89    6.30
   3   3   5  104.99    5.40
   3   3   5  105.09    5.60
  -3  -3  -5  102.79    4.70
  -3  -3  -5  104.49    5.30
  -3  -3  -5  102.69    5.30
  -3  -3  -5  102.89    6.40
   4   2   4   23.60    1.80
   4   2   4   19.80    1.90
   4   2   4   25.90    3.30
   4   2   4   19.20    1.60
  -4  -2  -4   23.40    2.00
  -4  -2  -4   20.00    1.90
  -4  -2  -4   22.50    1.90
  -4  -2  -4   26.50    2.80
   5   1   3  105.89    6.10
   5   1   3  114.39    6.90
   5   1   3  111.89    6.90
   5   1   3  102.09    4.80
  -5  -1  -3  103.69    6.80
  -5  -1  -3   93.59    6.60
  -5  -1  -3  108.19    6.30
  -5  -1  -3  118.29    6.40
   6   0   2  267.97   11.80
   6   0   2  303.47   14.70
  -6   0  -2  268.77   14.10
  -6   0  -2  241.38   13.70
  -6   0  -2  260.17   14.30
  -6   0  -2  285.57   14.10
   7  -1   1   16.60    1.80
   7  -1   1   23.30    3.90
   7  -1   1   18.10    2.10
  -7   1  -1   15.70    3.20
  -7   1  -1   24.80    4.20
  -7   1  -1   19.70    3.20
  -7   1  -1   28.50    4.50
  -2   7  10    3.70    2.50
  -2   7  10   -1.30    1.90
  -2   7  10    2.90    1.80
   2  -7 -10    1.50    2.60
   2  -7 -10    5.90    2.30
   2  -7 -10    7.30    3.40
  -1   6   9   14.80    3.50
  -1   6   9   17.70    3.20
  -1   6   9   19.40    2.80
  -1   6   9   20.20    3.10
   1  -6  -9   18.20    2.70
   1  -6  -9   17.00    3.70
   1  -6  -9   19.90    3.70
   0   5   8   76.29    5.60
   0   5   8   73.59    4.40
   0   5   8   72.99    5.30
   0   5   8   73.19    4.40
   0  -5  -8   70.19    5.30
   0  -5  -8   78.39    6.00
   0  -5  -8   78.09    4.40
   1   4   7   -0.10    0.60
   1   4   7   -0.80    1.30
   1   4   7   -0.80    1.10
   1   4   7    0.30    0.90
   1   4   7    0.70    1.20
  -1  -4  -7   -0.30    0.80
  -1  -4  -7   -0.30    1.30
  -1  -4  -7   -1.30    0.90
  -1  -4  -7    0.60    0.40
   2   3   6    8.40    2.00
   2   3   6    6.40    1.10
   2   3   6    6.70    0.60
   2   3   6    9.40    2.10
  -2  -3  -6    7.60    1.10
  -2  -3  -6    6.40    0.60
  -2  -3  -6    9.60    1.70
  -2  -3  -6    6.10    0.50
  -2  -3  -6    6.20    1.90
   3   2   5    0.60    0.90
   3   2   5    5.10    1.70
   3   2   5    1.30    0.90
  -3  -2  -5    0.80    0.60
  -3  -2  -5    1.80    0.60
  -3  -2  -5    2.10    0.70
  -3  -2  -5    2.00    1.20
   4   1   4   22.20    3.10
   4   1   4   13.80    1.30
   4   1   4   14.00    1.40
   4   1   4   24.80    3.30
   4   1   4   14.70    1.50
  -4  -1  -4   17.40    2.20
  -4  -1  -4   15.70    2.10
  -4  -1  -4   17.30    2.80
  -4  -1  -4   15.20    2.10
  -4  -1  -4   16.90    2.00
   5   0   3   20.70    3.10
   5   0   3   18.10    1.40
   5   0   3   18.00    1.40
   5   0   3   14.50    2.90
  -5   0  -3   22.50    2.40
  -5   0  -3   19.30    2.90
  -5   0  -3   21.00    3.30
   6  -1   2    3.90    2.10
   6  -1   2    2.00    1.70
   6  -1   2    3.20    1.00
   6  -1   2    4.50    1.00
  -6   1  -2    5.10    2.10
  -6   1  -2    1.90    1.90
  -6   1  -2    6.30    2.00
  -6   1  -2    1.70    1.40
   7  -2   1   15.30    2.50
   7  -2   1   14.70    2.20
   7  -2   1   12.90    3.40
  -7   2  -1   13.90    3.30
  -7   2  -1   18.00    2.90
  -7   2  -1   24.80    4.50
  -7   2  -1   16.10    3.80
  -2   6  10   31.50    4.50
  -2   6  10   31.50    4.10
  -2   6  10   19.90    3.40
   2  -6 -10   35.20    3.70
   2  -6 -10   32.90    5.30
   2  -6 -10   24.60    4.60
  -1   5   9    9.40    2.40
  -1   5   9   11.90    2.20
  -1   5   9   11.70    2.50
  -1   5   9   13.00    3.10
   1  -5  -9    8.50    2.70
   1  -5  -9   15.80    2.50
   1  -5  -9   13.30    3.20
   0   4   8    2.80    1.80
   0   4   8    3.40    1.70
   0   4   8    2.40    1.20
   0   4   8    4.50    1.30
   0  -4  -8    3.00    1.70
   0  -4  -8    1.80    0.90
   0  -4  -8    2.80    1.70
   1   3   7    3.40    0.90
   1   3   7    2.60    1.40
   1   3   7    1.70    1.60
   1   3   7    1.10    1.40
   1   3   7    1.90    0.90
  -1  -3  -7    3.90    0.90
  -1  -3  -7    1.40    1.30
  -1  -3  -7    6.10    1.70
  -1  -3  -7    4.00    0.80
   2   2   6   27.50    2.50
   2   2   6   24.80    3.40
   2   2   6   26.10    1.80
   2   2   6   25.20    1.40
   2   2   6   27.00    3.10
  -2  -2  -6   26.30    2.20
  -2  -2  -6   26.00    2.90
   3   1   5   36.40    2.60
   3   1   5   39.20    3.40
   3   1   5   31.20    2.40
   3   1   5   30.40    3.00
  -3  -1  -5   32.80    1.90
  -3  -1  -5   33.20    2.50
  -3  -1  -5   32.90    3.20
  -3  -1  -5   30.80    1.90
   4   0   4   33.30    3.20
   4   0   4   28.90    2.10
   4   0   4   29.40    2.20
   4   0   4   30.90    3.20
  -4   0  -4   27.30    3.10
  -4   0  -4   24.20    2.40
  -4   0  -4   24.80    2.60
  -4   0  -4   29.40    2.20
   5  -1   3   48.30    2.90
   5  -1   3   45.30    2.90
   5  -1   3   47.70    4.50
  -5   1  -3   48.60    4.50
  -5   1  -3   45.00    3.60
  -5   1  -3   32.90    3.60
   6  -2   2   40.50    3.80
   6  -2   2   43.00    3.10
   6  -2   2   39.30    3.50
   6  -2   2   41.30    5.30
  -6   2  -2   38.90    3.60
  -6   2  -2   34.40    3.80
  -6   2  -2   44.20    4.60
  -6   2  -2   39.30    4.20
   7  -3   1    5.60    3.20
   7  -3   1    0.50    2.60
   7  -3   1    4.00    1.80
  -7   3  -1    1.10    2.40
  -7   3  -1    5.70    2.40
  -7   3  -1    0.00    2.40
  -2   5  10   10.20    2.40
  -2   5  10    8.80    3.20
  -2   5  10    9.20    2.50
  -2   5  10   10.40    2.70
   2  -5 -10    5.90    2.10
   2  -5 -10   12.80    3.30
   2  -5 -10    8.00    2.80
  -1   4   9   18.90    2.80
  -1   4   9   20.70    3.40
  -1   4   9   19.60    3.70
   1  -4  -9   16.30    3.20
   1  -4  -9   25.50    4.00
   1  -4  -9   17.70    2.50
   0   3   8    1.10    1.70
   0   3   8    2.50    1.10
   0   3   8    0.60    1.00
   0   3   8    1.20    1.40
   0   3   8    1.20    1.30
   0  -3  -8   -0.20    0.70
   0  -3  -8   -0.20    1.40
   0  -3  -8    2.50    1.50
   0  -3  -8    1.30    0.90
   1   2   7  106.69    5.70
   1   2   7  109.09    5.20
   1   2   7  114.89    6.60
   1   2   7  110.69    6.90
   1   2   7  108.49    5.10
   1   2   7  105.09    7.10
  -1  -2  -7  106.69    6.20
  -1  -2  -7  114.39    7.00
  -1  -2  -7  101.79    5.70
   2   1   6  122.89    6.70
   2   1   6  122.19    6.40
   2   1   6  115.89    7.20
   2   1   6  112.89    6.70
  -2  -1  -6  116.79    6.20
  -2  -1  -6  125.79    7.50
  -2  -1  -6  125.29    6.40
   3   0   5   51.19    4.10
   3   0   5   48.80    3.40
   3   0   5   49.90    3.40
   3   0   5   50.29    4.20
  -3   0  -5   47.60    2.40
  -3   0  -5   48.80    3.60
  -3   0  -5   52.29    4.20
   4  -1   4  376.36   17.50
   4  -1   4  356.76   18.10
   4  -1   4  352.06   16.40
   4  -1   4  352.26   16.50
  -4   1  -4  357.36   16.40
  -4   1  -4  356.36   18.10
  -4   1  -4  361.26   16.40
  -4   1  -4  338.97   17.30
   5  -2   3  182.98    9.70
   5  -2   3  166.68   10.50
   5  -2   3  178.28    9.00
   5  -2   3  176.38    8.80
  -5   2  -3  161.58   10.00
  -5   2  -3  177.78   10.70
  -5   2  -3  180.98    9.50
   6  -3   2   26.40    3.30
   6  -3   2   32.20    4.90
   6  -3   2   23.70    3.10
   6  -3   2   34.70    4.40
  -6   3  -2   50.39    6.30
  -6   3  -2   24.00    4.10
  -6   3  -2   24.10    4.20
  -6   3  -2   21.10    3.70
  -3   5  11   -1.00    2.50
  -3   5  11    2.10    2.10
  -3   5  11   -0.70    2.00
   3  -5 -11    2.50    3.00
   3  -5 -11    1.00    3.00
   3  -5 -11    1.10    2.10
  -2   4  10   11.80    3.20
  -2   4  10    7.70    2.50
   2  -4 -10    3.30    3.60
   2  -4 -10   12.30    2.60
   2  -4 -10   11.80    3.20
  -1   3   9    5.90    2.20
  -1   3   9   12.20    3.00
   1  -3  -9    4.80    2.10
   1  -3  -9    9.00    1.90
   1  -3  -9    4.30    2.00
   0   2   8    0.00    1.40
   0   2   8    1.70    1.80
   0   2   8    3.40    1.00
   0   2   8    1.40    0.90
   0  -2  -8    1.10    1.10
   0  -2  -8    0.30    1.20
   0  -2  -8    2.90    1.60
   1   1   7  103.69    5.90
   1   1   7  106.89    6.40
   1   1   7  108.99    6.60
   1   1   7  107.29    6.80
  -1  -1  -7  105.89    6.20
  -1  -1  -7  108.69    6.90
  -1  -1  -7  104.79    5.90
   2   0   6   40.40    3.30
   2   0   6   37.60    3.60
   2   0   6   37.50    3.10
  -2   0  -6   36.00    2.70
  -2   0  -6   43.90    3.80
  -2   0  -6   39.10    3.20
   3  -1   5    2.60    1.80
   3  -1   5    6.30    1.60
   3  -1   5    2.40    1.30
   3  -1   5   -0.20    1.20
  -3   1  -5    4.70    0.80
  -3   1  -5    2.90    0.70
  -3   1  -5    5.50    1.90
   4  -2   4   72.09    4.70
   4  -2   4   62.89    5.50
   4  -2   4   75.79    4.60
   4  -2   4   53.09    4.70
  -4   2  -4   81.99    4.60
  -4   2  -4   72.09    4.40
  -4   2  -4   84.89    5.70
  -4   2  -4   74.99    5.80
   5  -3   3   14.90    2.40
   5  -3   3   11.50    2.20
   5  -3   3   10.90    3.10
   5  -3   3    9.40    2.30
  -5   3  -3    9.30    4.70
  -5   3  -3   10.00    2.30
  -5   3  -3    8.70    2.80
   6  -4   2   51.59    6.60
   6  -4   2   46.00    4.30
   6  -4   2   53.39    4.40
  -6   4  -2   45.90    4.70
  -6   4  -2   52.99    5.50
  -3   4  11    7.50    2.60
  -3   4  11    7.50    2.70
   3  -4 -11    7.70    2.70
   3  -4 -11    9.20    3.40
  -2   3  10   22.80    3.40
  -2   3  10   23.30    4.50
  -2   3  10   22.00    4.00
   2  -3 -10   17.70    3.10
   2  -3 -10   23.00    4.00
   2  -3 -10   17.40    3.40
  -1   2   9    5.60    2.20
  -1   2   9   10.00    2.80
  -1   2   9    6.60    1.60
   1  -2  -9    7.50    2.40
   1  -2  -9   11.90    2.40
   1  -2  -9    7.20    2.20
   0   1   8    0.50    1.60
   0   1   8    0.30    1.30
   0   1   8    1.40    0.80
   0  -1  -8    0.40    1.30
   0  -1  -8    0.50    1.00
   0  -1  -8    0.50    1.40
   1   0   7   -0.30    1.30
   1   0   7   -0.70    1.10
   1   0   7    3.20    1.60
  -1   0  -7    0.40    1.30
  -1   0  -7   -1.00    1.10
  -1   0  -7    1.30    1.10
   2  -1   6  128.99    7.50
   2  -1   6  135.99    8.30
   2  -1   6  132.29    7.70
   2  -1   6  129.59    8.10
  -2   1  -6  153.08   10.00
  -2   1  -6  132.99    7.00
  -2   1  -6  155.78    8.60
   3  -2   5   23.50    3.10
   3  -2   5   27.00    3.90
   3  -2   5   26.90    3.20
   3  -2   5   20.90    3.20
  -3   2  -5   22.80    3.30
  -3   2  -5   20.90    1.70
  -3   2  -5   30.30    4.00
   4  -3   4    5.60    1.90
   4  -3   4    2.70    1.60
  -4   3  -4    3.40    1.30
  -4   3  -4    1.60    1.90
   5  -4   3   35.60    3.50
   5  -4   3   32.00    4.10
   5  -4   3   32.30    5.10
   5  -4   3   32.90    4.10
  -5   4  -3   33.00    4.10
  -5   4  -3   30.60    4.80
   6  -5   2    0.60    2.70
   6  -5   2   -2.40    2.10
  -6   5  -2   -1.40    2.30
  -3   3  11   -1.30    1.90
  -3   3  11    1.80    2.30
   3  -3 -11   -1.40    2.60
   3  -3 -11    3.10    3.00
   3  -3 -11    3.30    2.10
  -2   2  10   16.70    2.70
  -2   2  10   21.00    3.90
  -2   2  10   21.90    3.90
   2  -2 -10   16.60    3.00
   2  -2 -10    9.80    2.50
   2  -2 -10   20.50    4.00
  -1   1   9   22.70    2.40
  -1   1   9   21.60    2.50
  -1   1   9   21.10    3.70
   1  -1  -9   17.50    3.30
   1  -1  -9   24.70    3.70
   1  -1  -9   26.30    3.50
   0   0   8  368.96   18.80
   0   0   8  378.46   16.20
   0   0   8  346.97   18.30
   0   0   8  385.76   16.40
   0   0  -8  340.17   17.90
   0   0  -8  394.46   18.70
   0   0  -8  379.66   18.20
   1  -1   7   73.89    5.50
   1  -1   7   89.09    5.70
   1  -1   7   80.39    5.90
  -1   1  -7   79.49    5.50
  -1   1  -7   83.19    5.30
  -1   1  -7   83.99    5.90
   2  -2   6   35.40    4.40
   2  -2   6   30.10    4.10
   2  -2   6   28.90    4.00
   2  -2   6   35.20    3.40
  -2   2  -6   34.40    3.70
  -2   2  -6   22.80    3.70
  -2   2  -6   28.70    2.60
   3  -3   5   84.09    6.50
   3  -3   5   84.79    5.80
   3  -3   5   92.19    6.00
   3  -3   5   85.89    5.70
  -3   3  -5   84.09    6.50
  -3   3  -5   82.69    4.60
  -3   3  -5   78.59    6.20
  -3   3  -5   81.79    4.60
   4  -4   4   13.30    3.10
   4  -4   4   18.40    3.00
   4  -4   4   18.50    3.70
   4  -4   4   17.50    3.00
  -4   4  -4   17.70    3.90
  -4   4  -4   14.40    2.70
  -4   4  -4   12.50    3.10
   5  -5   3    6.50    3.20
   5  -5   3    4.00    2.20
   5  -5   3    4.50    2.30
  -5   5  -3    1.20    1.80
  -5   5  -3   -6.50    2.00
  -3   2  11    8.90    3.30
  -3   2  11    7.70    2.50
   3  -2 -11    9.30    3.00
   3  -2 -11    5.60    2.50
   3  -2 -11    6.70    3.10
  -2   1  10   15.50    3.80
  -2   1  10   24.70    4.40
  -2   1  10   19.80    2.90
   2  -1 -10   23.40    4.20
   2  -1 -10   20.40    3.40
   2  -1 -10   17.50    3.30
  -1   0   9  290.57   16.70
  -1   0   9  279.17   13.30
  -1   0   9  284.57   15.10
  -1   0   9  318.07   14.70
   1   0  -9  261.47   14.60
   1   0  -9  274.57   14.80
   0  -1   8   42.90    4.30
   0  -1   8   39.30    4.00
   0   1  -8   40.10    3.90
   0   1  -8   39.40    3.70
   0   1  -8   35.70    3.70
   1  -2   7  105.49    7.10
   1  -2   7  119.09    7.10
   1  -2   7  103.69    7.20
  -1   2  -7   91.59    6.30
  -1   2  -7  105.39    7.00
  -1   2  -7  117.29    7.30
   2  -3   6    0.60    1.70
   2  -3   6    4.60    1.90
   2  -3   6    1.40    1.80
   2  -3   6    3.50    1.90
  -2   3  -6   -1.80    1.30
  -2   3  -6    2.10    0.60
  -2   3  -6    2.90    0.70
  -2   3  -6    0.20    1.70
   3  -4   5   24.50    3.60
   3  -4   5   20.70    3.30
   3  -4   5   35.90    4.80
   3  -4   5   22.00    2.70
   3  -4   5   23.10    4.40
  -3   4  -5   34.90    4.80
  -3   4  -5   22.20    2.30
   4  -5   4   17.00    4.10
   4  -5   4   21.80    3.70
   4  -5   4   20.30    3.20
  -4   5  -4   13.60    2.70
  -4   5  -4   18.80    4.30
  -4   5  -4   13.00    3.70
  -3   1  11   19.40    4.30
  -3   1  11   16.40    3.30
   3  -1 -11   23.60    4.10
   3  -1 -11   12.20    3.30
   3  -1 -11   16.20    4.00
  -2   0  10   13.30    3.40
  -2   0  10   16.00    2.60
   2   0 -10   12.40    3.10
   2   0 -10   11.20    2.80
   2   0 -10   12.50    3.00
  -1  -1   9    2.70    2.10
  -1  -1   9    3.90    1.60
  -1  -1   9    5.10    1.20
  -1  -1   9    1.50    2.10
   1   1  -9    2.50    1.50
   1   1  -9    3.50    1.80
   1   1  -9    2.40    2.20
   0  -2   8   41.30    6.00
   0  -2   8   33.60    4.50
   0   2  -8   25.60    3.90
   0   2  -8   31.50    3.40
   0   2  -8   34.00    3.70
   1  -3   7   28.60    4.30
   1  -3   7   23.10    3.80
   1  -3   7   26.00    4.00
  -1   3  -7   27.00    4.00
  -1   3  -7   23.50    4.30
  -1   3  -7   31.30    4.20
   2  -4   6    4.00    2.20
   2  -4   6    0.80    2.00
   2  -4   6    6.40    3.30
   2  -4   6    3.90    2.10
   2  -4   6    1.20    1.20
  -2   4  -6    0.70    1.60
  -2   4  -6    4.00    1.00
   3  -5   5    3.80    2.10
   3  -5   5    1.70    2.20
   3  -5   5    3.80    2.50
  -3   5  -5   -1.40    2.00
  -3   5  -5   -1.20    1.20
  -3   5  -5    0.40    2.30
   4  -6   4   25.00    6.40
   4  -6   4   21.30    3.60
  -4   6  -4   15.40    3.20
  -4   6  -4   19.80    4.90
  -4   6  -4   17.90    4.40
  -3   0  11   19.90    4.40
  -3   0  11   15.30    3.40
   3   0 -11    8.60    3.30
   3   0 -11   13.30    3.60
   3   0 -11   15.20    3.80
  -2  -1  10    6.50    3.00
  -2  -1  10   12.10    3.20
   2   1 -10    1.60    2.20
   2   1 -10    6.90    2.50
  -1  -2   9    5.90    2.30
  -1  -2   9    1.80    2.10
   1   2  -9   -0.50    1.60
   1   2  -9    4.60    2.00
   1   2  -9    3.90    2.30
   0  -3   8   -0.20    1.90
   0  -3   8    0.30    0.50
   0  -3   8    1.00    1.70
   0   3  -8    0.30    1.70
   0   3  -8   -3.40    2.20
   0   3  -8    1.40    1.60
   1  -4   7    5.40    2.40
   1  -4   7    5.80    2.30
   1  -4   7    2.80    2.60
  -1   4  -7    9.60    2.80
  -1   4  -7    3.90    2.60
   2  -5   6   37.50    5.10
   2  -5   6   31.10    4.90
  -2   5  -6   29.90    4.70
  -2   5  -6   29.60    4.80
  -2   5  -6   31.90    2.60
   3  -6   5   37.70    5.20
   3  -6   5   39.90    4.40
   3  -6   5   35.90    5.80
  -3   6  -5   40.70    3.70
  -3   6  -5   42.50    6.10
  -3   6  -5   46.00    6.40
  -2  -2  10    3.80    2.80
  -2  -2  10   11.20    3.50
  -2  -2  10    2.10    2.30
   2   2 -10   -1.10    1.90
   2   2 -10    1.30    2.40
  -1  -3   9   14.00    3.70
  -1  -3   9   19.10    2.20
  -1  -3   9   23.30    4.40
   1   3  -9   24.30    3.90
   1   3  -9   21.90    3.80
   0  -4   8    2.60    2.20
   0  -4   8   -0.90    2.50
   0   4  -8    4.60    2.20
   0   4  -8    3.50    2.30
   1  -5   7    9.30    2.90
   1  -5   7    4.60    2.60
   1  -5   7    6.80    2.70
  -1   5  -7    5.90    2.50
  -1   5  -7    7.80    2.90
   2  -6   6    0.60    2.80
   2  -6   6    1.00    2.10
   2  -6   6    0.00    2.70
  -2   6  -6    5.00    3.40
  -2   6  -6   -2.00    2.10
  -2  -3  10    4.30    2.90
  -2  -3  10   -1.10    2.60
   2   3 -10    0.40    2.60
   2   3 -10   -0.20    2.40
  -1  -4   9    5.30    3.10
  -1  -4   9    2.40    2.50
   1   4  -9   -1.10    2.30
   1   4  -9    0.30    2.50
   0  -5   8    2.20    3.00
   0  -5   8    3.90    2.70
   0   5  -8    4.20    2.70
   0   5  -8    7.80    3.10
   1  -6   7    5.30    2.90
   1  -6   7   -4.20    2.70
   1  -6   7    4.10    2.70
  -1   6  -7   -0.30    2.30
  -1   6  -7    1.20    2.80
   6  11   3   -0.10    2.10
   6  11   3   -5.80    2.40
   6  11   3    3.40    2.90
  -6 -11  -3   -1.10    2.10
  -6 -11  -3    2.40    3.60
   7  10   2   15.20    3.20
   7  10   2   14.40    4.20
  -7 -10  -2    8.80    3.90
   4  12   5    1.00    2.90
   4  12   5    4.70    3.40
  -4 -12  -5    5.00    3.40
   5  11   4   -0.10    2.40
   5  11   4    1.10    1.90
   5  11   4    7.00    3.20
  -5 -11  -4   -0.50    2.60
  -5 -11  -4    6.10    2.60
   6  10   3    5.60    2.60
   6  10   3    5.30    2.30
   6  10   3   -0.30    2.30
  -6 -10  -3    6.80    2.40
  -6 -10  -3    2.70    2.80
   7   9   2    1.00    2.30
   7   9   2   -1.90    1.70
   7   9   2    2.00    2.40
  -7  -9  -2   -2.10    2.20
   8   8   1   -2.60    1.70
   8   8   1    2.90    2.60
   8   8   1   -1.30    2.10
  -8  -8  -1    4.10    3.20
   3  12   6    2.90    3.40
  -3 -12  -6   -1.20    2.70
  -3 -12  -6    1.10    2.70
   4  11   5    8.90    3.50
   4  11   5    7.70    3.30
   4  11   5    8.00    2.30
  -4 -11  -5    7.70    3.10
  -4 -11  -5    9.00    3.30
   5  10   4    1.80    1.40
   5  10   4    1.70    2.60
   5  10   4    2.80    2.40
  -5 -10  -4    2.70    2.30
  -5 -10  -4    0.80    2.00
   6   9   3    3.60    2.40
   6   9   3    0.70    2.00
   6   9   3    3.10    1.70
  -6  -9  -3    1.20    2.10
  -6  -9  -3    2.60    1.80
   7   8   2    0.40    1.60
   7   8   2   -1.20    2.10
   7   8   2    1.60    2.30
  -7  -8  -2   -0.80    1.20
  -7  -8  -2   -1.30    2.40
   8   7   1    1.40    1.90
   8   7   1    1.40    2.20
   8   7   1   -0.90    2.00
  -8  -7  -1   -2.40    2.20
   3  11   6    5.40    2.20
   3  11   6   14.90    4.00
   3  11   6    9.60    3.50
  -3 -11  -6    0.80    2.10
  -3 -11  -6    9.30    3.50
   4  10   5    0.60    2.10
   4  10   5    0.30    1.10
  -4 -10  -5    6.30    3.90
  -4 -10  -5   -1.40    2.30
   5   9   4    0.10    1.90
   5   9   4    1.40    1.20
   5   9   4   -0.50    1.80
  -5  -9  -4    2.10    1.70
  -5  -9  -4   -2.10    1.70
   6   8   3    4.00    2.30
   6   8   3    3.80    1.50
   6   8   3    0.00    1.60
  -6  -8  -3    3.40    1.60
  -6  -8  -3    1.40    2.20
   7   7   2    2.40    2.90
   7   7   2    2.00    2.10
   7   7   2   -0.50    1.30
   7   7   2    2.20    1.70
  -7  -7  -2    5.50    1.70
  -7  -7  -2    2.40    2.30
   8   6   1    2.60    1.90
   8   6   1    3.80    1.80
   8   6   1   -0.10    2.10
  -8  -6  -1    0.10    2.50
   2  11   7   22.90    4.80
   2  11   7   18.30    3.40
   2  11   7   28.20    5.20
  -2 -11  -7   20.90    3.70
  -2 -11  -7   27.20    5.10
   3  10   6   35.70    3.10
   3  10   6   44.10    6.00
   3  10   6   48.60    5.80
  -3 -10  -6   41.10    5.00
  -3 -10  -6   39.40    5.60
   4   9   5    0.30    3.20
   4   9   5    4.90    2.20
   4   9   5    0.50    0.90
  -4  -9  -5   -0.40    1.70
  -4  -9  -5   -0.40    1.80
  -4  -9  -5    1.70    2.00
  -4  -9  -5    1.60    1.10
   5   8   4   58.69    3.80
   5   8   4   68.09    5.10
   5   8   4   60.29    5.10
   5   8   4   64.69    5.20
  -5  -8  -4   48.00    5.10
  -5  -8  -4   49.80    4.60
  -5  -8  -4   54.79    3.80
   6   7   3   30.10    3.70
   6   7   3   26.50    3.90
   6   7   3   21.60    2.90
   6   7   3   27.00    3.60
  -6  -7  -3   23.50    4.10
  -6  -7  -3   21.60    3.20
   7   6   2   22.50    3.70
   7   6   2   17.40    2.80
   7   6   2   17.40    2.90
   7   6   2   14.00    2.50
  -7  -6  -2   18.50    3.90
  -7  -6  -2   14.70    2.50
   8   5   1   11.30    3.20
   8   5   1   17.10    2.60
   8   5   1   22.00    3.20
   8   5   1   18.10    3.80
  -8  -5  -1   15.10    2.40
  -8  -5  -1   14.20    4.00
   9   4   0    5.90    1.80
  -9  -4   0    4.50    3.30
   1  11   8   -3.50    4.50
   1  11   8    5.90    5.80
  -1 -11  -8    2.90    3.30
  -1 -11  -8    2.10    3.80
   2  10   7    9.50    2.20
   2  10   7   12.40    3.50
  -2 -10  -7    6.40    3.10
  -2 -10  -7   10.10    2.80
  -2 -10  -7   10.40    3.20
   3   9   6   75.99    6.20
   3   9   6   64.89    5.40
   3   9   6   63.19    3.70
   3   9   6   68.99    5.90
  -3  -9  -6   62.29    6.00
  -3  -9  -6   60.89    5.10
  -3  -9  -6   56.49    5.30
   4   8   5  129.19    7.80
   4   8   5  117.19    5.80
   4   8   5  124.29    8.00
   4   8   5  119.59    7.60
   4   8   5  106.69    7.30
  -4  -8  -5  116.59    7.70
  -4  -8  -5  108.69    5.70
  -4  -8  -5  107.59    6.70
  -4  -8  -5  109.59    7.80
   5   7   4   21.10    3.80
   5   7   4   21.50    3.40
   5   7   4   20.80    3.10
   5   7   4   19.70    1.90
  -5  -7  -4   25.90    4.20
  -5  -7  -4   20.20    3.30
  -5  -7  -4   21.60    2.50
   6   6   3   16.20    3.10
   6   6   3   18.50    2.70
   6   6   3   18.10    2.70
   6   6   3   21.30    2.60
  -6  -6  -3   18.60    2.80
  -6  -6  -3   18.80    3.70
   7   5   2    1.00    1.20
   7   5   2    1.40    1.40
   7   5   2    3.20    1.60
  -7  -5  -2    3.20    1.60
  -7  -5  -2    1.70    2.20
   8   4   1    0.10    1.20
   8   4   1    3.70    2.00
   8   4   1    1.80    1.50
   8   4   1   -0.50    1.90
  -8  -4  -1   -0.20    2.20
  -8  -4  -1    5.00    2.60
  -8  -4  -1    0.90    1.30
   9   3   0    6.90    2.60
   9   3   0    3.70    1.80
  -9  -3   0   13.20    4.00
   1  10   8    1.50    2.80
   1  10   8    3.30    2.70
  -1 -10  -8    1.30    2.10
  -1 -10  -8    2.50    2.70
  -1 -10  -8   -2.40    2.00
   2   9   7    2.10    1.80
   2   9   7    0.50    1.00
   2   9   7   -2.70    1.70
   2   9   7    1.20    1.40
  -2  -9  -7    0.40    1.30
  -2  -9  -7    0.20    1.70
  -2  -9  -7    2.90    2.30
   3   8   6   58.49    4.80
   3   8   6   49.40    2.60
   3   8   6   49.20    4.50
   3   8   6   46.30    4.50
   3   8   6   51.79    4.60
   3   8   6   44.90    2.50
  -3  -8  -6   49.70    4.80
  -3  -8  -6   50.59    4.60
  -3  -8  -6   43.60    4.20
   4   7   5    8.80    2.60
   4   7   5    9.30    2.70
   4   7   5   10.90    2.50
   4   7   5   12.10    1.00
   4   7   5   13.50    2.70
  -4  -7  -5   14.00    2.90
  -4  -7  -5   12.50    1.00
  -4  -7  -5   14.50    3.20
  -4  -7  -5   14.60    2.30
   5   6   4    2.40    2.00
   5   6   4    3.00    1.50
   5   6   4    2.60    1.00
   5   6   4    3.30    1.80
   5   6   4    5.80    2.00
  -5  -6  -4    4.70    2.20
  -5  -6  -4    3.20    1.10
  -5  -6  -4    3.70    1.70
   6   5   3   10.30    1.90
   6   5   3    7.70    1.60
   6   5   3    9.30    1.70
   6   5   3    7.50    2.30
   6   5   3   12.00    2.90
  -6  -5  -3    8.50    2.80
  -6  -5  -3   12.50    2.30
   7   4   2    4.70    2.00
   7   4   2    1.90    1.20
  -7  -4  -2    6.20    2.90
  -7  -4  -2    5.10    1.70
   8   3   1    8.00    1.50
   8   3   1    6.00    2.50
   8   3   1    4.10    1.20
   8   3   1    2.70    2.00
  -8  -3  -1   10.10    2.40
  -8  -3  -1   12.10    3.10
  -8  -3  -1   13.50    3.20
  -8  -3  -1    8.10    3.00
   0  10   9    0.10    2.20
   0  10   9    2.90    3.10
   0 -10  -9   -4.50    4.90
   0 -10  -9   -2.20    3.00
   1   9   8    2.40    2.20
   1   9   8    1.80    1.40
   1   9   8    1.10    2.20
   1   9   8   -1.40    1.60
  -1  -9  -8    1.90    2.00
  -1  -9  -8    1.40    2.10
  -1  -9  -8    0.30    2.10
   2   8   7   23.80    1.70
   2   8   7   32.80    4.30
   2   8   7   28.40    4.30
   2   8   7   31.00    4.20
   2   8   7   24.20    1.80
  -2  -8  -7   21.00    3.90
  -2  -8  -7   22.90    3.70
  -2  -8  -7   26.80    4.00
   3   7   6   85.49    6.30
   3   7   6   93.39    6.20
   3   7   6   95.39    6.10
   3   7   6   85.89    6.20
  -3  -7  -6   88.39    6.50
  -3  -7  -6   84.59    6.10
   4   6   5   48.00    3.80
   4   6   5   44.90    4.30
   4   6   5   43.90    3.80
  -4  -6  -5   43.10    4.20
  -4  -6  -5   39.30    2.80
  -4  -6  -5   43.70    4.00
   5   5   4   87.09    6.20
   5   5   4   82.09    4.50
   5   5   4   76.69    4.90
   5   5   4   73.99    5.40
  -5  -5  -4   79.49    4.40
  -5  -5  -4   82.59    4.50
  -5  -5  -4   74.09    5.50
  -5  -5  -4   88.59    6.20
   6   4   3    9.10    1.90
   6   4   3   10.50    1.60
   6   4   3   10.60    2.80
   6   4   3    9.90    2.30
   6   4   3    9.90    1.60
  -6  -4  -3    9.20    1.80
  -6  -4  -3    4.80    1.80
  -6  -4  -3   10.70    2.90
   7   3   2    9.10    1.30
   7   3   2    6.80    2.30
   7   3   2    8.50    1.30
   7   3   2    6.40    2.20
  -7  -3  -2    8.50    2.40
  -7  -3  -2    9.40    2.20
  -7  -3  -2    7.30    2.50
  -7  -3  -2    5.20    2.30
   8   2   1    1.60    1.00
   8   2   1    0.80    0.80
   8   2   1   -0.20    1.80
   8   2   1    4.30    2.30
  -8  -2  -1    0.80    1.50
  -8  -2  -1    3.90    2.50
  -8  -2  -1   -0.10    1.80
  -8  -2  -1    0.90    1.90
   0   9   9    3.00    2.50
   0   9   9    0.10    1.70
   0   9   9    3.60    2.50
   0   9   9    0.50    1.90
   0  -9  -9    0.40    2.80
   0  -9  -9   -6.20    1.90
   0  -9  -9    1.70    2.30
   1   8   8   -1.40    1.40
   1   8   8    1.40    1.80
   1   8   8    0.20    2.10
   1   8   8    0.00    0.90
  -1  -8  -8    3.10    1.90
  -1  -8  -8    3.40    2.20
  -1  -8  -8    5.00    2.50
   2   7   7   15.10    3.00
   2   7   7   23.10    3.50
   2   7   7   18.70    3.30
   2   7   7   15.90    3.20
  -2  -7  -7   21.20    3.40
  -2  -7  -7    7.70    2.60
   3   6   6  162.08    8.80
   3   6   6  149.69    8.80
   3   6   6  164.48    9.60
   3   6   6  162.98    9.40
  -3  -6  -6  153.18    8.40
  -3  -6  -6  162.78    9.50
   4   5   5   27.10    2.50
   4   5   5   25.30    2.60
   4   5   5   31.70    4.10
  -4  -5  -5   29.20    4.00
  -4  -5  -5   22.20    3.40
   5   4   4  379.16   17.00
   5   4   4  381.46   18.90
   5   4   4  373.16   17.10
   5   4   4  376.76   17.10
  -5  -4  -4  329.67   17.40
  -5  -4  -4  409.86   19.00
  -5  -4  -4  368.86   17.00
  -5  -4  -4  369.16   18.30
   6   3   3  115.89    7.20
   6   3   3  123.19    8.00
   6   3   3  104.09    8.30
   6   3   3  131.19    5.90
   6   3   3  127.79    5.90
  -6  -3  -3  117.99    7.50
  -6  -3  -3  117.39    7.90
   7   2   2   11.20    2.60
   7   2   2    7.50    2.20
  -7  -2  -2    9.50    2.40
  -7  -2  -2   11.10    2.80
  -7  -2  -2   12.60    2.90
  -7  -2  -2   11.60    2.60
   8   1   1    4.20    2.20
   8   1   1   10.20    1.40
   8   1   1   12.80    1.20
   8   1   1   11.70    3.40
  -8  -1  -1   11.70    3.60
  -8  -1  -1   10.00    2.70
  -8  -1  -1    9.20    3.20
  -8  -1  -1   10.40    3.10
  -1   9  10    3.70    2.60
   1  -9 -10   -0.60    3.30
   1  -9 -10   -2.10    3.20
   0   8   9    3.90    2.30
   0   8   9    6.40    1.70
   0   8   9    4.60    2.20
   0   8   9   14.60    2.60
   0  -8  -9    5.60    2.90
   0  -8  -9    9.80    3.30
   1   7   8   19.30    3.60
   1   7   8   21.20    1.80
   1   7   8   17.30    1.70
   1   7   8   16.40    3.00
   1   7   8   20.30    3.30
  -1  -7  -8   21.70    3.50
  -1  -7  -8   21.40    3.80
   2   6   7  106.69    7.00
   2   6   7  109.19    6.90
   2   6   7  111.89    7.10
  -2  -6  -7  107.59    7.40
  -2  -6  -7  116.49    6.90
   3   5   6   18.80    2.80
   3   5   6   25.20    2.90
   3   5   6   25.00    3.40
   3   5   6   22.30    3.40
  -3  -5  -6   26.90    3.60
  -3  -5  -6   20.50    2.20
   4   4   5  494.85   23.00
   4   4   5  520.75   24.40
   4   4   5  502.15   23.20
   4   4   5  508.85   23.00
  -4  -4  -5  498.35   24.20
  -4  -4  -5  518.65   22.00
  -4  -4  -5  505.15   22.00
   5   3   4    0.80    0.80
   5   3   4    1.40    1.00
   5   3   4    0.30    1.60
   5   3   4    1.10    0.90
  -5  -3  -4    0.50    0.80
  -5  -3  -4   -0.50    1.20
  -5  -3  -4   -0.40    0.80
  -5  -3  -4   -0.30    1.30
   6   2   3  221.38    9.60
   6   2   3  234.48   12.40
   6   2   3  209.58   11.40
  -6  -2  -3  222.88   12.20
  -6  -2  -3  209.18   11.90
  -6  -2  -3  235.68   11.60
  -6  -2  -3  206.78   11.40
   7   1   2   49.80    4.40
   7   1   2   48.30    4.60
   7   1   2   46.90    4.50
  -7  -1  -2   42.70    4.20
  -7  -1  -2   52.59    4.70
  -7  -1  -2   49.50    4.50
  -7  -1  -2   51.39    4.70
   8   0   1    4.90    2.50
   8   0   1    3.00    1.00
   8   0   1   -0.10    2.30
   8   0   1    3.50    1.30
  -8   0  -1    1.30    2.00
  -8   0  -1    2.80    2.10
  -8   0  -1    5.50    2.60
  -8   0  -1    4.00    2.20
  -1   8  10   19.70    4.20
  -1   8  10   14.90    2.90
  -1   8  10   12.50    2.90
   1  -8 -10   16.50    4.30
   1  -8 -10   21.70    4.20
   0   7   9   14.30    3.60
   0   7   9    8.90    2.50
   0   7   9    5.80    2.00
   0   7   9    5.50    1.70
   0  -7  -9    6.80    2.80
   0  -7  -9    6.40    2.50
   1   6   8   13.80    1.40
   1   6   8   12.50    1.70
   1   6   8   15.60    3.40
   1   6   8   13.70    2.80
  -1  -6  -8   12.20    2.90
  -1  -6  -8   11.40    2.60
   2   5   7   34.40    3.30
   2   5   7   33.00    3.10
   2   5   7   33.10    3.40
   2   5   7   30.30    2.80
  -2  -5  -7   32.90    3.10
  -2  -5  -7   27.30    3.90
   3   4   6   23.10    2.10
   3   4   6   23.50    3.60
   3   4   6   22.50    3.00
  -3  -4  -6   24.20    3.40
  -3  -4  -6   19.20    2.00
  -3  -4  -6   22.20    2.00
   4   3   5  134.59    7.70
   4   3   5  121.59    6.40
   4   3   5  122.79    6.40
  -4  -3  -5  121.89    6.40
  -4  -3  -5  109.99    5.90
  -4  -3  -5  118.09    7.50
  -4  -3  -5  122.19    6.20
   5   2   4  159.78    7.60
   5   2   4  171.08    8.50
   5   2   4  166.88    7.60
   5   2   4  165.68    9.50
  -5  -2  -4  148.99    9.20
  -5  -2  -4  161.18    8.40
  -5  -2  -4  156.38    8.40
   6   1   3   -0.20    1.60
   6   1   3    0.40    0.30
   6   1   3    0.00    0.80
   6   1   3   -0.30    1.60
  -6  -1  -3    1.20    1.50
  -6  -1  -3    1.90    1.40
  -6  -1  -3   -1.60    1.30
  -6  -1  -3    0.00    1.20
   7   0   2    3.80    0.90
   7   0   2    1.50    2.30
   7   0   2    5.20    1.00
   7   0   2    8.70    2.50
  -7   0  -2    5.80    2.70
  -7   0  -2    5.90    2.80
  -7   0  -2    4.50    2.20
  -7   0  -2    3.60    2.10
   8  -1   1    3.70    1.80
   8  -1   1    9.20    1.70
   8  -1   1    5.80    3.30
  -8   1  -1   10.60    3.30
  -8   1  -1   11.60    3.00
  -8   1  -1    7.30    3.10
  -8   1  -1    9.00    3.30
  -1   7  10    5.00    2.10
  -1   7  10    1.20    2.10
  -1   7  10    0.20    2.60
  -1   7  10    2.60    1.80
   1  -7 -10    0.60    2.60
   1  -7 -10    4.20    2.70
   0   6   9   17.30    3.70
   0   6   9   21.10    2.60
   0   6   9   21.40    2.30
   0   6   9   21.40    3.50
   0   6   9   17.10    3.00
   0  -6  -9   24.30    3.90
   0  -6  -9   27.40    4.70
   0  -6  -9   20.10    2.10
   1   5   8    5.20    1.60
   1   5   8    3.00    1.80
   1   5   8    6.20    1.10
   1   5   8    6.30    0.90
   1   5   8    3.90    2.20
  -1  -5  -8    5.90    1.90
  -1  -5  -8    3.50    2.00
   2   4   7   10.50    2.30
   2   4   7   12.20    1.80
   2   4   7   10.20    2.40
   2   4   7   16.60    2.70
  -2  -4  -7   14.70    2.30
  -2  -4  -7    9.40    2.10
  -2  -4  -7    9.40    2.50
   3   3   6   32.20    2.80
   3   3   6   34.50    2.30
   3   3   6   38.20    3.00
   3   3   6   33.20    3.40
  -3  -3  -6   34.40    2.30
  -3  -3  -6   37.90    3.60
  -3  -3  -6   34.60    2.60
  -3  -3  -6   33.80    1.80
   4   2   5   43.20    3.00
   4   2   5   45.90    2.90
   4   2   5   44.10    4.10
   4   2   5   47.10    3.00
  -4  -2  -5   43.30    2.90
  -4  -2  -5   47.60    4.10
  -4  -2  -5   43.00    2.80
  -4  -2  -5   45.50    3.00
  -4  -2  -5   37.10    3.10
   5   1   4  109.89    7.20
   5   1   4  119.29    5.60
   5   1   4  121.69    7.50
   5   1   4  105.79    6.20
   5   1   4  110.29    5.50
  -5  -1  -4  110.79    6.60
  -5  -1  -4  119.39    6.40
  -5  -1  -4  103.69    7.20
   6   0   3   12.60    1.30
   6   0   3   12.10    1.20
   6   0   3   16.90    3.20
   6   0   3    9.50    2.50
  -6   0  -3   11.90    2.40
  -6   0  -3   12.40    2.90
  -6   0  -3   13.20    2.80
  -6   0  -3   13.10    2.90
   7  -1   2   -0.40    0.80
   7  -1   2    2.20    2.40
  -7   1  -2    4.10    2.00
  -7   1  -2   -0.70    1.70
  -7   1  -2    1.10    1.60
  -7   1  -2    1.00    1.90
  -1   6  10   21.70    3.00
  -1   6  10   17.80    3.40
  -1   6  10   27.90    4.10
  -1   6  10   18.70    3.90
   1  -6 -10   22.60    4.60
   1  -6 -10   27.60    3.40
   1  -6 -10   22.60    4.20
   0   5   9   13.20    2.50
   0   5   9    9.80    1.80
   0   5   9    9.80    1.70
   0   5   9    5.70    2.10
   0   5   9    9.00    2.70
   0  -5  -9    8.60    2.60
   0  -5  -9    8.00    2.80
   0  -5  -9   12.70    1.80
   1   4   8    5.10    1.10
   1   4   8    4.00    1.80
   1   4   8    9.00    2.60
   1   4   8    6.40    2.10
   1   4   8    8.00    1.60
  -1  -4  -8    7.90    2.20
  -1  -4  -8    3.80    1.20
  -1  -4  -8    4.60    0.90
  -1  -4  -8    5.30    2.30
   2   3   7    3.50    1.90
   2   3   7    3.20    1.60
   2   3   7    5.50    1.80
   2   3   7    4.90    0.80
  -2  -3  -7    4.70    1.60
  -2  -3  -7    3.20    0.60
  -2  -3  -7    3.30    0.80
  -2  -3  -7    6.50    2.00
   3   2   6   60.09    2.90
   3   2   6   57.09    3.30
   3   2   6   60.79    4.00
   3   2   6   60.19    4.70
   3   2   6   56.09    3.80
  -3  -2  -6   60.09    2.90
  -3  -2  -6   55.59    2.90
  -3  -2  -6   57.79    4.70
  -3  -2  -6   56.49    3.30
  -3  -2  -6   57.19    3.50
   4   1   5  140.69    7.00
   4   1   5  137.99    7.10
   4   1   5  152.58    8.50
  -4  -1  -5  141.29    7.50
  -4  -1  -5  141.39    8.50
  -4  -1  -5  134.99    6.80
  -4  -1  -5  130.49    6.80
   5   0   4    0.20    1.50
   5   0   4    1.10    0.90
   5   0   4    2.30    0.90
   5   0   4    2.60    1.70
  -5   0  -4    2.10    1.60
  -5   0  -4    3.10    1.20
  -5   0  -4    0.50    1.20
   6  -1   3    3.10    1.90
   6  -1   3    1.70    1.00
   6  -1   3    2.00    2.10
  -6   1  -3    2.30    1.70
  -6   1  -3    1.10    1.40
  -6   1  -3    1.10    1.60
  -6   1  -3   -0.40    1.40
   7  -2   2    0.20    1.30
   7  -2   2   -0.50    2.30
  -7   2  -2    2.70    2.20
  -7   2  -2    5.00    2.30
  -7   2  -2    3.70    2.30
  -7   2  -2   -2.80    1.60
  -2   6  11    5.80    2.50
  -2   6  11    6.80    2.70
  -2   6  11    3.20    2.60
   2  -6 -11    1.70    2.90
   2  -6 -11    2.40    2.00
   2  -6 -11    0.30    2.90
  -1   5  10    1.70    1.70
  -1   5  10    0.50    1.30
  -1   5  10   -2.00    2.00
  -1   5  10   -0.10    1.30
   1  -5 -10    1.20    1.30
   1  -5 -10    1.30    1.90
   0   4   9   25.50    3.00
   0   4   9   21.50    3.80
   0   4   9   17.40    3.10
   0  -4  -9   19.00    2.10
   0  -4  -9   20.50    3.70
   0  -4  -9   29.20    4.20
   1   3   8   44.50    3.00
   1   3   8   43.00    4.00
   1   3   8   46.60    2.90
   1   3   8   43.40    4.00
   1   3   8   44.10    2.80
  -1  -3  -8   47.30    4.30
  -1  -3  -8   43.50    2.90
  -1  -3  -8   41.00    3.60
  -1  -3  -8   43.60    2.80
   2   2   7  227.98   11.80
   2   2   7  231.88   11.70
   2   2   7  226.78   10.80
   2   2   7  240.08   12.50
  -2  -2  -7  226.28   11.30
  -2  -2  -7  240.68   12.70
  -2  -2  -7  230.78   10.90
   3   1   6  140.89    8.30
   3   1   6  145.19    7.40
   3   1   6  137.09    7.50
   3   1   6  134.49    7.10
  -3  -1  -6  145.49    7.40
  -3  -1  -6  133.79    7.20
  -3  -1  -6  127.39    8.30
   4   0   5   88.09    4.70
   4   0   5   77.99    4.70
   4   0   5   72.49    5.50
   4   0   5   77.89    5.90
  -4   0  -5   75.89    5.20
  -4   0  -5   74.99    4.20
  -4   0  -5   72.69    5.80
  -4   0  -5   80.59    4.20
   5  -1   4   78.39    5.60
   5  -1   4   79.09    4.60
   5  -1   4   73.59    6.10
   5  -1   4   81.19    4.60
  -5   1  -4   76.19    5.70
  -5   1  -4   78.39    6.20
  -5   1  -4   77.09    4.90
   6  -2   3   11.30    2.30
   6  -2   3   14.20    3.40
   6  -2   3   11.40    2.70
   6  -2   3   12.10    2.00
  -6   2  -3   16.80    3.30
  -6   2  -3   14.80    3.40
  -6   2  -3   20.20    3.10
  -6   2  -3   13.40    2.80
   7  -3   2    3.70    2.90
  -7   3  -2    4.90    2.90
  -7   3  -2    2.70    2.50
  -7   3  -2    6.30    2.60
  -2   5  11    0.70    2.00
  -2   5  11    0.00    1.60
  -2   5  11    3.90    2.30
   2  -5 -11    0.60    1.90
   2  -5 -11    0.60    2.40
   2  -5 -11   -2.10    2.30
  -1   4  10   -3.00    1.40
  -1   4  10    2.30    1.60
   1  -4 -10    2.00    1.40
   1  -4 -10    1.80    2.40
   1  -4 -10   -1.40    1.60
   0   3   9   -2.50    1.40
   0   3   9   -1.00    1.00
   0   3   9    2.20    1.30
   0   3   9   -2.80    1.20
   0  -3  -9   -0.10    1.60
   0  -3  -9    2.10    1.80
   0  -3  -9   -0.30    0.80
   1   2   8    3.30    1.90
   1   2   8    0.10    1.40
   1   2   8    0.00    0.40
   1   2   8    1.30    1.70
   1   2   8    1.10    1.20
  -1  -2  -8    0.70    1.50
  -1  -2  -8    2.30    1.50
  -1  -2  -8    0.00    0.80
   2   1   7    0.10    1.30
   2   1   7    1.30    1.40
   2   1   7    1.50    1.00
   2   1   7   -1.30    1.30
  -2  -1  -7    1.40    1.00
  -2  -1  -7   -1.30    1.20
  -2  -1  -7   -0.10    1.00
   3   0   6  124.79    6.90
   3   0   6  116.79    7.60
   3   0   6  130.09    7.00
  -3   0  -6  124.29    7.90
  -3   0  -6  117.79    7.10
   4  -1   5  186.58    9.40
   4  -1   5  179.78    9.20
   4  -1   5  174.08   10.60
   4  -1   5  172.88   10.10
  -4   1  -5  186.78   10.80
  -4   1  -5  181.28    8.60
  -4   1  -5  179.28   10.00
  -4   1  -5  179.68    8.70
   5  -2   4   48.60    3.80
   5  -2   4   50.59    3.80
   5  -2   4   58.49    5.30
   5  -2   4   49.90    4.30
  -5   2  -4   50.89    3.90
  -5   2  -4   69.49    5.20
  -5   2  -4   52.59    5.10
   6  -3   3   20.20    3.20
   6  -3   3   17.90    4.20
   6  -3   3   24.20    3.20
   6  -3   3   17.20    3.30
  -6   3  -3   22.60    4.10
  -6   3  -3   20.50    3.40
  -6   3  -3   26.20    4.70
  -6   3  -3   19.10    3.20
  -2   4  11    4.70    2.30
  -2   4  11    0.10    1.80
   2  -4 -11    5.40    2.70
   2  -4 -11    1.70    2.50
   2  -4 -11   -1.30    1.70
  -1   3  10    0.00    1.30
  -1   3  10    3.20    2.10
   1  -3 -10    2.40    1.40
   1  -3 -10    3.30    2.20
   1  -3 -10    3.30    2.10
   0   2   9   53.69    4.90
   0   2   9   56.99    3.40
   0   2   9   56.19    4.90
   0   2   9   57.19    3.40
   0  -2  -9   49.99    4.00
   0  -2  -9   48.20    4.60
   0  -2  -9   57.99    4.60
   1   1   8   74.49    5.40
   1   1   8   86.99    6.10
   1   1   8   72.89    5.40
  -1  -1  -8   73.49    5.70
  -1  -1  -8   73.49    4.80
   2   0   7   -0.60    1.30
   2   0   7   -0.90    1.20
   2   0   7    1.00    1.60
  -2   0  -7   -0.60    1.40
  -2   0  -7    0.00    1.00
  -2   0  -7    0.10    1.20
   3  -1   6   49.50    4.60
   3  -1   6   47.40    3.70
   3  -1   6   46.00    3.80
   3  -1   6   52.79    4.40
  -3   1  -6   46.40    4.50
  -3   1  -6   45.40    4.00
   4  -2   5   10.70    3.30
   4  -2   5   10.50    3.40
   4  -2   5   10.50    2.50
  -4   2  -5    9.80    2.70
  -4   2  -5   23.00    4.50
  -4   2  -5   11.60    1.60
   5  -3   4   10.10    3.10
   5  -3   4    9.40    2.30
   5  -3   4    7.20    2.10
   5  -3   4   12.50    2.70
  -5   3  -4   14.20    3.50
  -5   3  -4    7.30    2.80
  -5   3  -4    7.50    2.00
   6  -4   3   -0.50    2.70
   6  -4   3    1.10    3.10
  -6   4  -3    0.70    2.60
  -6   4  -3   -0.20    4.20
  -6   4  -3    2.10    2.00
  -2   3  11    4.70    2.40
  -2   3  11    3.50    1.90
  -2   3  11    2.80    2.80
   2  -3 -11    5.30    2.40
   2  -3 -11   14.90    3.80
   2  -3 -11    8.10    3.00
  -1   2  10   44.40    5.50
  -1   2  10   41.00    4.50
  -1   2  10   40.90    3.30
   1  -2 -10   41.60    4.40
   1  -2 -10   38.90    3.70
   1  -2 -10   41.30    4.30
   0   1   9   20.10    1.60
   0   1   9   25.90    4.00
   0   1   9   27.60    4.30
   0   1   9   22.10    1.60
   0  -1  -9   22.40    3.60
   0  -1  -9   20.20    3.00
   1   0   8   87.79    6.40
   1   0   8   87.39    6.00
   1   0   8   80.59    5.90
  -1   0  -8   77.89    6.10
  -1   0  -8   83.59    5.50
  -1   0  -8   85.39    5.50
   2  -1   7  131.89    8.30
   2  -1   7  142.29    7.90
   2  -1   7  121.29    7.80
  -2   1  -7  138.49    8.60
  -2   1  -7  123.89    7.80
  -2   1  -7  130.59    7.00
   3  -2   6   10.40    2.70
   3  -2   6   13.40    2.60
   3  -2   6   14.50    2.80
   3  -2   6   10.30    2.90
  -3   2  -6    8.60    2.50
  -3   2  -6   17.10    3.30
   4  -3   5   21.90    4.10
   4  -3   5   27.10    3.50
   4  -3   5   27.30    3.60
  -4   3  -5   29.00    4.20
  -4   3  -5   20.70    2.30
  -4   3  -5   37.70    5.10
   5  -4   4    2.50    1.90
   5  -4   4    1.90    2.00
   5  -4   4   -2.00    2.20
  -5   4  -4   -0.40    2.20
  -5   4  -4   -0.40    1.50
  -5   4  -4    1.80    2.20
  -2   2  11   25.90    3.50
  -2   2  11   20.70    4.40
   2  -2 -11   22.30    4.30
   2  -2 -11   30.40    4.40
  -1   1  10   16.10    3.60
  -1   1  10   11.00    1.70
  -1   1  10    7.80    2.90
   1  -1 -10   16.30    3.50
   1  -1 -10   14.70    2.80
   1  -1 -10   13.60    3.00
   0   0   9   12.30    3.10
   0   0   9   13.20    3.20
   0   0  -9   13.20    2.70
   0   0  -9   14.20    2.70
   0   0  -9    9.10    2.40
   1  -1   8    2.80    2.00
   1  -1   8    2.50    1.80
  -1   1  -8    2.40    1.60
  -1   1  -8   -0.90    1.40
  -1   1  -8    0.90    1.80
   2  -2   7    4.90    2.30
   2  -2   7    1.60    1.70
   2  -2   7    4.10    2.00
  -2   2  -7    4.50    2.00
  -2   2  -7    2.30    2.10
   3  -3   6    1.80    1.90
   3  -3   6    7.30    2.60
   3  -3   6    2.80    1.90
  -3   3  -6    3.20    2.10
  -3   3  -6    4.90    0.90
  -3   3  -6    5.20    2.40
  -3   3  -6    5.00    0.80
   4  -4   5   16.00    3.20
   4  -4   5   14.90    3.10
   4  -4   5   19.00    4.00
  -4   4  -5   24.20    4.50
  -4   4  -5   19.00    3.80
  -4   4  -5   18.70    2.50
   5  -5   4   15.20    4.40
   5  -5   4   18.20    3.50
   5  -5   4   11.70    3.20
  -5   5  -4    7.50    3.30
  -5   5  -4   10.10    3.70
  -5   5  -4   16.60    3.20
  -2   1  11   20.90    4.70
  -2   1  11    9.70    3.20
  -2   1  11   16.30    2.90
   2  -1 -11   25.10    4.10
   2  -1 -11   21.50    3.80
   2  -1 -11   14.70    3.90
  -1   0  10   22.80    4.10
  -1   0  10   17.60    2.10
  -1   0  10   23.20    4.20
   1   0 -10   20.70    3.70
   1   0 -10   21.90    3.70
   1   0 -10   19.10    3.40
   0  -1   9   -1.80    1.90
   0  -1   9    0.00    1.90
   0   1  -9    2.50    1.50
   0   1  -9    1.20    1.80
   0   1  -9    1.30    1.50
   1  -2   8   32.70    5.10
   1  -2   8   35.90    4.80
   1  -2   8   34.30    4.80
  -1   2  -8   37.90    3.90
  -1   2  -8   33.90    4.50
   2  -3   7   34.20    4.80
   2  -3   7   38.80    4.00
   2  -3   7   26.00    4.30
  -2   3  -7   30.10    4.50
  -2   3  -7   41.50    4.30
   3  -4   6    0.50    2.20
   3  -4   6   -0.50    1.50
   3  -4   6   -0.80    1.60
  -3   4  -6    0.30    0.80
  -3   4  -6    0.10    2.20
  -3   4  -6    0.90    2.00
   4  -5   5    0.90    2.20
   4  -5   5    2.10    2.30
   4  -5   5    0.90    2.50
  -4   5  -5    5.60    3.20
  -4   5  -5    2.10    3.10
  -2   0  11    7.40    3.20
  -2   0  11    5.80    3.50
   2   0 -11   10.40    2.90
   2   0 -11    5.40    2.60
  -1  -1  10   10.60    3.40
  -1  -1  10    7.10    3.00
   1   1 -10    8.20    2.90
   1   1 -10    3.40    1.90
   1   1 -10   12.20    3.00
   0  -2   9    5.30    2.70
   0  -2   9    7.10    2.90
   0   2  -9    5.60    2.60
   0   2  -9    8.40    2.70
   1  -3   8    7.50    2.70
  -1   3  -8    2.20    2.30
  -1   3  -8    9.70    2.80
   2  -4   7    4.50    2.40
   2  -4   7    1.00    2.00
   2  -4   7    1.60    2.00
  -2   4  -7    2.90    2.50
  -2   4  -7    2.60    2.10
   3  -5   6    9.60    3.50
   3  -5   6   14.00    3.50
   3  -5   6   15.30    3.50
  -3   5  -6   18.50    4.60
  -3   5  -6   11.80    3.60
  -2  -1  11    3.60    2.80
   2   1 -11    0.40    2.60
   2   1 -11    4.60    2.70
  -1  -2  10    1.30    2.20
  -1  -2  10    1.20    2.30
   1   2 -10    0.00    1.90
   1   2 -10    1.80    2.30
   0  -3   9    4.40    2.70
   0   3  -9   10.30    3.10
   0   3  -9    9.50    3.00
   1  -4   8   11.80    3.40
   1  -4   8   13.50    3.40
  -1   4  -8   10.50    3.30
  -1   4  -8   11.80    3.10
   2  -5   7    5.70    3.30
   2  -5   7    7.20    3.30
   2  -5   7    1.70    2.40
  -2   5  -7    2.60    2.60
  -2   5  -7    8.80    3.30
  -1  -3  10    1.40    3.10
  -1  -3  10    8.50    4.00
   1   3 -10   -3.80    2.20
   1   3 -10    5.10    3.00
   0  -4   9   30.30    4.90
   0  -4   9   19.50    4.50
   0   4  -9   25.30    4.60
   0   4  -9   14.40    3.60
   1  -5   8    7.10    3.00
   1  -5   8    3.60    3.10
  -1   5  -8    5.00    2.80
  -1   5  -8   -0.60    2.50
   6  11   4    1.10    2.90
   6  11   4    1.50    2.90
   6  11   4    3.50    3.10
  -6 -11  -4    3.00    3.40
  -6 -11  -4   -0.30    2.30
   7  10   3    0.00    2.20
   7  10   3   -1.40    2.50
  -7 -10  -3   -1.10    2.70
   5  11   5    4.80    3.00
   5  11   5    3.50    3.20
  -5 -11  -5    0.70    2.60
  -5 -11  -5   -1.50    2.10
   6  10   4    4.10    2.80
   6  10   4    3.20    2.70
   6  10   4    2.70    1.80
  -6 -10  -4   10.90    2.70
  -6 -10  -4    8.80    3.30
   7   9   3    1.10    1.80
   7   9   3    3.10    2.60
   7   9   3    0.90    2.40
  -7  -9  -3    2.50    2.80
  -7  -9  -3   -0.70    1.60
   8   8   2   19.50    5.90
   8   8   2    9.90    3.10
   8   8   2   12.00    3.40
  -8  -8  -2   10.60    4.30
   4  11   6    3.50    2.60
   4  11   6   -0.80    2.40
  -4 -11  -6    5.00    2.90
  -4 -11  -6    2.50    2.60
   5  10   5    4.40    2.50
   5  10   5    5.30    1.70
   5  10   5    3.70    2.40
  -5 -10  -5    9.50    4.00
  -5 -10  -5    8.10    3.00
   6   9   4    4.60    2.40
   6   9   4    0.30    1.80
   6   9   4   -1.00    1.30
  -6  -9  -4    0.00    1.70
  -6  -9  -4    1.70    2.40
   7   8   3    9.80    2.70
   7   8   3    4.30    2.50
   7   8   3    9.50    2.30
  -7  -8  -3   13.30    3.80
  -7  -8  -3    4.50    2.10
   8   7   2    2.30    1.80
   8   7   2    4.40    2.50
   8   7   2   -0.10    1.80
  -8  -7  -2    2.00    2.60
   3  11   7    1.10    2.60
   3  11   7    1.90    2.50
  -3 -11  -7   -1.20    2.30
  -3 -11  -7    0.80    2.30
   4  10   6   30.80    4.70
   4  10   6   23.40    2.20
   4  10   6   27.10    4.60
  -4 -10  -6   30.30    4.70
  -4 -10  -6   31.10    4.80
   5   9   5   21.80    2.10
   5   9   5   24.20    4.10
   5   9   5   24.10    3.90
  -5  -9  -5   30.70    4.30
  -5  -9  -5   30.00    4.70
   6   8   4    8.70    2.90
   6   8   4    4.60    1.50
   6   8   4    5.70    2.20
   6   8   4    1.20    3.00
  -6  -8  -4   -0.70    2.20
  -6  -8  -4    6.00    2.20
   7   7   3    0.80    1.40
   7   7   3    0.20    1.90
   7   7   3   -0.80    2.30
   7   7   3   -1.60    1.50
  -7  -7  -3    6.50    2.70
  -7  -7  -3    1.50    1.50
   8   6   2    8.00    2.60
   8   6   2    7.90    3.10
   8   6   2    9.70    2.90
   8   6   2    8.80    2.40
  -8  -6  -2    5.60    1.80
  -8  -6  -2   17.00    4.20
   2  11   8   14.80    4.00
   2  11   8   16.00    4.30
  -2 -11  -8   12.90    3.50
   3  10   7    8.70    2.90
   3  10   7    9.00    3.20
  -3 -10  -7    2.10    2.30
  -3 -10  -7    7.00    3.00
   4   9   6   19.10    4.10
   4   9   6   13.60    3.20
   4   9   6   12.10    1.30
   4   9   6   11.50    1.10
  -4  -9  -6   11.80    3.90
  -4  -9  -6   17.40    4.00
   5   8   5   15.20    3.90
   5   8   5   14.10    1.40
   5   8   5   13.70    3.00
   5   8   5   16.60    3.50
  -5  -8  -5   12.80    1.60
  -5  -8  -5   15.40    4.20
  -5  -8  -5   10.00    2.70
   6   7   4   18.80    3.50
   6   7   4   20.40    3.20
   6   7   4   12.30    1.90
  -6  -7  -4   14.60    2.90
  -6  -7  -4   25.00    4.40
   7   6   3   39.50    3.60
   7   6   3   39.20    3.70
   7   6   3   38.20    4.10
   7   6   3   38.40    3.40
  -7  -6  -3   51.09    6.40
  -7  -6  -3   43.70    3.80
   8   5   2   26.70    2.80
   8   5   2   33.80    4.70
   8   5   2   27.30    3.40
  -8  -5  -2   30.70    5.30
  -8  -5  -2   25.40    3.40
   9   4   1   11.00    2.70
   9   4   1   16.20    3.50
  -9  -4  -1   21.30    4.70
  -9  -4  -1   18.30    4.30
   2  10   8   15.80    3.90
   2  10   8   19.30    3.50
   2  10   8    9.10    3.30
  -2 -10  -8   15.20    4.10
  -2 -10  -8   21.80    3.80
   3   9   7   12.80    3.20
   3   9   7   10.40    3.10
  -3  -9  -7   14.10    3.20
  -3  -9  -7   10.90    2.90
  -3  -9  -7   13.50    3.30
   4   8   6    6.20    2.70
   4   8   6    7.40    2.60
   4   8   6   11.10    2.60
   4   8   6    9.10    2.80
  -4  -8  -6   10.60    2.20
  -4  -8  -6   10.00    2.80
  -4  -8  -6    9.40    2.90
   5   7   5    4.20    0.80
   5   7   5    3.40    2.20
   5   7   5    9.70    2.50
   5   7   5    6.00    2.40
   5   7   5    5.30    1.90
  -5  -7  -5    4.20    2.10
  -5  -7  -5    5.40    1.00
  -5  -7  -5    4.50    2.40
   6   6   4    9.70    2.10
   6   6   4    8.80    2.40
   6   6   4    5.40    1.40
  -6  -6  -4    6.90    2.00
  -6  -6  -4    9.10    1.60
   7   5   3   46.00    4.30
   7   5   3   40.00    3.70
   7   5   3   44.40    3.40
  -7  -5  -3   36.10    3.50
  -7  -5  -3   49.99    4.90
  -7  -5  -3   36.00    3.70
   8   4   2    7.20    1.50
   8   4   2    4.30    2.50
   8   4   2    1.70    1.40
   8   4   2    4.20    2.30
  -8  -4  -2    2.10    1.70
  -8  -4  -2   11.80    2.80
  -8  -4  -2    5.00    2.70
  -8  -4  -2    3.90    2.40
  -9  -3  -1   -0.90    2.60
   1  10   9    2.10    2.10
   1  10   9    0.10    3.10
   1  10   9    3.80    3.00
  -1 -10  -9    5.80    3.50
  -1 -10  -9    2.40    2.60
   2   9   8    2.40    0.80
   2   9   8    8.00    2.40
   2   9   8    4.90    2.40
   2   9   8    0.70    2.20
  -2  -9  -8    3.20    1.90
  -2  -9  -8    3.90    2.70
   3   8   7    5.90    2.30
   3   8   7    5.10    2.10
   3   8   7    5.40    2.20
   3   8   7    2.90    2.40
  -3  -8  -7    2.80    2.10
  -3  -8  -7    6.00    2.40
  -3  -8  -7    3.90    2.20
   4   7   6   14.20    3.20
   4   7   6   12.50    2.60
   4   7   6   13.10    2.70
   4   7   6   13.10    2.90
  -4  -7  -6   18.50    3.60
  -4  -7  -6   10.80    2.70
   5   6   5   32.80    2.00
   5   6   5   39.60    5.20
   5   6   5   38.60    3.30
   5   6   5   28.70    3.20
   5   6   5   35.60    3.40
  -5  -6  -5   31.90    2.00
  -5  -6  -5   45.50    5.60
  -5  -6  -5   30.80    3.40
  -5  -6  -5   35.00    2.00
   6   5   4    5.30    1.60
   6   5   4    6.80    1.50
   6   5   4   10.00    3.00
   6   5   4    5.40    1.60
   6   5   4    7.80    2.10
  -6  -5  -4    4.60    1.40
  -6  -5  -4    7.20    2.60
  -6  -5  -4    5.80    2.00
   7   4   3    4.30    1.80
   7   4   3    0.20    2.00
   7   4   3    1.90    1.40
   7   4   3   -0.50    0.90
   7   4   3   -0.60    0.90
  -7  -4  -3    0.40    1.30
  -7  -4  -3    0.60    1.20
  -7  -4  -3   -1.10    2.00
   8   3   2    9.80    1.50
   8   3   2   11.90    2.80
   8   3   2    6.10    1.20
   8   3   2    4.70    3.60
  -8  -3  -2    8.00    2.90
  -8  -3  -2    8.10    2.50
  -8  -3  -2    9.70    3.40
   1   9   9    0.90    2.30
   1   9   9    5.10    3.10
   1   9   9    1.00    2.00
   1   9   9    4.60    1.70
  -1  -9  -9    8.30    3.00
  -1  -9  -9    1.30    2.10
  -1  -9  -9    5.20    3.30
   2   8   8   -0.40    1.50
   2   8   8   -0.10    2.10
   2   8   8    2.00    2.00
  -2  -8  -8    3.30    2.30
  -2  -8  -8    1.30    2.00
  -2  -8  -8    2.40    1.90
   3   7   7   44.80    4.30
   3   7   7   50.09    4.70
   3   7   7   52.19    4.50
   3   7   7   49.40    4.20
  -3  -7  -7   48.50    4.70
  -3  -7  -7   54.09    4.30
  -3  -7  -7   47.90    4.70
   4   6   6  281.67   14.00
   4   6   6  280.77   14.90
  -4  -6  -6  274.77   14.90
  -4  -6  -6  270.97   14.70
   5   5   5  100.69    5.70
   5   5   5   92.69    6.90
  -5  -5  -5   82.59    6.30
  -5  -5  -5   91.99    4.60
  -5  -5  -5   92.69    4.70
  -5  -5  -5  101.89    7.00
   6   4   4   28.80    4.40
   6   4   4   29.80    2.40
   6   4   4   30.10    3.90
   6   4   4   28.00    2.70
   6   4   4   29.00    2.40
  -6  -4  -4   32.50    3.50
  -6  -4  -4   35.60    4.80
  -6  -4  -4   33.50    2.80
   7   3   3    8.30    2.10
   7   3   3    8.60    1.20
   7   3   3   12.30    3.50
   7   3   3    7.90    1.20
   7   3   3    9.30    2.40
  -7  -3  -3    8.10    2.20
  -7  -3  -3   12.30    3.50
  -7  -3  -3    5.30    2.00
  -7  -3  -3    9.70    2.40
   8   2   2    6.00    2.50
   8   2   2   -0.50    0.50
   8   2   2   -0.60    1.70
   8   2   2   -0.40    0.50
  -8  -2  -2    0.20    1.90
  -8  -2  -2    4.30    2.40
  -8  -2  -2    3.10    2.10
  -8  -2  -2    0.20    1.70
   0   9  10    4.20    3.00
   0   9  10    7.60    3.10
   0   9  10    5.70    2.30
   0  -9 -10    0.40    2.60
   1   8   9   -0.40    0.90
   1   8   9    2.40    2.40
   1   8   9   -0.90    1.50
   1   8   9    2.10    2.30
  -1  -8  -9   -1.70    1.80
  -1  -8  -9    4.90    2.30
   2   7   8  135.79    7.90
   2   7   8  128.19    8.20
   2   7   8  130.49    8.20
  -2  -7  -8  111.79    7.60
  -2  -7  -8  127.19    9.20
   3   6   7   69.79    5.40
   3   6   7   69.49    5.30
   3   6   7   70.19    5.20
   3   6   7   61.49    5.30
  -3  -6  -7   74.29    4.80
  -3  -6  -7   77.29    5.90
   4   5   6   62.39    4.60
   4   5   6   70.79    4.60
   4   5   6   65.79    5.50
   4   5   6   69.39    4.60
  -4  -5  -6   73.09    5.50
   5   4   5  102.99    5.50
   5   4   5  101.49    7.00
   5   4   5   95.79    5.80
   5   4   5   94.39    5.40
  -5  -4  -5   99.69    6.70
  -5  -4  -5   88.59    5.00
  -5  -4  -5   89.59    6.80
  -5  -4  -5   98.89    5.10
   6   3   4    7.40    1.20
   6   3   4    1.40    1.00
   6   3   4    8.20    1.20
   6   3   4    5.20    2.30
  -6  -3  -4    6.80    1.70
  -6  -3  -4    4.30    1.90
  -6  -3  -4    2.50    1.70
  -6  -3  -4    3.90    2.20
   7   2   3   18.70    3.70
   7   2   3   14.10    2.80
   7   2   3    9.80    2.40
  -7  -2  -3   14.80    2.80
  -7  -2  -3   11.10    2.50
  -7  -2  -3   12.30    3.10
  -7  -2  -3   15.20    3.40
   8   1   2    0.80    2.00
  -8  -1  -2    2.30    2.30
  -8  -1  -2   -0.10    1.60
  -8  -1  -2    0.20    2.00
  -8  -1  -2    0.50    2.00
   0   8  10    1.90    1.90
   0   8  10    7.40    2.90
   0   8  10    9.10    3.10
   0   8  10    1.10    1.70
   0  -8 -10    3.00    2.90
   0  -8 -10   -0.70    2.40
   1   7   9    7.80    2.40
   1   7   9    3.60    2.10
   1   7   9    8.90    3.00
   1   7   9    3.70    1.10
  -1  -7  -9    2.50    2.20
  -1  -7  -9    6.10    2.70
   2   6   8    9.30    2.10
   2   6   8    3.20    2.20
   2   6   8    9.10    2.50
   2   6   8   10.30    2.70
  -2  -6  -8    5.70    2.40
  -2  -6  -8    5.20    1.90
   3   5   7  200.68   10.50
   3   5   7  201.68   11.30
   3   5   7  194.08    9.90
   3   5   7  195.38   10.60
  -3  -5  -7  195.38    9.90
  -3  -5  -7  194.08   11.40
   4   4   6   11.90    2.00
   4   4   6    9.10    2.00
   4   4   6    7.70    2.50
   4   4   6   10.30    1.80
  -4  -4  -6    7.40    2.20
  -4  -4  -6    5.10    1.40
   5   3   5  131.99    8.10
   5   3   5  118.09    6.30
   5   3   5  130.99    6.80
   5   3   5  118.69    6.40
  -5  -3  -5  120.99    6.40
  -5  -3  -5  126.09    6.50
  -5  -3  -5  119.39    7.80
   6   2   4   41.00    5.20
   6   2   4   45.20    2.60
   6   2   4   43.60    2.60
   6   2   4   39.50    3.50
  -6  -2  -4   50.89    3.90
  -6  -2  -4   47.60    3.70
  -6  -2  -4   42.60    4.30
  -6  -2  -4   41.10    4.30
   7   1   3    0.20    1.80
   7   1   3   -0.70    1.70
  -7  -1  -3    1.60    1.90
  -7  -1  -3    3.10    1.70
  -7  -1  -3   -1.70    1.30
  -7  -1  -3    1.60    1.80
   8   0   2    7.20    1.50
   8   0   2    5.30    2.80
   8   0   2    8.70    1.30
  -8   0  -2   10.70    3.10
  -8   0  -2    9.30    2.80
  -8   0  -2    5.60    2.60
   0   7  10   16.50    3.60
   0   7  10   15.60    3.20
   0   7  10   10.10    2.00
   0   7  10   18.60    3.30
   0  -7 -10   14.50    3.90
   0  -7 -10    9.90    3.10
   1   6   9   13.00    1.50
   1   6   9   19.50    3.00
   1   6   9   16.30    3.10
   1   6   9   20.50    3.90
   1   6   9   15.10    1.30
  -1  -6  -9   15.20    3.20
  -1  -6  -9   26.20    4.30
   2   5   8    0.10    1.40
   2   5   8   -1.40    0.90
   2   5   8   -1.90    1.20
   2   5   8    0.20    1.80
  -2  -5  -8    1.30    1.60
  -2  -5  -8    1.00    1.70
   3   4   7  105.69    6.50
   3   4   7  100.09    7.10
   3   4   7  116.19    5.90
   3   4   7  110.29    6.70
  -3  -4  -7  119.69    7.60
  -3  -4  -7  108.59    6.00
   4   3   6  134.79    6.70
   4   3   6  126.79    7.10
   4   3   6  129.59    7.00
   4   3   6  143.39    8.50
  -4  -3  -6  136.39    8.40
  -4  -3  -6  125.29    6.30
   5   2   5    1.40    0.90
   5   2   5    0.90    0.90
   5   2   5    0.00    0.90
   5   2   5    4.10    1.90
  -5  -2  -5    0.20    1.00
  -5  -2  -5    0.70    1.50
  -5  -2  -5    1.30    1.00
  -5  -2  -5   -1.10    1.30
   6   1   4    1.30    0.70
   6   1   4    2.10    1.90
   6   1   4   -0.50    1.50
   6   1   4    0.70    0.70
  -6  -1  -4    1.60    1.80
  -6  -1  -4    0.80    1.70
  -6  -1  -4   -0.10    1.20
  -6  -1  -4   -0.20    1.20
   7   0   3    1.60    0.80
   7   0   3    0.20    0.80
   7   0   3   -0.30    1.80
   7   0   3   -1.00    1.40
  -7   0  -3   -0.10    1.70
  -7   0  -3   -0.60    1.60
  -7   0  -3    3.10    1.90
  -7   0  -3    1.40    1.80
   8  -1   2    2.80    2.90
   8  -1   2    0.80    1.20
  -8   1  -2    6.10    2.80
  -8   1  -2   -1.70    2.10
  -8   1  -2    1.90    2.50
  -8   1  -2    0.30    2.70
  -1   7  11    2.20    2.10
  -1   7  11    0.10    2.10
  -1   7  11    1.40    2.50
   1  -7 -11    2.00    2.70
   1  -7 -11    3.40    3.10
   0   6  10    4.90    2.20
   0   6  10    6.90    1.60
   0   6  10    9.90    3.10
   0   6  10    7.20    2.40
   0  -6 -10    6.20    2.50
   0  -6 -10    6.20    2.80
   0  -6 -10    8.30    1.70
   1   5   9   38.20    3.30
   1   5   9   26.00    4.10
   1   5   9   33.50    2.40
   1   5   9   34.90    4.90
  -1  -5  -9   36.30    4.60
  -1  -5  -9   31.40    4.60
   2   4   8   37.80    3.60
   2   4   8   40.50    4.00
   2   4   8   33.20    3.70
   2   4   8   37.20    2.60
  -2  -4  -8   33.00    3.00
  -2  -4  -8   32.10    3.50
  -2  -4  -8   38.30    4.10
   3   3   7    2.70    1.50
   3   3   7    6.50    1.00
   3   3   7    9.70    2.60
  -3  -3  -7    6.90    0.80
  -3  -3  -7    8.20    0.90
  -3  -3  -7    6.80    1.00
  -3  -3  -7    7.50    1.40
  -3  -3  -7   14.40    2.90
   4   2   6   37.30    3.10
   4   2   6   43.80    2.60
   4   2   6   51.39    4.40
  -4  -2  -6   45.60    3.10
  -4  -2  -6   41.50    2.60
  -4  -2  -6   42.20    4.20
  -4  -2  -6   46.10    3.10
  -4  -2  -6   42.20    3.10
   5   1   5   28.10    2.30
   5   1   5   28.20    2.30
   5   1   5   28.90    4.10
  -5  -1  -5   27.20    2.40
  -5  -1  -5   28.40    4.90
  -5  -1  -5   26.00    2.40
  -5  -1  -5   34.40    4.60
   6   0   4    0.00    1.50
   6   0   4    2.00    0.90
   6   0   4   -1.80    1.60
  -6   0  -4   -0.20    1.70
  -6   0  -4   -0.70    1.00
  -6   0  -4    0.10    1.30
  -6   0  -4    0.70    1.70
   7  -1   3   -1.80    2.00
   7  -1   3    1.30    1.40
   7  -1   3    0.90    1.10
   7  -1   3    0.00    2.20
  -7   1  -3    4.70    2.40
  -7   1  -3    0.80    1.90
  -7   1  -3   -0.70    1.70
  -7   1  -3   -2.70    1.50
  -1   6  11    2.50    1.90
  -1   6  11    2.00    2.10
  -1   6  11    1.50    2.70
   1  -6 -11    2.70    1.60
   1  -6 -11    1.50    2.70
   1  -6 -11    2.30    3.00
   0   5  10   -0.90    1.30
   0   5  10    2.00    2.00
   0   5  10   -0.70    1.00
   0   5  10   -0.60    2.10
   0  -5 -10   -1.10    2.00
   0  -5 -10   -0.80    0.90
   0  -5 -10    1.90    2.00
   1   4   9   11.60    2.00
   1   4   9   19.10    2.30
   1   4   9   15.50    1.90
   1   4   9   13.00    2.90
   1   4   9   11.40    2.80
  -1  -4  -9   13.10    1.60
  -1  -4  -9   16.00    3.20
  -1  -4  -9    8.30    1.60
  -1  -4  -9   18.70    3.50
   2   3   8  111.59    5.20
   2   3   8  105.69    5.50
   2   3   8  109.99    6.90
   2   3   8  110.59    6.90
   2   3   8  108.49    5.20
   2   3   8  116.99    7.50
  -2  -3  -8  109.49    6.50
  -2  -3  -8  111.29    5.20
  -2  -3  -8  121.89    7.70
   3   2   7  121.29    7.20
   3   2   7  124.49    6.40
   3   2   7  131.59    8.10
  -3  -2  -7  122.29    6.40
  -3  -2  -7  129.59    6.40
  -3  -2  -7  120.19    8.00
   4   1   6   48.20    3.60
   4   1   6   49.20    4.50
  -4  -1  -6   53.09    3.70
  -4  -1  -6   50.49    4.60
  -4  -1  -6   49.99    2.60
  -4  -1  -6   46.00    2.60
   5   0   5  101.19    7.50
   5   0   5  107.89    6.00
   5   0   5  109.59    5.90
   5   0   5  122.29    7.50
  -5   0  -5   96.79    5.80
  -5   0  -5  111.39    6.90
  -5   0  -5  109.89    7.70
  -5   0  -5  109.29    5.90
   6  -1   4   -0.10    1.00
   6  -1   4   -0.90    1.10
   6  -1   4    0.30    1.20
   6  -1   4    4.30    2.30
  -6   1  -4    4.40    2.40
  -6   1  -4    2.40    1.50
  -6   1  -4    0.80    1.70
   7  -2   3    3.50    1.50
   7  -2   3    3.10    2.50
   7  -2   3   -1.40    2.70
   7  -2   3    1.70    1.90
  -7   2  -3    3.10    2.50
  -7   2  -3    2.50    3.00
  -7   2  -3    1.30    1.90
  -1   5  11    3.20    2.10
  -1   5  11    5.00    2.40
  -1   5  11    6.60    2.90
   1  -5 -11    4.50    1.80
   1  -5 -11    8.00    3.00
   1  -5 -11    8.10    2.90
   0   4  10   -2.00    1.50
   0   4  10    2.40    1.60
   0   4  10    1.70    2.30
   0  -4 -10    2.40    1.10
   0  -4 -10    3.20    2.00
   0  -4 -10    1.20    2.30
   1   3   9   17.40    2.30
   1   3   9   20.30    3.50
   1   3   9   15.90    3.70
   1   3   9   17.70    1.60
   1   3   9   14.80    1.70
   1   3   9   21.50    3.60
  -1  -3  -9   22.30    3.20
  -1  -3  -9   17.60    1.90
  -1  -3  -9   22.80    4.00
   2   2   8   67.99    5.00
   2   2   8   63.89    4.00
   2   2   8   67.19    5.50
   2   2   8   58.19    4.80
  -2  -2  -8   63.69    4.50
  -2  -2  -8   64.09    5.40
  -2  -2  -8   79.39    4.20
   3   1   7  184.48   10.30
   3   1   7  198.18   11.20
   3   1   7  209.28   10.90
  -3  -1  -7  211.48   11.60
  -3  -1  -7  187.78   10.00
   4   0   6  330.97   15.90
   4   0   6  341.87   17.20
  -4   0  -6  355.96   16.50
  -4   0  -6  317.87   14.40
  -4   0  -6  322.37   17.40
   5  -1   5    2.70    2.30
   5  -1   5   10.50    2.80
   5  -1   5    7.80    1.90
   5  -1   5    6.90    1.80
  -5   1  -5    7.30    1.60
  -5   1  -5    9.10    2.50
  -5   1  -5    9.10    2.40
  -5   1  -5    7.70    2.60
   6  -2   4    6.90    2.60
   6  -2   4   13.10    3.70
   6  -2   4    7.90    1.90
   6  -2   4    9.40    2.30
  -6   2  -4   14.50    2.60
  -6   2  -4   15.90    4.00
  -6   2  -4   11.70    3.00
  -1   4  11   11.40    3.20
  -1   4  11   11.30    2.50
  -1   4  11   10.70    3.60
   1  -4 -11   11.50    3.20
   1  -4 -11   11.70    3.10
   1  -4 -11    9.40    2.30
   0   3  10    3.70    2.20
   0   3  10    4.70    2.80
   0   3  10    4.80    1.40
   0   3  10    4.20    1.90
   0  -3 -10    1.60    2.20
   0  -3 -10    2.10    1.90
   0  -3 -10    6.70    2.70
   1   2   9    0.70    1.80
   1   2   9    2.10    1.90
   1   2   9    2.30    2.40
  -1  -2  -9    4.30    1.30
  -1  -2  -9    4.20    2.30
  -1  -2  -9    3.20    1.80
   2   1   8    1.20    1.60
   2   1   8    0.00    1.60
   2   1   8    2.80    1.90
  -2  -1  -8    5.70    1.50
  -2  -1  -8    1.80    1.80
  -2  -1  -8    2.60    1.50
   3   0   7    3.70    1.60
   3   0   7    3.00    1.90
  -3   0  -7    1.00    1.70
  -3   0  -7    0.20    1.80
   4  -1   6    2.20    1.90
   4  -1   6    0.90    2.20
   4  -1   6    0.90    1.40
  -4   1  -6    0.50    2.10
  -4   1  -6    1.00    0.40
  -4   1  -6    1.90    1.70
   5  -2   5    4.30    2.50
   5  -2   5    2.20    1.90
   5  -2   5    2.10    1.90
   5  -2   5    2.10    1.60
  -5   2  -5    4.20    2.50
  -5   2  -5    1.70    2.10
  -5   2  -5    0.40    1.10
   6  -3   4   -2.00    2.40
   6  -3   4   -1.00    1.90
   6  -3   4    0.40    1.60
  -6   3  -4    1.40    1.80
  -6   3  -4    2.40    2.60
  -6   3  -4   -3.30    1.80
  -1   3  11   28.60    4.60
  -1   3  11   28.20    3.40
  -1   3  11   24.00    4.60
   1  -3 -11   28.30    4.40
   1  -3 -11   26.80    3.70
   1  -3 -11   29.60    4.70
   0   2  10  189.58   11.40
   0   2  10  178.18   11.00
   0   2  10  165.08    9.40
   0   2  10  191.78    8.90
   0  -2 -10  202.58   10.90
   0  -2 -10  195.88   10.20
   0  -2 -10  198.88   11.40
   1   1   9   43.00    4.70
   1   1   9   42.30    4.20
  -1  -1  -9   42.30    3.50
  -1  -1  -9   39.20    5.10
  -1  -1  -9   38.00    4.50
   2   0   8   32.90    3.60
   2   0   8   36.60    4.70
   2   0   8   41.10    5.00
  -2   0  -8   31.80    4.50
  -2   0  -8   31.10    3.10
   3  -1   7   25.40    3.90
   3  -1   7   23.80    3.40
  -3   1  -7   21.50    3.90
  -3   1  -7   25.70    3.70
   4  -2   6    0.90    1.90
   4  -2   6    4.80    2.00
   4  -2   6    3.20    1.80
   4  -2   6    0.40    1.70
  -4   2  -6    3.70    2.20
  -4   2  -6    1.70    2.00
  -4   2  -6    3.40    0.70
   5  -3   5    0.60    2.20
   5  -3   5   -1.60    1.70
   5  -3   5   -1.40    2.40
  -5   3  -5   -2.80    1.70
  -5   3  -5    1.40    2.20
  -5   3  -5   -0.60    1.40
  -1   2  11   33.70    5.50
  -1   2  11   37.20    3.30
  -1   2  11   39.80    5.80
   1  -2 -11   38.60    3.90
   1  -2 -11   41.00    4.50
   1  -2 -11   47.30    6.00
   0   1  10    0.50    1.80
   0   1  10    1.60    2.00
   0  -1 -10    2.80    1.70
   0  -1 -10    1.80    2.10
   1   0   9   20.80    4.10
   1   0   9   29.80    4.70
   1   0   9   19.80    3.60
  -1   0  -9   23.70    4.00
  -1   0  -9   27.90    3.00
   2  -1   8    4.40    2.70
   2  -1   8    7.00    2.30
  -2   1  -8    2.10    2.60
  -2   1  -8    2.80    1.90
  -2   1  -8    5.40    2.00
   3  -2   7    9.40    2.50
   3  -2   7   14.90    3.20
   3  -2   7   13.20    3.10
   3  -2   7   15.20    3.40
  -3   2  -7   12.60    3.10
  -3   2  -7    8.50    2.70
   4  -3   6   -0.10    2.20
   4  -3   6    1.10    1.90
   4  -3   6   -3.10    1.50
  -4   3  -6   -0.20    2.10
  -4   3  -6    0.90    2.10
   5  -4   5    5.50    2.80
  -5   4  -5   10.40    3.30
  -1   1  11    1.90    2.40
  -1   1  11    7.20    3.00
   1  -1 -11    8.40    2.80
   1  -1 -11    8.70    2.60
   0   0  10   12.10    3.30
   0   0  10   21.30    4.20
   0   0 -10    8.70    2.70
   0   0 -10   17.40    3.00
   1  -1   9    7.00    2.60
   1  -1   9    4.30    2.60
  -1   1  -9    5.10    4.00
  -1   1  -9    8.30    2.10
   2  -2   8    7.60    2.50
   2  -2   8    8.70    2.80
  -2   2  -8    3.00    2.00
  -2   2  -8    4.60    2.50
   3  -3   7   23.50    3.70
   3  -3   7   26.40    4.60
   3  -3   7   28.90    4.50
  -3   3  -7   37.60    5.20
  -3   3  -7   32.60    5.00
   4  -4   6   19.60    3.60
   4  -4   6    9.10    3.00
   4  -4   6   30.80    5.30
  -4   4  -6   22.30    4.40
  -4   4  -6   21.70    4.40
  -1   0  11    5.50    3.10
  -1   0  11    5.70    3.00
   1   0 -11   10.20    3.00
   1   0 -11    8.80    3.00
   0  -1  10    6.60    3.00
   0  -1  10   11.40    3.30
   0   1 -10   11.90    3.20
   0   1 -10   14.80    3.40
   1  -2   9   -1.50    1.70
   1  -2   9    4.10    2.00
  -1   2  -9   -0.90    1.80
  -1   2  -9   -0.70    2.30
   2  -3   8   23.60    4.10
   2  -3   8   21.30    4.10
  -2   3  -8   28.10    4.50
  -2   3  -8   29.60    4.40
   3  -4   7    9.00    3.30
   3  -4   7   17.50    3.70
   3  -4   7   24.70    4.30
  -3   4  -7   13.20    3.60
  -3   4  -7   23.00    4.80
   4  -5   6    1.20    2.70
  -1  -1  11    2.10    3.20
  -1  -1  11    3.90    3.10
   1   1 -11    1.60    2.30
   1   1 -11   -0.80    2.40
   0  -2  10    3.90    2.80
   0  -2  10    6.70    3.10
   0   2 -10   14.00    3.20
   0   2 -10    6.80    2.80
   1  -3   9    6.80    3.10
   1  -3   9    6.00    2.70
  -1   3  -9    6.30    3.20
  -1   3  -9   10.50    3.10
   2  -4   8   18.40    4.10
   2  -4   8   21.50    4.20
  -2   4  -8   19.50    4.10
  -2   4  -8   17.30    4.30
   3  -5   7   -2.40    3.30
   3  -5   7    5.40    2.90
   0  -3  10    4.80    3.20
   0  -3  10    1.00    3.00
   0   3 -10    4.80    2.90
   0   3 -10   -2.10    2.40
   1  -4   9   -0.30    2.40
   1  -4   9   -0.20    3.00
  -1   4  -9    4.50    3.00
  -1   4  -9    5.20    2.90
   6  11   5    7.00    3.80
   7  10   4   22.20    4.40
  -7 -10  -4   17.80    4.70
  -7 -10  -4   22.40    3.80
   5  11   6    1.40    2.60
   5  11   6    6.40    3.20
  -5 -11  -6    3.70    3.10
  -5 -11  -6    6.60    3.50
   6  10   5    0.10    2.50
   6  10   5   -2.40    2.10
  -6 -10  -5    3.00    3.00
  -6 -10  -5    0.70    2.20
   7   9   4    7.80    3.20
   7   9   4    6.60    2.70
   7   9   4    7.30    2.40
  -7  -9  -4    5.70    3.40
  -7  -9  -4    4.30    2.10
   8   8   3   52.49    4.70
   8   8   3   44.70    4.70
   8   8   3   51.19    5.50
  -8  -8  -3   59.89    7.90
   4  11   7    3.30    2.80
   4  11   7    0.40    2.90
  -4 -11  -7   -1.90    2.40
  -4 -11  -7   -3.80    2.30
   5  10   6    0.50    2.30
   5  10   6   -1.00    1.90
  -5 -10  -6    2.40    2.50
  -5 -10  -6    2.40    2.40
   6   9   5    9.50    1.70
   6   9   5    7.80    2.90
   6   9   5   13.50    3.20
  -6  -9  -5   13.50    4.10
  -6  -9  -5   10.00    2.80
   7   8   4    1.30    1.70
   7   8   4    2.90    2.40
   7   8   4    2.90    2.10
  -7  -8  -4    2.90    2.80
  -7  -8  -4    1.60    1.90
   8   7   3   10.90    2.70
   8   7   3   12.30    2.60
   8   7   3    8.90    3.20
  -8  -7  -3   10.10    2.60
  -8  -7  -3   15.80    4.40
   3  11   8   15.40    3.90
  -3 -11  -8    4.90    2.90
  -3 -11  -8   13.50    4.30
   4  10   7   15.50    3.40
   4  10   7   10.70    3.40
   4  10   7   18.00    3.80
  -4 -10  -7    9.40    3.20
  -4 -10  -7   10.20    3.40
   5   9   6    4.90    2.60
   5   9   6    5.60    2.50
   5   9   6   10.50    3.20
  -5  -9  -6   10.60    2.80
  -5  -9  -6    8.00    3.10
   6   8   5   16.40    3.10
   6   8   5   19.70    3.60
   6   8   5   17.30    1.80
   6   8   5   16.00    6.50
  -6  -8  -5   19.50    4.20
  -6  -8  -5   32.50    4.30
   7   7   4   90.69    6.00
   7   7   4   86.19    6.30
   7   7   4   92.39    6.90
  -7  -7  -4   94.69    7.60
  -7  -7  -4   79.79    6.20
   8   6   3   29.40    3.60
   8   6   3   31.20    4.20
   8   6   3   28.40    3.90
   8   6   3   33.40    4.90
  -8  -6  -3   31.10    4.00
  -8  -6  -3   30.60    4.00
  -8  -6  -3   32.30    5.60
   3  10   8    5.60    2.80
   3  10   8    9.40    2.80
   3  10   8    7.10    3.20
  -3 -10  -8   10.60    3.50
  -3 -10  -8   11.40    3.40
   4   9   7   27.70    5.00
   4   9   7   11.70    3.10
   4   9   7   14.40    3.40
  -4  -9  -7   12.30    3.30
  -4  -9  -7   17.10    3.70
   5   8   6   -0.70    1.50
   5   8   6   -0.20    1.50
   5   8   6   -0.20    1.90
   5   8   6   -0.50    4.20
  -5  -8  -6    1.30    2.10
  -5  -8  -6   -3.10    1.30
   6   7   5    2.30    0.90
   6   7   5    5.60    2.30
   6   7   5    2.60    1.70
   6   7   5    1.80    1.80
   6   7   5    1.20    2.10
  -6  -7  -5    2.80    1.80
  -6  -7  -5    2.60    2.30
  -6  -7  -5    2.00    0.80
   7   6   4    4.50    1.60
   7   6   4    0.70    1.70
  -7  -6  -4    2.40    1.80
  -7  -6  -4    3.10    2.60
  -7  -6  -4    4.30    2.00
   8   5   3    1.20    1.90
   8   5   3    6.20    1.90
   8   5   3    4.50    2.30
   8   5   3    3.20    1.90
  -8  -5  -3    8.70    3.20
  -8  -5  -3    5.60    2.00
  -8  -5  -3    7.30    2.10
   2  10   9   -4.80    2.00
   2  10   9    0.20    2.40
  -2 -10  -9    1.60    2.90
   3   9   8   38.40    5.80
   3   9   8   36.40    6.00
  -3  -9  -8   30.50    5.00
   4   8   7   36.30    3.90
   4   8   7   41.40    5.10
  -4  -8  -7   32.30    5.20
   5   7   6    7.30    3.00
   5   7   6    7.40    2.40
   5   7   6    7.50    2.70
  -5  -7  -6    6.70    2.50
  -5  -7  -6    8.90    3.60
   6   6   5   18.20    2.80
   6   6   5   13.30    3.30
   6   6   5   16.80    1.70
   6   6   5   12.40    2.50
   6   6   5   16.10    3.00
  -6  -6  -5    8.20    1.60
  -6  -6  -5   20.20    4.10
  -6  -6  -5   18.60    3.30
  -6  -6  -5   14.50    1.70
   7   5   4   15.00    2.70
   7   5   4   14.30    3.00
   7   5   4   11.50    2.00
   7   5   4   14.10    3.60
   7   5   4   15.50    2.40
  -7  -5  -4   22.00    4.30
  -7  -5  -4   16.40    2.50
  -7  -5  -4   13.10    2.90
   8   4   3    4.10    1.50
   8   4   3    4.00    2.20
   8   4   3    7.70    2.50
   8   4   3    4.80    1.40
  -8  -4  -3   10.20    3.00
  -8  -4  -3    9.00    2.60
  -8  -4  -3    9.00    3.30
  -8  -4  -3    6.30    2.30
   1  10  10    6.30    2.80
   1  10  10   -3.20    2.70
  -1 -10 -10    1.70    3.30
   2   9   9   61.69    5.50
   2   9   9   69.89    6.10
   2   9   9   56.89    5.60
  -2  -9  -9   63.19    5.80
  -2  -9  -9   52.59    6.00
   3   8   8  175.98   10.50
   3   8   8  177.88   10.10
   3   8   8  169.98   10.60
  -3  -8  -8  175.38   10.60
  -3  -8  -8  164.58   11.00
   4   7   7   -0.40    1.10
   4   7   7    2.00    1.80
   4   7   7    5.50    2.30
   4   7   7    2.70    2.20
  -4  -7  -7    0.60    2.10
  -4  -7  -7    1.00    1.40
  -4  -7  -7    2.30    2.00
   5   6   6   44.40    4.00
   5   6   6   46.40    4.00
   5   6   6   52.69    5.20
  -5  -6  -6   58.29    5.20
  -5  -6  -6   51.79    4.80
   6   5   5   -0.50    1.20
   6   5   5    0.80    2.30
   6   5   5    0.20    1.10
  -6  -5  -5    0.20    2.20
  -6  -5  -5    1.50    1.00
  -6  -5  -5   -0.20    1.40
  -6  -5  -5    1.50    0.80
   7   4   4    3.00    1.20
   7   4   4    2.00    1.10
   7   4   4    2.50    2.30
   7   4   4    1.10    1.50
   7   4   4    0.20    1.50
  -7  -4  -4    1.80    2.00
  -7  -4  -4    1.70    1.40
  -7  -4  -4    2.00    2.30
   8   3   3    6.00    1.10
   8   3   3    4.40    2.40
   8   3   3    2.00    1.70
   8   3   3    4.70    1.10
  -8  -3  -3    6.70    3.00
  -8  -3  -3    8.40    2.70
  -8  -3  -3    8.80    2.70
  -8  -3  -3   10.20    2.90
   1   9  10   18.40    3.80
   1   9  10   26.30    4.60
   1   9  10   20.90    4.30
  -1  -9 -10   25.40    4.90
  -1  -9 -10   27.50    5.30
   2   8   9    2.80    2.20
   2   8   9    4.90    2.40
   2   8   9    5.60    3.00
  -2  -8  -9    3.30    2.40
   3   7   8   63.19    4.80
   3   7   8   69.49    5.50
   3   7   8   63.59    5.70
   3   7   8   66.09    5.70
  -3  -7  -8   70.49    6.00
  -3  -7  -8   63.69    5.00
   4   6   7   62.59    4.90
   4   6   7   66.79    5.70
   4   6   7   74.29    5.20
   4   6   7   71.09    4.80
  -4  -6  -7   63.69    5.50
   5   5   6   43.40    5.50
   5   5   6   39.80    3.40
   5   5   6   41.80    3.50
   5   5   6   42.80    3.40
  -5  -5  -6   34.40    3.90
  -5  -5  -6   43.10    4.60
   6   4   5   22.60    2.40
   6   4   5   32.70    3.10
   6   4   5   32.20    2.70
   6   4   5   46.90    5.80
  -6  -4  -5   40.70    5.40
  -6  -4  -5   34.20    4.60
  -6  -4  -5   29.40    2.60
  -6  -4  -5   33.20    2.70
   7   3   4    0.50    0.90
   7   3   4    3.10    1.00
   7   3   4    1.30    0.90
   7   3   4    4.40    2.30
  -7  -3  -4    2.00    1.50
  -7  -3  -4   -1.10    1.50
  -7  -3  -4    0.70    1.30
  -7  -3  -4    1.20    2.00
   8   2   3    5.80    2.30
  -8  -2  -3    1.70    2.10
  -8  -2  -3    0.80    1.90
  -8  -2  -3    2.90    2.40
  -8  -2  -3    2.70    2.20
   1   8  10   41.70    4.40
   1   8  10   45.00    6.20
  -1  -8 -10   35.50    5.70
   2   7   9   58.49    5.20
   2   7   9   51.09    4.50
   2   7   9   54.39    5.10
  -2  -7  -9   46.10    5.20
  -2  -7  -9   67.89    5.20
   3   6   8   19.20    3.30
   3   6   8   17.60    3.40
   3   6   8   11.30    2.90
  -3  -6  -8   17.20    3.50
  -3  -6  -8   15.70    2.70
   4   5   7   87.69    5.80
   4   5   7   93.59    5.40
   4   5   7   79.09    6.40
  -4  -5  -7   85.49    6.60
   5   4   6    2.30    1.40
   5   4   6    3.30    2.00
   5   4   6    2.70    1.50
   5   4   6    4.80    1.40
  -5  -4  -6    1.80    1.00
  -5  -4  -6    4.30    0.90
  -5  -4  -6    6.90    2.30
   6   3   5    1.10    1.00
   6   3   5    1.40    1.20
   6   3   5    0.40    1.70
   6   3   5   -0.70    0.90
  -6  -3  -5    0.30    1.50
  -6  -3  -5   -0.30    1.80
  -6  -3  -5   -0.80    1.00
  -6  -3  -5    2.10    1.10
   7   2   4   37.50    5.20
   7   2   4   43.90    3.80
   7   2   4   34.80    2.20
   7   2   4   36.50    2.20
  -7  -2  -4   35.80    3.70
  -7  -2  -4   41.90    6.50
  -7  -2  -4   40.10    5.50
  -7  -2  -4   33.50    3.70
  -8  -1  -3    7.70    2.90
  -8  -1  -3   11.90    3.10
  -8  -1  -3   12.00    3.20
  -8  -1  -3    4.20    2.60
   0   8  11   -1.70    3.00
   0   8  11    8.30    2.70
   0   8  11    3.90    2.90
   0  -8 -11    4.00    6.00
   1   7  10    3.50    2.30
   1   7  10    1.70    2.40
   1   7  10   -1.50    1.60
  -1  -7 -10    4.20    2.40
  -1  -7 -10    0.10    2.00
   2   6   9   43.70    5.40
   2   6   9   30.80    3.20
   2   6   9   39.30    4.10
  -2  -6  -9   36.10    5.00
   3   5   8    7.50    1.70
   3   5   8   11.80    2.60
   3   5   8   12.60    3.10
   3   5   8   12.60    2.80
  -3  -5  -8    9.50    2.70
  -3  -5  -8   17.60    2.60
   4   4   7   12.60    1.80
   4   4   7   16.30    2.50
   4   4   7   12.00    3.00
   4   4   7   11.20    2.40
  -4  -4  -7   13.60    1.90
  -4  -4  -7   11.60    2.90
   5   3   6   22.40    2.30
   5   3   6   19.10    2.10
   5   3   6   20.70    2.20
   5   3   6   29.40    4.40
  -5  -3  -6   23.10    2.00
  -5  -3  -6   23.10    3.80
  -5  -3  -6   17.50    2.40
  -5  -3  -6   22.40    2.20
   6   2   5    4.30    2.10
   6   2   5    3.00    2.40
   6   2   5    5.50    1.30
   6   2   5    3.80    1.40
  -6  -2  -5    2.30    1.90
  -6  -2  -5    1.70    2.20
  -6  -2  -5    4.30    1.60
   7   1   4    2.10    0.90
   7   1   4    2.30    0.90
  -7  -1  -4    2.20    1.80
  -7  -1  -4    2.80    1.80
  -7  -1  -4    2.60    2.20
   8   0   3   13.50    1.60
   8   0   3   20.10    4.30
  -8   0  -3   16.90    4.00
  -8   0  -3   14.70    3.60
  -8   0  -3   12.70    3.20
  -8   0  -3   18.50    3.40
   0   7  11    2.90    2.90
   0   7  11    4.00    2.40
   0  -7 -11    7.60    3.30
   1   6  10   17.50    3.00
   1   6  10   12.40    1.20
   1   6  10    9.20    4.50
   1   6  10   16.70    3.80
  -1  -6 -10   15.80    3.70
   2   5   9   36.90    4.70
   2   5   9   38.70    5.10
   2   5   9   34.60    4.60
   2   5   9   31.30    2.80
  -2  -5  -9   36.30    4.40
   3   4   8   27.30    2.10
   3   4   8   23.90    4.00
   3   4   8   33.00    4.00
   3   4   8   30.70    3.80
  -3  -4  -8   34.90    4.70
  -3  -4  -8   24.70    2.00
   4   3   7    0.90    1.50
   4   3   7    1.40    1.40
   4   3   7    1.00    0.70
   4   3   7   -1.30    1.50
  -4  -3  -7    0.30    0.70
  -4  -3  -7    1.20    1.70
  -4  -3  -7   -0.80    0.50
   5   2   6   17.00    2.30
   5   2   6   17.70    1.80
   5   2   6   21.60    3.80
   5   2   6   15.40    2.20
  -5  -2  -6   18.20    2.40
  -5  -2  -6   23.80    2.70
  -5  -2  -6   17.00    2.10
  -5  -2  -6   12.00    3.00
   6   1   5    1.30    1.20
   6   1   5    1.30    1.80
   6   1   5    2.00    1.10
  -6  -1  -5    2.80    1.50
  -6  -1  -5    1.70    1.40
  -6  -1  -5    1.60    1.80
   7   0   4   36.20    2.60
   7   0   4   34.70    5.10
   7   0   4   30.80    2.50
  -7   0  -4   40.70    5.00
  -7   0  -4   29.60    3.90
  -7   0  -4   40.70    5.60
   0   6  11    9.50    3.40
   0   6  11    5.70    2.60
   0   6  11    9.10    2.90
   0   6  11    5.10    1.90
   0  -6 -11    2.80    2.70
   0  -6 -11    1.70    1.90
   1   5  10   22.50    1.80
   1   5  10   26.90    4.40
   1   5  10   27.50    3.20
  -1  -5 -10   16.60    3.70
  -1  -5 -10   23.00    2.20
  -1  -5 -10   30.60    4.20
   2   4   9   -0.20    1.90
   2   4   9   -1.60    1.60
   2   4   9    0.60    1.90
   2   4   9    1.10    0.90
   2   4   9    1.90    0.90
  -2  -4  -9    0.90    0.80
  -2  -4  -9   -1.50    1.70
  -2  -4  -9   -2.10    1.50
   3   3   8   27.00    3.80
   3   3   8   20.40    1.60
   3   3   8   18.50    3.50
   3   3   8   25.30    3.50
  -3  -3  -8   27.70    4.20
  -3  -3  -8   20.50    2.20
  -3  -3  -8   19.90    1.60
  -3  -3  -8   22.30    1.50
   4   2   7   32.30    3.10
   4   2   7   35.30    4.70
   4   2   7   33.40    3.10
  -4  -2  -7   33.30    4.60
  -4  -2  -7   35.20    2.80
  -4  -2  -7   33.70    2.60
   5   1   6   58.99    5.40
   5   1   6   63.49    4.00
  -5  -1  -6   57.29    3.50
  -5  -1  -6   73.89   10.70
  -5  -1  -6   59.09    4.40
  -5  -1  -6   57.39    3.50
   6   0   5    1.40    2.10
   6   0   5    0.30    1.10
   6   0   5    3.00    2.30
  -6   0  -5   -0.60    1.50
  -6   0  -5    3.80    2.00
  -6   0  -5    0.90    1.70
   7  -1   4    7.10    3.10
   7  -1   4    4.90    1.60
   7  -1   4    4.80    1.70
  -7   1  -4   11.80    2.60
  -7   1  -4    3.80    3.00
  -7   1  -4    2.90    2.60
  -7   1  -4    1.90    2.40
   0   5  11    4.00    2.90
   0   5  11    2.70    2.30
   0   5  11    4.40    2.20
   0   5  11    9.30    1.90
   0  -5 -11    3.30    2.50
   0  -5 -11    3.10    3.10
   0  -5 -11    2.90    1.30
   1   4  10   33.30    4.60
   1   4  10   28.40    2.50
   1   4  10   25.70    3.40
   1   4  10   30.10    4.50
  -1  -4 -10   22.30    2.10
  -1  -4 -10   30.10    4.60
  -1  -4 -10   28.50    4.40
   2   3   9  126.69    8.00
   2   3   9  132.69    8.60
   2   3   9  117.99    8.00
   2   3   9  128.09    6.50
  -2  -3  -9  133.29    8.80
  -2  -3  -9  131.99    6.50
   3   2   8   11.20    1.70
   3   2   8   13.20    3.10
   3   2   8   12.10    2.70
   3   2   8   11.50    2.50
  -3  -2  -8    8.30    1.60
  -3  -2  -8    8.70    1.60
  -3  -2  -8   11.20    2.80
   4   1   7   19.60    3.00
   4   1   7   17.50    2.80
   4   1   7   25.00    4.00
  -4  -1  -7   20.40    3.80
  -4  -1  -7   18.80    2.80
   5   0   6    1.90    2.00
   5   0   6    2.50    1.40
   5   0   6    1.30    1.30
  -5   0  -6    1.50    2.10
  -5   0  -6    2.30    1.70
  -5   0  -6    2.10    0.90
  -5   0  -6    3.70    1.60
   6  -1   5    2.30    2.40
   6  -1   5    6.20    1.80
   6  -1   5    5.10    2.90
   6  -1   5    5.50    2.10
  -6   1  -5    5.00    2.70
  -6   1  -5    4.30    3.60
  -6   1  -5    4.80    2.60
   7  -2   4    9.90    3.50
   7  -2   4    9.40    3.40
   7  -2   4    8.30    2.70
  -7   2  -4    9.60    3.60
  -7   2  -4    7.10    3.40
  -7   2  -4    7.80    3.40
  -7   2  -4    9.20    2.50
  -1   5  12    2.50    2.70
  -1   5  12    5.20    2.80
   1  -5 -12    0.20    3.00
   0   4  11   25.70    4.40
   0   4  11   26.90    3.20
   0   4  11   23.70    4.30
   0  -4 -11   21.80    4.30
   0  -4 -11   24.50    4.30
   1   3  10   49.20    2.80
   1   3  10   44.90    4.70
   1   3  10   46.90    2.60
   1   3  10   48.70    4.90
  -1  -3 -10   53.79    3.60
  -1  -3 -10   50.69    5.00
  -1  -3 -10   53.59    4.50
   2   2   9   28.00    3.90
   2   2   9   26.00    4.20
   2   2   9   25.90    3.00
  -2  -2  -9   25.10    2.40
  -2  -2  -9   31.20    3.70
  -2  -2  -9   27.60    4.40
   3   1   8   46.00    4.60
   3   1   8   48.00    4.30
   3   1   8   44.20    3.80
  -3  -1  -8   46.50    3.50
  -3  -1  -8   37.20    4.30
   4   0   7   -1.40    1.30
   4   0   7    2.10    1.50
   4   0   7    1.20    1.80
  -4   0  -7    3.60    2.30
  -4   0  -7    3.00    1.60
   5  -1   6   15.80    2.80
   5  -1   6   13.10    3.10
   5  -1   6   15.60    3.80
   5  -1   6   13.60    2.50
  -5   1  -6   13.30    3.40
  -5   1  -6   15.70    1.50
  -5   1  -6   16.00    3.10
   6  -2   5    7.10    3.80
   6  -2   5    8.80    2.30
   6  -2   5   10.00    3.30
   6  -2   5    8.10    2.90
  -6   2  -5   10.30    3.40
  -6   2  -5   13.50    3.60
  -6   2  -5   10.50    2.30
  -1   4  12   21.40    3.40
  -1   4  12   15.30    4.40
  -1   4  12   19.70    4.20
   1  -4 -12   20.50    4.50
   1  -4 -12   23.90    3.50
   0   3  11   39.60    5.50
   0   3  11   41.00    3.10
   0   3  11   32.10    5.10
   0  -3 -11   33.90    5.00
   0  -3 -11   39.10    3.50
   1   2  10   34.70    4.90
   1   2  10   38.90    5.10
  -1  -2 -10   33.10    4.90
  -1  -2 -10   31.80    4.40
  -1  -2 -10   28.00    4.10
   2   1   9    0.90    2.70
   2   1   9    0.30    1.80
   2   1   9    0.80    1.50
  -2  -1  -9    2.90    2.00
  -2  -1  -9   -0.70    1.50
  -2  -1  -9   -1.00    2.00
   3   0   8    3.80    2.30
   3   0   8    6.00    2.40
   3   0   8    7.10    2.20
  -3   0  -8    6.40    2.80
  -3   0  -8    9.70    2.30
   4  -1   7    7.00    2.90
   4  -1   7    3.00    1.80
   4  -1   7    5.00    2.40
  -4   1  -7    3.60    2.50
  -4   1  -7    1.50    1.90
   5  -2   6    4.40    2.50
   5  -2   6    2.10    2.40
   5  -2   6    2.10    1.90
  -5   2  -6    6.80    2.70
  -5   2  -6    6.10    2.70
   6  -3   5   -1.90    2.50
   6  -3   5    4.10    2.20
   6  -3   5    2.20    3.00
  -6   3  -5    2.50    3.10
  -6   3  -5    4.80    2.80
  -1   3  12    9.60    3.60
  -1   3  12    2.50    2.80
   1  -3 -12    2.10    3.00
   1  -3 -12    8.60    2.40
   0   2  11    0.60    2.40
   0   2  11    4.40    2.40
   0  -2 -11    7.70    2.00
   0  -2 -11    0.10    2.10
   1   1  10    1.70    2.20
   1   1  10    3.20    2.40
  -1  -1 -10    3.00    2.20
  -1  -1 -10    0.20    1.30
   2   0   9   38.60    5.20
   2   0   9   48.90    4.50
  -2   0  -9   46.60    5.00
  -2   0  -9   50.89    4.20
   3  -1   8    1.70    2.00
   3  -1   8    0.50    1.80
  -3   1  -8    1.30    1.90
  -3   1  -8    2.10    1.90
   4  -2   7   10.20    3.00
   4  -2   7    5.90    2.80
   4  -2   7    8.10    2.60
  -4   2  -7    8.90    3.20
  -4   2  -7    8.20    3.00
   5  -3   6   -0.40    2.00
   5  -3   6    5.10    2.30
   5  -3   6    3.10    2.70
  -5   3  -6   -0.50    2.40
  -5   3  -6    4.70    2.90
  -1   2  12    7.70    3.70
   1  -2 -12   10.30    3.30
   1  -2 -12    5.50    3.20
   0   1  11   21.60    4.50
   0   1  11   15.40    4.10
   0  -1 -11   24.10    3.50
   0  -1 -11   18.10    3.90
   1   0  10   -0.50    1.90
   1   0  10    3.30    2.30
  -1   0 -10    2.10    1.70
  -1   0 -10    1.40    2.20
   2  -1   9    2.50    2.30
   2  -1   9   -1.10    1.70
  -2   1  -9    4.40    2.10
  -2   1  -9   -1.00    2.10
   3  -2   8    1.70    2.10
   3  -2   8    3.70    2.50
  -3   2  -8   -0.20    2.10
  -3   2  -8    4.40    2.20
   4  -3   7   -0.90    2.00
   4  -3   7   -3.10    2.10
   4  -3   7   -0.60    1.90
  -4   3  -7    0.40    2.20
  -4   3  -7   -1.70    2.40
  -1   1  12    6.40    3.50
   0   0  11   -3.70    2.00
   0   0  11    4.20    3.00
   0   0 -11   -2.50    2.20
   0   0 -11    3.90    3.30
   1  -1  10    0.20    2.20
   1  -1  10    2.30    2.40
  -1   1 -10   -0.30    1.90
  -1   1 -10    0.00    1.70
   2  -2   9    3.00    2.60
   2  -2   9    4.10    2.30
  -2   2  -9   -0.70    2.10
  -2   2  -9    3.10    2.00
   3  -3   8   -0.20    2.20
   3  -3   8   -0.40    2.20
  -3   3  -8   -1.00    2.30
  -3   3  -8    5.50    2.70
   4  -4   7   19.30    3.90
   4  -4   7   20.40    4.30
   0  -1  11    9.10    3.40
   0  -1  11   16.10    4.10
   0   1 -11    4.90    2.50
   0   1 -11    9.40    3.40
   1  -2  10   34.60    5.60
   1  -2  10   23.20    4.50
  -1   2 -10   24.00    4.80
  -1   2 -10   34.00    4.70
   2  -3   9    5.60    3.10
   2  -3   9    4.90    3.20
  -2   3  -9    4.90    2.50
  -2   3  -9    7.40    3.50
   3  -4   8    1.90    2.90
  -7 -10  -5   58.79    7.90
   5  11   7   -0.10    2.80
   5  11   7   -1.50    2.50
  -5 -11  -7    0.80    3.10
  -5 -11  -7    2.60    3.00
   6  10   6    1.40    2.50
   6  10   6    7.50    3.20
  -6 -10  -6    1.00    2.70
  -6 -10  -6    3.10    2.20
   7   9   5    2.60    2.70
   7   9   5    1.50    2.40
  -7  -9  -5    0.40    2.30
  -7  -9  -5    4.90    3.30
   8   8   4    3.90    2.80
   8   8   4    2.80    2.30
  -8  -8  -4    4.10    3.20
  -8  -8  -4    1.00    1.90
   4  11   8    1.10    2.70
  -4 -11  -8    4.10    3.20
  -4 -11  -8    2.00    3.30
   5  10   7   22.00    4.50
   5  10   7   15.60    3.90
   5  10   7   22.50    4.50
  -5 -10  -7   30.20    5.10
  -5 -10  -7   11.60    3.80
   6   9   6   16.90    3.70
  -6  -9  -6   14.20    3.50
  -6  -9  -6   24.70    4.80
   7   8   5    0.10    2.20
  -7  -8  -5    2.80    2.20
  -7  -8  -5    1.40    2.60
   8   7   4    8.00    2.70
   8   7   4    2.80    2.50
   8   7   4    4.40    2.40
  -8  -7  -4    8.70    3.60
  -8  -7  -4    6.10    2.50
  -8  -7  -4    8.50    2.10
   4  10   8    2.70    2.60
   4  10   8    8.20    3.20
   4  10   8   11.00    3.50
  -4 -10  -8    9.60    3.40
  -4 -10  -8    1.90    2.90
   5   9   7    0.10    2.40
   5   9   7   -2.10    1.70
   5   9   7    0.70    2.10
  -5  -9  -7    1.70    2.40
  -5  -9  -7   -2.50    1.70
   6   8   6   13.10    3.20
   6   8   6   12.20    3.70
   6   8   6   13.30    3.00
  -6  -8  -6   13.00    3.50
  -6  -8  -6   13.30    3.60
   7   7   5   29.40    4.30
   7   7   5   26.10    3.60
   7   7   5   30.60    5.30
   7   7   5   23.60    4.00
   7   7   5   23.50    2.70
  -7  -7  -5   29.00    4.30
  -7  -7  -5   24.20    2.30
  -7  -7  -5   28.80    5.30
   8   6   4    4.50    1.90
   8   6   4   -1.80    2.30
   8   6   4    2.30    2.30
   8   6   4    4.30    2.20
  -8  -6  -4    3.20    1.80
  -8  -6  -4    2.00    3.00
  -8  -6  -4    7.10    2.60
   3  10   9    3.90    2.80
   3  10   9   -4.60    2.20
   3  10   9    1.60    2.50
  -3 -10  -9    5.90    3.40
  -3 -10  -9   12.30    4.10
   4   9   8   21.70    4.30
   4   9   8   13.20    3.30
   4   9   8   14.20    3.10
  -4  -9  -8   10.00    3.30
  -4  -9  -8   15.30    3.70
   5   8   7    5.00    2.90
   5   8   7    5.90    2.20
   5   8   7    4.70    2.30
  -5  -8  -7    4.90    2.40
  -5  -8  -7    3.10    2.50
   6   7   6    8.00    3.20
   6   7   6   11.00    2.80
   6   7   6    7.20    2.30
   6   7   6   10.90    3.00
  -6  -7  -6   11.30    3.10
  -6  -7  -6   11.50    3.50
   7   6   5    2.40    1.90
   7   6   5    3.50    1.90
   7   6   5   -3.20    2.20
   7   6   5    1.60    1.50
  -7  -6  -5   -1.80    1.50
  -7  -6  -5    2.60    2.70
  -7  -6  -5    0.00    1.10
   8   5   4   -0.90    1.90
   8   5   4    1.70    2.10
   8   5   4    3.00    1.70
  -8  -5  -4    2.50    2.10
  -8  -5  -4    3.40    1.90
  -8  -5  -4    1.20    2.60
   2  10  10    0.10    2.50
   2  10  10    4.60    2.70
   2  10  10    5.10    3.20
  -2 -10 -10    1.60    3.10
  -2 -10 -10    0.40    2.50
   3   9   9    6.30    3.10
   3   9   9    3.90    2.70
   3   9   9    7.10    2.70
  -3  -9  -9    4.80    2.70
  -3  -9  -9    8.20    3.10
   4   8   8    6.50    2.30
   4   8   8   16.30    3.70
   4   8   8    4.60    2.80
  -4  -8  -8   13.30    3.60
  -4  -8  -8    9.70    2.90
   5   7   7   22.60    3.40
   5   7   7   21.90    4.20
  -5  -7  -7   20.10    4.10
  -5  -7  -7   18.00    3.70
   6   6   6   33.40    3.30
   6   6   6   34.40    5.20
   6   6   6   31.50    3.40
  -6  -6  -6   32.10    4.80
  -6  -6  -6   34.90    5.40
   7   5   5   13.50    3.00
   7   5   5   11.50    3.40
   7   5   5   14.00    2.40
   7   5   5   12.80    2.20
  -7  -5  -5   16.80    4.00
  -7  -5  -5   15.80    2.20
  -7  -5  -5   22.50    3.80
   8   4   4    5.80    2.70
   8   4   4    0.50    1.10
   8   4   4   -1.80    1.70
   8   4   4    3.30    1.30
  -8  -4  -4    4.00    2.20
  -8  -4  -4    1.80    1.90
  -8  -4  -4    2.50    2.60
  -8  -4  -4    0.20    1.70
   2   9  10   43.90    5.90
   2   9  10   59.19    6.00
   2   9  10   51.69    5.50
  -2  -9 -10   58.39    6.40
  -2  -9 -10   51.79    5.50
   3   8   9    1.20    2.20
   3   8   9    3.30    2.40
   3   8   9    1.50    1.60
  -3  -8  -9    0.60    2.20
   4   7   8   41.30    3.90
   4   7   8   45.90    5.60
   4   7   8   40.40    5.50
   4   7   8   43.40    4.40
  -4  -7  -8   41.10    5.50
   5   6   7    5.90    2.60
   5   6   7    0.70    1.50
   5   6   7    1.20    1.80
   5   6   7    4.90    1.70
  -5  -6  -7    3.40    2.40
  -5  -6  -7    6.70    2.70
   6   5   6    4.30    1.70
   6   5   6   -0.60    2.00
   6   5   6    0.60    1.40
   6   5   6    3.10    1.50
  -6  -5  -6   -0.10    1.90
  -6  -5  -6    0.90    1.90
   7   4   5   12.50    3.50
   7   4   5   18.90    2.30
   7   4   5   19.10    2.30
   7   4   5   10.60    2.50
  -7  -4  -5   18.80    4.10
  -7  -4  -5   18.70    3.10
  -7  -4  -5   17.70    4.40
  -7  -4  -5   16.50    2.60
   8   3   4   11.70    2.90
   8   3   4    7.80    1.40
   8   3   4   12.70    1.60
   8   3   4   10.90    3.40
  -8  -3  -4   13.20    3.70
  -8  -3  -4    5.10    2.20
  -8  -3  -4   11.70    3.00
  -8  -3  -4   12.70    3.20
   2   8  10   42.50    5.60
   2   8  10   44.60    5.20
  -2  -8 -10   28.70    5.20
   3   7   9   46.90    4.90
   3   7   9   44.30    4.00
  -3  -7  -9   44.50    5.00
   4   6   8   28.10    4.60
   4   6   8   31.70    5.00
   4   6   8   24.20    4.50
   4   6   8   25.80    3.80
  -4  -6  -8   21.20    3.90
   5   5   7   20.30    3.00
   5   5   7   13.70    3.40
   5   5   7   21.40    2.90
   5   5   7   18.70    2.70
  -5  -5  -7   17.20    3.50
   6   4   6   10.40    2.90
   6   4   6    9.10    1.90
   6   4   6    7.20    1.80
   6   4   6   10.70    2.10
  -6  -4  -6    8.20    1.50
  -6  -4  -6    8.00    2.80
  -6  -4  -6    7.20    2.80
   7   3   5    5.60    1.40
   7   3   5    6.60    2.90
   7   3   5    3.50    1.30
   7   3   5    4.00    1.90
  -7  -3  -5    6.70    2.60
  -7  -3  -5    9.40    2.30
  -7  -3  -5    2.10    2.50
  -7  -3  -5    7.00    1.90
   8   2   4    3.30    0.90
   8   2   4    4.80    3.00
  -8  -2  -4    8.30    2.80
  -8  -2  -4   -1.20    1.90
  -8  -2  -4   -1.90    1.70
  -8  -2  -4    4.20    2.60
   1   8  11   28.80    5.00
   1   8  11   28.70    4.40
   1   8  11   25.80    5.10
  -1  -8 -11   31.30    8.30
   2   7  10    2.40    1.90
   2   7  10    3.30    2.20
   2   7  10    0.10    2.30
  -2  -7 -10    3.70    2.50
   3   6   9   50.89    5.20
   3   6   9   53.59    6.60
   3   6   9   53.69    5.30
   3   6   9   61.39    4.30
  -3  -6  -9   56.19    5.50
   4   5   8   35.80    5.70
   4   5   8   29.20    2.70
   4   5   8   34.50    6.20
  -4  -5  -8   38.80    5.40
   5   4   7    4.10    1.30
   5   4   7    5.20    2.00
   5   4   7    4.00    2.30
   5   4   7    2.40    1.50
  -5  -4  -7    4.30    0.50
  -5  -4  -7    4.10    2.30
   6   3   6   35.80    5.00
   6   3   6   36.40    3.00
   6   3   6   35.80    3.30
   6   3   6   34.00    2.90
  -6  -3  -6   34.60    3.10
  -6  -3  -6   40.40    5.20
  -6  -3  -6   38.60    3.20
   7   2   5    2.80    2.50
   7   2   5    5.40    1.30
   7   2   5    8.40    1.40
  -7  -2  -5    7.40    2.30
  -7  -2  -5    9.60    3.10
  -7  -2  -5   11.20    2.40
  -7  -2  -5   11.40    3.10
   8   1   4    3.80    2.80
   8   1   4    1.60    0.90
   8   1   4    2.60    1.00
  -8  -1  -4   -1.60    2.00
  -8  -1  -4    4.80    2.10
  -8  -1  -4    2.20    2.50
  -8  -1  -4    8.30    3.10
   1   7  11    1.00    2.20
   1   7  11    1.40    2.10
   1   7  11    0.30    2.60
  -1  -7 -11    1.90    2.80
   2   6  10    6.10    2.70
   2   6  10    4.60    2.40
   2   6  10    4.70    1.90
  -2  -6 -10    0.80    1.90
   3   5   9    7.20    1.50
   3   5   9    6.30    2.40
   3   5   9    8.10    3.20
   3   5   9   11.20    3.10
  -3  -5  -9    5.10    2.60
  -3  -5  -9    5.60    2.50
  -3  -5  -9    9.00    1.60
   4   4   8    1.60    0.80
   4   4   8    1.80    2.10
   4   4   8   -1.00    1.80
  -4  -4  -8    1.40    0.80
  -4  -4  -8   -2.50    1.80
   5   3   7   35.80    5.10
   5   3   7   39.40    2.70
   5   3   7   39.50    3.30
   5   3   7   35.80    3.30
  -5  -3  -7   41.40    2.70
  -5  -3  -7   40.50    2.80
  -5  -3  -7   33.00    3.60
  -5  -3  -7   44.70    4.70
   6   2   6   24.80    2.50
   6   2   6   33.30    4.80
   6   2   6   27.30    2.70
  -6  -2  -6   30.20    3.00
  -6  -2  -6   25.70    2.60
  -6  -2  -6   31.20    4.60
   7   1   5   12.60    1.90
   7   1   5   17.10    3.80
   7   1   5   15.60    1.90
  -7  -1  -5   10.80    2.70
  -7  -1  -5   11.80    3.40
  -7  -1  -5   14.70    3.80
  -7  -1  -5   12.00    2.50
   1   6  11    1.90    2.40
   1   6  11    0.10    2.00
   1   6  11    0.20    1.80
  -1  -6 -11    3.80    3.00
   2   5  10   18.70    2.30
   2   5  10   29.70    4.60
   2   5  10   25.30    4.40
  -2  -5 -10   22.30    4.20
   3   4   9   50.79    5.60
   3   4   9   45.80    2.40
   3   4   9   40.60    5.50
   3   4   9   46.90    4.80
  -3  -4  -9   37.30    2.40
  -3  -4  -9   45.20    3.60
  -3  -4  -9   46.90    5.90
   4   3   8    6.60    2.50
   4   3   8    3.00    1.70
   4   3   8    4.50    2.00
  -4  -3  -8    2.70    0.90
  -4  -3  -8    4.20    2.10
   5   2   7    4.90    1.80
   5   2   7    2.50    2.30
   5   2   7    2.00    1.50
  -5  -2  -7   -1.00    1.60
  -5  -2  -7    1.70    1.20
  -5  -2  -7    0.00    0.80
   6   1   6   43.60    3.40
   6   1   6   39.20    3.30
   6   1   6   39.80    5.50
  -6  -1  -6   41.70    4.00
  -6  -1  -6   47.80    3.40
  -6  -1  -6   46.10    5.00
   7   0   5    0.30    2.30
   7   0   5    4.40    2.70
   7   0   5    3.60    1.50
   7   0   5    3.80    1.60
  -7   0  -5   -1.40    2.10
  -7   0  -5    2.60    2.20
  -7   0  -5    4.80    2.60
  -7   0  -5    2.60    1.90
   0   6  12    7.30    3.50
   0   6  12    9.00    3.30
   0   6  12   12.90    4.30
   0  -6 -12   12.50    3.90
   1   5  11    6.20    2.90
   1   5  11    8.50    2.10
   1   5  11   16.10    3.70
  -1  -5 -11   11.60    3.60
   2   4  10    3.50    0.90
   2   4  10    6.20    2.60
   2   4  10    7.20    2.70
   2   4  10    3.80    1.30
  -2  -4 -10    4.00    0.60
  -2  -4 -10    2.70    2.30
   3   3   9   27.60    4.20
   3   3   9   32.70    4.80
   3   3   9   23.80    2.00
  -3  -3  -9   35.40    5.20
  -3  -3  -9   23.50    1.90
   4   2   8   63.39    4.90
   4   2   8   61.19    5.80
   4   2   8   71.79    5.10
  -4  -2  -8   68.59    4.30
  -4  -2  -8   78.89    6.30
  -4  -2  -8   73.79    4.40
   5   1   7   31.40    3.20
   5   1   7   26.50    3.30
   5   1   7   34.90    4.80
  -5  -1  -7   31.90    4.80
  -5  -1  -7   24.70    3.40
   6   0   6   12.80    2.60
   6   0   6   12.60    2.30
   6   0   6    9.30    2.80
  -6   0  -6   14.10    3.10
  -6   0  -6   15.20    2.10
  -6   0  -6    6.20    3.00
   7  -1   5   15.90    3.00
   7  -1   5   14.40    6.70
  -7   1  -5    9.00    4.40
  -7   1  -5   23.60    4.30
  -7   1  -5   14.40    3.80
   0   5  12   10.50    3.80
   0   5  12    5.90    3.10
   0  -5 -12    0.00    3.10
   1   4  11   31.30    3.10
   1   4  11   33.80    5.40
   1   4  11   39.90    5.60
  -1  -4 -11   38.20    5.50
  -1  -4 -11   38.40    2.80
   2   3  10   10.60    3.00
  -2  -3 -10    4.70    2.60
  -2  -3 -10    9.70    1.50
   3   2   9   14.80    3.50
   3   2   9   13.10    3.00
   3   2   9   14.00    2.40
   3   2   9   17.50    3.80
  -3  -2  -9   12.00    3.10
  -3  -2  -9   18.00    2.20
   4   1   8    6.30    2.10
   4   1   8    4.10    2.30
   4   1   8    7.90    3.00
  -4  -1  -8    5.90    2.50
   5   0   7    1.10    1.80
   5   0   7    2.60    1.70
   5   0   7   -2.10    1.70
  -5   0  -7   -0.10    1.70
  -5   0  -7    0.20    1.90
   6  -1   6    2.10    1.70
   6  -1   6    0.00    2.00
   6  -1   6    5.40    2.80
   6  -1   6    2.40    2.50
  -6   1  -6    0.50    2.00
  -6   1  -6    1.90    2.30
   0   4  12    4.20    2.90
   0   4  12    6.30    3.10
   0  -4 -12    3.80    2.80
   1   3  11    2.30    2.60
  -1  -3 -11    1.30    2.10
  -1  -3 -11    2.80    1.40
   2   2  10   18.00    3.80
   2   2  10   19.70    3.40
  -2  -2 -10   21.20    2.50
  -2  -2 -10   14.60    3.60
   3   1   9    9.00    2.70
   3   1   9    7.40    2.80
  -3  -1  -9    6.00    1.80
  -3  -1  -9    1.30    2.10
   4   0   8    2.30    2.10
   4   0   8    4.40    3.10
   4   0   8    4.30    1.90
  -4   0  -8    4.00    2.30
  -4   0  -8    1.20    1.80
   5  -1   7    1.20    1.80
   5  -1   7    3.10    2.30
  -5   1  -7    2.10    2.70
  -5   1  -7   -3.70    1.90
   6  -2   6    3.30    2.00
   6  -2   6   -0.80    2.50
   6  -2   6    0.30    2.30
  -6   2  -6    2.40    2.70
  -6   2  -6    2.30    2.70
   0   3  12   12.00    3.80
   0  -3 -12    5.80    3.40
   0  -3 -12   11.80    2.40
   1   2  11    0.50    2.20
   1   2  11    0.40    2.10
  -1  -2 -11    0.70    1.40
  -1  -2 -11    0.30    2.40
   2   1  10    1.20    2.10
   2   1  10    0.20    1.80
  -2  -1 -10   -0.20    2.10
  -2  -1 -10    1.50    1.40
   3   0   9    5.10    2.50
   3   0   9    1.70    2.10
  -3   0  -9    3.00    1.60
  -3   0  -9    0.90    2.20
   4  -1   8    4.00    2.30
   4  -1   8    2.80    2.60
  -4   1  -8    0.50    2.10
  -4   1  -8    4.60    2.70
   5  -2   7    0.60    2.30
   5  -2   7    1.20    2.30
   5  -2   7   -2.90    2.20
  -5   2  -7   -4.80    2.30
  -5   2  -7    0.00    2.40
   0   2  12    5.30    3.10
   0  -2 -12    2.60    2.00
   0  -2 -12    1.50    2.50
   1   1  11    3.20    2.60
   1   1  11    1.80    2.50
  -1  -1 -11    6.40    2.10
  -1  -1 -11   -0.90    2.30
   2   0  10    4.50    2.80
   2   0  10   10.60    3.20
  -2   0 -10   12.60    3.50
  -2   0 -10   13.00    2.70
   3  -1   9   26.90    4.30
   3  -1   9   24.50    4.60
  -3   1  -9   22.90    4.50
  -3   1  -9   31.50    4.10
   4  -2   8    2.90    2.10
   4  -2   8    0.70    2.30
  -4   2  -8   -2.40    2.20
  -4   2  -8    1.90    2.50
   0   1  12    0.60    2.70
   0   1  12   -0.50    3.10
   1   0  11    4.60    3.30
   1   0  11    2.70    3.10
  -1   0 -11    7.40    2.50
  -1   0 -11   11.00    3.60
   2  -1  10    8.90    3.40
   2  -1  10    9.10    2.90
  -2   1 -10    9.80    3.40
  -2   1 -10   10.20    4.00
   3  -2   9    4.20    2.80
   3  -2   9    7.40    2.80
  -3   2  -9    4.60    2.60
  -3   2  -9   13.60    3.80
   4  -3   8    2.70    2.40
   1  -1  11    5.60    3.20
   1  -1  11    4.60    3.00
  -1   1 -11    3.60    3.10
  -1   1 -11    5.70    2.70
   2  -2  10   -3.60    2.50
  -2   2 -10    1.70    2.30
  -2   2 -10   -4.30    1.90
   6  10   7   -0.80    2.40
  -6 -10  -7    4.20    3.20
   7   9   6   17.50    3.90
  -7  -9  -6   19.90    4.00
  -7  -9  -6   10.60    4.10
  -8  -8  -5   25.30    5.10
   5  10   8   15.60    3.90
   5  10   8   17.40    3.90
   5  10   8    5.60    3.30
  -5 -10  -8   19.20    4.50
  -5 -10  -8   12.30    4.00
   6   9   7    1.30    2.30
   6   9   7   -1.30    2.20
   6   9   7    7.60    3.40
  -6  -9  -7    0.00    2.00
  -6  -9  -7    3.00    3.00
   7   8   6    4.10    2.20
   7   8   6    9.40    3.70
   7   8   6    2.20    2.40
  -7  -8  -6    5.10    3.20
  -7  -8  -6    2.00    2.40
   8   7   5    5.80    2.60
  -8  -7  -5    8.70    3.70
  -8  -7  -5    0.40    2.10
   4  10   9   -1.00    2.50
   4  10   9    1.30    2.30
   4  10   9    0.80    2.50
  -4 -10  -9   -3.20    2.70
  -4 -10  -9    4.60    3.20
   5   9   8   -2.80    2.50
   5   9   8    5.20    2.90
   5   9   8   -0.50    2.00
  -5  -9  -8    2.70    2.60
  -5  -9  -8   -2.00    2.50
   6   8   7   11.60    4.00
   6   8   7   10.80    3.70
   6   8   7    7.90    2.50
  -6  -8  -7    8.30    2.80
  -6  -8  -7   18.30    4.40
   7   7   6    3.00    2.00
   7   7   6    5.70    3.40
   7   7   6    4.10    2.10
  -7  -7  -6    5.50    2.40
  -7  -7  -6    0.50    2.80
   8   6   5   27.60    3.70
   8   6   5   21.40    4.90
   8   6   5   31.50    4.60
   8   6   5   22.00    5.50
  -8  -6  -5   28.70    5.60
  -8  -6  -5   28.70    4.60
   3  10  10   24.50    5.00
   3  10  10   12.30    4.30
  -3 -10 -10   18.00    4.60
   4   9   9   12.60    3.90
   4   9   9   10.50    3.00
   4   9   9    6.00    3.40
  -4  -9  -9   12.00    3.70
  -4  -9  -9   11.70    3.70
   5   8   8   14.60    3.00
   5   8   8   23.50    4.10
   5   8   8   40.10    6.10
  -5  -8  -8   38.10    5.70
  -5  -8  -8   21.40    4.30
   6   7   7   15.20    4.20
   6   7   7   17.20    3.30
   6   7   7   21.00    3.50
  -6  -7  -7   19.50    3.80
  -6  -7  -7   25.00    5.00
   7   6   6    2.80    1.90
   7   6   6    0.60    2.30
   7   6   6    6.30    2.00
   7   6   6   -1.50    2.50
  -7  -6  -6   -3.60    1.70
  -7  -6  -6    1.20    2.50
   8   5   5   15.20    4.30
   8   5   5   12.70    2.20
   8   5   5    7.30    2.70
   8   5   5    9.10    2.30
  -8  -5  -5   19.60    4.50
  -8  -5  -5    8.40    2.70
  -8  -5  -5    9.00    2.10
  -8  -5  -5    7.00    2.80
   3   9  10    2.80    2.00
   3   9  10    3.40    2.80
   3   9  10    4.90    3.10
  -3  -9 -10    7.30    3.80
  -3  -9 -10    5.40    3.30
   4   8   9   -0.90    2.10
   4   8   9    4.10    2.20
   4   8   9   -0.30    1.70
  -4  -8  -9   -1.70    2.40
  -4  -8  -9   -0.80    2.30
   5   7   8    0.80    1.80
   5   7   8    2.20    2.30
   5   7   8    1.50    1.60
  -5  -7  -8   -0.30    2.30
  -5  -7  -8    4.20    2.40
   6   6   7    7.80    2.30
   6   6   7    3.20    2.50
   6   6   7    4.80    2.00
   6   6   7    1.70    2.60
  -6  -6  -7    6.00    2.40
  -6  -6  -7    8.80    3.20
   7   5   6    2.20    1.70
   7   5   6   -3.40    2.10
   7   5   6   -0.70    1.30
   7   5   6    0.70    1.80
  -7  -5  -6    3.00    2.60
  -7  -5  -6   -0.50    1.90
  -7  -5  -6    0.40    1.00
   8   4   5   -3.70    2.80
   8   4   5    1.90    1.50
   8   4   5    1.50    1.40
   8   4   5    2.30    2.30
  -8  -4  -5    0.60    2.00
  -8  -4  -5    1.20    1.70
  -8  -4  -5    6.50    2.80
  -8  -4  -5    6.80    3.20
   2   9  11   11.30    3.30
   2   9  11    1.70    3.30
   3   8  10   23.00    4.20
   3   8  10   15.50    3.40
   3   8  10   16.00    4.00
  -3  -8 -10   18.50    4.40
   4   7   9    1.90    1.60
   4   7   9    2.10    2.40
   4   7   9    3.30    2.40
  -4  -7  -9    3.90    2.40
   5   6   8    2.00    2.80
   5   6   8    1.60    2.10
   5   6   8    0.00    1.70
   5   6   8   -2.20    1.30
  -5  -6  -8    1.40    1.90
   6   5   7    3.40    1.60
   6   5   7    3.40    1.70
   6   5   7    4.70    2.00
   6   5   7    2.80    2.50
  -6  -5  -7    0.70    2.40
  -6  -5  -7    4.70    2.30
   7   4   6    2.70    2.80
   7   4   6    4.40    1.90
   7   4   6    3.70    1.70
   7   4   6    1.60    1.70
  -7  -4  -6    6.20    1.60
  -7  -4  -6    8.70    2.90
  -7  -4  -6    6.50    2.00
  -7  -4  -6    2.50    2.80
   8   3   5    0.10    1.10
   8   3   5   -0.50    1.20
   8   3   5    0.40    2.70
  -8  -3  -5    0.30    1.80
  -8  -3  -5    2.90    2.80
  -8  -3  -5    1.50    2.00
  -8  -3  -5    1.50    2.70
   2   8  11    5.00    2.50
   2   8  11    4.20    3.10
   2   8  11    7.70    3.20
  -2  -8 -11    6.80    5.30
   3   7  10    2.50    2.30
   3   7  10   -1.30    2.00
   3   7  10    1.20    1.70
  -3  -7 -10   -0.50    2.30
   4   6   9   -0.80    1.90
   4   6   9    6.80    2.50
   4   6   9    3.60    1.60
  -4  -6  -9    3.00    2.30
   5   5   8   14.90    2.30
   5   5   8   15.60    3.40
   5   5   8   16.60    2.90
   5   5   8   16.80    3.70
  -5  -5  -8   18.40    3.80
   6   4   7    1.20    1.30
   6   4   7    1.90    2.10
   6   4   7    1.30    1.40
   6   4   7    1.30    1.70
  -6  -4  -7    0.70    2.00
  -6  -4  -7    0.80    0.80
  -6  -4  -7    0.10    1.30
   7   3   6    8.90    1.80
   7   3   6    8.80    2.20
   7   3   6    6.60    1.80
   7   3   6    5.50    3.30
  -7  -3  -6    8.70    2.10
  -7  -3  -6    6.40    3.10
  -7  -3  -6   10.50    3.10
  -7  -3  -6    8.50    2.10
   8   2   5   15.70    2.10
   8   2   5   22.30    4.80
   8   2   5   14.80    1.90
  -8  -2  -5   15.50    3.30
  -8  -2  -5   10.80    3.80
  -8  -2  -5   18.10    4.30
  -8  -2  -5   23.20    3.60
   2   7  11    9.80    3.60
   2   7  11   11.30    3.60
   2   7  11    8.50    2.60
  -2  -7 -11   10.30    3.50
   3   6  10    7.80    3.10
   3   6  10    7.40    2.80
   3   6  10    5.70    1.80
  -3  -6 -10    8.10    3.00
   4   5   9   17.90    2.10
   4   5   9   14.60    3.10
   4   5   9   20.10    4.10
  -4  -5  -9   12.80    3.50
   5   4   8   84.39    6.80
   5   4   8   80.39    5.60
   5   4   8   78.19    5.70
   5   4   8   80.79    4.50
  -5  -4  -8   81.89    4.50
  -5  -4  -8   72.69    6.70
   6   3   7   22.90    3.00
   6   3   7   20.50    4.40
   6   3   7   20.70    2.50
   6   3   7   28.90    3.40
  -6  -3  -7   20.70    2.30
  -6  -3  -7   26.90    4.50
  -6  -3  -7   21.80    2.40
   7   2   6    2.80    1.40
   7   2   6    3.90    1.60
   7   2   6    3.10    2.90
  -7  -2  -6    6.20    3.20
  -7  -2  -6   -0.70    2.20
  -7  -2  -6    6.80    2.40
  -7  -2  -6    1.30    1.50
   1   7  12    1.50    3.10
   1   7  12    4.80    2.90
   2   6  11    0.00    2.00
   2   6  11    0.40    2.20
  -2  -6 -11    1.30    2.50
   3   5  10   -1.40    1.80
   3   5  10    1.10    2.00
   3   5  10    0.20    0.90
  -3  -5 -10    0.70    2.00
   4   4   9    7.20    3.30
   4   4   9   11.90    3.20
   4   4   9    8.70    2.70
  -4  -4  -9    9.70    3.10
   5   3   8    3.80    2.20
   5   3   8    0.70    1.50
  -5  -3  -8    1.70    0.90
  -5  -3  -8    0.90    2.00
   6   2   7    1.00    1.80
   6   2   7    0.70    2.00
   6   2   7    0.60    1.40
  -6  -2  -7    1.30    2.00
  -6  -2  -7   -0.40    1.40
  -6  -2  -7    1.00    1.00
   7   1   6    2.00    1.60
   7   1   6    0.50    1.40
   7   1   6    2.20    2.70
  -7  -1  -6   -2.70    1.90
  -7  -1  -6    3.00    2.60
  -7  -1  -6    3.10    2.70
   1   6  12    4.00    2.90
   1   6  12    1.70    3.50
   2   5  11   21.70    4.40
   2   5  11   17.40    3.90
  -2  -5 -11   17.70    4.20
   3   4  10    8.20    2.60
   3   4  10    8.00    2.90
   4   3   9   26.60    3.90
   4   3   9   25.00    4.30
  -4  -3  -9   24.70    4.50
   5   2   8  113.29    8.50
   5   2   8  118.39    7.20
   5   2   8  114.09    7.00
  -5  -2  -8  108.29    8.40
  -5  -2  -8  116.39    6.70
   6   1   7   11.50    2.50
   6   1   7   11.10    3.40
   6   1   7   10.90    2.40
  -6  -1  -7   11.00    3.50
  -6  -1  -7    8.00    2.40
   7   0   6    1.70    3.80
   7   0   6    4.00    2.90
  -7   0  -6    4.20    2.70
  -7   0  -6    4.30    2.80
  -7   0  -6    0.60    2.50
   1   5  12   13.50    4.00
   1   5  12   13.10    3.90
  -1  -5 -12   10.70    3.80
   2   4  11   13.70    3.60
   2   4  11   17.00    4.00
  -2  -4 -11   17.90    4.00
   3   3  10    5.50    2.80
   3   3  10    4.10    2.40
  -3  -3 -10    6.50    2.70
  -3  -3 -10    3.80    1.00
   4   2   9   -2.00    2.00
   4   2   9   -2.50    1.50
  -4  -2  -9   -0.20    1.90
  -4  -2  -9    0.40    1.10
   5   1   8    2.00    1.80
   5   1   8    0.00    1.90
  -5  -1  -8   -0.30    1.60
  -5  -1  -8    2.70    2.30
   6   0   7    0.30    2.60
   6   0   7    0.90    1.70
  -6   0  -7    1.00    2.10
  -6   0  -7    1.30    2.40
   1   4  12   39.50    6.00
   1   4  12   30.00    5.40
  -1  -4 -12   41.70    6.10
   2   3  11    0.80    2.30
   2   3  11    4.20    2.20
  -2  -3 -11    2.10    2.80
   3   2  10    0.90    2.40
   3   2  10    0.80    1.90
  -3  -2 -10    1.20    1.10
  -3  -2 -10   -0.40    2.30
   4   1   9    0.40    1.90
   4   1   9   -0.10    2.40
  -4  -1  -9   -1.00    2.10
  -4  -1  -9    3.00    1.60
   5   0   8    0.50    1.70
   5   0   8   -0.20    2.10
  -5   0  -8    0.90    2.50
  -5   0  -8   -0.70    1.80
   6  -1   7   14.30    4.10
   6  -1   7    7.50    2.40
  -6   1  -7   12.60    3.80
  -6   1  -7   16.90    3.80
   1   3  12    3.40    3.00
  -1  -3 -12    5.50    3.20
   2   2  11    1.60    2.30
   2   2  11    2.00    2.40
  -2  -2 -11    2.70    2.40
  -2  -2 -11    2.70    1.50
   3   1  10   -0.60    1.90
   3   1  10    2.70    2.60
  -3  -1 -10    1.60    2.70
  -3  -1 -10    2.60    1.40
   4   0   9    0.20    2.40
   4   0   9    0.20    2.10
  -4   0  -9   -1.20    2.10
  -4   0  -9   -1.30    1.70
   5  -1   8    2.20    2.60
  -5   1  -8    1.40    2.60
  -5   1  -8    0.10    2.30
   1   2  12    8.50    3.40
   1   2  12    7.80    3.10
  -1  -2 -12    4.40    3.40
   2   1  11    3.90    2.90
   2   1  11   -0.40    2.20
  -2  -1 -11    2.60    1.70
  -2  -1 -11    4.70    3.00
   3   0  10    2.10    2.40
   3   0  10    2.50    2.50
  -3   0 -10   -1.10    2.30
  -3   0 -10   -1.10    1.60
   4  -1   9    0.50    2.80
   4  -1   9   -2.70    1.90
  -4   1  -9   -2.10    2.00
   2   0  11    8.20    3.60
   2   0  11    7.80    3.30
  -2   0 -11    8.00    2.50
  -2   0 -11    9.70    3.60
   3  -1  10    1.40    2.90
  -3   1 -10    5.90    2.50
   6   9   8    5.50    2.70
  -6  -9  -8    2.60    2.90
   7   8   7   10.50    3.10
   7   8   7    8.60    3.10
   7   8   7   11.70    4.30
  -7  -8  -7   13.20    4.40
  -7  -8  -7   15.40    4.10
   5   9   9    2.40    2.90
   5   9   9   -3.50    2.70
   5   9   9    0.20    2.30
  -5  -9  -9   -3.10    2.50
  -5  -9  -9    0.60    2.80
   6   8   8    0.90    3.00
   6   8   8    3.30    2.40
  -6  -8  -8    2.20    3.10
  -6  -8  -8   -1.60    2.30
   7   7   7   16.50    3.80
   7   7   7   19.00    5.20
   7   7   7   19.30    4.10
  -7  -7  -7   20.00    4.10
  -7  -7  -7   24.20    5.80
   8   6   6    6.00    3.80
   8   6   6   11.10    2.80
   8   6   6    7.20    2.30
  -8  -6  -6    8.90    3.30
  -8  -6  -6    8.90    4.00
   4   9  10    5.10    3.30
   4   9  10    5.10    3.50
   4   9  10    4.20    2.60
  -4  -9 -10    0.40    2.80
  -4  -9 -10    3.00    3.10
   5   8   9   13.50    4.10
   5   8   9   16.80    3.30
   5   8   9   16.60    4.00
  -5  -8  -9   17.90    4.50
  -5  -8  -9   15.70    4.30
   6   7   8    2.80    3.00
   6   7   8    2.10    2.00
   6   7   8    2.90    2.20
  -6  -7  -8    7.10    3.30
  -6  -7  -8    3.10    2.60
   7   6   7    0.60    1.70
   7   6   7   -1.00    2.80
   7   6   7    2.80    2.10
  -7  -6  -7    1.00    2.80
  -7  -6  -7    1.20    2.60
   8   5   6    1.90    2.10
   8   5   6    0.00    3.30
   8   5   6    4.60    2.90
  -8  -5  -6    5.20    2.90
  -8  -5  -6    6.70    2.30
  -8  -5  -6    5.40    3.90
   4   8  10    2.80    2.90
   4   8  10    2.40    2.80
   4   8  10    2.50    2.10
  -4  -8 -10    2.40    2.70
   5   7   9    0.80    2.30
   5   7   9    7.30    2.90
   5   7   9    3.40    1.90
  -5  -7  -9    6.00    2.80
   6   6   8   -0.60    1.80
   6   6   8    2.10    1.70
   6   6   8    0.60    2.50
  -6  -6  -8    1.60    2.80
  -6  -6  -8   -1.30    2.10
   7   5   7    1.40    1.80
   7   5   7   -2.50    2.70
   7   5   7    3.00    2.00
   7   5   7    5.50    3.40
  -7  -5  -7    3.80    2.70
  -7  -5  -7   -1.50    1.60
  -7  -5  -7    3.90    3.00
   8   4   6   29.00    4.10
   8   4   6   33.00    3.60
  -8  -4  -6   37.60    9.80
  -8  -4  -6   28.50    5.20
  -8  -4  -6   40.80    4.20
   3   8  11   -1.10    2.70
   3   8  11    3.60    2.50
   3   8  11    5.00    3.60
  -3  -8 -11   -2.40    2.40
   4   7  10    0.90    1.60
   4   7  10    0.20    2.40
   4   7  10   -1.30    2.30
  -4  -7 -10    3.30    2.70
   5   6   9   -4.70    1.60
   5   6   9    4.30    2.80
  -5  -6  -9   -0.10    2.50
   6   5   8    1.90    2.60
   6   5   8   -0.10    1.50
  -6  -5  -8    0.30    2.00
   7   4   7   13.20    2.80
   7   4   7   11.10    2.50
   7   4   7   13.80    3.90
   7   4   7   15.10    2.70
  -7  -4  -7    6.50    3.10
  -7  -4  -7   12.00    3.90
  -7  -4  -7   10.20    2.30
   3   7  11   26.40    3.70
   3   7  11   21.70    4.90
   3   7  11   15.70    4.20
  -3  -7 -11   17.20    4.60
   4   6  10   14.60    3.80
   4   6  10   17.20    3.80
   4   6  10   20.50    2.70
  -4  -6 -10   19.00    4.30
   5   5   9    1.10    1.20
   5   5   9   -1.00    2.20
   5   5   9    2.10    2.10
  -5  -5  -9    1.70    2.40
   6   4   8    5.10    3.10
   6   4   8    6.60    2.10
   6   4   8    6.10    1.70
  -6  -4  -8    2.50    2.60
   7   3   7   17.90    4.50
   7   3   7   17.40    3.00
   7   3   7   16.50    2.60
  -7  -3  -7    9.90    3.40
  -7  -3  -7   27.10    5.00
   3   6  11   -2.60    2.30
   3   6  11   -1.80    2.40
  -3  -6 -11    3.00    2.90
   4   5  10   15.70    3.50
   4   5  10   13.10    4.00
  -4  -5 -10   13.60    3.80
   5   4   9   -0.90    2.20
   5   4   9    2.20    1.90
  -5  -4  -9    0.90    2.20
   6   3   8   22.80    3.50
   6   3   8   29.10    5.30
  -6  -3  -8   28.30    5.00
   7   2   7   -2.30    2.60
   7   2   7   -2.70    2.60
  -7  -2  -7    0.80    1.90
  -7  -2  -7   -0.70    3.00
  -7  -2  -7    1.10    2.50
   2   6  12    2.50    2.90
   2   6  12   -1.30    2.90
  -2  -6 -12   -0.60    3.00
   3   5  11   14.50    4.10
   3   5  11   15.40    4.00
  -3  -5 -11   14.20    3.80
   4   4  10   12.30    3.50
   4   4  10   13.00    3.20
  -4  -4 -10   13.80    3.80
   5   3   9    1.30    2.00
   5   3   9    2.10    2.90
  -5  -3  -9    0.60    2.50
   6   2   8    0.60    2.30
   6   2   8   -0.50    1.60
  -6  -2  -8    2.50    2.70
  -6  -2  -8   -0.80    1.50
   7   1   7    7.50    2.10
   2   5  12    9.00    3.60
   2   5  12    8.90    4.00
  -2  -5 -12    4.50    4.00
   3   4  11    3.30    2.50
   3   4  11    1.30    2.20
  -3  -4 -11    3.00    2.90
   4   3  10   14.10    3.70
   4   3  10    7.40    2.80
  -4  -3 -10    9.40    3.30
   5   2   9   -0.40    2.30
   5   2   9   -0.40    1.60
  -5  -2  -9    4.70    2.30
  -5  -2  -9    8.10    3.20
   6   1   8    0.20    2.50
  -6  -1  -8    5.30    4.30
  -6  -1  -8    0.70    2.10
   2   4  12    2.50    3.20
   2   4  12    2.70    2.90
   3   3  11    3.30    2.80
   3   3  11    5.50    2.80
  -3  -3 -11    1.70    2.70
   4   2  10    1.50    2.30
   4   2  10    0.50    2.30
  -4  -2 -10    2.30    2.70
   5   1   9   16.60    4.10
   5   1   9    9.50    3.10
  -5  -1  -9   14.50    2.80
  -5  -1  -9   12.90    4.40
   2   3  12   -1.70    2.30
   2   3  12    3.50    2.80
  -2  -3 -12    3.30    5.50
   3   2  11   15.90    4.00
  -3  -2 -11   21.10    4.50
   4   1  10   -0.30    2.40
   4   1  10    1.10    2.10
  -4  -1 -10    2.00    3.90
  -4  -1 -10    3.40    1.80
   5   0   9    3.30    2.80
   5   0   9    0.30    2.10
  -5   0  -9    0.30    2.70
  -5   0  -9   10.30    3.00
   3   1  11    6.00    2.90
   3   1  11    7.30    3.50
  -3  -1 -11    5.70    3.40
   4   0  10   -3.20    1.80
   4   0  10    1.60    2.90
   6   8   9   15.20    4.00
   6   8   9   10.90    3.10
   6   8   9   20.10    5.40
  -6  -8  -9   21.70    5.70
  -6  -8  -9   21.40    5.30
   7   7   8    5.60    3.70
   7   7   8    4.80    2.50
  -7  -7  -8    0.60    2.90
  -7  -7  -8    5.70    3.10
   5   8  10    2.00    2.90
   5   8  10    4.20    2.70
  -5  -8 -10    1.10    3.00
  -5  -8 -10    4.40    3.20
   6   7   9    0.70    3.10
   6   7   9    0.10    2.20
  -6  -7  -9    2.00    2.60
  -6  -7  -9   -1.10    4.40
   7   6   8   12.50    2.90
   7   6   8    9.70    2.80
   7   6   8    5.80    3.60
  -7  -6  -8   13.50    4.40
  -7  -6  -8   12.80    4.20
   5   7  10   -1.10    2.40
  -6  -6  -9    3.20    3.10
   7   5   8   22.10    3.50
   7   5   8   18.30    4.60
  -7  -5  -8   18.40    4.50
  -7  -5  -8   11.70    4.40
   4   7  11   -1.00    2.40
  -4  -7 -11    3.70    3.20
   5   6  10    2.20    3.20
   5   6  10   -0.40    2.30
  -5  -6 -10   -1.10    2.40
   6   5   9    5.90    3.70
  -6  -5  -9    7.90    3.30
   7   4   8    1.10    1.90
   7   4   8    3.50    3.20
  -7  -4  -8    7.10    3.50
   4   6  11    2.60    2.70
  -4  -6 -11    5.00    3.10
   5   5  10   -0.40    2.40
   5   5  10    4.80    2.60
  -5  -5 -10   -1.60    2.60
   6   4   9    9.20    5.80
  -6  -4  -9   13.40    4.40
   4   5  11    5.80    2.70
  -4  -5 -11    3.80    3.20
   5   4  10   36.20    5.60
  -5  -4 -10   26.20    6.20
   6   3   9    6.30    2.50
  -6  -3  -9    5.50    3.20
   4   4  11    8.00    3.20
   4   4  11    7.60    3.00
  -4  -4 -11    1.20    3.10
   5   3  10    5.40    5.80
  -5  -3 -10    5.80    3.40
   6   2   9    6.70    2.60
   4   3  11    8.30    3.80
  -4  -3 -11    9.00    3.70
   5   2  10   14.50    4.20
   5   2  10   12.70    3.20
  -5  -2 -10   13.50    4.10
   0   0   0    0.00    0.00

_computing_structure_solution     'SHELXT 2018/2 (Sheldrick, 2018)'
;
_shelx_hkl_checksum              53098
loop_
_space_group_symop_operation_xyz
'x, y, z'
'-x, -y, -z'
loop_
_atom_site_label
_atom_site_type_symbol
_atom_site_fract_x
_atom_site_fract_y
_atom_site_fract_z
_atom_site_U_iso_or_equiv
_atom_site_adp_type
_atom_site_occupancy
_atom_site_site_symmetry_order
_atom_site_calc_flag
_atom_site_refinement_flags_posn
_atom_site_refinement_flags_adp
_atom_site_refinement_flags_occupancy
_atom_site_disorder_assembly
_atom_site_disorder_group
C1 C 0.2204(2) 0.02157(16) 0.61760(15) 0.0349(3) Uani 1 1 d . . . . .
C2 C 0.3879(2) 0.06146(16) 0.66562(16) 0.0339(3) Uani 1 1 d . . . . .
C3 C 0.5245(2) -0.00202(18) 0.79570(17) 0.0434(4) Uani 1 1 d . . . . .
H3 H 0.519961 -0.094865 0.875668 0.052 Uiso 1 1 calc R U . . .
C4 C 0.6646(2) 0.0772(2) 0.80102(19) 0.0490(4) Uani 1 1 d . . . . .
H4 H 0.755911 0.037840 0.886323 0.059 Uiso 1 1 calc R U . . .
C5 C 0.6728(2) 0.2166(2) 0.6802(2) 0.0468(4) Uani 1 1 d . . . . .
H5 H 0.770607 0.266712 0.687355 0.056 Uiso 1 1 calc R U . . .
C6 C 0.5418(2) 0.28130(18) 0.55217(18) 0.0405(3) Uani 1 1 d . . . . .
H6 H 0.548172 0.373974 0.472773 0.049 Uiso 1 1 calc R U . . .
C7 C 0.3974(2) 0.20133(16) 0.54635(15) 0.0331(3) Uani 1 1 d . . . . .
C8 C 0.1710(2) 0.38125(16) 0.30941(15) 0.0340(3) Uani 1 1 d . . . . .
C9 C -0.0371(2) 0.47121(19) 0.29050(18) 0.0465(4) Uani 1 1 d . . . . .
H9 H -0.129585 0.437187 0.361386 0.056 Uiso 1 1 calc R U . . .
C10 C -0.1070(3) 0.6122(2) 0.1654(2) 0.0574(5) Uani 1 1 d . . . . .
H10 H -0.247016 0.672620 0.151802 0.069 Uiso 1 1 calc R U . . .
C11 C 0.0298(3) 0.6635(2) 0.06100(19) 0.0564(5) Uani 1 1 d . . . . .
H11 H -0.017631 0.757829 -0.023365 0.068 Uiso 1 1 calc R U . . .
C12 C 0.2368(3) 0.5747(2) 0.08195(18) 0.0527(4) Uani 1 1 d . . . . .
H12 H 0.329371 0.610728 0.012297 0.063 Uiso 1 1 calc R U . . .
C13 C 0.3093(2) 0.43257(18) 0.20520(17) 0.0420(3) Uani 1 1 d . . . . .
H13 H 0.449357 0.372224 0.217873 0.050 Uiso 1 1 calc R U . . .
N1 N 0.13324(17) 0.12638(14) 0.48492(13) 0.0363(3) Uani 1 1 d . . . . .
N2 N 0.24482(17) 0.23690(14) 0.43820(13) 0.0358(3) Uani 1 1 d . . . . .
O1 O 0.16032(17) -0.10786(13) 0.69579(12) 0.0467(3) Uani 1 1 d . . . . .
H1 H 0.067604 -0.112821 0.646073 0.070 Uiso 1 1 calc R U . . .
loop_
_atom_site_aniso_label
_atom_site_aniso_U_11
_atom_site_aniso_U_22
_atom_site_aniso_U_33
_atom_site_aniso_U_23
_atom_site_aniso_U_13
_atom_site_aniso_U_12
C1 0.0357(7) 0.0310(7) 0.0341(7) -0.0054(6) 0.0035(5) -0.0114(5)
C2 0.0350(7) 0.0299(6) 0.0349(7) -0.0102(5) 0.0020(5) -0.0081(5)
C3 0.0486(8) 0.0354(8) 0.0390(8) -0.0079(6) -0.0053(6) -0.0068(6)
C4 0.0459(8) 0.0476(9) 0.0507(9) -0.0194(8) -0.0130(7) -0.0050(7)
C5 0.0396(8) 0.0494(9) 0.0599(10) -0.0268(8) -0.0016(7) -0.0154(7)
C6 0.0397(7) 0.0362(7) 0.0480(8) -0.0148(6) 0.0049(6) -0.0148(6)
C7 0.0323(6) 0.0308(7) 0.0356(7) -0.0117(5) 0.0028(5) -0.0087(5)
C8 0.0400(7) 0.0288(6) 0.0319(7) -0.0067(5) 0.0004(5) -0.0126(6)
C9 0.0420(8) 0.0447(9) 0.0453(8) -0.0077(7) 0.0034(6) -0.0113(7)
C10 0.0522(10) 0.0449(9) 0.0589(11) -0.0089(8) -0.0096(8) 0.0000(8)
C11 0.0817(13) 0.0341(8) 0.0408(9) -0.0008(7) -0.0071(8) -0.0120(8)
C12 0.0723(11) 0.0428(9) 0.0392(8) -0.0061(7) 0.0129(8) -0.0227(8)
C13 0.0441(8) 0.0377(8) 0.0408(8) -0.0089(6) 0.0078(6) -0.0137(6)
N1 0.0355(6) 0.0335(6) 0.0378(6) -0.0039(5) 0.0011(5) -0.0166(5)
N2 0.0359(6) 0.0321(6) 0.0368(6) -0.0030(5) -0.0010(5) -0.0160(5)
O1 0.0515(6) 0.0421(6) 0.0413(6) 0.0033(5) -0.0052(5) -0.0253(5)
loop_
_atom_type_symbol
_atom_type_description
_atom_type_scat_dispersion_real
_atom_type_scat_dispersion_imag
_atom_type_scat_source
C C 0.0033 0.0016 'International Tables Vol C Tables 4.2.6.8 and 6.1.1.4'
H H 0.0000 0.0000 'International Tables Vol C Tables 4.2.6.8 and 6.1.1.4'
N N 0.0061 0.0033 'International Tables Vol C Tables 4.2.6.8 and 6.1.1.4'
O O 0.0106 0.0060 'International Tables Vol C Tables 4.2.6.8 and 6.1.1.4'
loop_
_geom_angle_atom_site_label_1
_geom_angle_atom_site_label_2
_geom_angle_atom_site_label_3
_geom_angle
_geom_angle_site_symmetry_1
_geom_angle_site_symmetry_3
_geom_angle_publ_flag
N1 C1 O1 123.56(13) . . ?
N1 C1 C2 111.87(12) . . ?
O1 C1 C2 124.56(12) . . ?
C7 C2 C3 120.14(13) . . ?
C7 C2 C1 104.14(12) . . ?
C3 C2 C1 135.69(13) . . ?
C4 C3 C2 117.90(14) . . ?
C4 C3 H3 121.1 . . ?
C2 C3 H3 121.1 . . ?
C3 C4 C5 121.20(14) . . ?
C3 C4 H4 119.4 . . ?
C5 C4 H4 119.4 . . ?
C6 C5 C4 122.24(14) . . ?
C6 C5 H5 118.9 . . ?
C4 C5 H5 118.9 . . ?
C5 C6 C7 116.84(14) . . ?
C5 C6 H6 121.6 . . ?
C7 C6 H6 121.6 . . ?
N2 C7 C2 107.32(12) . . ?
N2 C7 C6 130.99(13) . . ?
C2 C7 C6 121.67(13) . . ?
C13 C8 C9 120.35(14) . . ?
C13 C8 N2 119.58(13) . . ?
C9 C8 N2 120.05(13) . . ?
C8 C9 C10 119.57(15) . . ?
C8 C9 H9 120.2 . . ?
C10 C9 H9 120.2 . . ?
C11 C10 C9 120.31(16) . . ?
C11 C10 H10 119.8 . . ?
C9 C10 H10 119.8 . . ?
C12 C11 C10 119.72(15) . . ?
C12 C11 H11 120.1 . . ?
C10 C11 H11 120.1 . . ?
C11 C12 C13 120.89(16) . . ?
C11 C12 H12 119.6 . . ?
C13 C12 H12 119.6 . . ?
C12 C13 C8 119.15(15) . . ?
C12 C13 H13 120.4 . . ?
C8 C13 H13 120.4 . . ?
C1 N1 N2 106.10(11) . . ?
C7 N2 N1 110.54(11) . . ?
C7 N2 C8 127.98(12) . . ?
N1 N2 C8 120.27(11) . . ?
C1 O1 H1 109.5 . . ?
loop_
_geom_bond_atom_site_label_1
_geom_bond_atom_site_label_2
_geom_bond_distance
_geom_bond_site_symmetry_2
_geom_bond_publ_flag
C1 N1 1.3136(18) . ?
C1 O1 1.3349(16) . ?
C1 C2 1.427(2) . ?
C2 C7 1.4008(19) . ?
C2 C3 1.405(2) . ?
C3 C4 1.371(2) . ?
C3 H3 0.9300 . ?
C4 C5 1.402(2) . ?
C4 H4 0.9300 . ?
C5 C6 1.368(2) . ?
C5 H5 0.9300 . ?
C6 C7 1.401(2) . ?
C6 H6 0.9300 . ?
C7 N2 1.3673(18) . ?
C8 C13 1.383(2) . ?
C8 C9 1.383(2) . ?
C8 N2 1.4222(17) . ?
C9 C10 1.384(2) . ?
C9 H9 0.9300 . ?
C10 C11 1.376(3) . ?
C10 H10 0.9300 . ?
C11 C12 1.373(3) . ?
C11 H11 0.9300 . ?
C12 C13 1.382(2) . ?
C12 H12 0.9300 . ?
C13 H13 0.9300 . ?
N1 N2 1.3859(16) . ?
O1 H1 0.8200 . ?
