#------------------------------------------------------------------------------
#$Date: 2021-11-06 20:57:30 +0200 (Sat, 06 Nov 2021) $
#$Revision: 270394 $
#$URL: file:///home/coder/svn-repositories/cod/cif/7/12/91/7129135.cif $
#------------------------------------------------------------------------------
#
# This file is available in the Crystallography Open Database (COD),
# http://www.crystallography.net/
#
# All data on this site have been placed in the public domain by the
# contributors.
#
data_7129135
loop_
_publ_author_name
'Huang, Qian-Ming'
'Hu, Chun-Li'
'Yang, Bing-Ping'
'Fang, Zhi'
'Huang, Yu'
'Mao, Jiang-Gao'
_publ_section_title
;
 Ba<sub>2</sub>[FeF<sub>4</sub>(IO<sub>3</sub>)<sub>2</sub>]IO<sub>3</sub>:
 a promising nonlinear optical material achieved by
 chemical-tailoring-induced structure evolution.
;
_journal_issue                   87
_journal_name_full
'Chemical communications (Cambridge, England)'
_journal_page_first              11525
_journal_page_last               11528
_journal_paper_doi               10.1039/d1cc04462a
_journal_volume                  57
_journal_year                    2021
_chemical_formula_moiety         'Ba F4 Fe I O3'
_chemical_formula_sum            'Ba F4 Fe I O3'
_chemical_formula_weight         444.09
_space_group_crystal_system      monoclinic
_space_group_IT_number           14
_space_group_name_Hall           '-P 2ybc'
_space_group_name_H-M_alt        'P 1 21/c 1'
_atom_sites_solution_primary     dual
_audit_creation_date             2020-12-08
_audit_creation_method
;
Olex2 1.2
(compiled 2018.05.29 svn.r3508 for OlexSys, GUI svn.r5506)
;
_audit_update_record
;
2021-04-06 deposited with the CCDC.	2021-10-12 downloaded from the CCDC.
;
_cell_angle_alpha                90
_cell_angle_beta                 110.158(13)
_cell_angle_gamma                90
_cell_formula_units_Z            4
_cell_length_a                   10.7066(13)
_cell_length_b                   7.5896(8)
_cell_length_c                   7.8261(8)
_cell_measurement_reflns_used    1196
_cell_measurement_temperature    100.00(11)
_cell_measurement_theta_max      29.5690
_cell_measurement_theta_min      3.8310
_cell_volume                     596.99(12)
_computing_cell_refinement       'CrysAlisPro 1.171.39.9f (Rigaku OD, 2015)'
_computing_data_collection       'CrysAlisPro 1.171.39.9f (Rigaku OD, 2015)'
_computing_data_reduction        'CrysAlisPro 1.171.39.9f (Rigaku OD, 2015)'
_computing_molecular_graphics    'Olex2 (Dolomanov et al., 2009)'
_computing_publication_material  'Olex2 (Dolomanov et al., 2009)'
_computing_structure_refinement  'ShelXL (Sheldrick, 2015)'
_computing_structure_solution    'ShelXT (Sheldrick, 2015)'
_diffrn_ambient_environment      N~2~
_diffrn_ambient_temperature      100.00(11)
_diffrn_detector                 'CCD plate'
_diffrn_detector_area_resol_mean 10.3468
_diffrn_detector_type            Atlas
_diffrn_measured_fraction_theta_full 1.000
_diffrn_measured_fraction_theta_max 0.898
_diffrn_measurement_details
;
List of Runs (angles in degrees, time in seconds):

  # Type    Start    End  Width  t~exp~   \w     \q     \k     \f   Frames
#--------------------------------------------------------------------------
  1  \w    -65.00  50.00   1.00    6.67    --   16.28 -38.00-120.00  115
  2  \w    -18.00  96.00   1.00    6.67    --   16.28  57.00  30.00  114
  3  \w    -16.00  11.00   1.00    6.67    --  -16.90 -77.00 150.00   27
;
_diffrn_measurement_device       'four-circle diffractometer'
_diffrn_measurement_device_type  'SuperNova, Dual, Cu at home/near, Atlas'
_diffrn_measurement_method       '\w scans'
_diffrn_orient_matrix_type
'CrysAlisPro convention (1999,Acta A55,543-557)'
_diffrn_orient_matrix_UB_11      0.0047322000
_diffrn_orient_matrix_UB_12      -0.0375808000
_diffrn_orient_matrix_UB_13      -0.0805842000
_diffrn_orient_matrix_UB_21      -0.0048397000
_diffrn_orient_matrix_UB_22      0.0853103000
_diffrn_orient_matrix_UB_23      -0.0388099000
_diffrn_orient_matrix_UB_31      0.0702028000
_diffrn_orient_matrix_UB_32      0.0083274000
_diffrn_orient_matrix_UB_33      0.0359355000
_diffrn_radiation_monochromator  mirror
_diffrn_radiation_probe          x-ray
_diffrn_radiation_type           MoK\a
_diffrn_radiation_wavelength     0.71073
_diffrn_reflns_av_R_equivalents  0.0482
_diffrn_reflns_av_unetI/netI     0.0697
_diffrn_reflns_Laue_measured_fraction_full 1.000
_diffrn_reflns_Laue_measured_fraction_max 0.898
_diffrn_reflns_limit_h_max       13
_diffrn_reflns_limit_h_min       -14
_diffrn_reflns_limit_k_max       10
_diffrn_reflns_limit_k_min       -10
_diffrn_reflns_limit_l_max       10
_diffrn_reflns_limit_l_min       -9
_diffrn_reflns_number            3574
_diffrn_reflns_point_group_measured_fraction_full 1.000
_diffrn_reflns_point_group_measured_fraction_max 0.898
_diffrn_reflns_theta_full        25.242
_diffrn_reflns_theta_max         29.617
_diffrn_reflns_theta_min         2.026
_diffrn_source                   'micro-focus sealed X-ray tube'
_diffrn_source_type              'SuperNova (Mo) X-ray Source'
_exptl_absorpt_coefficient_mu    14.187
_exptl_absorpt_correction_T_max  0.976
_exptl_absorpt_correction_T_min  0.811
_exptl_absorpt_correction_type   gaussian
_exptl_absorpt_process_details
;
CrysAlisPro 1.171.39.9f (Rigaku Oxford Diffraction, 2015)
Numerical absorption correction based on gaussian integration over
			a multifaceted crystal model
Empirical absorption correction using spherical harmonics,
 implemented in SCALE3 ABSPACK scaling algorithm.
;
_exptl_crystal_colour            violet
_exptl_crystal_colour_primary    violet
_exptl_crystal_density_diffrn    4.941
_exptl_crystal_description       plate
_exptl_crystal_F_000             780
_exptl_crystal_size_max          0.096
_exptl_crystal_size_mid          0.048
_exptl_crystal_size_min          0.04
_refine_diff_density_max         1.728
_refine_diff_density_min         -1.639
_refine_diff_density_rms         0.407
_refine_ls_extinction_method     none
_refine_ls_goodness_of_fit_ref   1.035
_refine_ls_hydrogen_treatment    undef
_refine_ls_matrix_type           full
_refine_ls_number_parameters     91
_refine_ls_number_reflns         1508
_refine_ls_number_restraints     0
_refine_ls_restrained_S_all      1.035
_refine_ls_R_factor_all          0.0511
_refine_ls_R_factor_gt           0.0380
_refine_ls_shift/su_max          0.000
_refine_ls_shift/su_mean         0.000
_refine_ls_structure_factor_coef Fsqd
_refine_ls_weighting_details
'w=1/[\s^2^(Fo^2^)+(0.0261P)^2^] where P=(Fo^2^+2Fc^2^)/3'
_refine_ls_weighting_scheme      calc
_refine_ls_wR_factor_gt          0.0727
_refine_ls_wR_factor_ref         0.0813
_reflns_Friedel_coverage         0.000
_reflns_number_gt                1245
_reflns_number_total             1508
_reflns_threshold_expression     'I > 2\s(I)'
_cod_data_source_file            d1cc04462a2.cif
_cod_data_source_block           feviolet
_cod_depositor_comments
'Adding full bibliography for 7129135--7129136.cif.'
_cod_database_code               7129135
_shelx_shelxl_version_number     2014/7
_chemical_oxdiff_formula         'Ba Fe I O F'
_shelx_space_group_comment
;
The symmetry employed for this shelxl refinement is uniquely defined
by the following loop, which should always be used as a source of
symmetry information in preference to the above space-group names.
They are only intended as comments.
;
_shelx_estimated_absorpt_t_max   0.601
_shelx_estimated_absorpt_t_min   0.343
_reflns_odcompleteness_completeness 100.00
_reflns_odcompleteness_iscentric 1
_reflns_odcompleteness_theta     27.04
_olex2_refinement_description
;
;
_shelx_res_file
;
    feviolet.res created by SHELXL-2014/7

TITL feviolet_a.res in P2(1)/c
REM Old TITL Feviolet in P2(1)/c
REM SHELXT solution in P2(1)/c
REM R1 0.056, Rweak 0.002, Alpha 0.019, Orientation as input
REM Formula found by SHELXT: F7 Fe I2
CELL 0.71073 10.7066 7.5896 7.8261 90 110.158 90
ZERR 4 0.0013 0.0008 0.0008 0 0.013 0
LATT 1
SYMM -X,0.5+Y,0.5-Z
SFAC Ba F Fe I O
UNIT 4 16 4 4 12

L.S. 40
PLAN  2
SIZE 0.04 0.048 0.096
list 4
fmap 2 53
acta
REM <olex2.extras>
REM <HklSrc "%.\\Feviolet.hkl">
REM </olex2.extras>

WGHT    0.026100
FVAR       0.26245
BA1   1    0.886871    1.066847    0.701099    11.00000    0.01102    0.00985 =
         0.00633   -0.00009    0.00377    0.00034
I1    4    0.549654    0.816027    0.391485    11.00000    0.01084    0.01016 =
         0.00597    0.00033    0.00365   -0.00012
FE1   3    0.764978    0.513314    0.673135    11.00000    0.00974    0.00959 =
         0.00663    0.00055    0.00375   -0.00029
F1    2    0.873383    0.440742    0.533319    11.00000    0.01988    0.01460 =
         0.01008   -0.00298    0.00681   -0.00010
F2    2    0.678151    0.286114    0.622653    11.00000    0.01062    0.01312 =
         0.01346    0.00173    0.00246   -0.00026
F3    2    0.905866    0.392822    0.867106    11.00000    0.01179    0.01489 =
         0.00571    0.00027    0.00521    0.00137
F4    2    0.869761    0.722827    0.727956    11.00000    0.01283    0.01138 =
         0.01095    0.00115    0.00440   -0.00464
O1    5    0.573161    0.886087    0.619794    11.00000    0.01825    0.01123 =
         0.00494    0.00200    0.00281    0.00305
O2    5    0.693141    0.932686    0.373052    11.00000    0.01351    0.00689 =
         0.01255   -0.00203    0.00601   -0.00392
O3    5    0.617510    0.600327    0.464352    11.00000    0.01741    0.00866 =
         0.01001    0.00442    0.00670    0.00277
HKLF 4

REM  feviolet_a.res in P2(1)/c
REM R1 =  0.0380 for    1245 Fo > 4sig(Fo)  and  0.0511 for all    1508 data
REM     91 parameters refined using      0 restraints

END

WGHT      0.0261      0.0000

REM Highest difference peak  1.728,  deepest hole -1.639,  1-sigma level  0.407
Q1    1   0.7625  0.3665  0.6731  11.00000  0.05    1.73
Q2    1   0.4750  0.7980  0.2521  11.00000  0.05    1.71
;
_shelx_res_checksum              66143
_shelx_hkl_file
;
  -1   0   0   28.11    4.34
  -2   0   0  375.22   21.42
   2   0   0  449.45   22.65
  -2   0   0  451.28   25.70
  -3   0   0 3185.76   97.45
   3   0   0 3029.50   99.80
  -3   0   0 3346.99  106.37
  -4   0   0 1289.45   57.69
  -4   0   0 1347.40   65.24
   4   0   0 1409.36   61.56
   5   0   0 2047.17   88.07
  -5   0   0 2009.39   91.25
  -5   0   0 2029.95   81.19
  -6   0   0 1645.88   85.79
   6   0   0 1731.93   83.56
  -6   0   0 1582.77   75.19
   7   0   0  646.86   53.12
  -7   0   0  651.25   46.24
  -7   0   0  656.52   55.15
  -8   0   0  166.69   23.45
  -8   0   0  168.52   28.42
   8   0   0  170.23   29.05
   9   0   0 4555.50  190.20
  -9   0   0 4763.71  189.79
 -10   0   0   70.77   11.62
 -10   0   0   67.87   19.15
 -11   0   0   73.34   12.97
 -11   0   0   92.57   23.69
 -12   0   0  676.89   65.27
 -12   0   0  638.56   42.49
 -13   0   0   -1.23    3.10
   0   1   0    1.69    2.24
   0  -1   0    0.77    1.72
   1  -1   0   14.44    5.06
   2   1   0 2288.73   65.56
   2  -1   0 2377.91   82.05
   2   1   0 2372.08   64.68
  -2   1   0 2323.02   81.14
  -2  -1   0 2308.97   62.03
  -2  -1   0 2462.39   64.18
   3  -1   0  430.93   32.15
  -3  -1   0  430.67   19.58
   3   1   0  433.93   25.60
  -3  -1   0  393.25   20.27
  -3   1   0  402.47   30.49
  -3  -1   0  395.78   21.28
  -4  -1   0 2841.90   90.14
   4  -1   0 2925.43  108.26
  -4   1   0 2615.71  115.11
  -4  -1   0 2863.68   80.59
  -4  -1   0 2647.70   83.53
  -4   1   0 2868.28  105.48
  -5   1   0 1765.64   94.12
  -5  -1   0 1850.78   73.35
   5  -1   0 1801.68   86.91
  -5   1   0 1694.62   82.46
  -5  -1   0 1803.31   65.60
  -5  -1   0 1838.23   59.68
  -6   1   0  256.09   34.68
  -6  -1   0  241.61   17.94
   6  -1   0  248.66   32.54
  -6  -1   0  241.47   21.56
  -6  -1   0  249.61   25.76
  -6   1   0  218.86   27.76
  -7   1   0 1041.85   77.56
  -7  -1   0  979.66   43.68
   7  -1   0 1030.29   72.57
  -7  -1   0 1040.77   60.22
  -7  -1   0  980.35   50.23
  -8   1   0   13.26   12.60
  -8  -1   0   10.45    5.05
  -8  -1   0    6.36    3.14
   8  -1   0   16.04    9.12
  -8  -1   0    2.76    5.41
  -9  -1   0  105.89   20.17
  -9  -1   0  100.60   13.87
   9  -1   0   88.42   23.73
  -9   1   0  109.18   27.21
 -10   1   0   57.35   21.26
  10  -1   0   44.91   18.13
 -10  -1   0   38.34   12.52
 -10  -1   0   26.89    7.29
 -11   1   0  214.68   42.47
 -11  -1   0  211.55   22.61
  11  -1   0  214.70   41.31
 -11  -1   0  178.69   27.72
 -12  -1   0    9.83    4.82
 -12   1   0   -4.95   10.81
 -13   1   0  287.23   28.91
 -13  -1   0  291.76   29.53
   0  -2   0  598.74   32.63
   0   2   0  605.95   32.40
   1   2   0 2981.24   85.97
  -1   2   0 3115.06  101.47
  -1  -2   0 3095.45   88.39
   1  -2   0 2909.15  101.55
   2   2   0 1484.84   46.17
   2  -2   0 1513.95   68.56
   2   2   0 1484.61   44.11
  -2  -2   0 1464.72   45.93
   3   2   0   21.74    4.50
  -3   2   0   20.35    7.62
  -3  -2   0   20.79    3.79
  -3  -2   0   26.10    3.41
   3  -2   0   30.31    9.65
   3   2   0   22.94    4.09
   4   2   0  344.69   20.38
   4   2   0  270.10   20.19
  -4  -2   0  293.71   16.99
  -4  -2   0  264.13   11.21
  -4   2   0  314.19   32.93
  -4  -2   0  265.50   15.85
   4  -2   0  284.89   32.59
  -5  -2   0  209.74   16.99
   5  -2   0  186.22   28.56
  -5  -2   0  196.19   15.02
  -5   2   0  205.27   28.13
  -5  -2   0  155.93   11.67
  -6  -2   0  399.24   21.32
   6  -2   0  449.48   47.82
  -6  -2   0  480.64   27.80
  -6   2   0  455.59   53.29
  -6  -2   0  424.17   26.55
  -7  -2   0  209.76   15.14
  -7   2   0  232.83   38.38
   7  -2   0  215.11   34.16
  -7  -2   0  220.83   20.63
  -7  -2   0  217.65   19.62
  -8  -2   0 1768.49   66.89
  -8  -2   0 1797.59   71.79
  -8  -2   0 1552.14   54.94
  -8   2   0 1598.87  113.71
   8  -2   0 1496.98  103.89
   9  -2   0   45.06   19.05
  -9  -2   0   75.35   12.18
  -9   2   0   42.74   20.39
  -9  -2   0   72.11   13.76
 -10   2   0  558.02   69.29
  10  -2   0  580.97   70.03
 -10  -2   0  555.85   40.13
 -10  -2   0  491.03   34.79
 -11  -2   0  371.70   31.27
  11  -2   0  345.34   56.35
 -11   2   0  336.88   56.38
 -12  -2   0   14.30    6.80
 -12   2   0   16.34   12.98
  12  -2   0   16.25   14.99
 -13   2   0  142.50   39.73
 -13  -2   0  122.94   19.85
   0  -3   0   -0.67    5.26
   0   3   0    0.21    2.70
   1  -3   0  545.20   40.17
  -1  -3   0  520.98   33.39
  -1   3   0  564.13   39.34
   1   3   0  559.36   31.22
   2  -3   0 4093.90  147.66
  -2  -3   0 4016.46  121.58
   2   3   0 4183.51  115.63
  -2   3   0 4542.52  148.12
   2   3   0 4176.09  116.46
  -3  -3   0 3116.60   88.06
   3  -3   0 2913.31  123.23
   3   3   0 2817.87   84.02
   4  -3   0   -4.07    9.10
   4   3   0    4.72    2.81
   4   3   0   -4.01    2.59
  -4  -3   0    2.61    2.06
   5   3   0   87.59   11.10
   5  -3   0   81.04   19.65
  -5  -3   0   82.65    7.92
  -6   3   0 2082.94  126.99
  -6  -3   0 2118.34   65.69
   6  -3   0 2029.54  115.64
   7  -3   0  714.51   69.07
  -7  -3   0  726.85   33.53
  -7   3   0  698.87   73.90
  -8  -3   0  432.91   26.33
   8  -3   0  404.36   55.43
  -8   3   0  424.89   61.27
   9  -3   0   75.14   24.54
  -9   3   0  112.41   34.66
  10  -3   0  213.49   44.80
 -10   3   0  193.86   45.61
 -11   3   0  392.27   66.57
  11  -3   0  463.90   69.86
  12  -3   0  487.12   76.40
 -12   3   0  567.05   82.22
 -13   3   0   -0.37   10.35
   0   4   0   18.43    7.64
   0  -4   0   16.76    7.33
  -1  -4   0   34.27    9.86
   1   4   0   68.41   12.39
   1  -4   0   33.95   11.30
  -1   4   0   39.45   11.29
   2   4   0  663.72   36.67
   2   4   0  651.87   35.75
   2  -4   0  618.80   52.09
  -2  -4   0  736.29   43.28
   3   4   0    4.98    2.75
  -3  -4   0    6.37    4.42
   3   4   0    3.88    2.07
   3  -4   0    0.07    6.98
  -4  -4   0  394.66   24.99
   4  -4   0  337.76   41.39
   4   4   0  297.42   19.14
   5   4   0   28.50    5.83
   5  -4   0   48.54   17.82
  -5  -4   0   27.28    5.17
   6  -4   0   22.86   13.63
  -7   4   0   48.21   21.88
   7  -4   0   52.23   22.07
   8  -4   0   38.07   19.08
  -8   4   0   62.31   19.07
  -9   4   0   26.39   17.80
   9  -4   0   31.67   19.77
 -10   4   0   30.76   25.53
  10  -4   0   34.82   16.75
  11  -4   0   22.74   16.05
 -11   4   0  166.83   47.92
 -12   4   0   -5.48   12.57
  12  -4   0   21.13   18.66
   0  -5   0   21.23   10.89
   1   5   0  226.40   25.47
   1  -5   0  327.02   38.21
  -1  -5   0  325.35   34.03
   2  -5   0  348.76   41.78
   2   5   0  351.53   29.02
  -2  -5   0  356.54   34.10
   2   5   0  411.71   31.76
   3   5   0 1930.54   76.72
  -3  -5   0 2073.02   86.44
   3  -5   0 1909.05  110.21
   3   5   0 1842.97   74.03
  -4  -5   0   37.99    8.94
   4  -5   0   53.95   18.83
   4   5   0   36.69    7.86
   5  -5   0   -3.67    9.92
  -5  -5   0   14.29    5.95
   5   5   0    5.16    2.64
   6  -5   0 1213.16   98.42
   7  -5   0  104.74   30.78
  -7   5   0  103.44   34.25
   8  -5   0  215.31   45.86
  -8   5   0  275.06   55.73
   9  -5   0   41.14   24.33
  -9   5   0   -0.34   10.49
 -10   5   0  134.32   46.09
  10  -5   0  129.22   38.06
  11  -5   0  168.73   45.32
 -11   5   0   93.28   39.12
  12  -5   0  348.86   72.57
   0  -6   0   20.93   11.26
  -1  -6   0 1668.93   93.03
   1  -6   0 1681.27  100.79
   2  -6   0   29.38   14.41
  -2  -6   0   12.45    7.58
   2   6   0   19.91    8.29
   3  -6   0   22.50   11.11
   3   6   0   25.53    8.39
   3   6   0    0.11    2.39
  -3  -6   0   -0.83    4.20
   4   6   0 2022.87   82.02
  -4  -6   0 2397.32   98.15
   4  -6   0 2166.65  132.49
   5  -6   0  744.66   78.54
  -5  -6   0  918.00   51.98
   6  -6   0    4.99   14.13
  -6   6   0   15.94   12.48
   7  -6   0  -14.97   14.16
  -7   6   0   12.80   10.92
  -8   6   0  714.26   93.14
   8  -6   0  672.71   86.43
   9  -6   0    0.18   13.12
  -9   6   0    0.95   12.86
  10  -6   0  873.89  109.00
 -10   6   0 1034.02  123.94
   0  -7   0   17.06    9.71
  -1  -7   0   62.72   18.86
   1  -7   0   77.67   21.51
  -2  -7   0  224.00   33.04
   2  -7   0  181.05   34.99
  -3  -7   0   51.44   13.97
   3  -7   0   44.26   21.38
  -4  -7   0  507.59   45.41
   4  -7   0  470.54   63.40
   5  -7   0  942.33   94.65
  -6   7   0  162.23   45.47
   6  -7   0  204.30   43.70
   7  -7   0  244.29   51.08
  -7   7   0  307.96   64.61
   8  -7   0  244.10   53.61
  -8   7   0  281.79   62.03
  -9   7   0   19.33   24.82
   9  -7   0   20.88   29.37
   0  -8   0 1561.23  107.85
  -1  -8   0   -4.84   10.83
   1  -8   0  -10.60   14.40
  -2  -8   0  774.88   68.44
   2  -8   0  677.61   74.49
   3  -8   0  473.85   64.25
  -3  -8   0  543.11   53.89
  -4   8   0  437.79   72.31
   4  -8   0  453.34   66.14
   5  -8   0  729.97   88.48
  -5   8   0  649.19   91.98
  -6   8   0   18.97   11.84
   6  -8   0   40.16   23.62
   7  -8   0  461.14   76.13
  -7   8   0  472.66   82.32
   0  -9   0   -9.78   13.35
   1  -9   0   19.94   12.82
  -1  -9   0   44.70   17.95
   2  -9   0  625.86   77.47
  -2   9   0  539.35   80.00
  -2  -9   0  624.42   66.59
  -3   9   0   71.83   35.95
   3  -9   0   61.92   24.97
   4  -9   0  379.42   63.92
  -4   9   0  226.52   54.43
   5  -9   0  227.46   54.90
  -5   9   0  239.15   57.65
   0 -10   0   90.94   30.41
   1 -10   0  227.47   48.01
   2 -10   0   10.28   15.78
  -2  10   0   36.04   24.59
  -3  10   0   36.55   24.34
 -13   0   1    1.56    3.20
 -12   0   1   -6.42    4.15
 -12   0   1   -1.25    8.63
 -11   0   1   -3.80    4.71
 -11   0   1   -8.09    7.12
 -10   0   1    4.32    7.85
  -9   0   1   -1.31    7.46
  -8   0   1   -1.83    7.26
  -8   0   1   13.13    9.56
  -7   0   1   37.05   11.13
  -7   0   1   -5.60    8.89
  -6   0   1    4.42    3.98
   6   0  -1    7.27    6.94
  -6   0   1   -2.80    8.69
  -5   0   1    5.04    3.95
   5   0  -1    7.45    6.95
  -5   0   1   -2.74    5.72
   5   0  -1   -5.29    9.31
  -4   0   1    3.52    4.83
  -4   0   1    0.08    6.40
   4   0  -1   -5.21    6.48
   4   0  -1    4.98    5.18
   3   0  -1    1.06    4.51
  -3   0   1    7.62    6.47
  -3   0   1    1.65    4.23
   2   0  -1    1.43    2.88
  -2   0   1    2.93    3.76
  -1   0   1    1.81    2.42
   0   0   1    4.42    2.36
   0   0  -1    1.34    1.70
  -1   0  -1   -0.16    1.20
   1   0   1   -2.26    1.61
  -2   0  -1    3.24    2.22
   2   0   1   -1.65    3.02
   3   0   1   -1.52    3.33
  -3   0  -1    2.69    2.45
   4   0   1    0.35    2.97
  -4   0  -1   -1.90    2.21
   5   0   1    5.45    5.25
  -5   0  -1    4.14    2.49
  -6   0  -1    7.03    7.37
  -6   0  -1    3.72    2.35
   6   0   1   -2.35    4.66
   7   0   1   -0.21    5.49
  -7   0  -1   -7.47    7.30
  -7   0  -1    0.10    3.12
  -8   0  -1   -5.58    7.79
   8   0   1   -5.12    7.17
  -8   0  -1    1.75    4.96
  -9   0  -1   -2.36   10.75
   9   0   1   -1.29    5.58
  10   0   1   -1.21    5.77
 -10   0  -1   -4.95    7.55
 -10   0  -1   -0.90    3.29
 -11   0  -1   -1.10    4.23
 -11   0  -1  -16.17   14.34
 -12   0  -1   -4.89    5.31
 -13   0  -1    9.59    5.72
 -13  -1   1   72.50   13.76
 -13   1   1   69.24   12.71
 -13   1   1   61.09   22.55
 -12  -1   1  742.52   44.35
 -12   1   1  742.90   76.96
 -11  -1   1  149.59   17.95
 -11   1   1  117.56   28.66
 -11  -1   1  162.27   26.95
 -10  -1   1   40.99    9.01
  10  -1  -1   25.46   14.82
 -10  -1   1   37.04   12.84
  -9  -1   1  343.04   37.01
  -9  -1   1  306.20   34.00
  -9   1   1  317.79   45.73
  -9  -1   1  334.76   24.27
   9  -1  -1  323.17   49.44
  -8  -1   1  173.07   15.94
  -8   1   1  167.62   31.94
   8  -1  -1  114.48   27.47
  -8  -1   1  135.79   21.45
  -8  -1   1  144.86   23.50
   7  -1  -1 1452.94   96.36
  -7   1   1 1535.99   93.74
  -7  -1   1 1466.44   53.16
  -7  -1   1 1358.61   70.16
  -7  -1   1 1538.87   77.81
  -6   1   1  355.32   42.07
  -6  -1   1  419.61   36.89
  -6  -1   1  402.45   32.48
   6  -1  -1  356.06   42.00
  -6   1   1  432.74   42.14
  -6  -1   1  404.30   21.89
   6   1  -1  411.82   40.25
  -5   1   1  371.13   35.92
  -5   1   1  318.60   36.16
   5   1  -1  307.62   30.83
   5  -1  -1  272.02   35.19
  -5  -1   1  308.25   25.42
  -5  -1   1  281.41   16.44
  -5  -1   1  316.61   30.10
  -4   1   1  784.00   49.57
   4  -1  -1  640.12   49.39
   4   1  -1  652.96   40.03
  -4  -1   1  590.15   41.36
  -4   1   1  736.08   51.68
  -4  -1   1  678.29   35.32
  -4  -1   1  612.66   24.08
  -3  -1   1 3028.86   92.03
   3   1  -1 3025.49   78.84
   3   1  -1 3149.39   96.06
   3  -1  -1 3314.60  119.03
  -3   1   1 2976.03  115.43
   3  -1  -1 3332.92  119.86
  -3   1   1 3389.02  114.73
  -2  -1   1  156.19   13.93
   2  -1  -1  178.26   21.37
  -2   1   1  172.09   19.77
   2   1  -1  179.07   14.06
  -1  -1   1   12.88    3.99
   1  -1  -1   15.81    7.29
  -1   1   1   11.73    4.98
  -1  -1   1   13.85    3.37
   1  -1  -1    2.70    2.80
  -1   1   1   11.15    4.84
   1   1  -1   10.04    3.05
   0  -1   1  320.03   17.58
   0  -1  -1  297.60   17.19
   0   1   1  283.94   20.44
   0   1   1  297.59   15.55
   1   1   1  114.23    8.87
  -1   1  -1  104.50   11.24
   1  -1   1  122.60   12.21
  -2  -1  -1 3890.96  104.44
  -2  -1  -1 3831.92   97.14
   2  -1   1 3903.30  117.26
  -2   1  -1 3791.92  115.06
   2   1   1 4093.61  104.03
   3  -1   1 1117.39   54.40
  -3  -1  -1 1140.91   41.39
   3   1   1 1072.26   35.65
  -3   1  -1 1201.00   52.25
  -4  -1  -1   77.29    9.79
   4  -1   1   99.54   16.20
  -4  -1  -1   69.17    6.55
   4   1   1   68.07    8.23
  -4   1  -1   69.04   12.42
  -4  -1  -1   61.60   10.55
   5   1   1 2319.51   78.49
  -5  -1  -1 2245.40   67.01
  -5  -1  -1 2259.24   87.99
   5  -1   1 2318.02   99.10
  -5  -1  -1 2355.79   75.33
  -5   1  -1 2337.62   92.91
  -6   1  -1  624.26   45.08
  -6  -1  -1  666.82   34.25
  -6  -1  -1  651.18   29.48
  -6  -1  -1  642.61   44.60
   6  -1   1  676.62   51.38
   6   1   1  641.72   39.15
   7   1   1  160.51   20.99
  -7   1  -1   96.46   24.75
  -7  -1  -1  116.60   12.24
   7  -1   1  139.94   24.74
  -7  -1  -1  122.73   14.90
  -7  -1  -1  140.02   21.84
  -8  -1  -1  125.49   15.90
   8  -1   1  147.73   28.33
  -8   1  -1  172.00   34.11
   8   1   1  116.32   18.77
  -8  -1  -1   76.69   16.50
  -8  -1  -1  116.58   12.81
  -9  -1  -1   41.73   12.52
  -9  -1  -1   61.98   11.25
  -9   1  -1   78.51   24.75
   9  -1   1   54.65   17.75
 -10   1  -1   70.62   23.83
  10  -1   1   72.58   21.11
 -10  -1  -1   95.94   15.30
 -10  -1  -1   82.26   19.07
 -11   1  -1 1148.22   99.03
 -11  -1  -1 1085.21   58.47
 -12   1  -1   90.39   30.07
 -12  -1  -1  105.68   17.30
 -13   1  -1   -0.38    2.90
 -13  -1  -1   -1.42    5.93
 -14   2   1  426.61   67.52
 -13   2   1   42.62   19.72
  12  -2  -1  314.36   59.86
 -12  -2   1  528.00   38.41
 -12   2   1  398.29   62.51
  11  -2  -1  356.53   61.77
 -11   2   1  266.29   49.64
 -11  -2   1  374.69   30.24
 -10   2   1   11.07    8.13
 -10  -2   1    4.04    4.50
  10  -2  -1   -6.42   10.42
 -10  -2   1    2.54    2.60
  -9   2   1  680.66   73.54
  -9  -2   1  885.37   43.80
  -9  -2   1  795.84   50.12
   9  -2  -1  836.62   83.13
  -8   2   1  153.00   32.25
  -8  -2   1  195.05   24.62
  -8  -2   1  162.24   20.17
   8  -2  -1  139.00   31.57
  -8  -2   1  186.06   17.94
   7  -2  -1  158.21   32.46
  -7  -2   1  178.25   19.87
  -7  -2   1  222.39   26.26
  -7   2   1  182.24   35.17
  -7  -2   1  198.95   17.25
   7   2  -1  195.06   28.29
  -6   2   1   71.27   19.94
  -6  -2   1   66.11   14.33
   6   2  -1   34.15   10.18
  -6  -2   1   52.75    9.68
   6  -2  -1   76.98   20.61
  -5  -2   1 2423.88   82.53
  -5   2   1 2101.99  116.73
   5  -2  -1 2515.79  120.18
   5   2  -1 2276.47   90.87
  -5   2   1 2655.92  116.57
  -4   2   1  117.18   20.47
   4   2  -1  105.33    9.73
  -4   2   1  101.27   22.85
  -4  -2   1  107.69   12.71
   4  -2  -1   99.89   21.31
   4   2  -1   90.49   12.36
   3  -2  -1 1494.96   79.19
   3   2  -1 1539.17   55.54
  -3  -2   1 1436.88   48.47
  -3   2   1 1444.24   80.17
  -3  -2   1 1395.92   54.21
  -2   2   1 1740.93   76.85
  -2  -2   1 1676.96   55.67
  -2   2   1 1801.18   81.08
  -2  -2   1 1680.00   59.02
   2  -2  -1 1589.12   77.65
   2   2  -1 1710.57   62.81
  -1  -2   1   26.70    5.98
   1   2  -1   19.76    5.42
   1  -2  -1   23.82    9.71
  -1   2   1   17.65    6.69
  -1   2   1   10.43    6.15
   1   2  -1   26.99    6.02
   0  -2   1 2632.10   85.91
   0   2   1 2655.88   87.25
   0  -2  -1 2532.19   91.31
   0   2  -1 2733.04   85.49
   0   2   1 2649.87   87.82
   1   2   1  112.61   11.14
  -1  -2  -1   98.84   12.63
   1   2   1  106.55    9.55
   1  -2   1   90.92   13.16
   2   2   1  186.16   10.49
  -2   2  -1  183.43   20.45
   2   2   1  202.99   15.03
   2  -2   1  174.00   20.82
   3  -2   1  369.03   33.53
  -3   2  -1  373.69   32.23
   3   2   1  415.23   24.22
  -4  -2  -1 1580.90   56.88
   4  -2   1 1451.51   76.92
  -4   2  -1 1329.96   71.93
  -5  -2  -1    0.40    1.58
   5  -2   1    7.40    6.77
  -5  -2  -1    3.45    2.94
   6  -2   1  910.17   66.77
  -6  -2  -1  944.72   43.88
  -6  -2  -1  863.49   38.57
  -7  -2  -1 1548.69   63.62
  -7  -2  -1 1576.05   61.23
   7  -2   1 1456.04   92.52
  -8  -2  -1   29.31    7.91
   8  -2   1   21.84    8.71
  -8  -2  -1   45.93    9.44
  -8   2  -1   25.82   17.13
  -9  -2  -1  905.82   48.87
  -9  -2  -1  983.52   50.88
  -9   2  -1  988.08   91.80
   9  -2   1  965.21   85.07
 -10  -2  -1   -3.00    2.37
  10  -2   1   -5.38   13.86
  11  -2   1   15.09   10.34
 -11  -2  -1    6.22    2.86
 -12  -2  -1  243.49   27.30
 -12   2  -1  258.23   53.08
 -13  -2  -1  245.10   29.35
 -13   3   1   31.50   22.92
  13  -3  -1    6.27   11.35
  12  -3  -1   45.22   25.89
 -12   3   1   85.75   28.29
 -11   3   1  359.44   61.04
  11  -3  -1  339.29   62.67
 -10   3   1  497.02   69.99
  10  -3  -1  514.29   72.34
  -9  -3   1  368.76   30.64
  -9   3   1  393.16   57.96
   9  -3  -1  346.71   54.96
   8   3  -1  451.09   43.49
  -8   3   1  474.81   63.63
   8  -3  -1  447.25   60.33
  -8  -3   1  462.20   22.39
  -8  -3   1  434.50   32.10
  -8  -3   1  484.25   34.17
  -7   3   1  545.13   63.62
   7  -3  -1  527.67   63.11
   7   3  -1  515.89   43.79
  -7  -3   1  676.08   38.61
  -7  -3   1  626.37   45.13
  -7  -3   1  586.98   26.46
   6  -3  -1 2562.92  138.68
   6   3  -1 2632.57   86.11
  -6  -3   1 2692.35   92.17
   6   3  -1 2517.77  102.26
  -6   3   1 2747.46  146.29
  -6  -3   1 2803.81   79.67
  -5  -3   1   35.07    6.16
   5  -3  -1   28.27   12.73
   5   3  -1   44.54    7.66
   5   3  -1   31.91    8.09
  -5  -3   1   33.52    7.80
  -5   3   1   41.72   18.16
  -4   3   1   94.46   23.16
   4  -3  -1   83.48   20.24
   4   3  -1  114.59   13.86
  -4  -3   1  107.52   12.80
  -4  -3   1   87.89   10.15
   4   3  -1  114.38   12.14
  -3  -3   1  433.31   25.57
   3   3  -1  476.53   31.20
  -3   3   1  464.26   46.04
   3  -3  -1  461.82   44.91
   2   3  -1  443.32   27.35
  -2   3   1  406.08   37.51
   2  -3  -1  392.49   38.80
   2   3  -1  438.93   30.19
  -2  -3   1  406.08   26.17
  -2   3   1  419.02   40.80
   1   3  -1  597.85   35.44
  -1   3   1  608.25   46.65
   1   3  -1  671.49   38.20
   1  -3  -1  630.77   46.06
  -1  -3   1  646.74   37.01
  -1   3   1  710.12   45.91
   0  -3   1 1319.59   61.11
   0   3   1 1341.82   64.57
   0   3  -1 1261.59   58.65
   0   3   1 1307.41   60.43
   0  -3  -1 1212.99   63.00
   1   3   1  826.54   42.19
  -1  -3  -1  839.62   46.92
  -1   3  -1  891.09   50.14
   1  -3   1  869.50   50.54
   1   3   1  824.87   41.10
   2   3   1  331.02   17.96
  -2  -3  -1  388.63   26.55
   2  -3   1  323.84   32.71
   2   3   1  307.97   19.39
   3   3   1 4357.40  114.34
   3  -3   1 4053.43  145.92
   4  -3   1  581.96   50.92
   5  -3   1   33.35   13.47
   6  -3   1  393.73   46.58
   7  -3   1    5.12    8.94
   8  -3   1    9.86    6.98
  -8   3  -1   24.54   18.45
  -9   3  -1  362.19   60.83
   9  -3   1  238.98   43.51
  10  -3   1  344.94   55.30
 -10   3  -1  258.65   53.78
 -11   3  -1   24.37   13.61
  11  -3   1   11.87   12.79
 -12   3  -1  539.10   82.91
  13  -4  -1  529.21   91.78
  12  -4  -1   73.82   31.45
 -12   4   1  152.98   44.34
  11  -4  -1  125.17   40.66
 -11   4   1  240.00   52.88
  10  -4  -1  853.50   98.12
 -10   4   1 1000.36  106.81
   9  -4  -1  378.00   62.51
  -9   4   1  339.40   58.00
   8  -4  -1  103.31   30.57
  -8  -4   1  172.33   16.98
  -8   4   1  159.43   39.44
  -7  -4   1    8.04    5.43
   7   4  -1    0.90    5.17
  -7  -4   1    1.89    2.50
   7  -4  -1   13.25    9.76
  -7  -4   1    9.92    3.28
  -7   4   1   13.25   10.31
   6   4  -1 1080.78   54.51
  -6  -4   1  982.54   40.30
  -6   4   1  956.43   87.00
   6  -4  -1  961.89   84.88
  -6  -4   1  848.35   41.33
   5  -4  -1    0.28   13.54
   5   4  -1   13.96    5.05
  -5   4   1    5.77    9.34
  -5  -4   1   35.46    7.47
   4  -4  -1 2614.13  132.41
  -4   4   1 2612.02  138.42
  -4  -4   1 2584.87   87.64
   4   4  -1 2507.12   93.73
  -3  -4   1  977.57   48.25
   3   4  -1  972.17   53.15
   3  -4  -1  881.84   69.16
  -3   4   1  861.47   72.32
   2  -4  -1 1128.99   74.97
   2   4  -1 1207.02   60.23
  -2  -4   1 1200.31   58.72
   2   4  -1 1264.68   58.10
  -2   4   1 1069.25   76.62
  -1  -4   1 4050.92  136.95
   1  -4  -1 3856.88  151.65
  -1   4   1 3857.81  144.75
   1   4  -1 4103.38  136.29
   1   4  -1 4226.33  134.58
   0   4   1  319.14   30.23
   0  -4   1  261.71   28.99
   0   4  -1  331.45   30.26
   0  -4  -1  267.20   30.31
  -1  -4  -1  831.03   52.22
   1   4   1  802.47   45.05
   1  -4   1  728.86   53.08
   1   4   1  755.90   49.39
  -2  -4  -1  201.82   23.34
   2  -4   1  125.47   23.45
   2   4   1  167.31   18.01
   2   4   1  158.05   16.64
   3   4   1  616.92   28.35
   3  -4   1  650.55   56.19
  -3  -4  -1  721.94   41.66
   4  -4   1   73.35   19.63
   5  -4   1 2362.19  126.50
   6  -4   1  271.56   41.44
   7  -4   1  109.61   27.39
  -8   4  -1 2096.30  154.34
   8  -4   1 2192.26  139.48
  -9   4  -1   13.45    9.56
   9  -4   1   -0.40   12.48
  10  -4   1  481.74   71.37
 -10   4  -1  613.07   86.85
  11  -4   1  186.40   48.07
 -11   4  -1  179.11   51.05
  12  -4   1  109.56   37.72
 -12   4  -1  112.25   47.42
  12  -5  -1   38.06   25.29
  11  -5  -1  234.27   57.30
 -11   5   1  321.11   65.53
  10  -5  -1   25.34   21.49
 -10   5   1  -13.20   26.03
   9  -5  -1  187.17   45.02
  -9   5   1  271.72   56.41
  -8   5   1 1016.27  105.84
   8  -5  -1 1020.71  103.65
  -7  -5   1    3.85    2.30
   7  -5  -1    3.48   11.87
  -7   5   1  -11.74   13.78
   6   5  -1  443.44   33.06
  -6  -5   1  359.26   26.24
   6  -5  -1  476.53   62.78
  -6   5   1  503.72   65.56
  -5  -5   1  630.76   38.08
   5   5  -1  568.61   38.20
  -5   5   1  584.51   69.27
   5  -5  -1  610.73   67.81
  -4   5   1   98.98   29.17
   4  -5  -1  144.83   31.42
   4   5  -1  194.84   23.26
  -4  -5   1  177.35   20.92
   3   5  -1   66.48   14.38
  -3  -5   1   38.63   10.84
  -3   5   1   82.89   23.19
   3  -5  -1   66.11   21.15
   3   5  -1   63.63   11.99
   2   5  -1  921.52   55.52
   2  -5  -1  867.34   70.16
  -2   5   1  770.90   70.74
  -2  -5   1  826.81   53.25
   1  -5  -1   45.10   15.20
  -1  -5   1   31.29   11.26
   0  -5   1   16.54    8.99
   0  -5  -1   31.70   11.85
   1   5   1 3339.89  135.11
  -1  -5  -1 3292.65  135.19
   1  -5   1 3083.27  137.88
   1   5   1 3326.36  121.13
  -2  -5  -1  371.53   36.83
   2  -5   1  305.25   39.59
   2   5   1  330.07   27.83
  -3  -5  -1  719.10   48.75
   3   5   1  746.85   38.50
   3   5   1  606.60   30.87
   3   5   1  618.39   34.37
   3  -5   1  719.48   64.50
   4  -5   1  467.06   54.93
  -4  -5  -1  500.51   37.29
   5  -5   1   93.17   25.80
   6  -5   1  526.32   62.78
   7  -5   1  207.88   40.18
  -8   5  -1    0.68   12.53
   8  -5   1   28.19   15.46
  -9   5  -1    9.64   17.88
   9  -5   1   11.42   11.05
  10  -5   1  926.92  105.07
 -10   5  -1  809.84  106.75
 -11   5  -1  141.21   49.99
  11  -5   1  128.40   42.69
  11  -6  -1   65.17   32.17
 -10   6   1  -20.24   21.16
  10  -6  -1   -2.02   10.75
   9  -6  -1  645.32   90.22
  -9   6   1  541.56   85.18
   8  -6  -1  159.89   41.18
  -8   6   1   85.61   30.83
  -7   6   1   31.75   21.72
   7  -6  -1   69.69   28.05
   6  -6  -1   28.54   14.34
  -6  -6   1   40.98   10.33
  -6   6   1   43.19   23.37
  -5  -6   1  473.24   37.47
  -5   6   1  421.83   64.16
   5  -6  -1  361.20   56.14
  -4  -6   1   13.70    8.21
  -4   6   1   21.70    9.66
   4  -6  -1   18.42   12.89
   4   6  -1    8.90    6.99
   3  -6  -1  952.80   83.55
  -3  -6   1  972.25   62.05
  -3   6   1  784.13   81.12
   2  -6  -1  463.43   54.19
  -2   6   1  428.92   56.60
  -2  -6   1  470.20   44.66
  -1  -6   1   -1.50    7.28
  -1   6   1    9.82   11.02
   1  -6  -1   -0.17    6.37
   0  -6  -1 1558.40   97.07
   0  -6   1 1455.31   90.43
   0   6   1 1609.24  101.69
   1  -6   1   57.71   18.05
   1   6   1   65.15   16.27
  -1  -6  -1   85.28   20.61
  -2  -6  -1   47.05   13.72
   2   6   1   16.37    9.94
   2  -6   1   17.02   12.79
  -3  -6  -1   82.07   20.42
   3   6   1   81.74   12.04
   3   6   1   78.24   12.86
   3   6   1   92.66   15.86
   3  -6   1  129.34   30.14
   4  -6   1  327.64   48.72
  -4  -6  -1  350.60   35.61
   5  -6   1   23.52   13.66
   6  -6   1  638.06   75.18
   7  -6   1  452.78   66.22
   8  -6   1    5.65   11.05
  -8   6  -1   35.41   22.42
  -9   6  -1  503.19   84.36
   9  -6   1  509.58   77.42
  10  -6   1   18.21   19.72
  -9   7   1   36.56   24.67
   9  -7  -1   31.77   21.49
  -8   7   1  210.14   52.64
   8  -7  -1  346.05   66.65
  -7   7   1 1039.00  114.69
   7  -7  -1 1022.24  111.11
  -6   7   1  -10.35   20.27
   6  -7  -1  -20.65   21.68
  -5  -7   1    1.36    5.29
   5  -7  -1  -13.44   16.61
  -5   7   1  -19.81   17.54
  -4   7   1    5.09   11.11
  -4  -7   1    6.11    8.17
   3  -7  -1  250.81   45.09
  -3  -7   1  294.50   36.29
  -3   7   1  273.26   50.19
  -2  -7   1  871.08   67.11
  -2   7   1  713.50   80.55
   2  -7  -1  806.20   78.75
  -1   7   1  334.35   52.08
  -1  -7   1  295.00   40.21
   1  -7  -1  313.75   46.30
   0  -7  -1  170.16   32.00
   0   7   1  160.10   32.99
   0  -7   1  186.11   32.51
   1  -7   1  435.99   53.27
   1   7   1  508.35   56.09
  -1  -7  -1  445.37   52.31
   2  -7   1  854.22   79.13
  -2  -7  -1  870.13   71.60
   2   7   1  873.32   67.87
   3  -7   1   -3.32   15.53
  -3  -7  -1    7.46    6.79
   4  -7   1   18.01   12.75
   5  -7   1   65.50   25.43
   6  -7   1  310.33   54.34
   7  -7   1  813.46   95.04
  -8   7  -1   62.08   30.03
   8  -7   1   93.66   33.29
  -8   8   1  -35.40   31.09
   7  -8  -1    8.40   10.52
  -7   8   1    1.22   16.90
   6  -8  -1    8.61   11.72
  -6   8   1   22.96   18.18
   5  -8  -1   31.63   19.44
  -5   8   1   47.91   24.96
  -4   8   1  170.53   43.75
   4  -8  -1   99.80   30.83
  -4  -8   1  127.67   24.32
  -3  -8   1   64.01   20.80
   3  -8  -1   54.50   23.96
  -3   8   1   75.54   26.34
   2  -8  -1   25.40   17.40
  -2   8   1   20.49   14.62
  -2  -8   1   25.58   11.68
  -1   8   1   24.73   15.88
   1  -8  -1   35.41   12.85
  -1  -8   1   53.05   19.85
   0  -8  -1   -0.56   12.47
   0   8   1   -0.59   14.40
   0  -8   1   14.34    9.12
   1   8   1   61.84   19.66
  -1  -8  -1   32.20   13.86
   1  -8   1   59.36   21.24
   2  -8   1   -3.91    7.96
  -2  -8  -1   -7.47    7.83
   3  -8   1  108.20   27.73
   4  -8   1   62.01   23.22
   5  -8   1   30.50   18.08
   6  -8   1   35.35   24.27
  -6   9   1   15.00   17.31
   5  -9  -1   50.52   24.28
  -5   9   1   14.10   13.97
   4  -9  -1   41.50   22.69
  -4   9   1  138.32   42.79
   3  -9  -1   43.11   17.91
  -3   9   1   63.24   30.71
  -2   9   1  386.30   65.87
  -2  -9   1  445.00   55.21
   2  -9  -1  384.17   62.97
  -1   9   1  490.53   71.41
  -1  -9   1  534.18   63.18
   1  -9  -1  417.75   63.01
   0  -9   1  203.47   40.03
   0  -9  -1  209.70   43.37
  -1  -9  -1   69.64   21.76
   1  -9   1   78.31   27.18
   2  -9   1  808.22   87.58
   3  -9   1   -4.86    9.20
   4  -9   1  143.87   37.70
  -4  10   1    2.33   12.32
   3 -10  -1  164.87   44.81
  -3  10   1  112.47   41.48
   2 -10  -1  540.90   78.27
  -1 -10   1   29.91   19.13
   1 -10  -1   16.08   15.48
   0 -10   1  417.25   61.13
   1 -10   1   18.41   11.37
 -13   0   2   25.58   12.88
 -12   0   2  212.08   20.88
 -12   0   2  158.38   31.82
 -11   0   2   22.71    6.02
 -11   0   2   29.05   12.47
 -10   0   2 1744.36   63.49
 -10   0   2 1825.64  104.99
  -9   0   2  741.81   61.57
  -8   0   2 1159.71   74.40
  -7   0   2 2873.64  122.30
  -7   0   2 2878.31  134.65
  -6   0   2   -3.27    5.44
   6   0  -2   -8.07    6.90
  -6   0   2   -3.30    8.06
  -5   0   2 4654.45  156.79
   5   0  -2 4910.79  171.74
  -5   0   2 4909.31  177.64
  -4   0   2   61.22   16.59
  -4   0   2   84.64   14.86
   4   0  -2   66.08   13.62
   3   0  -2 2858.36   99.55
  -3   0   2 2768.80   95.86
  -2   0   2 1425.98   56.35
  -1   0   2 5731.75  155.52
   1   0  -2 5682.76  154.58
   1   0  -2 5538.44  133.92
   0   0  -2 1684.87   62.37
   0   0   2 1713.58   61.83
  -1   0  -2  515.02   29.55
   1   0   2  485.69   24.75
  -2   0  -2 4045.18  117.93
   2   0   2 3812.26  110.86
  -3   0  -2   24.37    5.77
   3   0   2   20.05    5.87
   4   0   2 2255.47   85.70
  -4   0  -2 2537.17   80.96
   5   0   2   30.19    9.02
  -5   0  -2   31.31    7.36
  -6   0  -2  943.23   46.44
   6   0   2  963.78   56.83
   7   0   2 1975.02   90.65
  -7   0  -2 1726.58   71.19
   8   0   2  625.02   51.19
  -8   0  -2  630.77   60.34
  -9   0  -2  395.85   49.18
   9   0   2  341.65   39.64
  -9   0  -2  377.92   29.91
 -10   0  -2   49.71   16.95
 -10   0  -2   75.67   13.96
 -11   0  -2  308.29   29.99
 -12   0  -2   10.31    6.16
 -14   1   2  137.29   32.28
 -13   1   2   26.40   16.59
 -12   1   2  683.20   72.63
 -12  -1   2  836.37   66.68
 -12  -1   2  855.21   44.80
 -11  -1   2  105.93   14.05
 -11  -1   2  106.31   22.82
 -11   1   2   74.80   23.28
 -10   1   2  378.27   49.58
 -10  -1   2  368.88   40.37
 -10  -1   2  400.25   26.43
  -9  -1   2  961.38   64.38
  -9  -1   2  986.99   42.51
  -9   1   2  896.12   75.54
  -8   1   2   71.51   21.09
  -8  -1   2   52.56   17.26
  -8  -1   2   84.36   10.13
  -8  -1   2   71.33   16.16
  -7  -1   2  592.78   56.09
  -7  -1   2  539.51   42.77
  -7   1   2  590.74   54.32
  -7  -1   2  580.16   26.39
   7  -1  -2  464.06   57.79
  -6   1   2   41.56   15.67
   6   1  -2   69.46   16.50
  -6  -1   2   81.46   20.64
   6  -1  -2   53.37   19.61
  -6   1   2   74.87   17.93
  -6  -1   2   59.81    6.84
  -6  -1   2   71.21   14.24
   5   1  -2  360.98   35.60
   5  -1  -2  403.35   46.71
  -5   1   2  359.01   39.36
  -5   1   2  371.82   38.80
  -5  -1   2  377.33   16.46
  -5  -1   2  371.56   30.03
   5  -1  -2  384.84   42.94
   4  -1  -2   40.50   11.45
  -4   1   2   22.94   10.75
  -4   1   2   25.41    9.92
  -4  -1   2   27.34    8.22
   4   1  -2   26.61    8.26
   3   1  -2 1274.14   50.79
  -3  -1   2 1212.18   49.05
  -3   1   2 1276.02   56.80
   2  -1  -2  796.96   46.35
  -2   1   2  877.16   54.90
  -2  -1   2  794.77   41.35
   2   1  -2  841.49   43.21
  -2   1   2  874.97   44.52
  -1  -1   2 2246.83   77.65
  -1   1   2 2141.41   73.25
   1  -1  -2 2142.30   75.17
   0   1  -2 3093.41  100.69
   0   1   2 2935.82   82.21
   0  -1   2 3060.28   96.23
   0   1   2 2890.98   90.13
   0  -1  -2 2880.02   89.05
   0  -1   2 3206.33   93.28
   0  -1  -2 3122.45   83.70
   1   1   2  876.92   33.17
  -1  -1  -2  773.90   34.36
  -1   1  -2  822.36   43.18
   1   1   2  860.48   35.22
  -1  -1  -2  828.99   32.93
   1  -1   2  852.02   39.78
  -1   1  -2  908.03   40.62
  -2  -1  -2  496.75   26.71
   2  -1   2  515.88   32.57
  -2   1  -2  621.56   34.02
   2   1   2  552.46   24.30
  -3  -1  -2    0.28    1.97
   3   1   2    1.50    2.93
   3  -1   2    1.86    5.51
  -3   1  -2    2.34    3.12
  -4  -1  -2    4.10    2.51
   4  -1   2    8.21    5.54
  -4   1  -2   -0.31    3.40
   4   1   2    1.98    2.46
   5  -1   2   45.82   13.43
   5   1   2   64.12   10.08
  -5   1  -2   21.00    7.87
  -5  -1  -2   41.18    8.36
  -6  -1  -2  175.43   18.03
   6  -1   2  154.89   24.28
   6   1   2  183.13   19.18
  -6  -1  -2  165.00   23.75
   7   1   2  171.78   20.14
  -7  -1  -2  133.27   21.83
   7  -1   2  147.13   25.28
  -7  -1  -2  149.71   17.37
  -8  -1  -2  516.49   35.92
   8   1   2  542.91   39.63
   8  -1   2  483.43   49.52
  -8  -1  -2  520.59   46.23
  -8   1  -2  578.58   64.44
   9  -1   2  577.64   57.99
  -9   1  -2  687.44   72.69
  -9  -1  -2  569.34   50.89
  -9  -1  -2  587.46   39.49
 -10  -1  -2  150.27   20.59
  10  -1   2  148.40   31.00
 -10   1  -2  153.11   37.16
 -11   1  -2  420.40   61.69
 -11  -1  -2  442.59   36.84
 -12  -1  -2   96.45   17.62
 -12   1  -2   55.39   12.79
 -14   2   2   32.62   22.60
 -13   2   2  141.33   36.50
 -12   2   2   44.14   20.69
 -11   2   2    2.33   11.16
 -11  -2   2    0.55    4.73
 -10   2   2  230.82   42.60
  10  -2  -2  272.11   52.70
 -10  -2   2  289.27   31.74
  -9   2   2 1415.17  107.31
  -9  -2   2 1694.82   81.16
   9  -2  -2 1499.36  124.19
  -8   2   2  152.54   31.21
  -8  -2   2  205.49   25.23
  -8  -2   2  221.41   34.56
   8  -2  -2  179.63   38.78
  -7   2   2  134.35   29.00
   7   2  -2  126.87   23.37
   7  -2  -2  155.09   34.56
  -7  -2   2  144.50   28.74
  -7  -2   2  140.55   19.85
  -6   2   2 1681.02  102.70
  -6  -2   2 1796.80   78.27
   6   2  -2 1898.79   90.42
   6  -2  -2 1848.72  116.34
  -5  -2   2  591.53   39.18
   5   2  -2  683.05   44.53
   5   2  -2  621.02   25.20
  -5   2   2  571.43   54.62
   5  -2  -2  519.11   56.79
   4   2  -2 1250.67   40.36
   4  -2  -2 1367.10   88.60
  -4  -2   2 1424.97   61.80
   4   2  -2 1294.18   61.74
  -4   2   2 1282.54   79.14
  -3   2   2   99.37   19.33
   3   2  -2  132.72   17.21
  -3   2   2  105.56   19.57
  -3  -2   2  135.84   16.86
   3  -2  -2  126.85   21.61
   3  -2  -2  131.93   25.81
   2  -2  -2   54.18   13.13
  -2   2   2   57.67   13.84
  -2  -2   2   63.62    9.64
  -2   2   2   63.61   14.61
  -2  -2   2   60.04   11.09
   2   2  -2   55.90   11.85
   2  -2  -2   54.04   15.50
  -1   2   2 1373.81   59.60
  -1   2   2 1364.03   67.67
   1  -2  -2 1328.91   63.00
   1  -2  -2 1279.83   73.58
  -1  -2   2 1326.43   57.45
   1   2  -2 1355.47   62.69
  -1  -2   2 1329.37   54.28
   0   2   2  941.30   40.77
   0   2   2  981.98   51.59
   0  -2   2  929.29   45.03
   0  -2  -2  941.72   45.16
   1   2   2  342.82   26.83
   1   2   2  345.66   20.53
  -1  -2  -2  325.93   20.69
   1  -2   2  314.56   26.44
   1   2   2  284.68   18.21
  -1   2  -2  354.68   27.50
   2   2   2  162.88   14.68
   2   2   2  152.31   15.37
   2  -2   2  154.00   19.62
  -2  -2  -2  132.00   10.02
  -2   2  -2  142.65   18.02
   3   2   2  823.39   34.92
  -3  -2  -2  821.14   28.45
   3  -2   2  952.85   56.05
   3   2   2  898.02   28.67
  -4  -2  -2  870.58   40.91
  -4  -2  -2  783.26   28.98
  -4  -2  -2  761.08   32.34
   4  -2   2  805.54   55.44
  -5  -2  -2 1513.49   50.46
   5  -2   2 1457.09   84.28
  -5  -2  -2 1516.10   55.88
  -5  -2  -2 1699.59   64.04
  -6  -2  -2   28.40    6.85
  -6  -2  -2   24.46    5.11
   6  -2   2   51.70   16.04
  -6  -2  -2   32.96    8.02
  -7  -2  -2   29.72    7.66
  -7  -2  -2   29.82    8.50
  -7  -2  -2   39.69    7.15
   7  -2   2   43.21   15.92
  -8  -2  -2  871.51   48.12
   8  -2   2  839.96   72.64
  -8  -2  -2  796.92   44.00
  -9   2  -2   13.98   12.40
   9  -2   2   47.74   18.38
  -9  -2  -2   27.48    8.44
  10  -2   2   57.54   21.34
 -10   2  -2   43.41   21.95
 -10  -2  -2   40.08   10.72
 -11   2  -2    7.04    9.48
 -11  -2  -2    2.09    2.87
 -12  -2  -2  153.75   22.75
 -13   3   2  281.62   56.23
 -12   3   2  447.44   67.86
  12  -3  -2  360.23   71.14
 -11   3   2  549.00   74.17
  11  -3  -2  691.88   92.47
 -10   3   2   35.58   14.24
 -10  -3   2   21.60    9.33
  10  -3  -2   24.13   17.14
  -9  -3   2    3.39    4.73
  -9   3   2   32.61   18.95
   8  -3  -2 1023.33   98.88
  -8  -3   2 1065.97   80.82
  -8  -3   2 1134.33   61.61
  -8   3   2 1080.18   93.50
   7  -3  -2  786.16   81.56
   7   3  -2  843.54   60.01
  -7   3   2 1025.36   88.03
  -7  -3   2  961.96   54.52
   6   3  -2  550.53   28.10
  -6  -3   2  500.60   37.60
  -6   3   2  512.44   58.97
   6   3  -2  551.73   42.54
  -5   3   2   -0.09   12.20
   5   3  -2    3.70    2.08
  -5  -3   2   -1.43    1.92
  -5  -3   2    4.14    4.79
   5   3  -2   -2.69    4.36
   5  -3  -2   -9.13   12.40
  -4   3   2 1497.39   94.00
   4   3  -2 1628.68   71.59
   4  -3  -2 1342.84   93.22
  -4  -3   2 1345.96   62.93
  -4  -3   2 1491.76   58.47
   3   3  -2 1447.61   68.25
  -3  -3   2 1280.70   58.56
  -3   3   2 1276.05   80.16
  -3   3   2 1188.63   74.43
   3  -3  -2 1284.22   85.44
  -3  -3   2 1211.17   53.23
  -2   3   2 1574.39   81.09
   2  -3  -2 1482.33   88.37
   2   3  -2 1578.10   73.51
  -2   3   2 1428.02   79.54
  -2  -3   2 1419.42   60.33
  -1   3   2   67.12   15.05
  -1  -3   2   75.41   13.10
   1   3  -2   66.04   12.57
   1   3  -2   88.05   16.47
  -1   3   2   88.80   15.95
   1  -3  -2   42.57   16.14
   0   3  -2    5.87    3.31
   0   3  -2    7.41    5.93
   0   3   2    5.77    2.87
   0  -3  -2    9.46    5.82
   0  -3   2    1.96    4.92
   0   3   2   17.83    6.03
   1   3   2 2646.32   92.65
   1  -3   2 2641.57  102.82
   1   3   2 2751.42   87.91
   1   3   2 2451.39   79.27
   2   3   2  415.57   24.88
   2  -3   2  417.95   37.09
   3   3   2  577.88   23.19
   3  -3   2  585.52   48.02
   4  -3   2  128.61   23.64
   5  -3   2  952.51   70.99
   6  -3   2  321.14   42.42
   7  -3   2  438.67   52.35
   8  -3   2  137.33   30.94
  -8  -3  -2  148.53   20.53
  -9  -3  -2   10.03    5.95
  -9   3  -2  -12.58   21.48
   9  -3   2   36.07   17.30
  10  -3   2  599.40   73.00
 -10   3  -2  560.21   82.72
 -11   3  -2  152.68   46.34
  11  -3   2  101.84   31.92
 -12   3  -2  -13.96   20.08
  13  -4  -2   47.75   29.13
  12  -4  -2   43.58   22.44
 -12   4   2   31.33   17.23
 -11   4   2   85.19   35.84
  11  -4  -2   82.08   31.39
 -10   4   2    8.76   19.07
  10  -4  -2   10.43   15.16
  -9   4   2   67.06   28.26
   9  -4  -2   39.01   23.50
  -9  -4   2   45.22   11.55
  -8   4   2   41.26   16.99
  -8  -4   2   31.80    7.12
  -8  -4   2   12.09    6.29
   7  -4  -2   86.99   27.32
  -7  -4   2   63.96   12.58
  -7   4   2   61.95   24.87
  -7  -4   2   62.57   10.24
   7   4  -2   68.40   16.68
  -6   4   2    2.67   10.63
   6  -4  -2    1.75    9.75
   6   4  -2    1.27    4.94
  -6  -4   2   -0.63    3.59
  -6  -4   2    3.68    3.10
   5  -4  -2  283.42   46.03
  -5  -4   2  294.94   26.26
   5   4  -2  311.88   30.10
  -5   4   2  291.84   45.78
  -5  -4   2  220.43   21.28
  -4  -4   2   49.01   10.41
   4  -4  -2   44.16   19.50
   4   4  -2   43.25   11.25
  -4   4   2   32.11   13.95
   3  -4  -2  167.18   32.17
   3   4  -2  140.66   22.90
  -3   4   2  144.17   28.79
  -3  -4   2  195.06   21.16
  -2  -4   2   32.11    8.99
   2   4  -2   49.04   13.02
  -2   4   2   44.95   14.28
   2  -4  -2   26.68   10.85
  -1   4   2  212.09   29.43
   1  -4  -2  214.16   33.01
  -1  -4   2  256.56   27.56
  -1   4   2  256.11   30.72
   0   4   2  191.60   24.52
   0  -4   2  159.83   22.55
   0  -4  -2  173.59   27.70
   0   4   2  167.23   22.57
  -1  -4  -2  442.93   44.60
   1   4   2  437.87   30.87
   1   4   2  466.48   35.49
   1  -4   2  395.07   38.49
   2   4   2  105.22   13.70
   2  -4   2   70.81   17.63
   2   4   2   87.77    8.89
   3   4   2   47.95    6.94
   3  -4   2   64.05   16.62
   4  -4   2   36.18   15.43
   5  -4   2  -20.31   12.82
   6  -4   2   51.85   19.74
   7  -4   2  -12.53   12.25
   8  -4   2  152.91   35.42
   9  -4   2   25.56   15.92
  10  -4   2   23.07   13.91
 -10   4  -2   47.43   21.43
 -11   4  -2  -42.87   26.95
  11  -4   2   -2.18    9.21
  12  -5  -2  128.44   46.71
 -11   5   2  396.63   71.40
  11  -5  -2  501.46   86.48
 -10   5   2  159.45   43.98
  10  -5  -2  274.22   60.91
  -9   5   2   14.03   17.17
   9  -5  -2   23.88   10.03
  -8   5   2  616.74   79.90
   8  -5  -2  457.96   70.68
  -7  -5   2  310.26   25.04
  -7   5   2  305.41   53.76
   7  -5  -2  267.65   52.33
   6  -5  -2  189.87   40.10
  -6   5   2  178.08   38.53
  -6  -5   2  218.81   21.64
   6   5  -2  161.25   23.33
   5  -5  -2   66.94   26.20
  -5   5   2   48.39   20.73
  -5  -5   2   72.62   13.56
  -4  -5   2 1394.97   67.39
   4  -5  -2 1278.38  102.68
  -4   5   2 1293.06  102.79
  -3   5   2  179.18   35.25
   3  -5  -2  170.63   33.71
  -3  -5   2  155.24   22.09
   2  -5  -2  635.68   64.23
  -2   5   2  612.65   61.48
  -2  -5   2  725.09   50.22
  -1   5   2  325.65   40.67
   1  -5  -2  320.91   43.60
  -1  -5   2  380.07   37.46
   0   5   2   18.87   10.07
   0  -5  -2   24.17   12.81
   0  -5   2   11.42    6.74
  -1  -5  -2  984.04   73.41
   1   5   2  924.28   56.39
   1   5   2  942.30   55.99
   1  -5   2  940.94   66.97
   2  -5   2  155.51   28.53
  -2  -5  -2  181.01   30.42
   2   5   2  135.80   15.05
   2   5   2  141.09   18.12
   3   5   2  342.95   23.29
   3  -5   2  310.18   42.21
   4  -5   2  152.90   30.27
   5  -5   2  831.38   77.17
   6  -5   2  153.69   34.61
   7  -5   2  146.45   35.36
   8  -5   2   30.86   18.10
   9  -5   2  -11.63    8.51
 -10   5  -2  664.20   98.70
  10  -5   2  510.85   78.44
  11  -5   2   13.45   14.82
  11  -6  -2  194.90   58.04
 -10   6   2   68.33   31.62
  10  -6  -2  120.81   45.68
  -9   6   2  417.13   70.85
   9  -6  -2  277.65   60.75
  -8   6   2    4.40   22.56
   8  -6  -2  -38.28   22.98
  -7  -6   2  375.33   31.14
   7  -6  -2  430.44   70.48
  -7   6   2  484.35   71.51
  -6  -6   2 1494.45   71.36
   6  -6  -2 1408.03  123.57
  -6   6   2 1371.28  122.32
  -5   6   2  167.27   39.43
  -5  -6   2  179.30   23.54
   5  -6  -2  213.53   44.87
  -4  -6   2 1382.19   73.73
   4  -6  -2 1293.48  108.56
  -4   6   2 1230.46  106.22
   3  -6  -2  647.79   72.11
  -3   6   2  598.13   69.55
  -3  -6   2  607.69   48.58
  -2   6   2  140.03   31.18
   2  -6  -2  167.62   34.65
  -2  -6   2  120.25   22.46
   1  -6  -2  300.26   46.83
  -1  -6   2  305.27   37.09
  -1   6   2  287.88   41.63
   0  -6  -2  304.53   44.22
   0   6   2  319.37   40.84
   0  -6   2  285.90   37.24
   1   6   2   38.86   12.19
   1  -6   2   27.20   13.20
  -1  -6  -2   38.00   14.54
   2   6   2  172.70   20.99
  -2  -6  -2  134.21   27.19
   2  -6   2  128.79   27.21
   2   6   2  120.63   18.67
   3  -6   2 2167.33  129.11
   4  -6   2   21.48   10.85
   5  -6   2  737.49   78.20
   6  -6   2  771.43   83.18
   7  -6   2   -6.99   10.45
   8  -6   2  220.60   48.49
  -9   6  -2  197.61   58.03
   9  -6   2   68.99   26.51
  -9   7   2  417.44   75.07
   9  -7  -2  419.87   79.59
  -8   7   2  269.55   58.13
   8  -7  -2  227.34   56.41
  -7   7   2  134.23   41.67
   7  -7  -2  149.99   42.69
  -6   7   2   30.78   23.75
   6  -7  -2   -2.70   13.58
  -6  -7   2   24.14   10.63
  -5   7   2   88.49   32.60
   5  -7  -2   76.71   29.22
  -5  -7   2   54.66   14.87
  -4   7   2  -14.32   14.37
  -4  -7   2    2.55    5.51
   4  -7  -2   10.17   14.40
  -3   7   2  555.89   72.36
  -3  -7   2  639.89   54.85
   3  -7  -2  575.31   72.74
   2  -7  -2  543.61   68.15
  -2   7   2  615.31   71.76
  -2  -7   2  573.69   54.55
  -1   7   2  373.89   52.38
  -1  -7   2  301.21   41.03
   1  -7  -2  446.32   59.05
   0   7   2  809.62   72.11
   0  -7   2  657.07   64.32
   0  -7  -2  806.50   78.47
   1  -7   2  337.58   47.27
  -1  -7  -2  424.77   54.59
   1   7   2  339.64   41.48
  -2  -7  -2  843.11   77.01
   2  -7   2  817.54   77.62
   3  -7   2   44.18   19.58
   4  -7   2   36.54   19.02
   5  -7   2   32.42   15.88
   6  -7   2  206.45   44.06
   7  -7   2  341.21   60.38
  -8   8   2  238.22   62.13
   7  -8  -2  462.97   80.60
  -7   8   2  485.75   80.52
   6  -8  -2   12.39   16.54
  -6   8   2   -5.27   16.46
  -5   8   2 2245.60  171.39
   5  -8  -2 2491.53  179.90
  -4  -8   2   15.70    9.93
  -4   8   2   20.95   10.92
   4  -8  -2    9.90    9.63
  -3  -8   2    9.95    5.60
   3  -8  -2   26.98   18.11
  -3   8   2    4.26   16.45
   2  -8  -2  929.22   96.93
  -2  -8   2 1029.68   80.51
  -2   8   2 1079.97  102.23
  -1  -8   2  102.82   25.63
  -1   8   2  114.52   29.16
   1  -8  -2   84.90   26.15
   0   8   2   47.88   20.10
   0  -8  -2   99.62   29.01
   0  -8   2   77.97   23.74
  -1  -8  -2  270.74   46.14
   1  -8   2  453.65   58.44
   2  -8   2  626.11   72.74
   3  -8   2   51.94   21.56
   4  -8   2 2480.19  162.44
   5  -8   2  126.59   36.71
   6  -8   2  107.28   35.51
  -6   9   2  -20.60   23.79
   5  -9  -2   22.01   18.33
  -5   9   2   23.11   23.02
   4  -9  -2   14.95   15.41
  -4   9   2   16.18   23.21
  -3   9   2  520.79   76.96
   3  -9  -2  394.88   68.44
  -3  -9   2  455.10   53.78
  -2   9   2  -12.27   14.80
   2  -9  -2   -4.36   10.61
  -2  -9   2  -10.42   13.22
   1  -9  -2  325.87   58.07
  -1  -9   2  438.48   57.02
   0  -9   2  978.27   91.22
   0  -9  -2  830.82   90.72
   1  -9   2   -0.77    9.30
   2  -9   2  224.28   45.39
   3  -9   2   14.37   12.46
  -4  10   2  204.61   51.93
   3 -10  -2  192.10   48.94
  -2 -10   2   16.67   12.40
   2 -10  -2   41.36   28.28
  -1 -10   2  -22.95   15.09
   0 -10   2   58.47   25.13
 -14   0   3  -22.38   13.33
 -13   0   3   -3.06    9.68
 -12   0   3   -2.30    6.99
 -11   0   3    5.18    3.01
 -11   0   3    2.31    7.45
 -10   0   3    0.66    2.05
 -10   0   3   15.87   10.38
  -9   0   3    0.72    6.71
  -8   0   3    1.10    5.98
  -7   0   3   -0.23    6.44
  -6   0   3   -5.04    6.45
  -5   0   3    0.15    4.64
  -5   0   3    1.20    5.29
  -4   0   3    4.82    4.64
  -3   0   3    3.22    4.60
   2   0  -3    3.50    1.52
  -2   0   3   -5.51    6.55
   2   0  -3    0.56    3.68
  -1   0   3    3.73    5.93
   1   0  -3    1.61    1.66
   1   0  -3   -2.77    4.88
   0   0   3    2.88    4.25
   0   0  -3    0.26    3.62
  -1   0  -3    5.97    5.09
   1   0   3    5.74    5.45
   1   0   3   -0.78    3.49
  -2   0  -3    7.87    5.56
   2   0   3    2.63    3.63
  -3   0  -3   -0.53    3.49
   3   0   3    9.81    5.48
  -4   0  -3    0.75    3.62
   4   0   3   -3.23    3.28
   5   0   3    5.85    6.06
  -5   0  -3   11.49    6.98
   6   0   3    1.93    4.45
   7   0   3   11.91    7.21
  -8   0  -3    0.84    3.20
   8   0   3    1.17    4.79
  -9   0  -3   -5.38    4.97
  -9   0  -3   -3.14    7.41
 -10   0  -3   -4.95    4.83
 -11   0  -3    6.85    5.10
 -14   1   3  127.28   33.23
 -13  -1   3  260.63   38.37
 -13   1   3  249.23   44.85
 -12  -1   3 1085.76   79.56
 -12   1   3 1090.01   91.66
 -11  -1   3   -0.27    1.77
 -11  -1   3    0.07    5.37
 -11   1   3   -2.69   13.80
 -10  -1   3   69.70    9.45
 -10  -1   3   56.35   15.80
 -10   1   3   27.44   11.03
  -9  -1   3  238.12   16.64
  -9  -1   3  225.76   31.20
  -9   1   3  267.29   39.61
  -8   1   3  580.89   56.46
  -8  -1   3  630.91   51.17
  -8  -1   3  651.98   27.54
  -7  -1   3  788.31   55.37
  -7   1   3  874.66   66.63
  -6  -1   3 1140.49   63.81
  -6   1   3 1106.66   71.77
  -5   1   3 1623.10   83.73
   5   1  -3 1545.65   79.33
  -5  -1   3 1561.78   75.23
  -4  -1   3 3540.94  126.82
   4   1  -3 3541.44  129.63
  -4   1   3 3717.34  133.04
  -3  -1   3 2451.86   96.89
   3   1  -3 2721.22   99.74
   3  -1  -3 2556.86  103.85
  -3   1   3 2404.55   97.27
  -2   1   3   75.15    7.14
  -2  -1   3   99.79   15.75
  -2   1   3   79.35   13.24
   2  -1  -3   74.01   14.89
  -1   1   3   43.55    6.13
  -1  -1   3   52.99   12.42
   1   1  -3   59.37   12.47
  -1   1   3   52.95   11.38
   1  -1  -3   52.14   10.29
   0  -1  -3 1491.70   52.47
   0   1   3 1576.46   65.34
   0   1  -3 1666.76   75.75
   0  -1  -3 1672.97   64.00
   0  -1   3 1607.50   68.40
   0  -1   3 1606.77   63.67
  -1  -1  -3 1559.37   53.72
  -1   1  -3 1514.31   71.44
  -1  -1  -3 1466.52   60.72
   1   1   3 1374.52   58.56
   1  -1   3 1425.77   61.12
  -2  -1  -3 2612.90   90.37
  -2   1  -3 2638.99  103.95
   2  -1   3 2510.85   92.76
   2   1   3 2644.20   82.85
  -3   1  -3  221.10   22.57
  -3  -1  -3  159.76   16.09
  -3  -1  -3  193.14   20.36
   3  -1   3  187.62   22.03
  -3   1  -3  193.49   24.82
   3   1   3  203.23   17.35
  -4  -1  -3 1843.52   68.54
  -4  -1  -3 1787.65   72.68
   4  -1   3 1667.72   81.26
   4   1   3 1810.87   68.61
  -4   1  -3 1870.18   77.98
  -5  -1  -3  930.18   46.10
   5   1   3  984.94   48.69
   5  -1   3  870.62   58.38
  -5  -1  -3  868.44   48.30
  -6  -1  -3 1029.56   51.28
  -6  -1  -3 1003.11   53.58
   6  -1   3  946.90   66.72
  -7  -1  -3  145.30   18.40
   7   1   3  140.91   18.51
   7  -1   3  108.06   22.92
  -8  -1  -3   83.34   19.50
  -8  -1  -3   83.71   14.63
   8  -1   3   56.03   16.34
  -9  -1  -3  276.27   27.95
   9  -1   3  240.61   37.47
  -9   1  -3  232.10   45.18
 -10  -1  -3  471.93   38.64
 -10   1  -3  631.82   75.92
 -11   1  -3  419.79   37.43
 -11  -1  -3  361.57   35.14
 -14   2   3  169.41   40.13
 -13   2   3   19.70   10.59
 -12  -2   3  127.58   24.86
 -12   2   3  109.39   29.51
 -11  -2   3   17.06    7.97
 -11   2   3    2.21    8.35
 -10  -2   3 1496.79   84.41
 -10   2   3 1380.20  105.59
  -9  -2   3   -2.61    4.35
  -9   2   3   -7.07    9.54
  -8  -2   3  431.19   40.49
  -8   2   3  431.65   52.02
  -7  -2   3 1726.19   85.97
  -7   2   3 1642.56  102.57
  -6  -2   3  262.54   29.18
  -6   2   3  231.08   35.87
  -5  -2   3 1374.74   68.54
  -5   2   3 1246.91   78.65
   5   2  -3 1183.23   35.34
  -4  -2   3  201.44   24.60
   4   2  -3  239.47   28.00
  -4   2   3  230.01   29.47
  -3   2   3   78.21   19.13
   3   2  -3  152.76   22.36
   3  -2  -3  169.44   26.45
  -3  -2   3  150.48   20.64
  -3   2   3  170.49   23.44
  -2  -2   3 1552.75   65.02
  -2   2   3 1663.52   90.11
   2   2  -3 1645.36   80.57
   2  -2  -3 1566.10   79.26
  -2  -2   3 1548.15   71.28
  -2   2   3 1590.49   72.59
  -1   2   3 3018.11   88.13
  -1   2   3 2857.12  100.49
   1  -2  -3 2969.18  108.15
  -1   2   3 2772.84  121.49
  -1  -2   3 2814.42  105.05
  -1  -2   3 2889.44  100.93
   0   2   3   50.61   12.88
   0   2   3   65.64    9.03
   0   2   3   63.11   11.35
   0  -2   3   63.88   12.65
   0  -2  -3   50.63   10.84
  -1   2  -3  662.96   42.28
   1   2   3  711.47   34.53
   1   2   3  577.24   34.79
  -1  -2  -3  664.64   35.55
   1  -2   3  690.07   42.85
  -1   2  -3  714.50   49.25
   2   2   3 3607.72   98.10
  -2  -2  -3 3446.01   97.91
   2  -2   3 3464.41  120.07
   3   2   3   54.99    7.87
  -3  -2  -3   47.41    8.89
   3  -2   3   38.85   11.39
  -3  -2  -3   38.73    6.93
  -4  -2  -3 2131.88   77.80
   4  -2   3 1918.79   95.68
  -4  -2  -3 1980.60   68.24
   4   2   3 2162.99   66.92
   5   2   3    8.47    3.41
  -5  -2  -3   17.19    6.41
  -5  -2  -3   11.29    3.78
   5  -2   3    8.24    6.19
   6  -2   3   17.73   10.37
  -6  -2  -3   18.33    6.74
  -6  -2  -3   17.35    7.16
   6   2   3   10.94    3.72
  -6  -2  -3   22.51    5.80
  -7  -2  -3  448.46   33.99
   7  -2   3  370.71   46.05
  -8  -2  -3  862.71   50.50
   8  -2   3  905.50   76.42
  -9  -2  -3   10.03    6.03
   9  -2   3    5.10    9.08
 -10  -2  -3   76.44   15.51
 -10   2  -3   57.77   21.97
 -11  -2  -3  546.95   44.15
 -13   3   3  688.29   84.86
 -12   3   3  -13.67   16.94
 -11   3   3  260.69   49.68
 -11  -3   3  190.36   28.63
 -10   3   3  233.22   45.02
  10  -3  -3  150.99   41.28
 -10  -3   3  211.84   28.98
  -9   3   3   14.52   10.16
   9  -3  -3   31.97   23.18
  -9  -3   3   21.91    9.89
  -8   3   3   45.95   22.03
   8  -3  -3   33.49   19.79
  -8  -3   3   59.64   14.53
  -7  -3   3  951.60   60.89
   7  -3  -3 1078.84  103.23
  -7   3   3  995.29   84.77
  -6   3   3    0.37    7.47
  -6  -3   3   -2.84    6.88
  -5  -3   3  216.82   22.01
  -5   3   3  195.52   32.51
   5  -3  -3  238.00   43.01
  -5  -3   3  255.21   28.62
  -4  -3   3 3267.35  120.48
   4  -3  -3 3301.90  169.35
  -4   3   3 3293.87  145.51
  -4  -3   3 3284.99  110.24
   3  -3  -3  584.01   62.86
  -3  -3   3  524.08   39.53
  -3   3   3  519.64   46.84
   3  -3  -3  571.51   52.71
  -3  -3   3  529.00   36.80
  -2   3   3  643.19   53.19
  -2   3   3  713.31   49.87
   2  -3  -3  683.27   53.25
  -2  -3   3  583.82   42.78
  -2  -3   3  677.04   41.69
  -1   3   3  728.02   54.86
  -1   3   3  845.62   49.09
   1  -3  -3  789.52   54.48
  -1  -3   3  782.07   46.67
   0   3   3  483.66   40.55
   0   3   3  451.76   31.20
   0  -3  -3  411.75   34.80
   0  -3   3  507.33   37.65
   1   3   3  258.78   27.17
  -1  -3  -3  277.56   24.23
   1   3   3  275.06   21.82
   1  -3   3  308.78   30.79
   2   3   3  631.58   39.75
  -2  -3  -3  617.85   32.45
   2  -3   3  610.09   47.96
   2   3   3  604.40   28.90
  -3  -3  -3    9.44    2.84
   3   3   3   24.07    6.24
   3  -3   3   22.87   12.14
   4   3   3    0.68    1.08
   4   3   3    1.80    1.02
   5  -3   3 1663.81  100.39
   6  -3   3  687.01   64.87
  -7  -3  -3  371.22   33.61
   7  -3   3  325.33   47.83
  -8  -3  -3  320.67   31.85
   8  -3   3  268.31   43.77
  -9  -3  -3  165.11   23.47
   9  -3   3  117.10   30.52
 -10   3  -3  329.43   68.42
  10  -3   3  282.56   49.68
 -11   3  -3   24.06   15.99
 -12   4   3   40.13   26.93
  11  -4  -3  941.04  120.27
 -11   4   3 1137.37  113.10
 -10   4   3   46.16   25.33
  10  -4  -3   56.02   30.24
 -10  -4   3   45.60   14.27
  -9  -4   3 2145.15   97.56
   9  -4  -3 1997.58  164.15
  -9   4   3 2090.56  147.62
  -9  -4   3 2038.38   79.49
  -8  -4   3  748.35   51.80
  -8   4   3  620.01   76.12
   8  -4  -3  748.35   92.79
  -8  -4   3  629.83   39.80
   7  -4  -3    5.16   12.12
   7   4  -3   -3.94    2.77
  -7  -4   3    0.88    3.57
  -7  -4   3    6.90    4.78
   6   4  -3 3121.52   98.15
   6  -4  -3 3351.04  190.91
  -6  -4   3 3504.74  125.93
  -6   4   3 3081.67  167.18
  -6  -4   3 3310.54  112.39
  -5   4   3   63.30   19.04
  -5  -4   3   54.70   11.52
   5  -4  -3   56.20   24.08
  -5  -4   3   58.67   13.48
  -4   4   3  321.58   43.90
   4  -4  -3  270.79   46.59
  -4  -4   3  295.83   31.53
  -4  -4   3  313.99   28.07
  -3   4   3    9.58    7.42
   3  -4  -3   -5.90   10.00
  -3  -4   3    7.31    5.87
   2  -4  -3 3383.51  169.30
  -2   4   3 3249.87  139.50
  -2  -4   3 3452.84  122.60
   1  -4  -3  314.55   46.87
  -1   4   3  307.05   32.70
  -1  -4   3  366.54   34.20
   0   4   3 2564.96  109.94
   0   4   3 2649.16   98.84
   0  -4   3 2538.96  108.92
   1   4   3 1625.85   61.76
   1   4   3 1476.68   73.27
   1  -4   3 1450.76   82.02
   2  -4   3   25.25   11.28
   2   4   3   27.46    5.65
   2   4   3   39.02    9.30
   3   4   3 3339.70  102.61
   3  -4   3 3447.99  148.25
   4  -4   3   14.45   11.15
   5  -4   3  277.27   41.61
   6  -4   3  154.57   32.70
   7  -4   3  843.58   81.85
   8  -4   3  313.53   51.90
   9  -4   3  417.54   62.40
 -10   4  -3  586.66   95.75
  10  -4   3  412.91   66.04
  12  -5  -3   43.88   31.80
  11  -5  -3  661.16  104.17
 -11   5   3  711.53   93.57
 -10   5   3    7.12   14.78
  10  -5  -3   39.25   26.08
  -9   5   3  167.36   44.10
  -9  -5   3  181.71   23.37
   9  -5  -3  212.44   50.71
  -8   5   3  378.10   62.97
   8  -5  -3  330.95   64.98
  -8  -5   3  374.56   34.72
  -8  -5   3  333.64   28.01
  -7   5   3  368.28   60.30
   7  -5  -3  287.96   58.85
  -7  -5   3  408.63   32.21
  -7  -5   3  417.89   36.85
  -6   5   3  418.34   61.65
   6  -5  -3  440.49   67.16
  -6  -5   3  501.11   36.99
   5  -5  -3  221.95   44.76
  -5   5   3  234.14   43.71
  -5  -5   3  235.18   26.59
   4  -5  -3 1333.29  112.54
  -4   5   3 1297.64  100.88
  -4  -5   3 1413.85   70.95
  -3   5   3  133.59   29.64
  -3  -5   3   95.21   17.56
   3  -5  -3   85.98   28.71
   2  -5  -3 3063.95  168.49
  -2   5   3 3028.39  143.80
  -2  -5   3 2901.71  119.93
   1  -5  -3  492.34   62.07
  -1   5   3  494.52   47.13
  -1  -5   3  500.85   44.37
   0  -5  -3  543.22   65.39
   0   5   3  644.97   46.96
   0  -5   3  624.54   53.63
   1   5   3  547.37   35.50
   1   5   3  472.18   40.37
   1  -5   3  463.11   47.27
   2   5   3  123.95   17.87
   2   5   3  125.66   12.66
   2  -5   3  140.23   26.70
   3  -5   3  143.26   28.88
   3   5   3  104.33   13.13
   4  -5   3  172.53   33.39
   5  -5   3  887.62   81.90
   6  -5   3    0.35   12.77
   7  -5   3 1040.93   96.72
   8  -5   3  435.38   64.41
   9  -5   3   24.54   10.62
  10  -5   3  205.86   51.31
  11  -6  -3  -22.44   24.97
  10  -6  -3  590.07   97.96
 -10   6   3  629.89   91.34
  -9   6   3   38.05   24.69
   9  -6  -3   69.52   37.26
  -8   6   3  188.76   45.14
   8  -6  -3  205.91   53.97
   7  -6  -3  725.49   96.96
  -7   6   3  799.11   92.87
  -7  -6   3  812.15   50.75
  -6   6   3   -6.76   10.76
   6  -6  -3   -8.93   24.09
  -6  -6   3    2.44    6.22
  -5   6   3  303.53   53.22
   5  -6  -3  215.07   49.39
  -5  -6   3  377.06   36.52
  -4   6   3  132.63   33.69
   4  -6  -3  103.70   32.87
  -4  -6   3  131.38   21.93
  -3   6   3   12.25   13.53
  -3  -6   3   12.21    8.71
  -2   6   3   30.90   14.59
  -2  -6   3   31.13   12.46
   2  -6  -3   48.08   22.67
  -1   6   3 1337.32   88.57
  -1  -6   3 1350.31   85.19
   1  -6  -3 1496.47  115.79
   0  -6  -3   -7.59   10.68
   0  -6   3   -3.68    7.53
   0   6   3    9.00    6.31
   1  -6   3  117.24   25.20
   1   6   3  145.82   20.04
   2   6   3  873.48   39.82
   2  -6   3 1046.18   82.52
   3  -6   3   -1.02   10.02
   4  -6   3  303.03   47.54
   5  -6   3    0.85   11.59
   6  -6   3    5.73   10.28
   7  -6   3  272.19   51.87
   8  -6   3  344.64   61.64
  -9   7   3  372.05   72.69
   9  -7  -3  365.49   75.83
   8  -7  -3  999.15  123.92
  -8   7   3  933.37  111.44
  -7   7   3   79.03   32.02
   7  -7  -3   42.55   23.01
  -6   7   3   12.97   15.24
   6  -7  -3    3.23   14.21
  -6  -7   3    3.59    4.70
  -5   7   3  199.85   47.61
  -5  -7   3  181.11   27.34
   5  -7  -3  163.20   42.10
  -4   7   3  156.44   39.10
   4  -7  -3  143.92   40.29
  -4  -7   3  166.84   26.81
   3  -7  -3  892.14   98.73
  -3   7   3  878.97   88.94
  -3  -7   3  876.37   67.46
  -2   7   3  203.38   38.87
   2  -7  -3  199.68   43.64
  -2  -7   3  177.44   30.03
  -1   7   3  -29.00   14.32
   1  -7  -3  -15.29   12.97
  -1  -7   3    0.41    7.74
   0  -7  -3 1114.50  103.04
   0   7   3 1057.80   74.70
   0  -7   3 1030.43   83.15
  -1  -7  -3  793.70   86.51
   1  -7   3  818.19   76.49
   2  -7   3   18.96   11.15
   3  -7   3    0.59   14.29
   4  -7   3  116.54   31.48
   5  -7   3  200.21   44.00
   6  -7   3 1013.83  103.64
  -8   8   3   31.69   23.19
  -7   8   3   52.18   30.51
   7  -8  -3   18.69   24.89
  -6   8   3  147.37   43.77
   6  -8  -3   71.49   29.61
  -5   8   3   27.85   19.56
  -5  -8   3   62.27   18.25
   5  -8  -3   50.50   28.48
  -4   8   3   22.79   16.43
   4  -8  -3   18.90   15.83
  -4  -8   3   33.24   12.54
   3  -8  -3   14.65   11.65
  -3  -8   3   39.60   15.86
  -2   8   3  113.35   32.48
   2  -8  -3  100.32   36.15
  -2  -8   3   91.81   23.65
  -1   8   3   17.32   13.05
  -1  -8   3   14.31    7.54
   0  -8   3  106.66   27.45
   0  -8  -3  128.18   38.17
   1  -8   3   17.30   12.26
   2  -8   3  -11.43    8.13
   3  -8   3  122.25   34.73
   4  -8   3   37.84   20.07
  -6   9   3  104.97   40.70
  -5   9   3  197.73   52.65
   5  -9  -3  320.15   73.42
  -4  -9   3    1.75    6.84
   4  -9  -3   -6.49   18.59
   3  -9  -3  640.72   96.61
  -3   9   3  659.41   85.17
  -3  -9   3  834.44   76.16
  -2  -9   3   46.18   19.30
   2  -9  -3   56.19   31.23
  -1  -9   3    5.10    8.29
   1  -9  -3   32.94   25.89
   0  -9   3  601.09   71.98
   1  -9   3  394.40   58.95
   2  -9   3   27.54   14.66
   3 -10  -3  173.18   55.31
  -2 -10   3   51.07   24.46
  -1 -10   3  423.42   63.26
 -14   0   4   50.44   18.94
 -13   0   4  420.72   55.04
 -12   0   4  239.32   39.84
 -11   0   4   -1.80    8.83
 -10   0   4 2783.93   80.15
 -10   0   4 2814.57  139.49
  -9   0   4   39.74    5.26
  -9   0   4   36.61   16.39
  -8   0   4  103.62    7.29
  -8   0   4   92.53   22.16
  -7   0   4 1325.14   34.75
  -7   0   4 1805.56   91.47
  -6   0   4  431.20   41.22
  -5   0   4   35.83   11.03
  -4   0   4 2251.94   98.69
  -3   0   4 1027.85   61.05
   2   0  -4   96.24    8.51
  -2   0   4   75.14   15.70
   2   0  -4  121.30   18.68
   1   0  -4 9787.56  242.71
   1   0  -4 9999.00  280.62
  -1   0   4 9887.37  278.98
   0   0  -4 1386.07   49.98
   0   0   4 1327.40   66.36
   0   0  -4 1507.49   74.32
   1   0   4   10.23    6.70
   1   0   4    5.50    4.14
  -1   0  -4    8.32    6.10
  -2   0  -4 1782.29   85.86
   2   0   4 1810.69   74.37
  -3   0  -4  461.50   40.06
   3   0   4  458.68   34.31
   4   0   4  324.11   30.41
  -5   0  -4  237.68   21.99
   5   0   4  232.36   27.65
  -6   0  -4  970.94   50.30
   6   0   4  913.31   61.40
  -7   0  -4  216.22   23.73
   7   0   4  242.83   31.62
  -8   0  -4 2535.33   99.43
  -9   0  -4  667.14   46.45
 -10   0  -4   16.08    8.55
 -14  -1   4  279.62   42.28
 -14   1   4  264.70   47.93
 -13  -1   4  -30.77   14.47
 -13   1   4    1.05   10.66
 -12  -1   4  149.25   29.36
 -12   1   4  122.12   30.74
 -11  -1   4   12.98    7.36
 -11   1   4    7.82    9.46
 -10  -1   4  217.45   32.96
 -10   1   4  212.44   36.87
  -9  -1   4   31.15   11.64
  -9   1   4   61.25   20.22
  -8  -1   4  740.53   58.05
  -8   1   4  843.31   68.87
  -7  -1   4  546.36   47.81
  -7   1   4  472.59   48.64
  -6  -1   4  776.98   57.32
  -6   1   4  805.30   60.94
  -5  -1   4 2317.25  105.58
  -5   1   4 2305.29  106.34
  -4   1   4  422.55   19.08
  -4  -1   4  542.80   44.24
  -4   1   4  505.25   42.26
   3   1  -4  581.01   20.20
  -3   1   4  523.29   23.56
  -3  -1   4  538.51   43.59
  -3   1   4  654.34   45.08
   3  -1  -4  610.90   47.63
  -2   1   4  113.96   10.20
  -2  -1   4   93.47   17.97
  -2   1   4  116.06   18.38
   2  -1  -4  111.17   18.62
  -1  -1   4  277.95   29.02
  -1   1   4  262.99   27.20
   1   1  -4  259.43   30.23
   1  -1  -4  296.70   28.85
   0  -1  -4   45.48    7.80
   0  -1   4   36.50    9.18
   0  -1   4   41.69   12.11
   0   1   4   42.50   10.81
   0  -1  -4   42.99   11.52
   1   1   4  805.08   46.49
  -1  -1  -4  797.98   47.73
   1  -1   4  819.55   48.26
  -2  -1  -4  466.83   36.47
  -2  -1  -4  444.17   29.08
   2  -1   4  464.52   35.81
   2   1   4  511.73   32.65
  -3  -1  -4  643.07   36.61
  -3  -1  -4  611.71   42.62
   3  -1   4  584.04   43.29
   3   1   4  579.79   36.25
  -4  -1  -4 1599.14   66.25
  -4  -1  -4 1449.33   72.49
   4  -1   4 1613.20   81.81
   4   1   4 1598.29   68.73
  -5  -1  -4  319.85   27.09
   5  -1   4  316.61   35.56
   5   1   4  293.10   27.80
  -5  -1  -4  288.48   29.96
  -6  -1  -4  532.01   37.30
   6   1   4  512.74   39.74
   6  -1   4  518.13   49.37
   7  -1   4  106.53   23.18
  -7  -1  -4   99.36   16.32
  -8  -1  -4   -8.19    6.39
   8  -1   4    3.63    6.96
  -9  -1  -4   43.03   12.01
 -10   1  -4  140.75   21.54
 -10  -1  -4  170.53   23.59
 -14   2   4  107.85   34.33
 -13  -2   4  119.31   26.24
 -13   2   4  100.41   32.57
 -12  -2   4  156.58   31.68
 -12   2   4  153.92   34.64
 -11  -2   4  810.73   67.39
 -11   2   4  671.04   73.27
 -10  -2   4   86.17   21.36
 -10   2   4   42.60   14.72
  -9  -2   4  537.77   51.63
  -9   2   4  527.91   59.88
  -8  -2   4  791.28   61.11
  -8   2   4  664.63   65.06
  -7  -2   4  428.40   43.28
  -7   2   4  400.68   47.25
  -6  -2   4   -4.17    7.80
  -6   2   4   11.62    8.03
  -5  -2   4  117.36   21.48
  -5   2   4  123.62   23.80
  -4  -2   4   16.40    7.80
  -4   2   4   31.00   11.41
  -3  -2   4  341.44   34.94
  -3   2   4  370.21   35.43
  -2  -2   4 2762.59  100.49
  -2   2   4 2617.09   81.70
  -2   2   4 2662.99  104.38
   2  -2  -4 2664.80  113.30
  -2  -2   4 2742.70  110.19
  -1  -2   4   52.24   13.61
  -1   2   4   58.80   12.97
  -1   2   4   53.02    8.48
  -1  -2   4   58.96   12.34
   1  -2  -4   47.44   12.24
   0   2   4  605.49   41.07
   0  -2  -4  609.55   40.92
   0  -2   4  633.71   42.88
   1   2   4 1770.99   75.05
  -1  -2  -4 1822.01   74.67
   1  -2   4 1825.41   81.86
   2  -2   4    7.11    7.92
  -2  -2  -4    6.03    4.07
   2   2   4    6.47    4.51
  -2  -2  -4    7.98    4.32
  -3  -2  -4   47.37   10.30
   3   2   4   46.77    9.33
  -3  -2  -4   64.35   10.92
   3  -2   4   26.15   10.38
  -4  -2  -4  193.94   21.09
  -4  -2  -4  171.61   17.70
   4  -2   4  167.11   26.27
   4   2   4  203.91   18.55
  -5  -2  -4    8.02    5.12
   5   2   4   19.98    6.24
   6  -2   4    5.46    6.07
  -6  -2  -4    1.76    2.50
  -7  -2  -4 1320.21   66.85
   7  -2   4 1311.89   93.03
  -8  -2  -4    5.52    4.85
   8  -2   4    9.93    7.48
  -9  -2  -4  122.18   19.39
 -13   3   4  445.04   67.61
 -12  -3   4  159.75   29.30
 -12   3   4  139.19   35.76
 -11  -3   4   17.84   10.01
 -11   3   4   31.06   19.46
 -10  -3   4    0.28    4.63
 -10   3   4   -1.47   12.90
  -9  -3   4  758.44   61.22
  -9   3   4  753.33   78.22
  -8  -3   4  166.04   28.03
  -8   3   4  157.87   34.10
  -7  -3   4  580.04   51.50
  -7   3   4  570.06   61.09
   6   3  -4    2.53    1.43
  -6  -3   4  -25.58   10.96
  -6   3   4  -12.82    6.73
  -5  -3   4  175.36   21.83
  -5  -3   4  202.94   27.67
  -5   3   4  152.39   29.12
  -4  -3   4 1723.79   86.81
  -4   3   4 1769.31   96.92
  -4  -3   4 1842.73   80.62
  -3  -3   4  417.76   38.17
  -3   3   4  347.37   37.28
  -3  -3   4  341.77   31.27
   2  -3  -4   10.58    7.35
  -2  -3   4   10.72    6.09
  -2  -3   4   10.68    6.31
  -2   3   4   18.24    7.62
   1  -3  -4   36.11   10.31
  -1  -3   4   29.78    9.75
  -1   3   4   41.70   10.80
   0   3   4  827.97   61.74
   0   3   4  788.48   48.42
   0  -3  -4  737.62   51.07
   0  -3   4  899.60   55.61
   1   3   4 1034.98   67.37
   1   3   4 1030.70   53.75
  -1  -3  -4 1028.30   55.74
   1  -3   4 1102.78   65.34
   2   3   4  667.62   35.55
   2   3   4  527.48   44.12
  -2  -3  -4  533.76   35.48
   2  -3   4  578.41   48.41
   3   3   4  333.82   22.52
   3   3   4  303.48   30.42
  -3  -3  -4  252.45   21.00
   3  -3   4  316.06   38.14
   4   3   4  164.25   18.81
   4  -3   4  210.37   32.17
   4   3   4  202.34   15.73
   5  -3   4 1403.86   92.48
   6  -3   4  139.72   29.03
   7  -3   4  -10.39   11.77
  -7  -3  -4   -3.72    7.39
  -8  -3  -4  151.46   22.82
   8  -3   4  217.85   41.36
   9  -3   4  278.86   48.79
 -12   4   4  127.78   38.11
 -11  -4   4   17.54    9.18
 -11   4   4   31.54   19.27
 -10  -4   4   41.94   10.64
 -10  -4   4   29.53   11.46
 -10   4   4   43.86   24.23
  -9  -4   4   48.13   14.12
  -9   4   4   75.49   27.45
  -9  -4   4   32.69    9.73
  -8  -4   4   93.36   20.06
  -8  -4   4   76.84   14.25
  -8   4   4   99.23   26.91
  -7  -4   4   -6.01    6.70
  -7  -4   4   -2.66    6.47
  -7   4   4   -7.33   11.74
   6   4  -4   26.76    6.05
  -6  -4   4   29.22   10.61
  -6  -4   4   17.17    7.69
  -6   4   4    9.24    9.82
  -5  -4   4   48.62   11.89
  -5  -4   4   38.96   12.27
  -5   4   4   35.93   14.72
  -4  -4   4   88.21   16.06
  -4  -4   4   66.22   16.61
  -4   4   4   80.46   21.69
  -3   4   4  454.41   46.32
  -3  -4   4  435.56   38.03
  -2  -4   4  186.45   24.88
  -2   4   4  195.22   27.55
   1  -4  -4  133.19   23.12
  -1  -4   4  101.86   19.24
  -1   4   4   96.80   17.93
   0  -4  -4   13.68    7.68
   0   4   4    8.20    4.75
  -1  -4  -4   96.83   16.29
   1   4   4   70.93   15.91
   1   4   4   84.37   13.43
   1  -4   4   99.20   20.70
   2   4   4   33.89    9.29
   2   4   4   55.29    8.95
   2  -4   4   38.10   13.07
   3  -4   4   68.25   18.85
   3   4   4   93.24   13.84
   4  -4   4   -3.55   10.87
   5  -4   4  119.39   28.00
   6  -4   4   25.51   15.74
   7  -4   4   79.01   24.98
   8  -4   4   35.50   18.53
   9  -4   4   -3.26   12.88
 -11   5   4    1.70   16.41
 -10   5   4   28.23   10.44
  10  -5  -4   33.85   28.26
  -9   5   4  440.68   69.79
   9  -5  -4  437.70   81.89
  -9  -5   4  546.89   46.92
  -9  -5   4  502.23   38.52
  -8   5   4   58.90   26.02
   8  -5  -4   54.54   31.99
  -8  -5   4   56.54   14.10
  -8  -5   4   43.18   11.24
   7  -5  -4  612.80   88.71
  -7  -5   4  850.70   58.43
  -7   5   4  678.38   78.88
  -7  -5   4  747.19   49.96
  -6   5   4  113.25   31.52
   6  -5  -4   83.85   30.29
  -6  -5   4  128.65   23.52
  -6  -5   4  122.94   19.67
   5  -5  -4   70.09   29.30
  -5  -5   4   59.87   13.70
  -5   5   4   46.35   19.88
   4  -5  -4 1243.12  118.54
  -4   5   4 1507.56  102.91
  -4  -5   4 1551.97   79.31
  -3  -5   4   54.18   14.12
  -3   5   4   53.89   17.75
  -2  -5   4   19.93    9.82
  -2   5   4    3.60    7.96
  -1   5   4   55.13   14.07
  -1  -5   4   37.84   13.65
   0   5   4  515.05   39.87
   0  -5   4  497.41   49.42
   1   5   4  245.62   24.34
   1  -5   4  262.17   36.74
   2   5   4  835.84   38.06
   2  -5   4  818.33   69.77
   3  -5   4  257.19   40.23
   4  -5   4   38.27   19.22
   5  -5   4  991.92   89.68
   6  -5   4   32.50   16.01
   7  -5   4   47.52   21.37
   8  -5   4   14.11   10.52
   9  -5   4  180.32   44.39
 -10   6   4  133.32   43.59
  10  -6  -4  100.19   42.49
  -9   6   4  261.02   57.10
   9  -6  -4  275.26   67.21
  -8   6   4  -17.57   14.93
   8  -6  -4  -24.67   32.70
  -8  -6   4    3.75    3.35
  -7   6   4   92.24   31.70
   7  -6  -4   31.00   16.51
  -7  -6   4   86.25   17.08
   6  -6  -4  447.85   79.39
  -6   6   4  529.82   69.75
  -6  -6   4  496.33   43.16
   5  -6  -4  670.82   92.21
  -5   6   4  629.31   74.19
  -5  -6   4  734.97   53.93
   4  -6  -4  212.07   48.35
  -4  -6   4  299.14   34.28
  -4   6   4  220.63   40.77
   3  -6  -4   12.41   15.95
  -3  -6   4    3.57    4.66
  -3   6   4    2.87    8.93
  -2   6   4 1289.48   87.72
  -2  -6   4 1191.14   79.64
  -1  -6   4   63.74   19.58
  -1   6   4   55.38   16.52
   0   6   4  768.27   53.15
   0  -6   4  736.83   66.29
   1   6   4  157.90   19.16
   1  -6   4  161.03   31.94
   2  -6   4   25.80   14.46
   3  -6   4 1193.21   95.68
   4  -6   4  217.26   41.73
   5  -6   4  416.12   60.53
   6  -6   4   -6.06   12.28
   7  -6   4  533.91   76.14
  -9   7   4  144.76   43.43
   9  -7  -4  213.73   58.64
  -8   7   4  434.55   73.02
   8  -7  -4  567.49   96.53
  -7   7   4  112.88   37.88
   7  -7  -4  130.29   43.79
  -7  -7   4  149.11   24.47
   6  -7  -4  596.63   92.85
  -6   7   4  594.35   80.91
  -6  -7   4  544.85   50.00
  -5   7   4  434.41   66.46
   5  -7  -4  503.70   84.05
  -5  -7   4  568.26   52.17
  -4   7   4   -1.29   15.28
   4  -7  -4  -14.76   25.02
  -4  -7   4   15.27   10.67
   3  -7  -4  136.06   40.09
  -3  -7   4  105.29   24.52
  -3   7   4  112.14   28.02
   2  -7  -4   19.67   23.00
  -2  -7   4   16.74    9.41
  -2   7   4   11.98    9.89
  -1  -7   4   12.79    8.92
  -1   7   4   10.75    6.48
   0  -7   4   54.75   18.64
   1  -7   4  498.56   59.98
   2  -7   4   39.64   20.19
   3  -7   4  581.31   71.53
   4  -7   4  764.09   85.18
   5  -7   4  184.72   43.46
  -8   8   4  102.75   40.21
  -7   8   4  202.37   51.87
   7  -8  -4  220.51   62.19
   6  -8  -4  869.61  119.83
  -6   8   4  715.67   94.38
  -6  -8   4  845.50   66.55
  -5   8   4   64.20   30.56
   5  -8  -4   47.09   14.97
  -5  -8   4   46.86   16.33
  -4   8   4  128.52   35.97
   4  -8  -4   97.66   36.86
  -4  -8   4  111.94   25.25
   3  -8  -4  899.28  112.87
  -3   8   4  876.76   87.70
  -3  -8   4  949.46   77.88
   2  -8  -4   35.11   20.42
  -2  -8   4   17.02    8.06
  -2   8   4   27.35   16.77
  -1  -8   4 1132.20   91.93
   0  -8   4   44.05   18.93
   1  -8   4  235.09   44.91
   2  -8   4  709.12   81.29
   3  -8   4  671.75   81.80
  -6   9   4  176.21   49.68
  -5   9   4  306.76   61.07
   5  -9  -4  197.49   60.88
   4  -9  -4   35.95   29.71
  -4  -9   4    6.38    8.94
  -4   9   4   21.46   16.41
   3  -9  -4  294.07   68.83
  -3  -9   4  283.39   45.65
  -2  -9   4   10.61    9.49
  -1  -9   4  140.31   34.37
   0  -9   4   80.00   28.01
 -14   0   5   -5.28    6.38
 -13   0   5   -7.68   13.00
 -12   0   5   -1.02   10.87
 -11   0   5   -9.95    9.72
 -10   0   5   -4.89    9.25
  -9   0   5  -19.52   11.20
  -8   0   5   -8.52    8.40
  -7   0   5   -4.53    6.98
  -6   0   5    6.75    8.69
  -5   0   5   -2.58    8.47
  -4   0   5   -8.06    7.56
  -3   0   5    2.17    6.26
   2   0  -5    3.78    1.38
  -2   0   5    8.42    7.02
   1   0  -5    0.46    1.74
  -1   0   5   14.79    8.35
   0   0   5   -0.43    5.15
  -1   0  -5   -1.84    2.68
   1   0   5    5.52    5.29
   2   0   5   -1.96    4.20
  -2   0  -5   -0.32    2.16
  -3   0  -5    0.53    2.94
   3   0   5    0.26    4.73
  -4   0  -5   -1.95    3.38
   4   0   5   -4.75    4.88
  -5   0  -5    5.11    3.47
   5   0   5  -14.42    8.05
  -6   0  -5    1.03    3.86
   6   0   5   10.68   10.57
  -7   0  -5    4.12    4.91
  -8   0  -5    8.29    5.19
 -14  -1   5  389.46   54.24
 -14   1   5  509.58   67.32
 -13  -1   5  896.71   80.83
 -13   1   5  950.02   90.47
 -12  -1   5    1.73   11.50
 -12   1   5   25.71   14.19
 -11  -1   5   13.47   10.25
 -11   1   5  -18.84   14.93
 -10  -1   5  681.52   63.90
 -10   1   5  604.70   64.82
  -9  -1   5   19.84    9.31
  -9   1   5   34.06   13.38
  -8  -1   5 1245.24   84.08
  -8   1   5 1234.74   87.98
  -7  -1   5  110.62   22.93
  -7   1   5   64.84   18.05
  -6   1   5   10.25    2.36
  -6  -1   5   10.84    7.53
  -6   1   5   -2.15    8.09
  -5   1   5 1853.55   54.47
  -5  -1   5 2024.70  103.07
  -5   1   5 2148.26  102.89
  -4   1   5 1423.12   81.71
  -4  -1   5 1561.33   87.05
   3   1  -5    3.19    1.04
  -3  -1   5   10.32    7.87
  -3   1   5    2.07    9.09
  -2  -1   5   69.08   16.44
  -2   1   5   58.70   14.63
  -1  -1   5  404.34   34.26
  -1  -1   5  448.15   40.98
  -1   1   5  409.19   38.96
   0  -1   5    8.27    5.70
   0  -1  -5    0.29    2.55
   0  -1   5   -2.79    6.40
   0   1   5   -2.55    5.14
  -1  -1  -5 2521.26   88.02
   1   1   5 2604.11  105.08
   1  -1   5 2555.29  104.42
   2   1   5    3.65    3.96
  -2  -1  -5    8.31    3.28
   2  -1   5    6.72    5.67
  -3  -1  -5  147.84   18.14
   3  -1   5  140.78   22.05
   3   1   5  148.14   19.69
  -4  -1  -5 1143.31   58.00
   4  -1   5 1044.24   69.10
  -5  -1  -5  226.46   24.50
   5  -1   5  251.90   33.54
   5   1   5  203.00   25.45
  -6  -1  -5   11.87    4.87
   6  -1   5   25.22   12.06
   7  -1   5    5.77    8.24
  -7  -1  -5   -1.95    4.81
  -8   1  -5  131.89   19.97
  -8  -1  -5  121.86   19.61
 -13  -2   5  213.10   38.42
 -13   2   5  160.72   39.62
 -12  -2   5  575.18   63.03
 -12   2   5  791.63   83.35
 -11  -2   5  127.01   28.17
 -11   2   5   95.62   27.54
 -10  -2   5  423.79   49.97
 -10   2   5  479.48   60.29
  -9  -2   5   25.00   11.04
  -9   2   5   38.49   18.72
  -8  -2   5  466.84   50.66
  -8   2   5  449.76   53.44
  -7  -2   5   22.93   10.35
  -7   2   5   45.67   16.26
  -6  -2   5 1844.80  102.29
  -6   2   5 1907.53  107.15
  -5  -2   5  106.40   22.13
  -5   2   5  108.23   21.92
  -4   2   5  352.88   21.49
  -4  -2   5  462.13   44.64
  -4   2   5  440.49   43.16
  -3   2   5 1711.33   60.92
  -3  -2   5 1761.65   92.04
  -3   2   5 1785.95   89.91
  -2   2   5   18.28    4.97
  -2  -2   5    1.70    4.19
  -2  -2   5   18.08    6.80
  -2   2   5    7.92    8.76
  -1  -2   5 1505.62   81.30
  -1   2   5 1446.42   78.24
  -1  -2   5 1537.66   76.50
   0  -2   5   44.34   12.64
   0   2   5   24.59    8.07
   0  -2  -5   40.84   11.55
   1   2   5  366.49   33.27
  -1  -2  -5  394.80   34.47
   1  -2   5  339.02   34.81
   2   2   5   31.65    8.64
  -2  -2  -5   16.99    7.14
   2  -2   5   35.24   12.11
  -2  -2  -5   23.56    9.25
  -3  -2  -5 1095.60   56.15
  -3  -2  -5  985.49   53.96
   3  -2   5  975.90   67.32
   3   2   5 1095.52   54.57
  -4  -2  -5  100.21   16.13
   4   2   5   81.96   13.52
   4  -2   5  103.23   22.49
   5  -2   5  131.27   26.49
   5   2   5  170.65   20.33
  -6  -2  -5 1126.33   61.55
   6  -2   5  978.24   79.43
   7  -2   5   18.29   11.70
  -7  -2  -5    0.69    2.94
  -8  -2  -5  303.50   32.36
   8  -2   5  250.59   43.43
 -13   3   5   24.91   21.92
 -12  -3   5  177.67   33.67
 -12   3   5  197.87   44.59
 -11  -3   5  857.85   73.05
 -11   3   5  733.39   81.33
 -10  -3   5  369.00   46.50
 -10   3   5  443.95   61.46
  -9  -3   5  363.47   45.51
  -9   3   5  413.19   56.77
  -8  -3   5  250.58   36.61
  -8   3   5  229.32   41.38
  -7  -3   5 1107.82   77.69
  -7   3   5 1186.29   90.40
   6   3  -5  339.64   13.36
  -6  -3   5  414.86   44.64
  -6   3   5  390.73   48.09
  -5  -3   5  184.09   28.34
  -5  -3   5  154.61   22.50
  -5   3   5  230.85   35.29
  -4  -3   5  131.25   21.14
  -4  -3   5  141.65   24.36
  -4   3   5  119.87   24.14
  -3  -3   5   26.21    9.16
  -3  -3   5   24.04    9.77
  -3   3   5   38.95   12.89
  -2  -3   5  853.10   63.07
  -2   3   5  933.21   61.13
  -2  -3   5  963.01   60.06
  -1   3   5  640.10   49.85
  -1  -3   5  736.89   52.35
   0   3   5  842.94   55.26
   0  -3  -5  760.31   54.71
   0  -3   5  887.96   59.43
   1   3   5  187.37   23.09
   1  -3   5  161.77   25.78
  -1  -3  -5  153.47   22.46
   2   3   5 1457.33   64.69
   2   3   5 1259.18   80.29
  -2  -3  -5 1301.13   64.87
   2  -3   5 1455.52   84.62
   3  -3   5 1118.07   78.60
   3   3   5 1208.56   55.48
   4   3   5   43.92    9.24
   4  -3   5   48.93   17.86
   5  -3   5   41.67   16.15
   6  -3   5   16.36    9.17
   7  -3   5   43.17   18.47
   8  -3   5  118.44   30.73
 -12   4   5  -17.78   17.92
 -11  -4   5 1429.03   93.89
 -11   4   5 1422.19  123.57
 -10  -4   5  127.41   20.99
 -10  -4   5  118.08   25.68
 -10   4   5  112.22   33.09
  -9  -4   5   -2.64    5.44
  -9  -4   5   10.02    9.68
  -8  -4   5   73.93   15.88
  -8  -4   5   96.39   21.53
  -8   4   5   70.41   25.01
  -7  -4   5 1947.63  106.50
  -7   4   5 1993.95  129.46
  -7  -4   5 2110.14   95.40
  -6  -4   5  -18.90    8.58
  -6  -4   5   -8.14    8.05
  -6   4   5   -1.47   10.69
  -5  -4   5  996.62   69.68
  -5   4   5 1081.74   82.80
  -5  -4   5 1139.48   67.16
  -4   4   5 1220.23   83.61
  -4  -4   5 1269.62   71.08
  -3   4   5   55.65   15.43
  -3  -4   5   41.20   12.93
  -2   4   5 3204.84  132.05
  -2  -4   5 3154.94  129.35
  -1  -4   5   40.96   14.26
  -1   4   5   19.99    8.83
   0  -4  -5   15.16    9.82
   0  -4   5   11.87    9.04
   0   4   5   13.45    8.02
   1   4   5  378.40   32.85
  -1  -4  -5  303.63   32.99
   1  -4   5  366.62   42.10
   2   4   5  877.79   45.16
   2  -4   5  758.28   65.24
   3  -4   5   -7.93   13.92
   4  -4   5  623.85   63.83
   5  -4   5  755.90   74.59
   6  -4   5   33.53   17.75
   7  -4   5 1332.33  112.75
   8  -4   5   35.47   21.36
 -11   5   5   50.40   24.14
 -10  -5   5   59.04   15.18
 -10  -5   5   59.53   16.90
 -10   5   5   82.14   31.14
  -9  -5   5 1509.27   90.94
  -9   5   5 1301.44  117.47
  -9  -5   5 1374.65   76.05
  -8  -5   5   20.80    9.14
  -8  -5   5   16.09    9.37
  -8   5   5   25.32    9.98
  -7  -5   5  208.08   31.07
  -7  -5   5  255.81   30.37
  -7   5   5  246.37   45.94
  -6  -5   5  344.71   40.09
  -6  -5   5  319.30   35.64
  -6   5   5  336.38   51.20
  -5  -5   5   31.55   11.04
  -5   5   5   40.80   20.37
  -4  -5   5   76.17   17.31
  -4   5   5   65.40   21.53
  -3   5   5 1061.67   77.56
  -3  -5   5 1066.19   69.50
  -2  -5   5   80.74   18.34
  -2   5   5   55.41   15.00
  -1  -5   5   -7.52    5.39
  -1   5   5   -0.70    6.95
   0   5   5 1430.15   76.75
   0  -5   5 1528.92   93.27
   1   5   5  156.17   20.12
   1  -5   5  186.17   33.01
   2  -5   5  289.15   42.51
   3  -5   5  365.34   50.47
   4  -5   5  103.00   27.65
   5  -5   5  347.12   53.84
   6  -5   5   91.91   29.18
   7  -5   5   26.80   16.74
 -10   6   5  259.82   55.01
  -9  -6   5   -1.25    3.76
  -9   6   5   13.82   12.17
  -8  -6   5  258.69   31.35
  -8   6   5  232.79   48.25
  -7  -6   5   28.96   11.50
  -7   6   5   34.83   19.27
  -6  -6   5  304.85   35.76
  -6   6   5  320.99   53.17
  -5  -6   5   48.03   13.93
  -5   6   5   62.86   23.20
  -4  -6   5  115.34   23.10
  -4   6   5  101.28   27.44
  -3   6   5  655.13   63.50
  -3  -6   5  542.60   52.50
  -2   6   5   82.66   20.70
  -2  -6   5   61.52   18.43
  -1   6   5  468.02   44.44
  -1  -6   5  368.92   46.44
   0  -6   5   32.73   14.42
   0   6   5   53.92   13.55
   1  -6   5  260.53   40.69
   2  -6   5   66.69   21.71
   3  -6   5  172.32   36.96
   4  -6   5   -5.30   13.72
   5  -6   5   85.38   28.58
   6  -6   5  764.22   90.66
  -9   7   5  572.20   86.48
  -8   7   5  418.86   70.08
  -7  -7   5   82.90   19.73
  -7   7   5   67.89   28.90
  -6  -7   5   61.11   17.06
  -6   7   5   42.84   15.76
  -5  -7   5  151.82   28.10
  -5   7   5  145.70   37.10
  -4   7   5  405.69   56.35
  -4  -7   5  358.60   44.40
  -3  -7   5  183.63   31.95
  -3   7   5  175.05   34.49
  -2  -7   5    5.77    6.87
  -2   7   5    0.08    6.65
  -1  -7   5  584.07   63.82
   0  -7   5  629.48   67.47
   1  -7   5  297.55   47.65
   2  -7   5  119.73   32.58
   3  -7   5   16.32   14.16
   4  -7   5  153.32   39.99
  -7   8   5  -15.91   16.84
  -6  -8   5   44.92   16.09
  -6   8   5   18.43   11.39
  -5  -8   5  150.95   29.26
  -5   8   5  117.44   35.96
  -4  -8   5   51.07   19.04
  -4   8   5   69.02   22.34
  -3  -8   5    5.02   10.43
  -2  -8   5    2.62   11.36
  -1  -8   5   10.40    8.08
   0  -8   5   60.19   21.79
   1  -8   5  -17.21   16.29
  -5  -9   5   46.99   19.56
  -4  -9   5  138.20   31.52
  -3  -9   5  130.95   31.32
 -14   0   6   67.32   27.75
 -13   0   6   26.58   16.04
 -12   0   6  230.68   42.04
 -11   0   6 1604.74  110.78
 -10   0   6   55.45   21.33
  -9   0   6  129.20   28.79
  -8   0   6 3756.08  171.59
  -7   0   6    4.08    8.33
  -6   0   6 2226.62  120.28
  -5   0   6  216.71   34.24
  -4   0   6   80.38   19.35
  -3   0   6 1952.64  105.48
  -2   0   6 3778.11  154.06
   1   0  -6   77.07   11.22
  -1   0   6   49.24   13.28
   0   0  -6   25.85    7.14
   0   0   6   14.46    7.21
   0   0   6   11.49    9.61
  -1   0  -6 3219.97  107.53
   1   0   6 3050.41  122.77
   2   0   6   15.19    7.06
  -2   0  -6   21.62    7.38
  -3   0  -6 1627.36   72.85
   3   0   6 1680.72   86.06
   4   0   6  169.37   26.11
  -4   0  -6  146.03   19.70
  -5   0  -6   76.81   15.31
   5   0   6   63.02   16.76
  -6   0  -6 2392.38  100.84
  -7   0  -6  521.80   42.99
 -14  -1   6   12.52   10.96
 -13  -1   6  651.77   73.73
 -13   1   6  720.32   79.52
 -12  -1   6  281.03   46.74
 -12   1   6  242.01   44.66
 -11  -1   6   89.76   25.03
 -11   1   6   91.84   26.18
 -10  -1   6  780.91   74.65
 -10   1   6  829.93   77.20
  -9  -1   6    9.33    6.62
  -9   1   6   16.41   10.72
  -8   1   6  328.63   44.94
  -8  -1   6  263.70   41.18
  -7  -1   6   -7.60   13.35
  -7   1   6   -5.48    9.13
  -6  -1   6  777.09   66.00
  -6   1   6  742.48   64.64
  -5  -1   6   24.84    8.95
  -5   1   6   30.74   13.31
  -4  -1   6 1307.09   85.28
  -4   1   6 1249.76   83.09
   3   1  -6  693.83   30.65
  -3  -1   6  615.82   55.24
   2   1  -6  222.42   17.44
  -2  -1   6  179.04   28.62
  -2   1   6  216.11   31.79
  -1  -1   6 1626.32   81.29
   1   1  -6 1613.52   60.61
  -1  -1   6 1538.97   87.77
  -1   1   6 1514.96   86.72
   0  -1  -6  114.57   15.21
   0  -1   6   78.09   20.16
   0   1   6  117.83   21.64
   0  -1   6   91.88   19.12
   1   1   6  478.45   39.18
  -1  -1  -6  480.81   33.51
   1   1   6  438.95   41.43
   1  -1   6  455.65   41.80
  -2  -1  -6   62.69   12.20
   2  -1   6   65.45   16.39
   2   1   6   76.91   15.42
  -3  -1  -6  143.42   19.16
   3  -1   6  152.09   25.01
   3   1   6  171.49   23.42
   4   1   6   42.72   12.13
  -4  -1  -6   20.15    7.35
   4  -1   6   21.44   10.82
  -5   1  -6  225.26   25.46
  -5  -1  -6  286.37   29.44
   5  -1   6  245.31   35.94
  -6   1  -6  143.29   20.81
  -6  -1  -6  126.75   20.19
   6  -1   6  144.74   29.15
  -7   1  -6  179.95   24.58
  -7  -1  -6  173.31   24.04
 -14  -2   6   18.65   14.85
 -13  -2   6   23.23   16.90
 -13   2   6   31.36   12.47
 -12  -2   6   66.75   24.11
 -12   2   6   69.86   25.71
 -11  -2   6  308.16   46.29
 -11   2   6  286.41   50.62
 -10  -2   6  747.63   71.57
 -10   2   6  873.64   84.82
  -9  -2   6  773.31   71.14
  -9   2   6  786.08   76.23
  -8  -2   6  104.73   25.12
  -8   2   6  144.08   30.92
  -7  -2   6  873.31   73.95
  -7   2   6 1025.84   80.14
  -6   2   6   96.15   10.40
  -6  -2   6  102.94   25.40
  -6   2   6  148.84   28.58
  -5   2   6  429.54   24.51
  -5  -2   6  413.65   46.95
  -5   2   6  456.57   48.46
   4   2  -6  387.34   18.94
  -4   2   6  320.57   22.10
  -4  -2   6  400.12   45.25
  -4   2   6  324.35   40.72
  -3  -2   6  162.48   23.68
  -3  -2   6  219.17   31.80
  -3   2   6  215.19   31.83
  -2  -2   6 1018.21   70.37
  -2   2   6  952.92   68.66
  -2  -2   6 1016.60   63.81
  -1  -2   6  333.41   39.90
  -1   2   6  324.81   39.15
  -1  -2   6  383.74   38.13
   0   2   6 1155.83   70.39
   0  -2   6 1074.13   68.19
   1   2   6  100.32   18.36
   1  -2   6   88.60   19.48
  -2  -2  -6  625.99   43.90
   2  -2   6  618.50   52.90
   2   2   6  647.16   44.98
   3  -2   6  194.78   30.56
  -3  -2  -6  178.19   23.04
   3   2   6  193.49   23.73
   4  -2   6  592.24   58.36
   4   2   6  692.57   47.36
  -5  -2  -6  430.28   37.83
   5  -2   6  268.86   41.43
  -6  -2  -6  234.15   28.20
   6  -2   6  145.40   31.37
   7  -2   6  287.09   47.23
  -7  -2  -6  411.62   38.92
 -13  -3   6   93.51   26.87
 -12  -3   6   92.00   26.19
 -12   3   6  145.75   37.68
 -11  -3   6  136.99   30.81
 -11   3   6  102.75   31.55
 -10  -3   6  100.11   25.99
 -10   3   6  212.73   43.31
  -9  -3   6  734.66   70.80
  -9   3   6  775.12   80.47
  -8  -3   6  291.61   42.06
  -8   3   6  376.92   52.03
  -7  -3   6   36.46   14.14
  -7   3   6   13.56    8.25
  -6  -3   6  496.90   51.53
  -6   3   6  361.49   47.69
  -5  -3   6 1315.97   76.50
  -5  -3   6 1316.10   86.60
  -5   3   6 1331.46   89.14
  -4  -3   6  709.89   60.37
  -4   3   6  712.26   61.18
  -4  -3   6  674.34   52.62
  -3  -3   6  290.52   36.61
  -3   3   6  280.54   37.04
  -3  -3   6  311.06   35.31
  -2  -3   6  533.32   53.61
  -2   3   6  547.46   51.08
  -2  -3   6  551.80   47.94
  -1   3   6  244.69   32.96
  -1  -3   6  249.16   32.22
   0   3   6 1996.02   97.31
   0  -3   6 1892.76   99.68
   1   3   6  233.14   28.18
   1  -3   6  212.03   31.53
   2  -3   6   12.67    7.04
   3  -3   6  484.83   53.35
   3   3   6  533.78   38.98
   4  -3   6 1084.37   84.81
   5  -3   6  207.12   37.39
   6  -3   6   70.82   22.70
   7  -3   6  218.31   44.60
 -12  -4   6   66.79   20.94
 -11  -4   6   -1.22    4.45
 -11  -4   6   23.19   14.24
 -11   4   6   35.42   23.05
 -10  -4   6   58.29   15.99
 -10  -4   6   48.38   18.28
 -10   4   6   58.21   25.47
  -9  -4   6   13.85    6.56
  -9  -4   6   15.72   12.50
  -9   4   6    3.80    9.37
  -8  -4   6  -22.15    9.88
  -8  -4   6    1.42    7.93
  -8   4   6   -5.42   12.24
  -7  -4   6   -6.47    4.28
  -7  -4   6    9.77    7.18
  -7   4   6    3.87    6.61
  -6  -4   6  195.76   28.25
  -6  -4   6  225.07   34.89
  -6   4   6  154.76   32.56
  -5  -4   6   48.85   17.11
  -5  -4   6   18.57   10.02
  -5   4   6   39.48   16.53
  -4  -4   6  252.19   38.32
  -4  -4   6  337.63   38.19
  -3  -4   6   10.18    7.39
  -3   4   6   11.39    7.66
  -2  -4   6   26.72   10.69
  -2   4   6   15.38    9.66
  -1  -4   6   -3.24   10.27
  -1   4   6   -0.70    6.33
   0  -4   6   82.23   20.56
   0   4   6   86.06   18.45
   1  -4   6    2.81    5.81
   1   4   6    0.51    4.96
   2  -4   6   91.94   22.87
   3  -4   6   38.09   14.78
   4  -4   6   42.98   17.29
   5  -4   6   22.53   14.00
   6  -4   6    2.57   15.01
   7  -4   6   40.49   20.67
 -11  -5   6  319.11   44.63
 -10  -5   6   15.85    7.93
 -10   5   6   10.62    7.38
  -9  -5   6  564.14   57.06
  -9   5   6  557.71   74.02
  -9  -5   6  467.13   46.11
  -8  -5   6  245.33   36.74
  -8   5   6  245.07   47.74
  -8  -5   6  221.57   30.37
  -7  -5   6    3.51    5.31
  -7  -5   6    7.93    8.75
  -7   5   6   15.12   13.02
  -6  -5   6  192.00   29.78
  -6  -5   6  165.36   30.13
  -6   5   6  217.22   41.67
  -5   5   6 1033.65   87.11
  -5  -5   6 1116.65   74.10
  -4  -5   6  113.39   22.55
  -4   5   6   56.96   17.19
  -3   5   6  259.52   37.31
  -3  -5   6  245.35   34.14
  -2   5   6  616.44   55.50
  -2  -5   6  660.31   58.22
  -1  -5   6   64.26   18.42
  -1   5   6   50.27   15.07
   0   5   6  729.92   55.41
   0  -5   6  767.12   67.74
   1  -5   6  104.25   26.20
   2  -5   6    1.41    5.41
   3  -5   6  472.26   60.01
   4  -5   6  597.45   69.74
   5  -5   6   -1.56   10.29
   6  -5   6   51.73   22.09
  -9  -6   6  115.55   22.11
  -9   6   6  141.31   40.60
  -8  -6   6   63.47   17.03
  -8   6   6   54.08   23.85
  -7   6   6 1264.16  111.96
  -7  -6   6 1329.11   82.65
  -6  -6   6   77.24   18.97
  -6   6   6   71.65   26.10
  -5  -6   6  195.41   31.47
  -5   6   6  220.39   41.32
  -4   6   6 1010.98   85.84
  -4  -6   6 1047.09   76.47
  -3  -6   6  177.81   31.56
  -3   6   6  176.29   31.45
  -2   6   6  171.98   29.51
  -2  -6   6  220.55   35.54
  -1  -6   6  231.01   38.71
   0  -6   6   79.44   23.88
   1  -6   6   -5.36    8.12
   2  -6   6 2246.14  140.98
   3  -6   6   10.58   11.07
   4  -6   6  114.31   35.18
  -8  -7   6   95.91   21.38
  -8   7   6  137.08   40.66
  -7  -7   6   18.52   10.59
  -7   7   6   62.01   27.84
  -6  -7   6   42.53   14.12
  -6   7   6   31.71   14.48
  -5   7   6  -10.67    8.45
  -5  -7   6    5.43    7.65
  -4   7   6  330.99   51.34
  -4  -7   6  286.87   41.26
  -3   7   6  404.46   51.70
  -3  -7   6  470.87   54.90
  -2  -7   6  466.17   57.37
  -1  -7   6  384.37   53.68
   0  -7   6  270.18   46.92
   1  -7   6  441.20   61.64
  -7  -8   6   27.36   14.59
  -7   8   6   35.67   17.38
  -6   8   6 1240.10  116.54
  -6  -8   6 1328.83   94.43
  -5  -8   6  170.14   33.92
  -5   8   6  173.04   41.32
  -4  -8   6   44.81   18.92
  -3  -8   6  784.16   78.17
  -2  -8   6  116.21   29.77
 -13   0   7    0.83   11.44
 -12   0   7    6.62   10.32
 -11   0   7    5.84    9.40
 -10   0   7   -8.12   15.31
  -9   0   7    4.66    8.59
  -8   0   7    2.29    7.50
  -7   0   7  -23.52   15.87
  -6   0   7    5.61    8.91
  -5   0   7   -6.32   10.20
  -4   0   7    0.43    6.68
  -3   0   7    4.81    6.44
   2   0  -7    4.93    3.15
  -2   0   7   -0.45    7.25
   1   0  -7    8.43    4.28
  -1   0   7   -0.36    7.51
   0   0  -7   -6.03    4.22
   0   0   7    0.23    3.88
   0   0   7    1.86    5.94
  -1   0  -7   -2.27    3.17
   1   0   7   -8.17    6.33
  -2   0  -7   -3.73    4.35
   2   0   7    3.86    3.66
  -3   0  -7    0.22    5.30
   3   0   7   -3.84    5.06
  -4   0  -7  -16.70    7.53
   4   0   7    5.24    6.85
  -5   0  -7    4.36    5.12
  -6   0  -7    6.91    4.91
 -13  -1   7  325.83   54.44
 -12  -1   7   59.32   24.19
 -12   1   7   89.30   29.10
 -11  -1   7  182.85   38.23
 -11   1   7  174.97   38.26
 -10  -1   7   35.79   13.54
 -10   1   7   84.25   26.76
  -9  -1   7  206.40   37.28
  -9   1   7  240.12   42.37
  -8  -1   7  151.28   33.35
  -8   1   7  245.31   42.31
  -7  -1   7   89.46   24.48
  -7   1   7   35.42   20.49
  -6  -1   7 1326.84   95.97
  -6   1   7 1287.81   95.21
  -5  -1   7  438.81   52.07
  -5   1   7  456.04   53.05
  -4  -1   7  234.43   36.65
  -4   1   7  270.14   40.01
  -3  -1   7  354.75   43.40
  -3   1   7  310.27   42.22
   2   1  -7    9.88    4.50
  -2  -1   7  -11.29   11.65
  -2  -1   7   -8.29    7.24
  -2   1   7    7.32    9.32
   1   1  -7  415.12   29.77
  -1  -1   7  427.83   46.80
  -1   1   7  304.21   38.72
  -1  -1   7  373.29   39.64
   0   1  -7  313.32   27.23
   0  -1  -7  444.71   34.37
   0   1   7  405.73   43.49
   0  -1   7  404.01   41.67
  -1   1  -7  166.60   20.31
  -1  -1  -7  211.14   24.01
   1  -1   7  175.57   27.64
   1   1   7  185.26   26.57
  -2   1  -7    8.21    6.49
   2   1   7   17.46    7.50
  -2  -1  -7   11.19    6.63
   2  -1   7    1.93    7.49
  -3   1  -7 1203.42   64.53
  -3  -1  -7 1356.78   69.31
   3  -1   7 1313.78   85.19
   3   1   7 1465.81   80.49
  -4   1  -7  262.26   28.59
  -4  -1  -7  248.17   28.32
   4  -1   7  220.27   34.32
  -5   1  -7   89.23   17.38
  -5  -1  -7   85.69   16.87
   5  -1   7   61.14   19.01
  -6   1  -7  159.08   23.91
  -6  -1  -7  154.37   23.99
 -13  -2   7  284.63   49.96
 -12  -2   7    5.03    7.46
 -12   2   7    5.89    9.56
 -11  -2   7  805.86   80.89
 -11   2   7  767.24   83.09
 -10  -2   7   88.28   24.61
 -10   2   7   62.83   21.12
  -9  -2   7   -3.76    9.98
  -9   2   7   25.64   14.69
  -8  -2   7  666.15   69.91
  -8   2   7  802.22   76.44
  -7  -2   7    9.59    8.46
  -7   2   7    7.21    6.66
  -6  -2   7  237.06   38.07
  -6   2   7  193.53   35.97
  -5  -2   7    4.37    6.71
  -5   2   7   -6.87    9.84
   4   2  -7  284.26   18.51
  -4  -2   7  251.36   37.02
  -4   2   7  263.51   39.05
  -3  -2   7   78.26   18.85
  -3  -2   7  129.91   26.44
  -3   2   7  108.59   23.94
  -2  -2   7  779.98   65.85
  -2   2   7  648.92   61.59
  -2  -2   7  830.34   61.52
  -1  -2   7  167.53   26.94
  -1   2   7  176.65   29.11
   0   2   7   27.58   10.83
   0  -2   7   35.21   12.59
   1   2   7 1425.20   77.02
   1   2   7 1448.02   83.52
   1  -2   7 1254.57   82.70
   2  -2   7    8.24    7.05
   2   2   7   -4.48    5.20
  -3  -2  -7  317.51   33.28
   3   2   7  320.32   33.49
   3  -2   7  270.12   39.25
  -4  -2  -7   82.84   17.49
   4  -2   7   40.07   14.74
  -5  -2  -7  140.44   23.61
   5  -2   7  119.20   29.78
   6  -2   7  226.19   42.39
 -13  -3   7   57.47   25.15
 -12  -3   7   -4.11   11.24
 -11  -3   7  155.67   35.29
 -11   3   7  167.50   40.74
 -10  -3   7   14.17   14.05
 -10   3   7   13.21   11.12
  -9  -3   7   13.58    9.20
  -9   3   7   -0.85   13.39
  -8  -3   7  715.35   70.43
  -8   3   7  727.09   75.66
  -7  -3   7  125.90   26.33
  -7   3   7  183.99   35.03
  -6  -3   7   46.25   16.24
  -6   3   7   45.08   17.72
  -6  -3   7   22.35    8.59
  -5  -3   7 1489.71   98.07
  -5   3   7 1340.37   97.20
  -5  -3   7 1549.47   88.82
  -4  -3   7  499.31   53.16
  -4   3   7  372.01   49.36
  -4  -3   7  507.35   48.76
  -3  -3   7  198.30   32.63
  -3  -3   7  215.74   32.28
  -3   3   7  200.11   34.16
  -2   3   7  243.44   36.12
  -2  -3   7  274.02   36.52
  -1   3   7  147.49   27.35
  -1  -3   7  106.84   22.38
   0  -3   7  141.60   27.00
   0   3   7  126.23   23.95
   1   3   7  445.52   42.16
   1  -3   7  488.47   51.38
   2  -3   7  180.93   32.26
   2   3   7  159.75   22.80
   3  -3   7   25.28   14.59
   4  -3   7  666.65   69.97
   5  -3   7  403.65   56.52
   6  -3   7  203.16   41.71
 -12  -4   7  936.95   85.82
 -11  -4   7   -4.35   12.07
 -11  -4   7    1.87    5.37
 -10  -4   7  688.08   59.08
 -10  -4   7  827.26   77.91
 -10   4   7  733.89   86.32
  -9  -4   7 1118.09   89.60
  -9   4   7 1099.66  102.73
  -9  -4   7 1068.24   74.68
  -8  -4   7   -1.34    9.13
  -8  -4   7   15.57    8.67
  -8   4   7    1.49    9.23
  -7  -4   7 1083.07   85.35
  -7   4   7 1137.00   96.30
  -7  -4   7 1135.04   76.56
  -6  -4   7    7.74    7.95
  -6   4   7   -9.90   12.55
  -6  -4   7   -8.79   11.26
  -5  -4   7    1.37    7.94
  -5  -4   7    0.36   10.12
  -5   4   7    1.91   10.99
  -4  -4   7   59.21   17.83
  -4  -4   7   72.58   21.07
  -4   4   7   56.24   19.22
  -3   4   7 1602.11  104.15
  -3  -4   7 1842.30  102.37
  -2  -4   7   -5.44    5.53
  -2   4   7   -3.38    5.44
  -1   4   7  499.04   51.65
  -1  -4   7  587.41   56.65
   0   4   7 1415.19   83.89
   0  -4   7 1419.82   94.37
   1  -4   7   11.13    8.01
   2  -4   7 1372.41   99.30
   3  -4   7   63.53   20.98
   4  -4   7    6.27    7.39
   5  -4   7  184.39   40.87
   6  -4   7  558.92   74.76
 -11  -5   7  144.99   32.53
 -10  -5   7   81.96   19.80
 -10  -5   7  104.00   26.58
 -10   5   7   70.03   27.61
  -9  -5   7   60.95   18.09
  -9  -5   7   31.23   15.35
  -9   5   7   58.77   26.06
  -8  -5   7  110.83   24.16
  -8  -5   7  125.93   28.87
  -8   5   7  157.46   39.55
  -7  -5   7  551.91   59.32
  -7   5   7  605.04   72.69
  -7  -5   7  580.32   55.21
  -6  -5   7  305.57   44.40
  -6   5   7  307.60   48.48
  -6  -5   7  285.26   39.09
  -5   5   7  519.19   60.80
  -5  -5   7  547.35   54.36
  -4  -5   7   91.07   22.14
  -4   5   7   37.13   15.77
  -3   5   7  636.86   64.63
  -3  -5   7  699.53   63.26
  -2   5   7  569.89   57.33
  -2  -5   7  595.77   59.57
  -1  -5   7  216.20   35.63
  -1   5   7  201.10   31.33
   0  -5   7   40.36   16.84
   1  -5   7   -9.73    9.83
   2  -5   7  204.15   39.51
   3  -5   7   84.95   27.94
   4  -5   7  589.35   73.57
 -10  -6   7   15.93   12.34
  -9  -6   7   14.59    9.32
  -9   6   7   26.36   18.52
  -8  -6   7  450.46   48.98
  -8   6   7  476.66   70.05
  -7  -6   7   16.37   13.64
  -7   6   7    6.58   13.74
  -6  -6   7  176.41   31.07
  -6   6   7  189.37   41.16
  -5  -6   7   26.13   10.47
  -5   6   7   -7.78   11.89
  -4  -6   7  137.19   29.79
  -4   6   7   91.38   24.60
  -3  -6   7   60.56   19.55
  -3   6   7   29.38   13.51
  -2  -6   7  807.01   74.52
  -1  -6   7   38.02   13.93
   0  -6   7   26.47   15.40
   1  -6   7  620.93   71.78
  -8  -7   7    2.73    8.24
  -7  -7   7   52.14   16.38
  -7   7   7   76.48   26.84
  -6  -7   7  262.29   40.46
  -6   7   7  246.79   49.69
  -5  -7   7  111.12   26.52
  -5   7   7   77.74   23.49
  -4  -7   7  452.23   55.51
  -3  -7   7   -5.51    8.06
  -2  -7   7  121.73   31.87
 -11   0   8 1669.46  129.37
 -10   0   8  220.04   44.08
  -9   0   8  150.53   35.66
  -8   0   8 1182.76   99.51
  -7   0   8  234.64   43.25
  -6   0   8  111.76   27.81
  -5   0   8  547.30   62.40
  -4   0   8 1640.90  109.25
  -3   0   8  187.18   33.97
  -2   0   8 1792.96  108.79
  -1   0   8 1043.99   72.90
   1   0  -8 1240.17   60.98
  -1   0   8 1055.99   80.45
   0   0  -8   12.12    6.09
   0   0   8   17.19    9.45
  -1   0  -8  884.85   54.10
   1   0   8  967.59   70.71
  -2   0  -8   20.21    8.33
   2   0   8   43.35   14.88
  -3   0  -8    0.85    4.69
   3   0   8    9.41    7.08
  -4   0  -8   89.59   18.12
 -11  -1   8  329.44   55.42
 -11   1   8  270.60   52.52
 -10  -1   8   -1.15    9.87
 -10   1   8   27.51   16.81
  -9  -1   8  768.79   81.45
  -9   1   8  695.00   78.47
  -8  -1   8  351.57   53.91
  -8   1   8  368.42   55.51
  -7  -1   8   99.00   28.12
  -7   1   8  141.35   32.89
  -6  -1   8 1096.19   91.62
  -6   1   8  978.89   87.53
  -5  -1   8   12.77    7.42
  -5   1   8   29.89   15.37
  -4  -1   8  173.32   33.55
  -4   1   8  147.11   33.81
   3   1  -8   61.90   11.07
  -3  -1   8   63.52   16.62
  -3  -1   8   99.09   25.04
  -3   1   8   61.72   20.33
   2   1  -8  210.41   21.08
  -2  -1   8  162.00   30.70
  -2   1   8  175.65   31.81
  -2  -1   8  197.18   30.44
   1   1  -8    8.30    4.56
  -1  -1   8  -13.53   11.28
  -1   1   8    2.60    9.23
  -1  -1   8    5.08    8.08
   0   1  -8  415.13   34.46
   0   1   8  392.62   47.64
   0  -1   8  389.86   44.17
   0   1   8  372.65   41.17
  -1   1  -8  321.59   31.50
  -1  -1  -8  380.03   35.72
   1  -1   8  321.73   40.72
   1   1   8  341.17   39.69
  -2   1  -8  165.33   22.92
  -2  -1  -8  165.42   23.71
   2  -1   8   93.45   21.99
   2   1   8  184.88   28.93
  -3   1  -8  713.88   51.68
  -3  -1  -8  801.35   55.24
   3  -1   8  694.80   65.37
  -4   1  -8  212.42   28.31
  -4  -1  -8  218.50   28.30
   4  -1   8  144.31   30.64
 -11  -2   8   14.08    9.86
 -11   2   8   77.86   27.75
 -10  -2   8   31.54   18.68
 -10   2   8   26.36   17.84
  -9  -2   8  883.41   87.10
  -9   2   8  840.10   87.61
  -8  -2   8  306.55   49.82
  -8   2   8  205.41   41.75
  -7  -2   8   -1.94    7.78
  -7   2   8    4.88   13.58
  -6  -2   8   62.51   21.70
  -6   2   8   70.28   22.17
  -5  -2   8  224.02   39.13
  -5   2   8  188.27   35.63
  -4  -2   8   11.17   10.22
  -4   2   8  -11.29   13.06
  -4  -2   8    1.45    6.56
   3   2  -8 1824.01   69.13
  -3  -2   8 1713.10  108.76
  -3   2   8 1477.18  105.13
  -3  -2   8 1671.81   98.52
   2   2  -8   29.22    8.23
  -2  -2   8   10.91    8.15
  -2   2   8   18.66   10.38
  -2  -2   8   12.41    7.39
  -1  -2   8   21.44    9.66
   1   2  -8    1.48    2.18
  -1   2   8   15.46    9.78
   0   2  -8  946.45   54.29
   0   2   8 1046.29   75.60
   0  -2   8 1043.65   76.91
  -1   2  -8    9.88    5.62
   1   2   8   11.57    8.75
   1  -2   8   -9.80    8.56
  -2   2  -8    9.62    5.74
   2  -2   8   -0.44    8.84
   2   2   8   22.09   10.49
  -3   2  -8   40.65   10.60
   3  -2   8   40.05   15.72
  -4   2  -8   66.15   15.59
   4  -2   8   25.79   15.91
 -11  -3   8  181.33   39.69
 -10  -3   8  703.13   77.80
 -10   3   8  783.42   87.08
  -9  -3   8   49.24   20.37
  -9   3   8   36.35   18.66
  -8  -3   8  143.10   32.79
  -8   3   8  127.30   33.70
  -7  -3   8  249.13   43.11
  -7  -3   8  217.42   33.99
  -7   3   8  239.16   44.70
  -6  -3   8  451.21   49.29
  -6  -3   8  437.50   54.70
  -6   3   8  319.91   51.10
  -5  -3   8  911.51   79.26
  -5  -3   8  916.75   71.66
  -4  -3   8   -7.94    8.78
  -4   3   8  -15.18   11.40
  -4  -3   8    9.82    6.14
  -3  -3   8   27.12   12.03
  -3  -3   8   19.52   15.76
  -3   3   8   -2.28    7.49
  -2  -3   8  155.19   28.46
  -2   3   8  129.67   28.63
  -1   3   8  819.24   69.09
  -1  -3   8  847.77   70.31
   0  -3   8   71.57   21.31
   0   3   8   77.11   19.46
   1   3   8   67.66   17.27
   1  -3   8   90.93   23.68
   2  -3   8  278.64   43.15
   3  -3   8  188.30   37.35
   4  -3   8  292.43   48.19
 -11  -4   8   -0.08    8.30
 -10  -4   8   -0.93    7.65
 -10  -4   8  -17.33   10.58
  -9  -4   8   16.07    8.93
  -9  -4   8   39.39   16.98
  -9   4   8   51.61   22.77
  -8  -4   8    6.83    5.34
  -8  -4   8    9.86   11.52
  -8   4   8   18.48   10.85
  -7  -4   8  127.72   26.69
  -7  -4   8  163.64   33.92
  -7   4   8  101.01   29.84
  -6  -4   8   24.57   15.81
  -6  -4   8   13.55    9.25
  -6   4   8    1.94    8.68
  -5  -4   8   81.50   21.92
  -5  -4   8   98.30   27.37
  -5   4   8   46.35   19.36
  -4  -4   8   54.36   17.84
  -4   4   8   63.36   23.74
  -3   4   8   21.22   11.49
  -3  -4   8   58.72   18.43
  -2  -4   8    2.68    5.38
  -2   4   8    9.42   10.70
  -1  -4   8  -10.54   12.99
  -1   4   8   40.18   14.94
   0  -4   8   60.57   20.00
   1  -4   8   77.65   23.46
   2  -4   8    8.58   10.92
   3  -4   8    2.43    9.93
 -10  -5   8  357.28   46.34
  -9  -5   8   10.27    8.91
  -9  -5   8   19.24   14.53
  -8  -5   8  127.45   27.66
  -8  -5   8  156.89   33.87
  -8   5   8  180.49   42.06
  -7  -5   8  513.40   62.79
  -7   5   8  399.54   60.00
  -7  -5   8  498.46   55.06
  -6   5   8  201.13   41.10
  -6  -5   8  249.85   38.55
  -5   5   8  454.86   61.93
  -5  -5   8  669.55   64.19
  -4  -5   8   12.74   11.37
  -4   5   8   34.34   15.82
  -3  -5   8   94.29   24.19
  -3   5   8   40.15   18.21
  -2  -5   8  235.54   39.69
  -1  -5   8  435.38   55.71
   0  -5   8   24.95   14.17
  -7  -6   8  289.59   43.50
  -7   6   8  216.59   45.51
  -6  -6   8  206.87   36.99
  -6   6   8   97.18   27.81
  -5   6   8  405.35   59.74
  -5  -6   8  580.35   62.43
  -4  -6   8   23.33   13.42
  -4   6   8   23.16   11.01
 -10   0   9  -14.89   18.91
  -9   0   9   -2.81   13.16
  -8   0   9   -7.98   15.86
  -7   0   9    0.13    9.11
  -6   0   9   -2.67    8.32
  -5   0   9   -3.84    8.01
  -4   0   9   -6.93   15.12
  -3   0   9    9.04    9.17
  -2   0   9   -6.87    6.01
  -2   0   9   -5.29    4.87
  -1   0   9   -0.48    7.87
   1   0  -9    5.37    3.94
  -1   0   9    6.06    7.99
   0   0  -9    5.28    4.35
   0   0   9   -4.65    6.01
  -1   0  -9   -5.17    5.11
   1   0   9   -4.10    7.71
  -2   0  -9  -15.21    8.02
   2   0   9   -8.69    8.46
  -3   0  -9   -7.12    6.17
 -10  -1   9   -1.32   19.36
  -9  -1   9  499.79   68.80
  -9   1   9  347.08   57.22
  -8  -1   9    8.99   10.91
  -8   1   9   64.64   27.17
  -7  -1   9  266.04   47.65
  -7   1   9  197.67   41.12
  -6  -1   9 1737.15  122.15
  -6   1   9 1520.21  119.62
  -5  -1   9  313.27   48.48
  -5   1   9  274.00   47.19
  -4  -1   9  159.06   33.01
  -4   1   9  215.66   40.37
  -4  -1   9  193.50   33.18
  -3  -1   9   61.20   17.24
  -3  -1   9   77.88   22.45
  -3   1   9   39.57   15.22
  -2  -1   9  500.17   60.33
  -2   1   9  612.13   64.39
   1   1  -9   77.97   14.83
  -1  -1   9   42.86   16.38
  -1   1   9   61.59   17.51
  -1   1   9   73.21   21.01
   0   1  -9  764.88   51.19
   0  -1   9  699.00   65.04
   0   1   9  718.07   63.21
   1   1   9  188.49   31.11
  -1   1  -9  139.78   21.85
   1  -1   9  150.86   30.68
  -2   1  -9  398.13   39.59
   2  -1   9  349.00   48.05
  -3   1  -9  583.38   49.77
  -3  -1  -9  692.61   56.98
   3  -1   9  593.93   64.44
  -9  -2   9  555.03   71.18
  -9   2   9  477.83   69.75
  -8  -2   9   66.18   23.68
  -8   2   9   86.94   29.22
  -7  -2   9  608.37   71.18
  -7   2   9  519.70   69.11
  -6  -2   9  379.10   48.13
  -6  -2   9  430.97   57.48
  -6   2   9  407.36   60.37
  -5  -2   9   16.12    8.87
  -5   2   9   24.45   17.63
  -5  -2   9   24.26   12.97
  -4  -2   9 1445.59  106.55
  -4   2   9 1338.88  105.86
  -4  -2   9 1513.35   98.69
  -3  -2   9   30.16   16.28
  -3   2   9   -3.77    8.76
  -3  -2   9   30.37   13.95
  -2  -2   9  218.63   35.90
  -2   2   9  198.62   37.67
   1   2  -9  208.14   25.25
  -1   2   9  211.29   35.72
  -1  -2   9  185.49   33.04
   0   2  -9  559.98   43.88
   0  -2   9  458.63   55.05
   0   2   9  596.88   55.89
  -1   2  -9   45.89   13.66
   1  -2   9   36.60   16.03
  -2   2  -9  403.22   40.11
   2  -2   9  422.38   54.25
  -3   2  -9  172.52   26.93
   3  -2   9  154.34   33.36
  -9  -3   9   61.82   19.64
  -8  -3   9  464.70   54.61
  -8  -3   9  485.92   64.83
  -8   3   9  465.50   68.64
  -7  -3   9  324.65   51.40
  -7   3   9  308.29   53.49
  -7  -3   9  331.43   45.26
  -6  -3   9  131.54   28.61
  -6  -3   9  120.34   29.25
  -6   3   9   62.31   24.46
  -5   3   9  -12.72   17.26
  -5  -3   9    3.16    8.48
  -4  -3   9   19.77   15.34
  -4  -3   9   18.29   11.13
  -4   3   9    9.19    9.87
  -3   3   9  356.03   52.61
  -3  -3   9  369.54   48.41
  -2   3   9  408.16   53.25
  -2  -3   9  538.02   58.41
  -1   3   9  571.02   60.09
  -1  -3   9  598.57   62.99
   0   3  -9   51.79   13.57
   0  -3   9   86.99   24.64
  -1   3  -9  280.01   32.02
   1  -3   9  327.04   48.46
  -2   3  -9  468.20   43.25
  -8   4   9 1541.71  130.98
  -7  -4   9   62.68   21.80
  -7  -4   9   61.32   21.11
  -7   4   9   43.71   17.48
  -6  -4   9  284.88   43.67
  -6  -4   9  269.94   50.26
  -6   4   9  295.19   50.79
  -5   4   9  908.38   92.29
  -5  -4   9 1153.00   88.55
  -4   4   9   26.91   10.90
  -4  -4   9   46.31   17.43
  -3   4   9 1196.54  100.53
  -3  -4   9 1499.68  102.81
  -2  -4   9   -2.20    8.60
  -7   5   9  147.53   38.76
  -6   5   9   13.81   13.07
  -5   5   9   31.10   16.80
  -4   5   9  196.02   40.36
  -7   0  10  461.03   66.92
  -6   0  10  188.80   40.91
  -5   0  10    0.25    7.37
  -4   0  10  624.23   72.10
  -3   0  10  588.76   61.45
  -3   0  10  542.09   65.54
  -2   0  10   73.09   22.36
  -2   0  10  100.77   27.07
  -1   0  10   23.98   12.15
   0   0  10  960.80   80.16
  -7   1  10  244.52   50.29
  -6  -1  10   33.47   18.16
  -6   1  10   53.79   23.40
  -5  -1  10  456.08   54.82
  -5  -1  10  415.15   59.73
  -5   1  10  495.65   66.14
  -4  -1  10  520.54   64.92
  -4   1  10  435.79   59.51
  -4  -1  10  528.00   58.80
  -3  -1  10  103.09   27.32
  -3  -1  10   93.13   27.60
  -3   1  10   75.84   24.73
  -2   1  10  476.40   55.24
  -2   1  10  452.24   58.06
  -2  -1  10  440.50   54.11
  -1  -1  10   67.79   21.22
  -1   1  10   97.93   25.10
   0   1  10   74.05   21.71
   0  -1  10   66.59   20.96
  -7   2  10   87.94   31.73
  -6   2  10   98.62   30.67
  -5   2  10  152.46   38.08
  -4   2  10  160.30   35.64
  -3   2  10  224.08   42.38
  -2   2  10    5.96   10.23
  -1   2  10  680.37   64.92
  -6   3  10  306.97   55.84
  -5   3  10    6.83   13.04
  -4   3  10    2.67    8.27
  -3   3  10  379.68   55.42
  -5   4  10   58.48   25.16
   0   0   0    0.00    0.00


TITL Feviolet in P2(1)/c
REM P2(1)/c (#14 in standard setting)
CELL 0.71073  10.706578   7.589617   7.826068  90.0000 110.1578  90.0000
ZERR    6.00   0.001295   0.000828   0.000811   0.0000   0.0129   0.0000
LATT  1
SYMM -x, y+1/2,-z+1/2
SFAC O F Fe I Ba
UNIT 6.00 6.00 6.00 6.00 6.00
TREF
HKLF 4
END
_computing_structure_solution     'SHELXT 2014/5 (Sheldrick, 2014)'
;
_shelx_hkl_checksum              35600
_olex2_submission_special_instructions 'No special instructions were received'
_oxdiff_exptl_absorpt_empirical_details
;
Empirical correction (ABSPACK) includes:
- Absorption correction using spherical harmonics
- Frame scaling
;
_oxdiff_exptl_absorpt_empirical_full_max 2.275
_oxdiff_exptl_absorpt_empirical_full_min 0.318
loop_
_space_group_symop_operation_xyz
'x, y, z'
'-x, y+1/2, -z+1/2'
'-x, -y, -z'
'x, -y-1/2, z-1/2'
loop_
_atom_site_label
_atom_site_type_symbol
_atom_site_fract_x
_atom_site_fract_y
_atom_site_fract_z
_atom_site_U_iso_or_equiv
_atom_site_adp_type
_atom_site_occupancy
_atom_site_site_symmetry_order
_atom_site_calc_flag
_atom_site_refinement_flags_posn
_atom_site_refinement_flags_adp
_atom_site_refinement_flags_occupancy
_atom_site_disorder_assembly
_atom_site_disorder_group
Ba1 Ba 0.88687(4) 1.06685(7) 0.70110(6) 0.00886(14) Uani 1 1 d . . . . .
I1 I 0.54965(5) 0.81603(7) 0.39149(6) 0.00879(15) Uani 1 1 d . . . . .
Fe1 Fe 0.76498(11) 0.51331(17) 0.67313(15) 0.0084(3) Uani 1 1 d . . . . .
F1 F 0.8734(5) 0.4407(6) 0.5333(6) 0.0144(11) Uani 1 1 d . . . . .
F2 F 0.6782(4) 0.2861(6) 0.6227(6) 0.0128(10) Uani 1 1 d . . . . .
F3 F 0.9059(4) 0.3928(6) 0.8671(6) 0.0102(10) Uani 1 1 d . . . . .
F4 F 0.8698(4) 0.7228(6) 0.7280(6) 0.0116(10) Uani 1 1 d . . . . .
O1 O 0.5732(6) 0.8861(8) 0.6198(7) 0.0118(12) Uani 1 1 d . . . . .
O2 O 0.6931(5) 0.9327(7) 0.3731(7) 0.0106(12) Uani 1 1 d . . . . .
O3 O 0.6175(6) 0.6003(7) 0.4644(7) 0.0115(13) Uani 1 1 d . . . . .
loop_
_atom_site_aniso_label
_atom_site_aniso_U_11
_atom_site_aniso_U_22
_atom_site_aniso_U_33
_atom_site_aniso_U_23
_atom_site_aniso_U_13
_atom_site_aniso_U_12
Ba1 0.0110(2) 0.0099(3) 0.0063(2) -0.0001(2) 0.00377(19) 0.0003(2)
I1 0.0108(3) 0.0102(3) 0.0060(2) 0.0003(2) 0.00365(19) -0.0001(2)
Fe1 0.0097(5) 0.0096(6) 0.0066(5) 0.0005(5) 0.0037(4) -0.0003(5)
F1 0.020(3) 0.015(3) 0.010(2) -0.003(2) 0.007(2) 0.000(2)
F2 0.011(2) 0.013(3) 0.013(2) 0.002(2) 0.0025(19) 0.000(2)
F3 0.012(2) 0.015(3) 0.006(2) 0.000(2) 0.0052(18) 0.001(2)
F4 0.013(2) 0.011(3) 0.011(2) 0.001(2) 0.0044(19) -0.005(2)
O1 0.018(3) 0.011(3) 0.005(2) 0.002(2) 0.003(2) 0.003(3)
O2 0.014(3) 0.007(3) 0.013(3) -0.002(2) 0.006(2) -0.004(3)
O3 0.017(3) 0.009(3) 0.010(3) 0.004(3) 0.007(2) 0.003(3)
loop_
_atom_type_symbol
_atom_type_description
_atom_type_scat_dispersion_real
_atom_type_scat_dispersion_imag
_atom_type_scat_source
Ba Ba -0.3244 2.2819 'International Tables Vol C Tables 4.2.6.8 and 6.1.1.4'
F F 0.0171 0.0103 'International Tables Vol C Tables 4.2.6.8 and 6.1.1.4'
Fe Fe 0.3463 0.8444 'International Tables Vol C Tables 4.2.6.8 and 6.1.1.4'
I I -0.4742 1.8119 'International Tables Vol C Tables 4.2.6.8 and 6.1.1.4'
O O 0.0106 0.0060 'International Tables Vol C Tables 4.2.6.8 and 6.1.1.4'
loop_
_exptl_crystal_face_index_h
_exptl_crystal_face_index_k
_exptl_crystal_face_index_l
_exptl_crystal_face_perp_dist
4 -8 5 0.0318
0 -10 3 0.0259
14 1 0 0.0259
4 -10 -1 0.0197
6 -10 -1 0.0189
13 4 1 0.0240
-2 11 1 0.0178
5 -8 -7 0.0259
3 7 6 0.0202
8 7 -8 0.0297
-13 -5 5 0.0323
-14 -1 0 0.0194
9 -7 -7 0.0256
15 1 -3 0.0271
-1 3 -9 0.0391
loop_
_geom_angle_atom_site_label_1
_geom_angle_atom_site_label_2
_geom_angle_atom_site_label_3
_geom_angle
_geom_angle_site_symmetry_1
_geom_angle_site_symmetry_3
_geom_angle_publ_flag
Fe1 Ba1 Fe1 116.69(3) 2_756 1_565 ?
F1 Ba1 Fe1 32.29(9) 1_565 1_565 ?
F1 Ba1 Fe1 33.02(10) 2_756 2_756 ?
F1 Ba1 Fe1 125.06(10) 2_756 1_565 ?
F1 Ba1 Fe1 86.51(11) 4_576 1_565 ?
F1 Ba1 Fe1 96.52(9) 1_565 2_756 ?
F1 Ba1 Fe1 97.63(10) 4_576 2_756 ?
F1 Ba1 F1 115.04(11) 4_576 1_565 ?
F1 Ba1 F1 120.85(11) 2_756 1_565 ?
F1 Ba1 F1 67.55(17) 4_576 2_756 ?
F1 Ba1 F2 85.15(14) 4_576 1_565 ?
F1 Ba1 F3 119.54(14) 4_576 2_756 ?
F1 Ba1 F3 174.63(15) 4_576 4_575 ?
F1 Ba1 F3 65.15(14) 4_576 1_565 ?
F1 Ba1 F4 100.36(14) 4_576 2_756 ?
F1 Ba1 O2 136.28(15) 2_756 . ?
F1 Ba1 O2 126.96(15) 4_576 . ?
F2 Ba1 Fe1 148.25(10) 1_565 2_756 ?
F2 Ba1 Fe1 31.64(10) 1_565 1_565 ?
F2 Ba1 F1 147.55(14) 1_565 2_756 ?
F2 Ba1 F1 54.78(14) 1_565 1_565 ?
F2 Ba1 F3 92.45(14) 1_565 4_575 ?
F2 Ba1 F3 154.90(14) 1_565 2_756 ?
F2 Ba1 F3 58.25(13) 1_565 1_565 ?
F2 Ba1 F4 115.95(14) 1_565 2_756 ?
F2 Ba1 O2 74.18(15) 1_565 . ?
F3 Ba1 Fe1 33.52(9) 2_756 2_756 ?
F3 Ba1 Fe1 136.72(10) 2_756 1_565 ?
F3 Ba1 Fe1 94.14(9) 1_565 2_756 ?
F3 Ba1 Fe1 81.90(9) 4_575 2_756 ?
F3 Ba1 Fe1 88.92(10) 4_575 1_565 ?
F3 Ba1 Fe1 32.49(9) 1_565 1_565 ?
F3 Ba1 F1 59.82(14) 4_575 1_565 ?
F3 Ba1 F1 50.80(13) 1_565 1_565 ?
F3 Ba1 F1 113.14(14) 4_575 2_756 ?
F3 Ba1 F1 106.01(14) 2_756 1_565 ?
F3 Ba1 F1 53.50(13) 2_756 2_756 ?
F3 Ba1 F1 93.19(13) 1_565 2_756 ?
F3 Ba1 F3 125.35(10) 1_565 2_756 ?
F3 Ba1 F3 109.52(9) 4_575 1_565 ?
F3 Ba1 F3 62.56(16) 4_575 2_756 ?
F3 Ba1 F4 76.36(13) 4_575 2_756 ?
F3 Ba1 O2 56.56(15) 4_575 . ?
F3 Ba1 O2 130.49(14) 1_565 . ?
F3 Ba1 O2 92.19(14) 2_756 . ?
F4 Ba1 Fe1 154.50(10) . 1_565 ?
F4 Ba1 Fe1 87.68(10) . 2_756 ?
F4 Ba1 Fe1 84.57(10) 2_756 1_565 ?
F4 Ba1 Fe1 32.34(10) 2_756 2_756 ?
F4 Ba1 F1 66.02(13) 2_756 1_565 ?
F4 Ba1 F1 160.94(13) . 1_565 ?
F4 Ba1 F1 71.27(14) . 2_756 ?
F4 Ba1 F1 82.61(14) . 4_576 ?
F4 Ba1 F1 56.18(14) 2_756 2_756 ?
F4 Ba1 F2 123.96(14) . 1_565 ?
F4 Ba1 F3 68.10(14) . 2_756 ?
F4 Ba1 F3 147.68(14) . 1_565 ?
F4 Ba1 F3 102.69(14) . 4_575 ?
F4 Ba1 F3 66.91(13) 2_756 1_565 ?
F4 Ba1 F3 58.61(14) 2_756 2_756 ?
F4 Ba1 F4 120.02(12) . 2_756 ?
F4 Ba1 O2 70.80(14) . . ?
F4 Ba1 O2 132.65(15) 2_756 . ?
O2 Ba1 Fe1 98.27(11) . 1_565 ?
O2 Ba1 Fe1 125.11(12) . 2_756 ?
O2 Ba1 F1 91.83(14) . 1_565 ?
O1 I1 O2 95.9(3) . . ?
O1 I1 O3 92.9(3) . . ?
O3 I1 O2 102.0(2) . . ?
Ba1 Fe1 Ba1 76.50(2) 2_746 1_545 ?
F1 Fe1 Ba1 53.71(14) . 2_746 ?
F1 Fe1 Ba1 59.40(15) . 1_545 ?
F1 Fe1 F2 88.3(2) . . ?
F1 Fe1 F3 81.56(19) . . ?
F1 Fe1 O2 165.1(2) . 4_576 ?
F1 Fe1 O3 95.3(2) . . ?
F2 Fe1 Ba1 46.68(14) . 1_545 ?
F2 Fe1 Ba1 123.08(14) . 2_746 ?
F2 Fe1 F3 86.0(2) . . ?
F2 Fe1 O2 93.1(2) . 4_576 ?
F2 Fe1 O3 86.4(2) . . ?
F3 Fe1 Ba1 49.40(14) . 1_545 ?
F3 Fe1 Ba1 51.80(14) . 2_746 ?
F3 Fe1 O2 83.7(2) . 4_576 ?
F4 Fe1 Ba1 50.19(14) . 2_746 ?
F4 Fe1 Ba1 126.61(15) . 1_545 ?
F4 Fe1 F1 86.8(2) . . ?
F4 Fe1 F2 173.3(2) . . ?
F4 Fe1 F3 88.8(2) . . ?
F4 Fe1 O2 90.5(2) . 4_576 ?
F4 Fe1 O3 98.6(2) . . ?
O2 Fe1 Ba1 111.81(16) 4_576 1_545 ?
O2 Fe1 Ba1 114.18(16) 4_576 2_746 ?
O3 Fe1 Ba1 131.63(18) . 2_746 ?
O3 Fe1 Ba1 122.60(17) . 1_545 ?
O3 Fe1 F3 171.9(2) . . ?
O3 Fe1 O2 99.6(2) . 4_576 ?
Ba1 F1 Ba1 95.70(13) 2_746 1_545 ?
Ba1 F1 Ba1 112.44(17) 4_575 2_746 ?
Ba1 F1 Ba1 112.56(16) 4_575 1_545 ?
Fe1 F1 Ba1 143.9(2) . 4_575 ?
Fe1 F1 Ba1 88.31(17) . 1_545 ?
Fe1 F1 Ba1 93.27(17) . 2_746 ?
Fe1 F2 Ba1 101.68(18) . 1_545 ?
Ba1 F3 Ba1 122.41(17) 4_576 1_545 ?
Ba1 F3 Ba1 105.55(15) 1_545 2_746 ?
Ba1 F3 Ba1 117.44(16) 4_576 2_746 ?
Fe1 F3 Ba1 94.68(17) . 2_746 ?
Fe1 F3 Ba1 113.66(19) . 4_576 ?
Fe1 F3 Ba1 98.11(17) . 1_545 ?
Ba1 F4 Ba1 110.95(16) . 2_746 ?
Fe1 F4 Ba1 149.4(2) . . ?
Fe1 F4 Ba1 97.47(19) . 2_746 ?
I1 O2 Ba1 118.0(2) . . ?
I1 O2 Fe1 136.1(3) . 4_575 ?
Fe1 O2 Ba1 105.7(2) 4_575 . ?
I1 O3 Fe1 133.9(3) . . ?
loop_
_geom_bond_atom_site_label_1
_geom_bond_atom_site_label_2
_geom_bond_distance
_geom_bond_site_symmetry_2
_geom_bond_publ_flag
Ba1 Fe1 3.5355(13) 2_756 ?
Ba1 Fe1 3.6106(14) 1_565 ?
Ba1 F1 2.654(5) 4_576 ?
Ba1 F1 3.109(5) 1_565 ?
Ba1 F1 2.854(5) 2_756 ?
Ba1 F2 2.682(5) 1_565 ?
Ba1 F3 2.787(5) 2_756 ?
Ba1 F3 2.769(5) 1_565 ?
Ba1 F3 2.708(4) 4_575 ?
Ba1 F4 2.631(5) . ?
Ba1 F4 2.739(5) 2_756 ?
Ba1 O2 2.874(5) . ?
I1 O1 1.797(5) . ?
I1 O2 1.821(6) . ?
I1 O3 1.802(6) . ?
Fe1 Ba1 3.6106(14) 1_545 ?
Fe1 Ba1 3.5355(13) 2_746 ?
Fe1 F1 1.930(5) . ?
Fe1 F2 1.934(5) . ?
Fe1 F3 1.959(4) . ?
Fe1 F4 1.908(5) . ?
Fe1 O2 2.009(6) 4_576 ?
Fe1 O3 1.955(5) . ?
F1 Ba1 2.654(5) 4_575 ?
F1 Ba1 3.109(5) 1_545 ?
F1 Ba1 2.854(5) 2_746 ?
F2 Ba1 2.682(5) 1_545 ?
F3 Ba1 2.708(4) 4_576 ?
F3 Ba1 2.769(5) 1_545 ?
F3 Ba1 2.787(5) 2_746 ?
F4 Ba1 2.739(5) 2_746 ?
O2 Fe1 2.009(6) 4_575 ?
loop_
_exptl_oxdiff_crystal_face_indexfrac_h
_exptl_oxdiff_crystal_face_indexfrac_k
_exptl_oxdiff_crystal_face_indexfrac_l
_exptl_oxdiff_crystal_face_x
_exptl_oxdiff_crystal_face_y
_exptl_oxdiff_crystal_face_z
3.8413 -7.9831 5.4158 -0.1182 -0.9098 0.3978
-0.2071 -10.3732 2.5541 0.1830 -0.9831 -0.0091
13.9503 0.8603 0.3740 0.0035 -0.0086 1.0000
3.8572 -10.3244 -0.8202 0.4724 -0.8676 0.1553
6.2602 -9.6767 -0.7182 0.4512 -0.8280 0.3331
12.6202 4.3825 0.6211 -0.1550 0.2887 0.9448
-1.5827 10.6108 0.8886 -0.4779 0.8784 0.0092
5.3652 -7.9793 -7.1534 0.9017 -0.4291 0.0531
2.7470 7.4979 6.4467 -0.7883 0.3762 0.4870
8.4004 6.8299 -7.6348 0.3983 0.8383 0.3722
-13.1723 -5.0050 4.7849 -0.2598 -0.5489 -0.7945
-13.9156 -1.0540 -0.3970 0.0057 -0.0072 -1.0000
8.9047 -7.2987 -6.6681 0.8538 -0.4070 0.3247
14.9459 1.1637 -2.8332 0.2553 0.1369 0.9571
-1.3385 3.4045 -9.4605 0.6281 0.6641 -0.4056
