#------------------------------------------------------------------------------
#$Date: 2022-04-19 00:52:54 +0300 (Tue, 19 Apr 2022) $
#$Revision: 274561 $
#$URL: file:///home/coder/svn-repositories/cod/cif/7/12/99/7129984.cif $
#------------------------------------------------------------------------------
#
# This file is available in the Crystallography Open Database (COD),
# http://www.crystallography.net/
#
# All data on this site have been placed in the public domain by the
# contributors.
#
data_7129984
loop_
_publ_author_name
'Tian, Jiaxin'
'Cordier, Marie'
'Bour, Christophe'
'Auffrant, Audrey'
'Gandon, Vincent'
_publ_section_title
;
 A Cyclic Divalent N(I) Species Isoelectronic to Carbodiphosphoranes
;
_journal_name_full               'Chemical Communications'
_journal_paper_doi               10.1039/D2CC01637K
_journal_year                    2022
_chemical_formula_moiety         'C34 H26 N P2, F6 P'
_chemical_formula_sum            'C34 H26 F6 N P3'
_chemical_formula_weight         655.47
_space_group_crystal_system      triclinic
_space_group_IT_number           1
_space_group_name_Hall           'P 1'
_space_group_name_H-M_alt        'P 1'
_atom_sites_solution_hydrogens   geom
_audit_creation_method           SHELXL-2014/7
_audit_update_record
;
2022-03-03 deposited with the CCDC.	2022-04-18 downloaded from the CCDC.
;
_cell_angle_alpha                101.997(2)
_cell_angle_beta                 91.033(2)
_cell_angle_gamma                111.831(2)
_cell_formula_units_Z            1
_cell_length_a                   8.2282(7)
_cell_length_b                   9.5081(8)
_cell_length_c                   10.7126(8)
_cell_measurement_reflns_used    7940
_cell_measurement_temperature    150.0(1)
_cell_measurement_theta_max      26.7171
_cell_measurement_theta_min      2.3718
_cell_volume                     756.79(11)
_computing_cell_refinement       'Bruker SAINT'
_computing_data_collection       'Bruker APEX2'
_computing_data_reduction        'Bruker SAINT'
_computing_molecular_graphics    'PLATON (Spek, 2009)'
_computing_structure_refinement  'SHELXL-2014/7 (Sheldrick, 2014)'
_computing_structure_solution    SHELXT(Sheldrick,2014)
_diffrn_ambient_temperature      150(2)
_diffrn_measured_fraction_theta_full 0.999
_diffrn_measured_fraction_theta_max 0.991
_diffrn_measurement_device_type  'Kappa APEX II'
_diffrn_measurement_method       'phi and omega scans'
_diffrn_radiation_type           MoK\a
_diffrn_radiation_wavelength     0.71069
_diffrn_reflns_av_R_equivalents  0.0498
_diffrn_reflns_av_unetI/netI     0.0513
_diffrn_reflns_Laue_measured_fraction_full 0.999
_diffrn_reflns_Laue_measured_fraction_max 0.991
_diffrn_reflns_limit_h_max       10
_diffrn_reflns_limit_h_min       -10
_diffrn_reflns_limit_k_max       12
_diffrn_reflns_limit_k_min       -12
_diffrn_reflns_limit_l_max       13
_diffrn_reflns_limit_l_min       -13
_diffrn_reflns_number            19925
_diffrn_reflns_point_group_measured_fraction_full 0.999
_diffrn_reflns_point_group_measured_fraction_max 0.991
_diffrn_reflns_theta_full        25.240
_diffrn_reflns_theta_max         26.984
_diffrn_reflns_theta_min         1.954
_exptl_absorpt_coefficient_mu    0.260
_exptl_absorpt_correction_T_max  0.7454
_exptl_absorpt_correction_T_min  0.6382
_exptl_absorpt_correction_type   multi-scan
_exptl_absorpt_process_details   SADABS
_exptl_crystal_colour            yellow
_exptl_crystal_density_diffrn    1.438
_exptl_crystal_description       block
_exptl_crystal_F_000             336
_exptl_crystal_size_max          0.180
_exptl_crystal_size_mid          0.140
_exptl_crystal_size_min          0.100
_refine_diff_density_max         0.228
_refine_diff_density_min         -0.197
_refine_diff_density_rms         0.040
_refine_ls_abs_structure_details
;
 Refined as an inversion twin.
;
_refine_ls_abs_structure_Flack   -0.02(8)
_refine_ls_extinction_method     none
_refine_ls_goodness_of_fit_ref   1.008
_refine_ls_hydrogen_treatment    constr
_refine_ls_matrix_type           full
_refine_ls_number_parameters     398
_refine_ls_number_reflns         6488
_refine_ls_number_restraints     3
_refine_ls_restrained_S_all      1.007
_refine_ls_R_factor_all          0.0388
_refine_ls_R_factor_gt           0.0312
_refine_ls_shift/su_max          0.000
_refine_ls_shift/su_mean         0.000
_refine_ls_structure_factor_coef Fsqd
_refine_ls_weighting_details
'w=1/[\s^2^(Fo^2^)+(0.0420P)^2^] where P=(Fo^2^+2Fc^2^)/3'
_refine_ls_weighting_scheme      calc
_refine_ls_wR_factor_gt          0.0739
_refine_ls_wR_factor_ref         0.0774
_reflns_Friedel_coverage         1.000
_reflns_Friedel_fraction_full    0.999
_reflns_Friedel_fraction_max     0.991
_reflns_number_gt                5891
_reflns_number_total             6488
_reflns_threshold_expression     'I > 2\s(I)'
_cod_data_source_file            d2cc01637k2.cif
_cod_data_source_block           tian36_a
_cod_database_code               7129984
_shelx_shelxl_version_number     2014/7
_shelx_space_group_comment
;
The symmetry employed for this shelxl refinement is uniquely defined
by the following loop, which should always be used as a source of
symmetry information in preference to the above space-group names.
They are only intended as comments.
;
_shelx_estimated_absorpt_t_min   0.955
_shelx_estimated_absorpt_t_max   0.974
_shelx_res_file
;

    tian36_a.res created by SHELXL-2014/7


TITL tian36_a.res in P1
CELL  0.71069    8.2282    9.5081   10.7126   101.997    91.033   111.831
ZERR        1    0.0007    0.0008    0.0008     0.002     0.002     0.002
LATT  -1
SFAC  C   H   F   N   P
UNIT   34    26   6   1   3
L.S. 5
FMAP 2
PLAN -20
ACTA
BOND $H
OMIT 1 -1 0
SIZE 0.18 0.14 0.10
TEMP -123
CONF
TWIN
WGHT    0.042000
BASF  -0.01619
FVAR       0.73155
RESI 0
P1    5    0.698745    0.496863    0.273566    11.00000    0.01663    0.02194 =
         0.01700    0.00405    0.00333    0.00756
P2    5    0.678134    0.474158    0.518230    11.00000    0.01663    0.02157 =
         0.01677    0.00511    0.00070    0.00850
N1    4    0.787065    0.467552    0.394827    11.00000    0.01746    0.02699 =
         0.02092    0.00482    0.00238    0.01026
C1    1    0.503916    0.521674    0.331330    11.00000    0.01554    0.01870 =
         0.01951    0.00172    0.00195    0.00596
C2    1    0.494743    0.512861    0.459845    11.00000    0.01502    0.01621 =
         0.01943    0.00364    0.00057    0.00456
C3    1    0.358237    0.536359    0.525327    11.00000    0.01978    0.02372 =
         0.02387    0.00521    0.00631    0.00744
AFIX  43
H3    2    0.351577    0.531881    0.612943    11.00000   -1.20000
AFIX   0
C4    1    0.233135    0.566271    0.459591    11.00000    0.01930    0.03021 =
         0.03329    0.00987    0.00724    0.01322
AFIX  43
H4    2    0.140184    0.583553    0.502976    11.00000   -1.20000
AFIX   0
C5    1    0.241160    0.571480    0.330770    11.00000    0.02123    0.03447 =
         0.03363    0.00632   -0.00159    0.01387
AFIX  43
H5    2    0.152041    0.589533    0.286926    11.00000   -1.20000
AFIX   0
C6    1    0.377231    0.550697    0.266010    11.00000    0.02522    0.03059 =
         0.02003    0.00911    0.00052    0.01154
AFIX  43
H6    2    0.383788    0.556187    0.178601    11.00000   -1.20000
AFIX   0
C7    1    0.821813    0.660095    0.206664    11.00000    0.01762    0.02799 =
         0.02467    0.01038    0.00623    0.00831
C8    1    0.815034    0.601571    0.080525    11.00000    0.03012    0.03462 =
         0.02464    0.01272    0.01079    0.01161
AFIX  43
H8    2    0.864741    0.666416    0.023259    11.00000   -1.20000
AFIX   0
C9    1    0.727001    0.432607    0.036023    11.00000    0.03208    0.03549 =
         0.02050    0.00438    0.00722    0.01558
AFIX  43
H9    2    0.719900    0.381455   -0.051284    11.00000   -1.20000
AFIX   0
C10   1    0.656782    0.353554    0.124841    11.00000    0.01945    0.02594 =
         0.02043    0.00209    0.00338    0.00997
C11   1    0.897259    0.823663    0.277790    11.00000    0.01863    0.02542 =
         0.03407    0.00817    0.00900    0.00620
C12   1    0.973868    0.864875    0.404412    11.00000    0.03046    0.02796 =
         0.03529    0.00580    0.00375    0.00235
AFIX  43
H12   2    0.973052    0.786172    0.446696    11.00000   -1.20000
AFIX   0
C13   1    1.050475    1.019215    0.467962    11.00000    0.03871    0.04157 =
         0.04733   -0.00160   -0.00041    0.00082
AFIX  43
H13   2    1.103951    1.046816    0.553541    11.00000   -1.20000
AFIX   0
C14   1    1.049769    1.133862    0.407680    11.00000    0.04205    0.02160 =
         0.08143    0.00049    0.00729    0.00009
AFIX  43
H14   2    1.101427    1.240103    0.452360    11.00000   -1.20000
AFIX   0
C15   1    0.974442    1.095081    0.282832    11.00000    0.04654    0.02982 =
         0.07961    0.01997    0.00916    0.01237
AFIX  43
H15   2    0.975574    1.174478    0.241299    11.00000   -1.20000
AFIX   0
C16   1    0.897868    0.941470    0.218815    11.00000    0.03446    0.03136 =
         0.04727    0.01349    0.00448    0.01186
AFIX  43
H16   2    0.844640    0.915105    0.133288    11.00000   -1.20000
AFIX   0
C17   1    0.568888    0.184320    0.109672    11.00000    0.02105    0.02748 =
         0.02209    0.00213   -0.00336    0.00916
C18   1    0.438747    0.120815    0.185473    11.00000    0.02871    0.03387 =
         0.03238    0.00557    0.00670    0.00724
AFIX  43
H18   2    0.406430    0.188071    0.249643    11.00000   -1.20000
AFIX   0
C19   1    0.355414   -0.038298    0.169317    11.00000    0.03233    0.03696 =
         0.04651    0.01593    0.00282    0.00233
AFIX  43
H19   2    0.265795   -0.080072    0.221439    11.00000   -1.20000
AFIX   0
C20   1    0.402960   -0.136083    0.077212    11.00000    0.04065    0.02438 =
         0.04360    0.00533   -0.01661    0.00535
AFIX  43
H20   2    0.347020   -0.245659    0.066615    11.00000   -1.20000
AFIX   0
C21   1    0.530778   -0.076167    0.000560    11.00000    0.04953    0.02972 =
         0.03719   -0.00077   -0.00476    0.02054
AFIX  43
H21   2    0.561077   -0.144606   -0.063900    11.00000   -1.20000
AFIX   0
C22   1    0.615888    0.083445    0.016574    11.00000    0.03572    0.02998 =
         0.02773    0.00359    0.00139    0.01385
AFIX  43
H22   2    0.705936    0.124257   -0.035549    11.00000   -1.20000
AFIX   0
C23   1    0.800353    0.628763    0.652587    11.00000    0.02195    0.02310 =
         0.01502    0.00489    0.00216    0.00754
C24   1    0.933226    0.612447    0.722760    11.00000    0.02732    0.02522 =
         0.02265    0.00828    0.00047    0.00739
AFIX  43
H24   2    0.947880    0.516001    0.706830    11.00000   -1.20000
AFIX   0
C25   1    1.044504    0.738289    0.816415    11.00000    0.03059    0.03572 =
         0.02295    0.00910   -0.00625    0.00714
AFIX  43
H25   2    1.136765    0.728332    0.863803    11.00000   -1.20000
AFIX   0
C26   1    1.021554    0.878072    0.840981    11.00000    0.03465    0.02917 =
         0.02411    0.00229   -0.00241    0.00285
AFIX  43
H26   2    1.097730    0.963597    0.905409    11.00000   -1.20000
AFIX   0
C27   1    0.888498    0.893534    0.772235    11.00000    0.03719    0.02626 =
         0.03561    0.00089    0.00375    0.01104
AFIX  43
H27   2    0.872421    0.989371    0.789830    11.00000   -1.20000
AFIX   0
C28   1    0.778555    0.769917    0.677836    11.00000    0.03027    0.02889 =
         0.03028    0.00295   -0.00130    0.01429
AFIX  43
H28   2    0.687704    0.781222    0.629939    11.00000   -1.20000
AFIX   0
C29   1    0.610429    0.293743    0.567535    11.00000    0.01932    0.02434 =
         0.02336    0.00795   -0.00064    0.01073
C30   1    0.633168    0.166806    0.490176    11.00000    0.04870    0.03249 =
         0.03077    0.00858    0.00881    0.02562
AFIX  43
H30   2    0.688322    0.177230    0.413599    11.00000   -1.20000
AFIX   0
C31   1    0.575454    0.025899    0.524949    11.00000    0.07102    0.03089 =
         0.04733    0.00746    0.00566    0.03158
AFIX  43
H31   2    0.590348   -0.061052    0.472079    11.00000   -1.20000
AFIX   0
C32   1    0.495921    0.010992    0.636684    11.00000    0.04529    0.02933 =
         0.05582    0.01981    0.00448    0.01560
AFIX  43
H32   2    0.456435   -0.086406    0.660169    11.00000   -1.20000
AFIX   0
C33   1    0.473408    0.135825    0.714181    11.00000    0.02965    0.03609 =
         0.04005    0.01999    0.00334    0.01433
AFIX  43
H33   2    0.418931    0.124708    0.790943    11.00000   -1.20000
AFIX   0
C34   1    0.530603    0.278192    0.679812    11.00000    0.02775    0.02754 =
         0.02631    0.01046    0.00565    0.01487
AFIX  43
H34   2    0.515178    0.364718    0.732944    11.00000   -1.20000
AFIX   0
P3    5    0.149041    0.363510    0.892858    11.00000    0.02481    0.02643 =
         0.02406    0.00284    0.00184    0.01184
F1    3    0.122920    0.494389    1.000683    11.00000    0.03775    0.03219 =
         0.03984   -0.00720    0.00949    0.01214
F2    3    0.215450    0.483747    0.803083    11.00000    0.05366    0.06078 =
         0.05077    0.03410    0.02278    0.02394
F3    3    0.347086    0.417657    0.952328    11.00000    0.03311    0.08067 =
         0.04416   -0.00296   -0.00746    0.02810
F4    3    0.081701    0.244492    0.982998    11.00000    0.07397    0.05212 =
         0.05587    0.03097    0.01790    0.02925
F5    3   -0.048671    0.310262    0.831499    11.00000    0.02687    0.06074 =
         0.03843    0.00014   -0.00216    0.01321
F6    3    0.174083    0.232184    0.785284    11.00000    0.04670    0.04546 =
         0.05306   -0.01229    0.00966    0.02024
HKLF 4

REM  tian36_a.res in P1
REM R1 =  0.0312 for    5891 Fo > 4sig(Fo)  and  0.0388 for all    6488 data
REM    398 parameters refined using      3 restraints

END

WGHT      0.0321      0.0450

REM Highest difference peak  0.228,  deepest hole -0.197,  1-sigma level  0.040
Q1    1   0.6681  0.4233  0.1931  11.00000  0.05    0.23
Q2    1   0.6273  0.3740  0.5439  11.00000  0.05    0.22
Q3    1   0.0889  0.4972  0.9279  11.00000  0.05    0.20
Q4    1   0.5152  0.5399  0.4030  11.00000  0.05    0.19
Q5    1   0.9893  0.8843  0.7555  11.00000  0.05    0.19
Q6    1   0.7419  0.5531  0.5981  11.00000  0.05    0.18
Q7    1   0.7649  0.6407  0.1471  11.00000  0.05    0.18
Q8    1   0.7668  0.6030  0.2411  11.00000  0.05    0.18
Q9    1   0.5625  0.4818  0.4842  11.00000  0.05    0.17
Q10   1   0.5693  0.4991  0.3010  11.00000  0.05    0.16
Q11   1   0.7019  0.2255  0.5572  11.00000  0.05    0.16
Q12   1   0.2555  0.6225  0.4111  11.00000  0.05    0.16
Q13   1   1.0194  0.7404  0.4358  11.00000  0.05    0.16
Q14   1   0.8553  0.4395  0.3931  11.00000  0.05    0.16
Q15   1   0.7440  0.4601  0.4576  11.00000  0.05    0.16
Q16   1   0.4308  0.5235  0.4968  11.00000  0.05    0.16
Q17   1   0.7659  0.5034  0.3548  11.00000  0.05    0.15
Q18   1   0.0697  0.2920  0.7998  11.00000  0.05    0.15
Q19   1   0.6205  0.3111  0.6390  11.00000  0.05    0.15
Q20   1   0.0295  0.4192  0.9279  11.00000  0.05    0.15
;
_shelx_res_checksum              31586
_shelx_hkl_file
;
  -2   0   0  295.37   15.20
  -2   0   0  326.97   15.00
  -2   0   0  295.37   15.10
  -2   0   0  305.87   15.40
  -2   0   0  309.47   15.00
  -2   0   0  308.97   15.20
   2   0   0  314.07   15.10
   2   0   0  316.37   15.40
   2   0   0  309.97   15.20
   2   0   0  288.97   15.00
   2   0   0  314.47   15.00
   2   0   0  296.87   15.20
  -3   0   0   47.10    3.20
  -3   0   0   47.50    3.20
  -3   0   0   43.70    3.60
  -3   0   0   47.60    2.80
  -3   0   0   51.49    3.10
  -3   0   0   51.89    2.90
   3   0   0   50.99    2.90
   3   0   0   55.29    3.20
   3   0   0   48.90    3.00
   3   0   0   46.40    3.20
   3   0   0   49.30    3.80
  -4   0   0  166.68    9.10
  -4   0   0  180.08    9.40
  -4   0   0  167.88    9.30
  -4   0   0  168.78    9.60
   4   0   0  183.78    9.10
   4   0   0  180.78    8.90
   4   0   0  181.38    9.40
   4   0   0  166.98    9.70
   4   0   0  163.48    9.10
  -5   0   0   59.69    4.80
  -5   0   0   49.99    4.10
  -5   0   0   48.40    4.00
  -5   0   0   53.89    4.20
   5   0   0   61.29    3.70
   5   0   0   58.29    3.70
   5   0   0   53.39    3.30
   5   0   0   53.09    3.90
  -6   0   0  122.49    7.20
  -6   0   0  113.79    7.70
  -6   0   0  116.49    7.20
   6   0   0  117.29    7.00
   6   0   0  105.49    6.10
   6   0   0  115.39    6.60
   6   0   0  114.89    6.60
  -7   0   0   77.29    5.70
  -7   0   0   74.99    6.80
  -7   0   0   72.19    5.60
   7   0   0   68.89    5.30
   7   0   0   69.69    5.20
   7   0   0   63.09    5.30
   7   0   0   75.69    4.90
  -8   0   0   12.30    4.20
  -8   0   0    7.40    2.90
  -8   0   0   10.40    3.20
   8   0   0   11.20    3.10
   8   0   0    5.50    3.10
   8   0   0    9.40    2.80
   8   0   0    6.70    2.00
  -9   0   0  101.09    7.90
  -9   0   0  101.89    7.90
  -9   0   0  109.29    8.50
   9   0   0  105.09    8.10
   9   0   0   96.49    7.50
   9   0   0  101.49    7.70
   9  -1   0   50.69    5.60
   9  -1   0   50.39    5.40
   9  -1   0   61.29    4.50
   9  -1   0   66.09    6.00
  -9   1   0   50.59    6.70
  -9   1   0   65.69    6.20
  -9   1   0   57.89    6.00
   8  -1   0   14.20    2.40
   8  -1   0   16.50    3.00
   8  -1   0   13.80    3.00
   8  -1   0   17.70    3.50
  -8   1   0   18.30    3.10
  -8   1   0   12.80    3.20
  -8   1   0    9.10    3.70
   7  -1   0  133.39    8.30
   7  -1   0  140.39    7.70
   7  -1   0  128.89    8.40
  -7   1   0  142.19    8.40
  -7   1   0  126.29    8.60
  -7   1   0  134.99    8.40
   6  -1   0  316.97   17.00
   6  -1   0  348.17   16.70
   6  -1   0  312.17   16.60
  -6   1   0  315.57   17.00
  -6   1   0  328.17   17.50
  -6   1   0  336.87   17.00
   5  -1   0   89.49    4.90
   5  -1   0   91.79    5.30
   5  -1   0   78.19    4.80
   5  -1   0   83.19    4.60
  -5   1   0   84.59    5.20
  -5   1   0   77.69    4.90
  -5   1   0   71.29    4.90
  -5   1   0   81.19    5.20
  -5   1   0   86.29    5.80
  -5   1   0   77.29    5.50
   4  -1   0  624.34   30.40
   4  -1   0  607.54   30.30
   4  -1   0  656.93   31.00
   4  -1   0  630.04   30.50
   4  -1   0  575.14   30.60
  -4   1   0  606.24   30.50
  -4   1   0  620.84   30.90
  -4   1   0  629.84   30.70
  -4   1   0  611.34   30.60
  -4   1   0  654.13   30.50
  -4   1   0  610.34   30.70
   3  -1   0  291.57   14.80
   3  -1   0  285.77   14.40
   3  -1   0  287.97   14.40
   3  -1   0  296.07   14.50
   3  -1   0  279.27   14.30
  -3   1   0  271.07   14.70
  -3   1   0  301.17   14.40
  -3   1   0  291.87   14.40
  -3   1   0  282.27   14.50
  -3   1   0  275.87   14.50
  -3   1   0  313.27   14.70
   2  -1   0 9707.53  452.25
   2  -1   0 9497.15  452.85
   2  -1   0 9367.86  452.25
   2  -1   0 8671.03  451.55
  -2   1   0 9903.51  452.35
  -2   1   0 9099.29  451.95
  -2   1   0 9999.00  451.85
  -2   1   0 9105.29  451.75
  -2   1   0 8837.12  452.65
   1  -1   0  248.28   12.10
  -1  -1   0  256.87   12.60
  -1  -1   0  257.07   12.80
  -1  -1   0  260.37   12.60
  -1  -1   0  241.78   12.60
  -1  -1   0  245.78   12.60
  -1  -1   0  256.77   12.80
   1   1   0  260.27   12.60
   1   1   0  266.07   12.60
   1   1   0  265.37   12.80
   1   1   0  253.67   12.60
   1   1   0  247.58   12.60
  -2  -1   0  147.29    7.60
  -2  -1   0  138.09    7.30
  -2  -1   0  138.59    7.20
  -2  -1   0  135.19    7.30
  -2  -1   0  137.69    7.30
  -2  -1   0  135.39    7.40
   2   1   0  140.19    7.20
   2   1   0  145.49    7.40
   2   1   0  133.59    7.20
   2   1   0  146.49    7.60
   2   1   0  137.59    7.20
  -3  -1   0   88.29    5.10
  -3  -1   0   83.79    4.70
  -3  -1   0   92.59    5.20
  -3  -1   0   83.99    5.60
  -3  -1   0   88.69    5.20
  -3  -1   0   88.39    5.20
  -3  -1   0   91.89    5.20
   3   1   0   93.59    5.00
   3   1   0   85.19    5.00
   3   1   0   97.39    5.20
   3   1   0   84.19    5.20
   3   1   0   90.09    5.60
   3   1   0   97.59    5.20
  -4  -1   0  106.89    5.60
  -4  -1   0   99.79    6.20
  -4  -1   0   95.99    6.10
  -4  -1   0  115.29    6.10
  -4  -1   0  123.89    6.30
  -4  -1   0  103.69    6.10
  -4  -1   0   96.69    6.60
   4   1   0  102.19    6.20
   4   1   0  108.29    6.00
   4   1   0  107.39    6.50
   4   1   0  113.69    6.10
   4   1   0   96.59    5.90
  -5  -1   0  175.88   10.00
  -5  -1   0  187.38   10.60
  -5  -1   0  170.88   10.00
  -5  -1   0  183.88    9.20
   5   1   0  188.18    9.70
   5   1   0  180.98   10.00
   5   1   0  183.38    9.70
   5   1   0  191.08    9.70
   5   1   0  166.88    9.60
  -6  -1   0   33.30    4.00
  -6  -1   0   33.10    3.70
   6   1   0   35.80    3.70
   6   1   0   33.50    3.20
   6   1   0   29.90    3.00
   6   1   0   25.70    3.10
   6   1   0   34.20    3.10
  -7  -1   0  236.88   13.50
  -7  -1   0  221.38   12.60
   7   1   0  222.38   12.00
   7   1   0  216.38   12.50
   7   1   0  213.28   12.10
  -8  -1   0   13.50    3.50
  -8  -1   0   13.60    3.00
  -8  -1   0   16.80    4.60
   8   1   0   14.60    3.20
   8   1   0   13.40    3.20
   8   1   0    9.40    2.30
   8   1   0    9.10    2.60
  -9  -1   0   99.79    7.70
  -9  -1   0   89.19    8.00
  -9  -1   0  101.49    9.40
   9   1   0   89.59    6.70
   9   1   0  103.09    8.00
   9   1   0   78.79    7.90
   9   1   0   98.49    6.60
  10  -2   0   51.89    6.10
  10  -2   0   47.60    5.60
 -10   2   0   51.09    5.80
 -10   2   0   41.70    6.10
 -10   2   0   54.69    6.00
   9  -2   0  121.09    8.60
   9  -2   0  110.09    7.40
   9  -2   0  134.89    8.90
  -9   2   0  136.19    9.00
  -9   2   0  136.69    8.90
  -9   2   0  139.89    9.40
   8  -2   0   29.50    4.10
   8  -2   0   29.10    2.90
   8  -2   0   36.70    3.90
  -8   2   0   37.60    4.20
  -8   2   0   44.30    4.50
  -8   2   0   22.00    4.00
   7  -2   0   36.40    3.10
   7  -2   0   32.00    2.80
   7  -2   0   38.50    4.00
   7  -2   0   32.10    3.10
  -7   2   0   29.20    4.30
  -7   2   0   32.40    3.70
  -7   2   0   35.60    3.80
   6  -2   0  331.97   16.10
   6  -2   0  320.07   16.60
   6  -2   0  315.87   16.20
   6  -2   0  312.47   16.00
  -6   2   0  319.07   16.30
  -6   2   0  299.87   16.50
  -6   2   0  292.27   16.80
  -6   2   0  334.47   16.60
   5  -2   0   75.39    4.20
   5  -2   0   64.49    4.50
   5  -2   0   66.69    4.20
   5  -2   0   72.09    4.30
  -5   2   0   79.29    4.70
  -5   2   0   68.39    4.60
  -5   2   0   65.69    4.30
  -5   2   0   61.89    4.90
  -5   2   0   65.89    4.30
   4  -2   0  581.54   29.20
   4  -2   0  622.84   28.80
   4  -2   0  581.24   28.80
   4  -2   0  566.74   28.70
   4  -2   0  549.95   28.80
  -4   2   0  586.64   28.90
  -4   2   0  587.54   28.80
  -4   2   0  592.44   29.00
  -4   2   0  593.14   28.80
  -4   2   0  570.94   29.10
  -4   2   0  591.34   28.90
   3  -2   0  318.17   16.20
   3  -2   0  348.57   16.30
   3  -2   0  323.87   16.20
   3  -2   0  313.97   16.10
   3  -2   0  328.67   16.50
   3  -2   0  342.87   15.90
  -3   2   0  333.77   16.50
  -3   2   0  337.37   16.20
  -3   2   0  295.67   20.00
  -3   2   0  326.37   15.90
  -3   2   0  328.67   16.30
  -3   2   0  317.27   16.30
  -3   2   0  304.87   16.20
   2  -2   0  440.06   21.70
   2  -2   0  441.16   21.70
   2  -2   0  458.45   21.80
   2  -2   0  410.16   23.60
   2  -2   0  449.06   21.80
   2  -2   0  429.56   21.70
   2  -2   0  465.05   21.90
  -2   2   0  441.26   21.80
  -2   2   0  438.06   21.90
  -2   2   0  450.75   21.80
  -2   2   0  457.95   21.70
  -2   2   0  443.36   21.80
  -2   2   0  448.66   21.80
   1  -2   0  700.73   33.30
   1  -2   0  649.54   33.30
   1  -2   0  711.03   33.30
   1  -2   0  631.64   33.20
   1  -2   0  721.33   33.50
  -1   2   0  672.23   33.10
  -1   2   0  696.63   33.50
  -1   2   0  716.93   33.30
  -1   2   0  694.03   33.30
  -1   2   0  657.23   33.30
   0  -2   0 1561.64   75.49
   0  -2   0 1578.34   75.19
   0  -2   0 1533.05   75.19
   0  -2   0 1542.95   75.19
   0   2   0 1570.04   75.99
   0   2   0 1521.35   75.49
   0   2   0 1600.94   75.49
   0   2   0 1533.35   75.19
   0   2   0 1571.64   75.89
  -1  -2   0  570.94   28.40
  -1  -2   0  558.34   28.10
  -1  -2   0  585.94   28.00
  -1  -2   0  577.34   28.10
   1   2   0  534.85   27.80
   1   2   0  599.44   28.10
   1   2   0  597.14   28.40
   1   2   0  589.44   28.10
   1   2   0  555.84   28.10
   1   2   0  571.74   28.00
  -2  -2   0  127.19    7.10
  -2  -2   0  122.29    7.00
  -2  -2   0  145.69    7.50
  -2  -2   0  127.49    7.00
  -2  -2   0  129.29    7.00
  -2  -2   0  134.19    7.30
   2   2   0  133.99    7.00
   2   2   0  131.59    7.00
   2   2   0  134.09    7.00
   2   2   0  128.29    7.00
   2   2   0  133.39    7.40
   2   2   0  137.69    6.70
  -3  -2   0   36.70    3.20
  -3  -2   0   41.30    2.90
  -3  -2   0   39.20    2.90
  -3  -2   0   41.30    3.50
  -3  -2   0   35.80    3.00
  -3  -2   0   40.80    3.30
   3   2   0   35.30    3.30
   3   2   0   37.70    2.80
   3   2   0   34.40    2.70
   3   2   0   38.40    2.90
   3   2   0   36.90    2.50
  -4  -2   0   27.90    2.20
  -4  -2   0   36.60    3.20
  -4  -2   0   37.10    3.30
  -4  -2   0   27.60    3.40
  -4  -2   0   31.30    3.00
  -4  -2   0   31.60    3.10
   4   2   0   27.60    3.00
   4   2   0   31.60    2.40
   4   2   0   31.00    3.20
   4   2   0   32.40    2.80
   4   2   0   33.60    3.00
   4   2   0   30.10    2.80
  -5  -2   0  493.15   24.90
  -5  -2   0  491.05   25.30
  -5  -2   0  506.65   24.90
  -5  -2   0  487.05   24.80
  -5  -2   0  483.95   24.00
   5   2   0  477.65   24.50
   5   2   0  499.95   24.60
   5   2   0  458.45   24.70
   5   2   0  492.25   24.90
  -6  -2   0   86.19    5.00
  -6  -2   0   99.59    7.20
  -6  -2   0   93.59    6.50
   6   2   0   96.39    5.80
   6   2   0   80.89    6.00
   6   2   0   93.09    6.40
   6   2   0   92.69    5.80
  -7  -2   0  120.09    8.40
  -7  -2   0  125.59    9.20
   7   2   0  122.09    8.30
   7   2   0  128.49    7.60
  -8  -2   0   52.79    5.70
  -8  -2   0   48.60    6.40
   8   2   0   54.49    5.60
   8   2   0   50.39    4.50
   8   2   0   52.69    4.60
  10  -3   0  127.19    9.10
  10  -3   0  127.19    9.10
 -10   3   0  110.19   10.40
 -10   3   0  133.49    8.70
 -10   3   0  117.99    9.30
   9  -3   0   48.00    5.50
   9  -3   0   59.39    4.40
   9  -3   0   53.59    5.50
  -9   3   0   55.09    6.50
  -9   3   0   62.59    5.90
  -9   3   0   50.49    5.40
   8  -3   0   36.70    3.10
   8  -3   0   41.20    4.20
   8  -3   0   33.70    3.30
  -8   3   0   38.80    4.10
  -8   3   0   37.50    5.00
  -8   3   0   36.80    4.30
   7  -3   0   16.30    2.40
   7  -3   0   21.90    2.50
   7  -3   0   21.70    2.40
   7  -3   0   17.90    2.90
  -7   3   0   23.90    3.50
  -7   3   0   24.50    2.90
  -7   3   0   18.50   11.20
  -7   3   0   20.60    3.00
   6  -3   0  308.17   16.00
   6  -3   0  300.37   15.90
   6  -3   0  326.07   16.00
   6  -3   0  326.67   16.30
  -6   3   0  318.37   16.10
  -6   3   0  301.17   16.50
  -6   3   0  270.67   23.70
  -6   3   0  317.77   16.30
  -6   3   0  318.07   16.40
   5  -3   0  119.89    6.60
   5  -3   0  123.09    6.50
   5  -3   0  109.79    7.00
   5  -3   0  109.89    6.60
  -5   3   0  110.59    6.50
  -5   3   0  107.09    6.60
  -5   3   0  125.19    7.00
  -5   3   0  117.29   12.80
  -5   3   0  123.99    6.60
  -5   3   0  111.69    6.70
   4  -3   0  341.77   16.50
   4  -3   0  354.66   16.70
   4  -3   0  295.77   16.40
   4  -3   0  329.57   16.90
   4  -3   0  312.17   16.60
   4  -3   0  322.37   16.20
  -4   3   0  324.97   16.50
  -4   3   0  324.77   16.70
  -4   3   0  334.17   16.70
  -4   3   0  318.47   16.20
  -4   3   0  340.57   16.90
  -4   3   0  383.96   20.60
  -4   3   0  306.67   16.60
   3  -3   0  649.93   33.00
   3  -3   0  699.13   33.10
   3  -3   0  687.83   33.10
   3  -3   0  658.93   32.90
   3  -3   0  690.83   33.00
   3  -3   0  617.44   35.70
   3  -3   0  717.33   33.00
  -3   3   0  639.64   33.00
  -3   3   0  653.03   33.00
  -3   3   0  645.54   33.10
  -3   3   0  736.33   33.00
  -3   3   0  681.03   33.10
   2  -3   0  414.56   20.20
   2  -3   0  423.06   20.20
   2  -3   0  397.66   20.40
   2  -3   0  427.26   20.20
   2  -3   0  425.06   20.20
  -2   3   0  405.06   20.20
  -2   3   0  393.06   19.90
  -2   3   0  387.56   20.30
  -2   3   0  431.96   20.20
  -2   3   0  381.86   20.20
   1  -3   0   69.69    4.10
   1  -3   0   69.79    4.00
   1  -3   0   71.89    4.20
   1  -3   0   70.39    4.20
   1  -3   0   78.49    4.50
  -1   3   0   68.99    4.10
  -1   3   0   72.09    4.20
  -1   3   0   75.99    4.40
  -1   3   0   74.99    4.10
   0  -3   0  989.70   49.00
   0  -3   0 1030.80   49.00
   0  -3   0  991.90   49.40
   0  -3   0  991.50   48.90
   0   3   0  975.90   49.00
   0   3   0  956.50   48.90
   0   3   0  994.50   49.40
   0   3   0  999.20   48.90
   0   3   0 1120.69   48.80
  -1  -3   0  414.66   20.10
  -1  -3   0  418.86   20.60
  -1  -3   0  426.46   20.10
  -1  -3   0  405.46   19.80
  -1  -3   0  386.46   20.00
   1   3   0  366.26   19.90
   1   3   0  379.36   20.00
   1   3   0  444.86   20.10
   1   3   0  405.96   20.50
   1   3   0  382.96   19.80
  -2  -3   0  127.49    7.10
  -2  -3   0  127.39    7.60
  -2  -3   0  145.69    8.00
  -2  -3   0  126.49    7.30
  -2  -3   0  137.59    7.40
   2   3   0  137.39    7.30
   2   3   0  131.89    7.80
   2   3   0  129.19    7.20
   2   3   0  129.19    6.60
   2   3   0  130.59    7.20
   2   3   0  143.59    7.20
  -3  -3   0  407.66   20.50
  -3  -3   0  413.36   20.30
  -3  -3   0  378.26   20.20
  -3  -3   0  384.86   20.70
  -3  -3   0  403.96   20.80
   3   3   0  392.46   19.70
   3   3   0  391.66   20.70
   3   3   0  415.96   20.20
   3   3   0  404.96   20.30
   3   3   0  427.46   20.30
  -4  -3   0  130.89    7.20
  -4  -3   0  113.69    7.70
  -4  -3   0  126.39    7.80
  -4  -3   0  111.69    7.10
  -4  -3   0  125.59    7.40
   4   3   0  121.89    6.50
   4   3   0  127.49    7.00
   4   3   0  122.29    7.00
   4   3   0  119.89    7.00
   4   3   0  108.29    7.40
  -5  -3   0   74.49    4.60
  -5  -3   0   71.99    5.50
  -5  -3   0   78.69    6.30
  -5  -3   0   84.29    6.20
  -5  -3   0   77.19    5.80
   5   3   0   80.09    5.30
   5   3   0   75.69    5.80
   5   3   0   82.19    4.80
  -6  -3   0   29.10    4.40
  -6  -3   0   30.20    4.00
   6   3   0   26.70    2.80
   6   3   0   29.70    3.40
   6   3   0   32.10    4.10
  -7  -3   0   71.89    6.80
  -7  -3   0   51.59    5.80
   7   3   0   71.19    6.00
   7   3   0   55.79    4.70
  -8  -3   0    1.00    3.30
  -8  -3   0    0.90    3.20
   8   3   0   -2.60    2.00
   8   3   0   -0.30    2.90
  10  -4   0  102.09    8.00
  10  -4   0  108.79    7.60
  10  -4   0   94.19    7.50
 -10   4   0   72.79    7.20
 -10   4   0   79.39    8.50
 -10   4   0   83.99    7.70
   9  -4   0   49.60    5.20
   9  -4   0   45.80    5.00
   9  -4   0   33.70    3.50
   9  -4   0   38.20    3.70
  -9   4   0   51.39    5.30
  -9   4   0   38.30    5.30
  -9   4   0   48.40    5.20
   8  -4   0  130.39    7.60
   8  -4   0  118.19    7.50
   8  -4   0  137.09    8.30
  -8   4   0  126.89    9.10
  -8   4   0  130.49    8.40
  -8   4   0  132.69    8.50
   7  -4   0   49.60    4.00
   7  -4   0   53.89    4.60
   7  -4   0   49.80    4.20
   7  -4   0   49.50    3.80
  -7   4   0   53.79    4.80
  -7   4   0   53.09    4.70
  -7   4   0   59.09   11.70
  -7   4   0   53.19    5.10
   6  -4   0  332.37   18.00
   6  -4   0  342.07   17.90
   6  -4   0  374.76   17.90
   6  -4   0  346.37   18.00
  -6   4   0  342.67   18.00
  -6   4   0  342.47   18.50
  -6   4   0  349.96   18.30
  -6   4   0  370.56   18.20
   5  -4   0  262.57   13.60
   5  -4   0  268.17   14.00
   5  -4   0  270.37   13.50
   5  -4   0  280.37   13.60
  -5   4   0  234.98   13.70
  -5   4   0  253.27   13.70
  -5   4   0  265.17   13.70
  -5   4   0  260.67   14.00
  -5   4   0  260.17   13.20
   4  -4   0   16.50    1.90
   4  -4   0   18.50    2.10
   4  -4   0   16.30    1.80
   4  -4   0   21.30    2.50
   4  -4   0   18.50    2.10
   4  -4   0   17.90    2.20
  -4   4   0   18.40    2.00
  -4   4   0   15.00    2.30
  -4   4   0   14.30    2.00
  -4   4   0   16.10    2.20
  -4   4   0   18.40    2.00
   3  -4   0  128.39    6.50
   3  -4   0  125.29    7.10
   3  -4   0  136.49    7.00
   3  -4   0  119.19    6.90
   3  -4   0  122.49    6.80
   3  -4   0  130.49    6.90
  -3   4   0  118.99    6.50
  -3   4   0  126.49    7.00
  -3   4   0  117.29    6.80
  -3   4   0  121.79    6.80
  -3   4   0  120.29    6.80
  -3   4   0  129.29    7.00
   2  -4   0  256.97   13.40
   2  -4   0  277.07   13.90
   2  -4   0  258.57   13.40
   2  -4   0  259.87   13.50
   2  -4   0  280.07   13.50
  -2   4   0  245.68   13.50
  -2   4   0  276.67   13.50
  -2   4   0  270.47   13.10
  -2   4   0  261.87   13.50
  -2   4   0  257.67   13.80
   1  -4   0    8.40    1.60
   1  -4   0    7.10    1.60
   1  -4   0    9.90    1.40
   1  -4   0    7.20    2.20
  -1   4   0    6.20    1.30
  -1   4   0    7.00    1.30
  -1   4   0   11.20    1.90
  -1   4   0    5.60    1.30
   0  -4   0   96.99    5.60
   0  -4   0  120.59   16.50
   0  -4   0   84.29    5.50
   0  -4   0   98.19    6.30
   0  -4   0   85.79    5.40
   0   4   0   99.49    6.20
   0   4   0  107.89    5.30
   0   4   0   96.09    5.50
   0   4   0   87.79    5.50
  -1  -4   0  240.08   11.60
  -1  -4   0  223.98   11.20
  -1  -4   0  219.58   11.60
  -1  -4   0  231.18   11.60
  -1  -4   0  234.48   12.30
   1   4   0  212.48   11.50
   1   4   0  213.58   11.50
   1   4   0  214.48   11.50
   1   4   0  218.28   11.20
   1   4   0  202.98   12.10
  -2  -4   0  487.85   26.40
  -2  -4   0  518.15   27.00
  -2  -4   0  509.35   26.10
  -2  -4   0  582.54   26.70
   2   4   0  534.65   26.10
   2   4   0  494.35   26.90
   2   4   0  522.05   26.20
   2   4   0  575.24   26.40
   2   4   0  526.75   26.30
  -3  -4   0  119.49    6.80
  -3  -4   0  109.99    7.40
  -3  -4   0  107.99    7.20
  -3  -4   0  117.99    7.80
   3   4   0  125.29    7.00
   3   4   0  127.09    6.80
   3   4   0  124.19    6.90
  -4  -4   0   26.00    3.10
  -4  -4   0   36.30    3.70
  -4  -4   0   34.00    4.30
  -4  -4   0   37.70    4.00
   4   4   0   37.80    3.50
   4   4   0   39.90    3.60
   4   4   0   37.90    2.40
  -5  -4   0   87.69    7.00
  -5  -4   0   87.69    6.30
  -5  -4   0   79.89    6.70
   5   4   0   85.79    5.60
   5   4   0   74.79    6.20
   5   4   0   78.49    4.60
  -6  -4   0   66.09    6.20
  -6  -4   0   71.29    6.90
   6   4   0   68.49    5.30
   6   4   0   59.09    6.00
  -7  -4   0   27.20    5.20
  -7  -4   0   33.20    4.70
   7   4   0   32.50    4.70
   7   4   0   37.70    4.00
  10  -5   0   75.09    6.70
  10  -5   0   62.09    6.90
 -10   5   0   70.99    7.80
 -10   5   0   79.09    6.80
 -10   5   0   68.79    6.70
   9  -5   0    7.60    2.40
   9  -5   0    8.70    2.10
   9  -5   0   12.00    3.20
  -9   5   0    5.00    3.00
  -9   5   0   11.30    3.30
  -9   5   0   11.50    4.20
   8  -5   0  110.99    7.00
   8  -5   0  113.89    7.40
   8  -5   0  115.99    7.20
  -8   5   0  114.49    7.80
  -8   5   0  106.29    7.60
  -8   5   0  114.99    8.40
   7  -5   0   72.69    5.30
   7  -5   0   59.49    5.20
   7  -5   0   71.09    4.70
  -7   5   0   70.59    5.90
  -7   5   0   70.39    5.10
  -7   5   0   70.59    5.40
   6  -5   0   11.60    2.00
   6  -5   0    7.00    1.90
   6  -5   0   11.10    2.10
  -6   5   0    8.40    2.60
  -6   5   0   13.00    2.40
  -6   5   0   10.70    2.30
  -6   5   0   10.80    1.60
  -6   5   0    8.50    2.10
   5  -5   0  137.79    8.20
   5  -5   0  141.09    8.20
   5  -5   0  161.38    8.40
   5  -5   0  158.68    8.50
  -5   5   0  158.48    8.30
  -5   5   0  144.19    8.50
  -5   5   0  147.89    8.60
  -5   5   0  153.78    8.80
   4  -5   0  121.89   11.30
   4  -5   0  105.39    6.40
   4  -5   0  107.49    6.00
   4  -5   0  104.39    6.30
   4  -5   0  117.79    6.70
   4  -5   0  105.19    6.40
  -4   5   0  112.39    6.50
  -4   5   0  107.49    6.50
  -4   5   0  109.99    6.40
  -4   5   0  100.59    6.40
   3  -5   0   62.89    4.30
   3  -5   0   68.49    4.30
   3  -5   0   64.99    4.80
   3  -5   0   63.89    4.30
   3  -5   0   72.09    4.30
  -3   5   0   68.39    4.50
  -3   5   0   68.69    4.30
  -3   5   0   61.99    4.20
  -3   5   0   68.09    4.70
  -3   5   0   68.29    3.70
  -3   5   0   67.89    4.30
   2  -5   0   22.50    2.30
   2  -5   0   20.10    2.90
   2  -5   0   24.70    2.30
   2  -5   0   20.30    2.30
   2  -5   0   21.70    2.30
  -2   5   0   22.80    2.90
  -2   5   0   20.20    2.30
  -2   5   0   21.60    1.70
  -2   5   0   26.30    2.60
  -2   5   0   19.60    2.20
   1  -5   0   82.59    4.70
   1  -5   0   73.59    5.40
   1  -5   0   78.89    4.80
   1  -5   0   75.89    4.70
  -1   5   0   66.99    4.40
  -1   5   0   73.99    4.60
  -1   5   0   69.89    4.40
  -1   5   0   79.29    4.60
  -1   5   0   68.69    5.00
   0  -5   0  211.78   11.90
   0  -5   0  229.68   11.90
   0  -5   0  238.68   11.00
   0  -5   0  216.98   22.50
   0  -5   0  219.18   11.90
   0  -5   0  226.98   12.60
   0   5   0  222.88   11.90
   0   5   0  215.98   12.50
   0   5   0  245.98   12.00
   0   5   0  222.28   11.60
  -1  -5   0  338.27   18.90
  -1  -5   0  352.26   18.30
   1   5   0  371.26   17.80
   1   5   0  363.76   18.10
   1   5   0  338.37   18.40
   1   5   0  356.56   18.10
  -2  -5   0  108.09    6.60
  -2  -5   0   98.49    7.30
  -2  -5   0  108.09    6.70
  -2  -5   0   94.69    5.90
   2   5   0  107.99    6.20
   2   5   0  101.39    6.20
   2   5   0  108.39    6.00
  -3  -5   0   62.39    4.60
  -3  -5   0   61.99    5.80
  -3  -5   0   58.59    5.30
  -3  -5   0   56.59    4.20
   3   5   0   70.79    4.50
   3   5   0   59.19    4.20
   3   5   0   63.99    4.60
  -4  -5   0   89.09    7.80
  -4  -5   0   93.69    6.10
  -4  -5   0   87.29    7.00
  -4  -5   0   99.19    6.90
   4   5   0   90.99    6.30
   4   5   0   97.89    6.00
  -5  -5   0   17.90    4.00
  -5  -5   0   15.80    4.00
  -5  -5   0   16.70    3.70
   5   5   0   19.50    3.00
  -6  -5   0   25.30    4.80
  -6  -5   0   18.40    3.90
   6   5   0   11.90    3.80
   6   5   0   19.90    3.00
  -7  -5   0   15.20    4.70
  -7  -5   0   19.10    4.60
   7   5   0   17.80    4.20
  10  -6   0   16.90    4.10
  10  -6   0   20.70    4.10
  10  -6   0   19.50    2.90
 -10   6   0   13.60    3.80
 -10   6   0   21.40    4.50
 -10   6   0   20.80    5.00
   9  -6   0   92.29    6.20
   9  -6   0   91.19    6.80
   9  -6   0   90.59    6.60
  -9   6   0  100.59    7.40
  -9   6   0   87.99    6.70
  -9   6   0   97.29    7.40
   8  -6   0   62.49    5.70
   8  -6   0   62.09    4.70
   8  -6   0   66.09    5.40
  -8   6   0   59.49    5.60
  -8   6   0   65.39    5.10
  -8   6   0   64.29    6.30
   7  -6   0  177.48    9.50
   7  -6   0  162.38    9.50
  -7   6   0  171.18   10.30
  -7   6   0  183.68   10.10
  -7   6   0  162.28   10.00
  -7   6   0  160.78    8.90
   6  -6   0  145.69    8.40
   6  -6   0  153.68    8.50
  -6   6   0  145.49    8.90
  -6   6   0  154.88    9.10
  -6   6   0  145.49    8.50
  -6   6   0  151.98    8.80
   5  -6   0  154.18   14.40
   5  -6   0  175.48    9.50
   5  -6   0  187.78   10.10
   5  -6   0  203.08   10.00
  -5   6   0  178.88   10.00
  -5   6   0  186.48   10.00
  -5   6   0  170.38   10.10
  -5   6   0  172.28   10.10
   4  -6   0   25.20    2.90
   4  -6   0   30.90    3.60
   4  -6   0   32.20    3.00
  -4   6   0   21.20    2.90
  -4   6   0   26.90    3.00
  -4   6   0   25.90    2.90
  -4   6   0   28.00    3.00
   3  -6   0   51.89    3.60
   3  -6   0   47.10    4.60
   3  -6   0   49.30    3.70
  -3   6   0   42.50    3.70
  -3   6   0   44.40    3.50
  -3   6   0   38.10    4.10
  -3   6   0   50.59    2.90
   2  -6   0   31.00    2.80
   2  -6   0   29.30    3.80
   2  -6   0   31.40    3.10
  -2   6   0   29.30    3.10
  -2   6   0   33.80    3.30
   1  -6   0  233.38   12.60
   1  -6   0  201.58   11.60
  -1   6   0  204.08   11.60
  -1   6   0  207.08   11.20
  -1   6   0  234.48   11.70
   0  -6   0   95.59    6.70
   0  -6   0   80.99   17.20
   0  -6   0   93.89    6.10
   0   6   0   94.09    5.90
   0   6   0   97.79    5.50
  -1  -6   0  395.06   20.80
  -1  -6   0  358.66   21.50
  -1  -6   0  440.46   42.20
   1   6   0  423.26   20.80
   1   6   0  410.66   20.70
   1   6   0  409.16   20.30
  -2  -6   0  134.59    8.50
  -2  -6   0  134.49    9.40
  -2  -6   0  130.09    7.60
  -2  -6   0  141.19    8.50
   2   6   0  133.39    7.90
   2   6   0  137.39    7.70
   2   6   0  146.79    8.20
  -3  -6   0    4.00    2.70
  -3  -6   0   -1.00    3.30
  -3  -6   0    3.90    1.70
  -3  -6   0    3.60    2.00
   3   6   0    0.60    1.90
   3   6   0    1.20    1.60
   3   6   0    4.10    2.10
  -4  -6   0   65.99    6.10
  -4  -6   0   63.59    7.10
  -4  -6   0   61.49    6.10
   4   6   0   73.79    5.30
  -5  -6   0    7.00    3.50
  -5  -6   0   11.40    3.50
  -5  -6   0   17.80    5.00
   5   6   0   18.50    3.20
  -6  -6   0   14.50    4.60
  -6  -6   0    6.10    3.00
   6   6   0    6.30    3.70
   6   6   0   11.40    2.90
  10  -7   0   29.20    4.60
  10  -7   0   26.00    3.50
  10  -7   0   25.60    4.30
 -10   7   0   24.30    5.30
 -10   7   0   29.90    4.60
 -10   7   0   30.10    4.70
   9  -7   0   74.59    5.60
   9  -7   0   72.89    6.10
   9  -7   0   68.89    6.40
  -9   7   0   72.99    7.00
  -9   7   0   65.69    6.40
  -9   7   0   69.79    6.20
   8  -7   0   61.49    5.20
   8  -7   0   62.19    5.00
  -8   7   0   62.69    6.40
  -8   7   0   64.19    5.20
  -8   7   0   73.29    6.10
   7  -7   0  105.59    6.70
   7  -7   0   96.29    6.30
  -7   7   0   99.79    7.00
  -7   7   0  100.99    6.90
  -7   7   0   86.99    7.10
   6  -7   0  127.09    8.10
   6  -7   0  130.59    7.80
  -6   7   0  129.69    7.80
  -6   7   0  129.89    8.20
  -6   7   0  121.89    7.90
   5  -7   0  147.39    8.50
   5  -7   0  160.18   15.70
   5  -7   0  145.99    8.90
  -5   7   0  144.19    8.70
  -5   7   0  150.28    8.70
  -5   7   0  124.39    9.20
  -5   7   0  147.09    8.70
   4  -7   0   31.60    3.40
   4  -7   0   30.80    4.00
   4  -7   0   47.40    3.90
  -4   7   0   33.30    2.40
  -4   7   0   32.50    3.60
  -4   7   0   30.60    3.50
   3  -7   0   89.19    6.60
   3  -7   0   83.59    5.70
   3  -7   0   83.99    5.60
  -3   7   0   85.29    5.90
  -3   7   0   87.09    4.80
  -3   7   0   90.29    5.90
   2  -7   0  281.77   16.70
   2  -7   0  302.07   15.90
   2  -7   0  308.07   15.60
  -2   7   0  300.27   16.00
  -2   7   0  291.97   15.90
  -2   7   0  315.57   15.70
   1  -7   0  258.27   14.40
   1  -7   0  265.47   13.40
   1  -7   0  275.77   15.50
  -1   7   0  259.47   13.90
  -1   7   0  276.07   14.40
  -1   7   0  278.57   14.50
   0  -7   0   95.59    6.30
   0  -7   0  100.59    7.50
   0   7   0   82.59    5.70
   0   7   0   86.49    5.40
  -1  -7   0  105.49   27.10
  -1  -7   0  123.99    7.60
  -1  -7   0  116.79    8.90
   1   7   0  110.09    6.80
   1   7   0  136.49    7.70
   1   7   0  121.89    7.50
  -2  -7   0  116.49   38.00
  -2  -7   0  130.69    8.50
  -2  -7   0  132.49    8.40
  -2  -7   0  108.39    9.20
   2   7   0  125.09    7.10
   2   7   0  125.59    7.70
   2   7   0  118.79    7.60
  -3  -7   0   19.30    4.20
  -3  -7   0   25.80    4.10
  -3  -7   0   16.70    4.80
   3   7   0   22.80    3.00
   3   7   0   27.50    3.60
  -4  -7   0   54.39    7.30
  -4  -7   0   63.69    6.30
  -4  -7   0   69.69    6.60
   4   7   0   59.89    5.50
  -5  -7   0   14.20    4.80
  -5  -7   0   10.60    4.00
  -5  -7   0   16.10    5.30
   5   7   0   17.50    3.60
   9  -8   0   65.69    6.90
   9  -8   0   61.19    5.70
   9  -8   0   75.89    6.10
   9  -8   0   65.79    6.60
  -9   8   0   79.09    6.10
  -9   8   0   67.99    6.40
  -9   8   0   81.09    7.50
   8  -8   0   69.99    5.80
  -8   8   0   62.09    6.20
  -8   8   0   82.99    6.90
  -8   8   0   76.69    6.70
   7  -8   0   77.99    5.70
  -7   8   0   75.49    5.70
  -7   8   0   70.79    6.50
   6  -8   0   81.29   11.30
   6  -8   0   99.89    7.60
   6  -8   0  115.49    7.10
  -6   8   0  121.89    7.50
  -6   8   0  111.89    7.70
  -6   8   0  109.59    7.40
   5  -8   0   69.09    5.90
   5  -8   0   69.29    5.30
   5  -8   0   98.39   14.10
  -5   8   0   64.89    5.10
  -5   8   0   54.19    5.20
   4  -8   0  234.18   13.10
   4  -8   0  233.68   13.90
  -4   8   0  251.77   13.20
  -4   8   0  232.88   13.30
   3  -8   0  283.17   14.80
   3  -8   0  297.47   15.20
   3  -8   0  269.77   16.00
  -3   8   0  262.37   13.90
  -3   8   0  277.07   15.20
  -3   8   0  288.87   15.20
   2  -8   0   34.90    3.40
   2  -8   0   25.10    3.50
   2  -8   0   28.10    2.60
   2  -8   0   29.20    4.30
  -2   8   0   36.40    3.40
  -2   8   0   26.90    3.20
  -2   8   0   26.50    3.70
   1  -8   0   70.39    5.40
   1  -8   0   62.99    6.60
   1  -8   0   63.49    3.60
  -1   8   0   57.39    4.40
  -1   8   0   65.69    5.10
   0  -8   0  179.28   12.10
   0  -8   0  172.68   10.60
   0   8   0  198.08   10.90
  -1  -8   0   37.70    5.80
  -1  -8   0   36.20    4.20
   1   8   0   35.20    3.80
   1   8   0   36.00    4.10
   1   8   0   30.80    3.00
  -2  -8   0  161.28   10.50
  -2  -8   0  158.68   10.10
  -2  -8   0  170.98   12.00
   2   8   0  162.68   10.00
  -3  -8   0   17.40    4.60
  -3  -8   0   16.00    3.90
  -3  -8   0   19.70    4.00
   3   8   0   25.50    3.80
  -4  -8   0   14.80    4.50
  -4  -8   0   17.90    4.30
  -4  -8   0   17.80    5.70
   4   8   0   21.70    3.90
   9  -9   0   53.09    6.00
  -9   9   0   63.19    6.90
  -9   9   0   68.19    6.60
   8  -9   0   66.09    6.70
   8  -9   0   79.39    6.10
  -8   9   0   74.49    6.60
  -8   9   0   78.29    7.00
  -8   9   0   70.59    6.90
   7  -9   0   19.30    3.40
  -7   9   0   19.20    3.40
  -7   9   0   14.80    3.50
   6  -9   0   15.90    4.10
   6  -9   0   13.60    3.00
  -6   9   0   16.30    3.70
  -6   9   0   12.30    3.20
   5  -9   0  185.98   11.80
   5  -9   0  184.08   10.90
  -5   9   0  181.48   10.90
  -5   9   0  187.98   11.20
   4  -9   0   33.90    4.10
   4  -9   0   40.60    5.20
   4  -9   0   30.60    3.60
  -4   9   0   39.00    4.60
  -4   9   0   28.90    3.90
   3  -9   0   42.00    5.90
   3  -9   0   47.50    4.80
   3  -9   0   45.60    3.80
  -3   9   0   41.70    4.40
  -3   9   0   47.30    4.40
  -3   9   0   39.60    4.50
   2  -9   0  104.99    8.40
   2  -9   0  114.69    7.80
   2  -9   0  116.89    6.40
  -2   9   0  108.89    6.90
  -2   9   0  105.39    7.90
  -2   9   0  120.19    7.70
   1  -9   0   11.40    3.10
   1  -9   0   11.80    4.50
  -1   9   0   12.70    2.20
  -1   9   0   13.60    3.00
   0  -9   0   39.80    5.00
   0  -9   0   38.30    6.20
   0   9   0   54.99    5.10
  -1  -9   0   36.50    6.50
  -1  -9   0   37.30    4.80
  -1  -9   0   34.80    4.20
   1   9   0   28.00    4.10
   1   9   0   40.70    4.50
  -2  -9   0   86.29    9.80
  -2  -9   0   96.79    7.90
  -2  -9   0  101.69    7.40
   2   9   0   94.59    7.20
  -3  -9   0   -1.20    3.40
  -3  -9   0    1.30    3.50
  -3  -9   0    3.80    4.90
   3   9   0    3.20    2.90
   8 -10   0   45.70    5.10
   8 -10   0   31.50    4.90
  -8  10   0   36.80    4.80
  -8  10   0   32.50    4.90
   7 -10   0   56.99    5.70
   7 -10   0   59.99    6.00
  -7  10   0   64.29    6.30
  -7  10   0   63.99    6.30
   6 -10   0   16.70    4.30
   6 -10   0   13.00    3.20
   6 -10   0   12.50    3.20
  -6  10   0   15.10    3.60
  -6  10   0   14.00    3.30
   5 -10   0   45.10    6.50
   5 -10   0   35.00    4.30
   5 -10   0   42.50    4.80
  -5  10   0   40.00    5.00
  -5  10   0   39.40    4.80
   4 -10   0   73.59    5.60
   4 -10   0   83.69    6.60
   4 -10   0   78.29    7.10
  -4  10   0   80.39    5.80
  -4  10   0   81.29    6.40
  -4  10   0   79.29    6.10
   3 -10   0    5.60    2.90
   3 -10   0    1.10    1.90
   3 -10   0    3.70    4.00
  -3  10   0    7.10    2.20
  -3  10   0    2.00    3.30
  -3  10   0    5.60    2.70
   2 -10   0   61.89    5.80
   2 -10   0   59.19    7.60
  -2  10   0   60.49    5.80
  -2  10   0   59.99    4.60
   1 -10   0   28.60    4.40
   1 -10   0   16.80    5.30
  -1  10   0   29.30    4.10
   0 -10   0    7.90    4.10
   0 -10   0   11.00    3.70
   0  10   0   15.00    3.40
   0  10   0    6.60    3.30
  -1 -10   0   24.70    4.60
  -1 -10   0   10.90    5.30
  -1 -10   0   20.40    5.10
   1  10   0   18.60    3.80
   7 -11   0   28.40    4.70
   7 -11   0   24.40    4.30
  -7  11   0   17.00    4.60
  -7  11   0   26.50    4.60
   6 -11   0   11.80    3.80
   6 -11   0   13.70    4.70
   6 -11   0    6.40    3.00
  -6  11   0   13.30    4.20
  -6  11   0   14.80    3.80
   5 -11   0   16.90    3.20
   5 -11   0   24.00    5.50
   5 -11   0   22.50    4.00
  -5  11   0   19.70    4.00
  -5  11   0   25.00    4.70
   4 -11   0   31.10    4.20
   4 -11   0   27.90    5.80
  -4  11   0   28.70    5.00
  -4  11   0   30.20    3.90
  -4  11   0   29.30    4.40
   3 -11   0   32.70    4.70
   3 -11   0   29.60    6.20
  -3  11   0   29.00    5.00
  -3  11   0   33.90    4.30
   2 -11   0   20.50    4.30
   2 -11   0   18.90    5.80
  -2  11   0   29.20    4.30
   1 -11   0    7.20    3.00
   1 -11   0    9.40    5.20
  -1  11   0    9.70    3.20
  -4  12  -1   14.80    4.60
   0  11  -1    3.40    3.10
   0 -11   1    0.00    5.00
   0 -11   1    2.20    3.50
  -1  11  -1   37.40    5.00
   1 -11   1   26.40    4.80
   1 -11   1   33.10    6.80
  -2  11  -1    2.60    2.90
   2 -11   1    8.50    3.40
   2 -11   1    3.70    4.60
  -3  11  -1    4.20    3.70
  -3  11  -1    5.10    2.40
  -3  11  -1    4.40    2.20
   3 -11   1    3.10    4.60
   3 -11   1    5.50    3.20
  -4  11  -1    2.10    3.40
  -4  11  -1    8.30    3.20
  -4  11  -1    5.40    2.50
   4 -11   1    9.90    4.90
   4 -11   1    3.20    2.90
  -5  11  -1   14.70    3.40
  -5  11  -1   14.10    3.70
  -5  11  -1   13.90    4.10
   5 -11   1    3.50    3.00
   5 -11   1   12.10    5.00
   5 -11   1   10.50    3.10
  -6  11  -1    1.20    3.50
  -6  11  -1   12.10    3.60
   6 -11   1    6.50    3.30
   6 -11   1    8.90    3.20
  -7  11  -1   17.40    3.70
  -7  11  -1   14.40    4.30
   7 -11   1   13.20    4.10
   7 -11   1   12.10    3.40
  -2 -10   1   19.70    4.50
  -2 -10   1   10.00    4.90
   1  10  -1   21.90    3.80
  -1 -10   1   21.50    5.30
  -1 -10   1   16.80    3.60
   0  10  -1    5.00    2.90
   0 -10   1   -3.20    4.10
   0 -10   1    0.40    3.00
  -1  10  -1    2.90    2.70
  -1  10  -1    3.50    2.10
   1 -10   1   -0.90    3.00
   1 -10   1    2.20    4.30
  -2  10  -1   17.80    3.60
  -2  10  -1   18.20    2.90
  -2  10  -1   20.30    4.10
   2 -10   1   13.30    3.50
   2 -10   1   10.30    4.80
  -3  10  -1   61.19    5.30
  -3  10  -1   58.39    5.80
  -3  10  -1   69.29    6.10
   3 -10   1   66.59    6.00
   3 -10   1   60.59    7.00
   3 -10   1   62.99    4.60
  -4  10  -1    2.70    3.20
  -4  10  -1    8.80    2.90
  -4  10  -1    4.70    2.80
   4 -10   1    5.70    2.50
   4 -10   1    5.80    2.80
   4 -10   1    3.00    4.00
  -5  10  -1   15.30    3.50
  -5  10  -1   17.30    4.00
   5 -10   1   18.00    3.40
   5 -10   1   22.20    4.90
   5 -10   1   13.40    3.20
  -6  10  -1    9.60    3.20
  -6  10  -1    6.30    3.20
   6 -10   1    7.20    2.80
   6 -10   1    7.30    3.40
  -7  10  -1   72.29    6.80
  -7  10  -1   72.59    6.60
   7 -10   1   67.69    5.90
   7 -10   1   63.99    6.20
  -8  10  -1   17.50    4.00
  -8  10  -1   14.40    3.80
  -8  10  -1   18.30    4.20
   8 -10   1   14.60    3.10
   8 -10   1   13.00    4.00
   3   9  -1   31.20    4.40
  -3  -9   1   26.60    6.40
  -3  -9   1   20.40    4.50
  -3  -9   1   26.20    4.40
   2   9  -1    0.40    2.60
  -2  -9   1   -5.70    2.70
  -2  -9   1    1.90    3.10
  -2  -9   1    1.40    2.60
   1   9  -1   18.50    2.70
   1   9  -1   22.10    3.70
  -1  -9   1   19.00    4.80
  -1  -9   1   23.70    3.40
  -1  -9   1   19.90    3.50
   0   9  -1    3.80    2.00
   0   9  -1    3.70    1.80
   0  -9   1    0.40    2.60
   0  -9   1   -0.50    3.80
  -1   9  -1  105.69    7.10
  -1   9  -1   98.89    6.40
   1  -9   1   95.29    6.80
   1  -9   1   98.39    8.60
  -2   9  -1    1.60    2.80
  -2   9  -1    0.60    1.90
  -2   9  -1    2.60    2.40
   2  -9   1   -1.30    2.30
   2  -9   1    2.20    3.60
   2  -9   1    2.70    1.50
  -3   9  -1  121.09    7.40
  -3   9  -1  120.19    7.70
  -3   9  -1  113.59    7.80
   3  -9   1  121.79    7.60
   3  -9   1  101.69    6.90
   3  -9   1  107.89    6.70
   3  -9   1  108.89    8.70
  -4   9  -1   11.70    3.10
  -4   9  -1    5.80    2.60
   4  -9   1    7.10    2.30
   4  -9   1   10.10    2.90
   4  -9   1   12.60    3.90
  -5   9  -1  188.78   10.90
  -5   9  -1  183.18   10.80
   5  -9   1  161.48   10.40
   5  -9   1  173.38   10.50
   5  -9   1  220.98   22.20
   5  -9   1  168.28   11.40
  -6   9  -1   18.10    3.70
  -6   9  -1   28.40    4.00
   6  -9   1   22.90    3.70
   6  -9   1   21.60   12.00
   6  -9   1   27.60    3.80
  -7   9  -1   15.30    3.40
  -7   9  -1    9.70    3.10
  -7   9  -1   10.40    3.60
   7  -9   1    6.70    3.10
   7  -9   1    9.80    2.90
  -8   9  -1    7.90    3.20
  -8   9  -1    9.90    3.40
  -8   9  -1    5.70    3.20
   8  -9   1    6.80    2.40
   8  -9   1    6.40    3.50
  -9   9  -1   -2.70    3.20
  -9   9  -1   -0.60    3.20
   9  -9   1    1.90    2.20
   9  -9   1    4.40    2.80
   9  -9   1    2.40    3.90
   4   8  -1   12.00    3.30
  -4  -8   1    6.00    4.80
  -4  -8   1   18.80    3.90
  -4  -8   1   17.90    4.30
   3   8  -1    2.40    2.50
  -3  -8   1   -1.30    4.10
  -3  -8   1    0.70    2.30
  -3  -8   1    2.00    3.10
   2   8  -1    7.20    2.70
   2   8  -1    4.40    2.10
   2   8  -1    7.10    2.50
  -2  -8   1    4.00    3.30
  -2  -8   1    5.60    2.40
  -2  -8   1    5.40    2.70
   1   8  -1  233.98   13.30
   1   8  -1  233.38   12.70
   1   8  -1  232.18   12.90
  -1  -8   1  234.78   14.50
  -1  -8   1  241.08   13.60
  -1  -8   1  242.68   13.20
   0   8  -1    3.10    1.90
   0   8  -1    2.10    2.10
   0  -8   1    0.60    2.20
   0  -8   1    4.70    3.50
  -1   8  -1   87.19    6.00
  -1   8  -1   96.99    5.70
  -1   8  -1   77.69    5.70
   1  -8   1   79.79    6.80
   1  -8   1   90.09    5.60
   1  -8   1   88.79    6.20
   1  -8   1   86.59    4.70
  -2   8  -1  208.68   12.00
  -2   8  -1  208.48   11.90
  -2   8  -1  216.28   11.70
   2  -8   1  215.88   11.90
   2  -8   1  218.98   11.40
   2  -8   1  207.28   12.70
   2  -8   1  214.08   11.10
  -3   8  -1  145.69    8.70
  -3   8  -1  146.09    7.80
  -3   8  -1  152.48    8.80
   3  -8   1  137.49    8.00
   3  -8   1  137.49    8.10
   3  -8   1  151.18    8.70
   3  -8   1  137.59    9.60
  -4   8  -1  114.69    7.70
  -4   8  -1  119.19    7.70
  -4   8  -1  121.89    6.70
   4  -8   1  116.89    7.20
   4  -8   1  125.09    7.60
   4  -8   1  128.99    8.60
   4  -8   1  121.49    7.30
  -5   8  -1   10.90    2.00
  -5   8  -1   12.30    2.80
  -5   8  -1   20.80   18.00
  -5   8  -1   17.40    3.10
   5  -8   1   10.90    3.20
   5  -8   1   10.40    2.60
   5  -8   1   13.60    2.60
   5  -8   1   24.80   12.00
  -6   8  -1   12.10    3.00
  -6   8  -1   10.00    3.00
  -6   8  -1    6.20    2.50
   6  -8   1   10.40    2.50
   6  -8   1   11.50    8.90
   6  -8   1   14.80    3.10
  -7   8  -1   15.50    3.40
  -7   8  -1   12.40    3.30
   7  -8   1   11.20    2.50
   7  -8   1   11.40    3.20
  -8   8  -1   48.10    5.50
  -8   8  -1   54.39    5.50
  -8   8  -1   46.10    5.30
   8  -8   1   57.79    4.80
   8  -8   1   46.00    5.60
   8  -8   1   52.29    5.70
  -9   8  -1   31.50    4.60
  -9   8  -1   28.30    4.80
  -9   8  -1   29.90    4.60
   9  -8   1   22.00    4.40
   9  -8   1   35.70    4.40
   9  -8   1   34.00    5.10
   9  -8   1   35.30    3.70
   5   7  -1   20.40    3.50
  -5  -7   1   13.40    4.10
  -5  -7   1   13.50    4.00
   4   7  -1   12.90    2.60
   4   7  -1   13.00    3.10
  -4  -7   1    9.90    4.50
  -4  -7   1   15.80    3.80
  -4  -7   1   14.00    3.80
   3   7  -1   45.20    4.20
   3   7  -1   54.39    4.90
  -3  -7   1   52.59    5.50
  -3  -7   1   50.39    6.50
  -3  -7   1   50.19    5.00
   2   7  -1   22.30    2.90
   2   7  -1   27.20    2.80
   2   7  -1   23.30    3.30
  -2  -7   1   26.30    5.00
  -2  -7   1   25.60    3.70
  -2  -7   1   22.40    3.60
   1   7  -1   69.29    5.10
   1   7  -1   81.09    5.50
   1   7  -1   78.39    5.10
  -1  -7   1   80.99    5.80
  -1  -7   1   71.59    6.80
  -1  -7   1   71.09    5.50
   0   7  -1  213.58   11.40
   0   7  -1  198.78   10.90
   0  -7   1  203.88   11.40
   0  -7   1  192.68   19.90
   0  -7   1  206.58   12.50
  -1   7  -1  162.88    9.30
  -1   7  -1  161.18    9.00
  -1   7  -1  150.58    9.10
   1  -7   1  176.78    9.50
   1  -7   1  166.28    8.30
   1  -7   1  149.69   10.20
  -2   7  -1  401.06   21.70
  -2   7  -1  406.86   21.60
  -2   7  -1  434.46   21.80
   2  -7   1  423.66   21.20
   2  -7   1  438.46   22.70
   2  -7   1  419.66   21.10
   2  -7   1  441.16   21.80
  -3   7  -1   54.69    3.60
  -3   7  -1   50.59    4.60
  -3   7  -1   52.69    4.40
   3  -7   1   57.39    5.20
   3  -7   1   58.99    4.00
   3  -7   1   66.99    4.50
   3  -7   1   62.49    4.10
  -4   7  -1  106.99    5.80
  -4   7  -1  104.29   21.10
  -4   7  -1  103.89    6.50
  -4   7  -1   89.39    6.40
   4  -7   1   99.49    7.00
   4  -7   1  104.89    6.30
   4  -7   1  100.29    6.20
   4  -7   1   99.59    6.30
  -5   7  -1   51.09    4.50
  -5   7  -1   52.19    3.60
  -5   7  -1   46.00    4.40
  -5   7  -1   51.69    4.60
   5  -7   1   46.10    4.30
   5  -7   1   51.79    4.30
   5  -7   1   47.80   12.60
   5  -7   1   48.40    4.80
  -6   7  -1   80.99    6.10
  -6   7  -1   74.09    5.50
  -6   7  -1   81.49    5.70
   6  -7   1   79.79    5.90
   6  -7   1   87.09    5.50
  -7   7  -1    8.10    2.30
  -7   7  -1   13.90    3.00
  -7   7  -1   12.40    3.10
   7  -7   1   11.40    2.40
   7  -7   1    9.00    3.10
   7  -7   1   11.50    2.50
  -8   7  -1  115.49    8.80
  -8   7  -1  138.89    8.70
  -8   7  -1  141.29    8.80
   8  -7   1  115.29    8.80
   8  -7   1  132.29    7.90
   8  -7   1  133.19    8.80
   8  -7   1  139.09    8.30
  -9   7  -1   10.40    3.80
  -9   7  -1   11.80    3.50
  -9   7  -1   17.80    3.60
   9  -7   1   15.90    3.50
   9  -7   1   11.90    3.40
   9  -7   1   11.40    2.40
   9  -7   1   14.60    3.80
 -10   7  -1   66.19    6.40
 -10   7  -1   69.99    6.70
 -10   7  -1   69.09    7.60
  10  -7   1   69.79    7.30
  10  -7   1   60.89    6.20
   6   6  -1    5.40    3.00
   6   6  -1    0.70    3.40
  -6  -6   1    3.20    3.70
  -6  -6   1    0.70    3.40
   5   6  -1    6.30    2.50
   5   6  -1    7.00    2.30
  -5  -6   1    6.30    3.30
  -5  -6   1    7.40    2.80
   4   6  -1   26.50    3.50
  -4  -6   1   26.40    4.00
  -4  -6   1   30.50    5.20
  -4  -6   1   31.40    4.40
   3   6  -1   51.79    4.50
   3   6  -1   46.90    4.00
  -3  -6   1   41.00    4.30
  -3  -6   1   49.50    5.60
  -3  -6   1   44.20    4.80
  -3  -6   1   42.70    4.50
   2   6  -1   60.59    4.10
   2   6  -1   62.99    4.50
   2   6  -1   62.99    4.50
  -2  -6   1   56.29    6.10
  -2  -6   1   62.29    5.00
  -2  -6   1   63.09    4.40
  -2  -6   1   59.49    5.00
   1   6  -1   64.49    4.40
   1   6  -1   63.09    4.20
   1   6  -1   59.39    4.40
  -1  -6   1   63.69    4.60
  -1  -6   1   65.19    5.80
  -1  -6   1   70.09    4.80
   0   6  -1   94.29    6.10
   0   6  -1   98.69    5.90
   0  -6   1  104.09    6.30
   0  -6   1   96.09    6.80
  -1   6  -1   18.60    2.40
  -1   6  -1   19.80    2.60
  -1   6  -1   21.40    2.60
   1  -6   1   21.30    1.80
   1  -6   1   24.00    2.80
   1  -6   1   22.60    3.60
  -2   6  -1   31.50    3.70
  -2   6  -1   27.70    2.80
  -2   6  -1   27.90    3.00
   2  -6   1   32.30    2.50
   2  -6   1   39.40    3.90
   2  -6   1   36.60    3.20
   2  -6   1   29.90    2.60
  -3   6  -1   78.39    4.80
  -3   6  -1   65.19    4.80
  -3   6  -1   69.29    5.20
  -3   6  -1   61.49   13.40
  -3   6  -1   74.19    4.30
   3  -6   1   79.29    4.70
   3  -6   1   87.39    5.70
   3  -6   1   71.79    4.60
   3  -6   1   75.29    4.80
   3  -6   1   72.39    4.80
  -4   6  -1    0.50    1.10
  -4   6  -1   -0.50    1.60
  -4   6  -1    1.90    1.40
  -4   6  -1   -1.10    1.40
  -4   6  -1    1.80    1.70
   4  -6   1    2.90    1.50
   4  -6   1   -0.20    1.30
   4  -6   1   -0.80    1.50
   4  -6   1    2.40    8.30
   4  -6   1    0.50    1.80
  -5   6  -1  154.88    8.10
  -5   6  -1  120.29    7.70
  -5   6  -1  141.49    7.90
  -5   6  -1  133.39    7.90
   5  -6   1  121.99   15.60
   5  -6   1  134.59    7.90
   5  -6   1  128.99    7.50
   5  -6   1  136.29    7.70
  -6   6  -1  296.27   15.20
  -6   6  -1  282.87   14.60
  -6   6  -1  271.67   15.00
  -6   6  -1  280.77   15.00
   6  -6   1  287.77   14.60
   6  -6   1  256.07   14.70
   6  -6   1  285.47   14.70
  -7   6  -1   67.79    6.00
  -7   6  -1   72.79    5.70
  -7   6  -1   77.29    5.70
  -7   6  -1   75.29    4.50
   7  -6   1   80.49    5.90
   7  -6   1   79.49    5.70
   7  -6   1   81.49    5.40
   7  -6   1   81.49    5.70
   7  -6   1   76.69    5.10
  -8   6  -1   86.99    6.30
  -8   6  -1   77.99    6.10
  -8   6  -1   65.19    6.60
   8  -6   1   82.19    5.90
   8  -6   1   70.39    6.20
   8  -6   1   73.59    6.00
   8  -6   1   75.19    5.20
  -9   6  -1   19.40    3.70
  -9   6  -1   17.70    3.80
  -9   6  -1   18.80    3.80
   9  -6   1   17.40    3.40
   9  -6   1   22.30    2.70
   9  -6   1   26.80    4.10
   9  -6   1   21.80    3.70
 -10   6  -1   46.90    5.50
 -10   6  -1   37.60    5.40
 -10   6  -1   35.60    4.90
  10  -6   1   30.60    5.30
  10  -6   1   39.20    5.10
   7   5  -1   10.20    2.90
   7   5  -1    5.80    3.50
  -7  -5   1   10.30    4.00
  -7  -5   1    8.00    4.20
   6   5  -1   34.30    4.00
   6   5  -1   20.40    4.10
  -6  -5   1   26.80    4.70
  -6  -5   1   20.50    4.20
   5   5  -1   16.30    3.30
   5   5  -1   18.50    3.10
  -5  -5   1   20.90    3.90
  -5  -5   1   32.00    4.30
   4   5  -1    7.00    2.30
   4   5  -1    3.50    2.00
  -4  -5   1    5.50    2.50
  -4  -5   1    4.80    3.20
  -4  -5   1    5.30    2.80
   3   5  -1   88.69    5.90
   3   5  -1  100.19    6.10
  -3  -5   1   97.49    6.40
  -3  -5   1  103.79    6.60
  -3  -5   1   91.99    7.10
  -3  -5   1   84.89    5.80
   2   5  -1    8.40    1.90
   2   5  -1    3.40    1.70
   2   5  -1   10.70    1.60
  -2  -5   1    5.60    1.90
  -2  -5   1    6.40    1.60
  -2  -5   1    7.30    2.30
  -2  -5   1    6.10    2.20
   1   5  -1  172.18    9.30
   1   5  -1  166.38    9.00
   1   5  -1  156.48    8.90
  -1  -5   1  175.68    9.30
  -1  -5   1  176.58    9.10
  -1  -5   1  157.38    9.80
  -1  -5   1  171.18    9.30
  -1  -5   1  173.58    9.20
   0   5  -1   14.20    1.80
   0   5  -1   10.50    2.10
   0   5  -1   12.10    1.90
   0   5  -1   13.00    2.00
   0  -5   1   12.00    2.80
   0  -5   1   13.20    1.90
   0  -5   1   10.80    1.80
   0  -5   1   11.20    1.90
  -1   5  -1   67.39    5.30
  -1   5  -1   82.99    4.90
  -1   5  -1   80.29    4.70
  -1   5  -1   79.59    4.70
  -1   5  -1   74.09    4.70
   1  -5   1   76.89    4.20
   1  -5   1   77.69    4.60
   1  -5   1   84.79    5.70
   1  -5   1   70.89    4.60
   1  -5   1   71.89    4.60
  -2   5  -1   84.59    5.10
  -2   5  -1   78.79    5.00
  -2   5  -1   90.29    5.60
  -2   5  -1   75.19    4.90
   2  -5   1   85.19    4.90
   2  -5   1   86.29    4.80
   2  -5   1   80.49    4.90
   2  -5   1   85.59    4.70
   2  -5   1   79.69    5.60
   2  -5   1   78.39    4.90
  -3   5  -1  364.46   18.60
  -3   5  -1  335.37   18.70
  -3   5  -1  362.46   18.60
  -3   5  -1  377.76   18.20
  -3   5  -1  339.27   18.40
  -3   5  -1  348.97   18.40
   3  -5   1  373.76   18.50
   3  -5   1  379.96   18.40
   3  -5   1  378.36   18.50
   3  -5   1  398.16   19.10
   3  -5   1  374.86   18.50
  -4   5  -1    8.50    1.90
  -4   5  -1   10.60    1.90
  -4   5  -1    8.80    1.80
  -4   5  -1    9.40    1.70
  -4   5  -1    9.90    1.90
  -4   5  -1   11.00    1.70
   4  -5   1    8.60    7.80
   4  -5   1    9.40    1.70
   4  -5   1   10.70    2.10
   4  -5   1    9.50    1.80
   4  -5   1    7.90    1.50
   4  -5   1    9.50    1.60
  -5   5  -1   13.80    2.10
  -5   5  -1   17.10    2.50
  -5   5  -1   13.60    1.90
  -5   5  -1   13.10    2.30
   5  -5   1   15.40    2.20
   5  -5   1   15.80    2.10
   5  -5   1   16.30    2.20
   5  -5   1   15.30    2.40
  -6   5  -1  114.59    6.90
  -6   5  -1  126.69    7.40
  -6   5  -1  110.49    6.10
  -6   5  -1  112.19    7.00
   6  -5   1  111.29    6.50
   6  -5   1  115.39    7.10
   6  -5   1  112.19    6.80
   6  -5   1  109.49    6.60
  -7   5  -1   38.90    4.00
  -7   5  -1   31.10    3.90
  -7   5  -1   35.70    4.40
   7  -5   1   40.20    3.40
   7  -5   1   35.70    4.00
   7  -5   1   44.40    4.20
   7  -5   1   43.90    4.20
   7  -5   1   41.10    3.60
  -8   5  -1  109.99    8.30
  -8   5  -1  104.09    7.60
  -8   5  -1  120.49    7.60
   8  -5   1  117.19    7.70
   8  -5   1  117.79    7.50
   8  -5   1  120.89    6.90
   8  -5   1  113.59    7.70
  -9   5  -1  101.69    7.30
  -9   5  -1   92.99    8.10
  -9   5  -1   88.19    7.30
   9  -5   1   92.59    7.10
   9  -5   1   96.39    7.60
 -10   5  -1   66.89    7.50
 -10   5  -1   76.59    7.00
 -10   5  -1   66.29    6.50
  10  -5   1   60.09    6.30
  10  -5   1   61.69    6.70
   7   4  -1   -1.30    2.60
   7   4  -1   -4.70    2.00
  -7  -4   1   -1.60    3.10
  -7  -4   1    4.00    3.70
   6   4  -1   -0.90    1.90
   6   4  -1    2.00    2.50
  -6  -4   1    0.40    2.10
  -6  -4   1   -2.60    3.00
   5   4  -1  146.79    8.70
   5   4  -1  143.09    7.70
   5   4  -1  144.99    8.60
  -5  -4   1  151.08    9.50
  -5  -4   1  144.39    9.20
   4   4  -1   13.80    1.50
   4   4  -1   11.20    2.30
   4   4  -1   19.40    2.60
  -4  -4   1   18.70    3.40
  -4  -4   1   13.60    2.70
  -4  -4   1   16.90    3.00
   3   4  -1    3.30    1.50
   3   4  -1    0.70    1.50
   3   4  -1    0.90    0.60
  -3  -4   1    2.70    1.50
  -3  -4   1    3.90    2.40
  -3  -4   1    4.60    1.90
  -3  -4   1    3.20    1.90
   2   4  -1   12.90    2.00
   2   4  -1   10.30    1.40
   2   4  -1   11.10    2.50
   2   4  -1   10.30    1.80
   2   4  -1   11.40    1.90
  -2  -4   1   12.40    1.90
  -2  -4   1   12.90    1.80
  -2  -4   1   14.10    2.50
  -2  -4   1   13.00    1.90
  -2  -4   1   15.40    2.20
   1   4  -1 1004.20   49.50
   1   4  -1  908.51   49.40
   1   4  -1  890.51   49.20
   1   4  -1 1007.20   50.09
   1   4  -1 1052.09   49.40
  -1  -4   1 1057.29   49.50
  -1  -4   1 1032.60   50.09
  -1  -4   1 1013.10   49.60
  -1  -4   1 1027.60   49.40
  -1  -4   1 1062.09   49.60
  -1  -4   1 1087.19   49.50
   0   4  -1  427.16   23.10
   0   4  -1  472.45   22.60
   0   4  -1  472.05   22.50
   0   4  -1  444.36   22.50
   0   4  -1  435.36   22.50
   0  -4   1  450.45   22.60
   0  -4   1  451.45   22.60
   0  -4   1  452.75   23.20
   0  -4   1  460.85   22.50
   0  -4   1  461.65   22.00
  -1   4  -1  590.74   28.20
  -1   4  -1  620.74   28.20
  -1   4  -1  567.54   28.60
  -1   4  -1  565.54   28.10
   1  -4   1  561.74   27.80
   1  -4   1  616.54   28.20
   1  -4   1  520.75   28.10
   1  -4   1  550.94   27.90
   1  -4   1  534.45   28.60
   1  -4   1  583.54   28.10
  -2   4  -1   83.79    4.90
  -2   4  -1   79.69   14.90
  -2   4  -1   81.19    4.60
  -2   4  -1   92.49    4.80
  -2   4  -1   78.79    4.80
  -2   4  -1   77.89    5.20
  -2   4  -1   82.29    4.90
   2  -4   1   75.99    4.70
   2  -4   1   82.39    5.30
   2  -4   1   89.09    4.70
   2  -4   1   86.59    4.90
   2  -4   1   88.49    4.90
   2  -4   1   91.99    4.90
  -3   4  -1   13.20    1.70
  -3   4  -1   14.90    1.60
  -3   4  -1   14.30    1.80
  -3   4  -1   11.80    1.60
  -3   4  -1   13.40    2.00
  -3   4  -1   12.80    1.60
   3  -4   1   12.70    2.10
   3  -4   1   13.80    1.70
   3  -4   1   13.20    1.70
   3  -4   1   13.50    1.90
   3  -4   1   12.10    1.50
   3  -4   1   13.20    1.80
   3  -4   1   16.00    7.60
  -4   4  -1   26.90    2.70
  -4   4  -1   23.70    2.30
  -4   4  -1   25.30    2.50
  -4   4  -1   26.50    2.40
  -4   4  -1   24.60    2.30
  -4   4  -1   23.30    2.60
   4  -4   1   33.90    2.80
   4  -4   1   27.00    2.40
   4  -4   1   28.30    8.90
   4  -4   1   30.50    2.40
   4  -4   1   32.90    2.80
   4  -4   1   29.00    2.50
  -5   4  -1  196.28   10.80
  -5   4  -1  200.98    9.90
  -5   4  -1  190.98   10.70
  -5   4  -1  203.28   10.30
  -5   4  -1  209.08   10.60
  -5   4  -1  173.18   10.50
   5  -4   1  190.58   10.60
   5  -4   1  198.78   10.20
   5  -4   1  194.98   10.20
   5  -4   1  192.78   10.70
   5  -4   1  185.88   10.40
  -6   4  -1  279.87   17.00
  -6   4  -1  329.97   16.70
  -6   4  -1  308.47   16.70
  -6   4  -1  373.76   25.20
  -6   4  -1  301.17   17.00
   6  -4   1  317.77   16.30
   6  -4   1  339.17   16.80
   6  -4   1  310.57   16.60
   6  -4   1  334.77   16.20
  -7   4  -1   47.00    4.40
  -7   4  -1   55.39    4.50
  -7   4  -1   51.39   13.10
  -7   4  -1   47.60    5.10
   7  -4   1   54.99    4.60
   7  -4   1   55.49    4.50
   7  -4   1   50.79    3.70
   7  -4   1   58.79    5.10
  -8   4  -1   99.69    8.20
  -8   4  -1  111.89    7.80
  -8   4  -1  110.99    7.50
   8  -4   1  116.29    7.70
   8  -4   1  126.49    7.30
   8  -4   1  104.39    7.80
   8  -4   1  116.59    6.70
  -9   4  -1   87.39    7.30
  -9   4  -1   83.79    6.60
  -9   4  -1   81.99    7.90
   9  -4   1   80.99    5.70
   9  -4   1   82.99    6.90
   9  -4   1   99.29    7.40
 -10   4  -1   11.60    4.80
 -10   4  -1   16.00    3.50
 -10   4  -1    9.00    3.50
  10  -4   1   10.80    3.20
  10  -4   1    9.40    3.80
   8   3  -1   25.40    3.60
   8   3  -1   19.00    4.20
  -8  -3   1   25.00    4.70
  -8  -3   1   28.30    5.30
   7   3  -1    0.50    1.60
   7   3  -1    3.80    2.90
   7   3  -1    0.20    2.00
  -7  -3   1    1.30    3.50
  -7  -3   1   -0.70    2.70
   6   3  -1   85.29    5.40
   6   3  -1   99.79    6.40
   6   3  -1   93.59    6.60
  -6  -3   1   95.79    7.00
  -6  -3   1   88.29    7.30
   5   3  -1   38.80    3.00
   5   3  -1   36.80    4.10
   5   3  -1   44.70    3.80
   5   3  -1   48.20    4.10
   5   3  -1   40.30    4.10
  -5  -3   1   38.50    3.60
  -5  -3   1   33.90    4.20
  -5  -3   1   38.60    3.90
  -5  -3   1   39.70    2.70
   4   3  -1  215.58   12.10
   4   3  -1  233.58   11.90
   4   3  -1  211.98   11.70
  -4  -3   1  202.28   11.70
  -4  -3   1  217.28   11.50
  -4  -3   1  229.58   12.10
  -4  -3   1  230.68   12.30
  -4  -3   1  219.48   12.30
   3   3  -1   91.39    5.40
   3   3  -1   87.19    5.40
   3   3  -1   87.49    5.80
   3   3  -1   93.09    5.40
  -3  -3   1   87.39    5.40
  -3  -3   1   90.69    5.90
  -3  -3   1   90.99    5.70
  -3  -3   1   87.19    5.10
  -3  -3   1   88.19    5.60
   2   3  -1   13.20    1.40
   2   3  -1   13.00    1.80
   2   3  -1   15.20    1.90
   2   3  -1   17.00    2.50
   2   3  -1   11.50    1.80
  -2  -3   1   11.10    1.70
  -2  -3   1   12.30    2.00
  -2  -3   1    9.20    2.20
  -2  -3   1   10.80    1.60
  -2  -3   1   11.90    2.00
   1   3  -1  860.21   40.90
   1   3  -1  785.92   40.40
   1   3  -1  803.22   40.40
   1   3  -1  816.22   40.10
   1   3  -1  885.71   40.40
  -1  -3   1  788.12   40.30
  -1  -3   1  832.22   40.40
  -1  -3   1  821.72   40.30
  -1  -3   1  851.01   40.50
  -1  -3   1  780.32   40.30
  -1  -3   1  875.31   40.90
   0   3  -1  756.32   36.10
   0   3  -1  762.42   36.60
   0   3  -1  766.02   36.10
   0   3  -1  718.13   36.10
   0   3  -1  725.03   36.10
   0  -3   1  716.03   36.10
   0  -3   1  692.33   36.10
   0  -3   1  746.53   36.60
   0  -3   1  719.63   36.10
   0  -3   1  747.03   35.70
   0  -3   1  783.72   36.10
  -1   3  -1  196.88   10.00
  -1   3  -1  189.18   10.30
  -1   3  -1  187.88    9.90
  -1   3  -1  192.08   10.00
   1  -3   1  192.68    9.80
   1  -3   1  211.78   10.50
   1  -3   1  197.98   10.00
   1  -3   1  199.48   10.00
   1  -3   1  209.28    9.90
   1  -3   1  189.88    9.70
  -2   3  -1    1.50    1.30
  -2   3  -1    1.00    0.90
  -2   3  -1    0.10    0.90
  -2   3  -1    3.50    1.10
  -2   3  -1    3.00    1.10
   2  -3   1   -0.30    0.80
   2  -3   1    0.10    1.10
   2  -3   1    1.10    1.00
   2  -3   1    0.50    0.90
   2  -3   1    2.10    1.40
  -3   3  -1  161.18    8.20
  -3   3  -1  166.38    8.20
  -3   3  -1  160.78    8.40
  -3   3  -1  158.98    8.20
  -3   3  -1  175.78    8.40
  -3   3  -1  160.58    8.30
   3  -3   1  131.39   13.90
   3  -3   1  160.38    8.20
   3  -3   1  157.48    8.10
   3  -3   1  152.68    8.40
   3  -3   1  146.39    8.40
   3  -3   1  151.18    8.30
  -4   3  -1  407.96   19.50
  -4   3  -1  406.56   19.20
  -4   3  -1  366.46   19.50
  -4   3  -1  362.76   19.30
  -4   3  -1  361.16   18.90
  -4   3  -1  428.26   26.00
  -4   3  -1  401.66   19.50
   4  -3   1  397.36   19.40
   4  -3   1  401.06   19.10
   4  -3   1  387.26   19.20
   4  -3   1  356.16   19.30
   4  -3   1  362.66   19.50
   4  -3   1  386.36   19.40
  -5   3  -1  360.56   28.30
  -5   3  -1  429.06   21.30
  -5   3  -1  407.76   21.30
  -5   3  -1  412.66   21.30
  -5   3  -1  419.36   21.00
  -5   3  -1  435.56   21.60
   5  -3   1  439.46   21.00
   5  -3   1  443.96   21.20
   5  -3   1  430.56   20.90
   5  -3   1  406.96   21.60
   5  -3   1  421.66   21.30
  -6   3  -1  112.39   18.10
  -6   3  -1  127.49    7.30
  -6   3  -1  125.49    7.90
  -6   3  -1  120.69    7.30
  -6   3  -1  126.79    7.50
   6  -3   1  118.49    6.80
   6  -3   1  128.39    6.80
   6  -3   1  122.89    7.30
   6  -3   1  125.59    7.20
  -7   3  -1   64.09    5.30
  -7   3  -1   70.19    5.90
  -7   3  -1   70.89   17.40
  -7   3  -1   73.79    5.20
   7  -3   1   67.69    5.30
   7  -3   1   66.39    4.40
   7  -3   1   75.99    4.90
   7  -3   1   71.29    4.50
   7  -3   1   72.59    5.60
  -8   3  -1   56.19    5.80
  -8   3  -1   54.09    5.30
  -8   3  -1   54.69    5.30
   8  -3   1   62.69    5.00
   8  -3   1   61.69    4.20
   8  -3   1   60.09    4.40
   8  -3   1   63.49    5.10
  -9   3  -1   64.69    6.90
  -9   3  -1   61.99    5.70
  -9   3  -1   47.90    5.30
   9  -3   1   55.49    5.80
   9  -3   1   57.19    4.10
   9  -3   1   58.89    6.00
 -10   3  -1   19.80    5.20
 -10   3  -1   13.20    4.00
 -10   3  -1   15.20    3.90
  10  -3   1   15.20    4.10
  10  -3   1   21.00    3.80
   8   2  -1   49.00    4.60
   8   2  -1   53.79    5.40
  -8  -2   1   38.80    5.40
  -8  -2   1   57.29    6.80
  -8  -2   1   50.29    5.40
   7   2  -1   38.30    3.80
   7   2  -1   40.90    4.50
   7   2  -1   37.30    3.70
  -7  -2   1   41.30    4.80
  -7  -2   1   35.50    5.10
   6   2  -1   68.39    5.10
   6   2  -1   69.89    5.30
   6   2  -1   63.29    4.70
  -6  -2   1   75.59    5.70
  -6  -2   1   60.59    5.90
  -6  -2   1   63.59    5.10
   5   2  -1    4.20    1.80
   5   2  -1    4.50    2.00
   5   2  -1    2.80    1.80
   5   2  -1    3.10    1.50
  -5  -2   1    1.90    1.90
  -5  -2   1    2.10    1.70
  -5  -2   1    4.00    2.30
  -5  -2   1    1.30    0.70
   4   2  -1   96.99    7.00
   4   2  -1  112.19    6.50
   4   2  -1  115.99    6.60
   4   2  -1  114.69    6.30
   4   2  -1  105.09    6.30
  -4  -2   1  110.19    6.60
  -4  -2   1  113.89    6.20
  -4  -2   1  102.79    6.50
  -4  -2   1  101.79    5.50
  -4  -2   1  104.09    6.40
   3   2  -1   80.59    4.90
   3   2  -1   84.09    5.20
   3   2  -1   90.49    5.10
   3   2  -1   79.19    4.90
   3   2  -1   79.29    5.10
  -3  -2   1   91.19    5.40
  -3  -2   1   80.59    4.70
  -3  -2   1   86.79    5.10
  -3  -2   1   77.59    5.30
  -3  -2   1   85.59    5.10
  -3  -2   1   83.09    4.90
   2   2  -1   37.70    2.80
   2   2  -1   41.80    3.10
   2   2  -1   43.10    2.90
   2   2  -1   38.30    2.80
   2   2  -1   37.70    3.10
  -2  -2   1   41.30    3.30
  -2  -2   1   37.60    3.00
  -2  -2   1   39.00    2.50
  -2  -2   1   35.20    2.70
  -2  -2   1   34.80    2.80
  -2  -2   1   37.20    3.00
   1   2  -1  400.16   19.90
   1   2  -1  398.86   19.60
   1   2  -1  437.26   19.70
   1   2  -1  387.06   19.60
   1   2  -1  373.56   19.30
  -1  -2   1  371.26   19.90
  -1  -2   1  418.96   19.60
  -1  -2   1  421.86   19.70
  -1  -2   1  360.26   19.60
  -1  -2   1  409.96   19.70
   0   2  -1 3207.28  152.18
   0   2  -1 3173.98  152.08
   0   2  -1 3245.58  152.48
   0   2  -1 2921.91  152.78
   0   2  -1 3321.17  151.48
   0   2  -1 3380.86  152.28
   0  -2   1 2715.03  151.98
   0  -2   1 3045.70  151.78
   0  -2   1 3089.89  151.58
   0  -2   1 3077.79  151.88
   0  -2   1 3162.08  152.68
   0  -2   1 3245.88  154.18
  -1   2  -1  210.08   10.40
  -1   2  -1  210.48   10.50
  -1   2  -1  221.98   10.70
  -1   2  -1  205.88   19.30
  -1   2  -1  219.28   10.50
  -1   2  -1  184.08   10.40
   1  -2   1  216.78   10.70
   1  -2   1  220.88   10.40
   1  -2   1  215.48   10.50
   1  -2   1  200.38   10.40
   1  -2   1  206.88   10.50
   1  -2   1  221.08   10.50
  -2   2  -1  117.89    6.00
  -2   2  -1  124.09    6.20
  -2   2  -1  125.89    6.20
  -2   2  -1  111.19    6.10
  -2   2  -1  116.99    6.10
  -2   2  -1  119.09    6.10
   2  -2   1   99.49   11.20
   2  -2   1  122.59    5.90
   2  -2   1  125.39    6.20
   2  -2   1  115.19    6.00
   2  -2   1  108.79    6.10
   2  -2   1  117.09    6.10
   2  -2   1  110.59    6.10
  -3   2  -1  443.16   21.00
  -3   2  -1  412.26   21.20
  -3   2  -1  454.05   21.20
  -3   2  -1  430.16   20.90
  -3   2  -1  430.16   21.40
  -3   2  -1  427.86   21.30
  -3   2  -1  395.96   27.30
   3  -2   1  433.56   21.40
   3  -2   1  407.46   20.90
   3  -2   1  447.96   21.30
   3  -2   1  438.86   21.30
   3  -2   1  415.56   21.00
   3  -2   1  423.16   21.20
  -4   2  -1   64.49    4.00
  -4   2  -1   58.49    3.90
  -4   2  -1   55.59   11.90
  -4   2  -1   67.79    4.10
  -4   2  -1   61.99    4.50
  -4   2  -1   60.79    3.70
   4  -2   1   64.69    4.40
   4  -2   1   56.19    4.00
   4  -2   1   70.39    3.70
   4  -2   1   62.69    3.70
   4  -2   1   65.39    4.10
  -5   2  -1  676.33   34.90
  -5   2  -1  725.03   34.70
  -5   2  -1  693.83   35.20
  -5   2  -1  695.83   34.90
  -5   2  -1  674.23   34.80
   5  -2   1  712.33   34.70
   5  -2   1  714.83   34.50
   5  -2   1  733.63   34.50
   5  -2   1  707.53   35.00
  -6   2  -1   41.30   13.60
  -6   2  -1   48.50    3.90
  -6   2  -1   49.10    4.40
  -6   2  -1   54.29    4.50
  -6   2  -1   52.39    4.90
   6  -2   1   47.40    4.10
   6  -2   1   54.29    3.40
   6  -2   1   50.29    4.10
   6  -2   1   53.89    3.70
   6  -2   1   50.29    3.40
   6  -2   1   46.20    4.30
  -7   2  -1   73.79    5.30
  -7   2  -1   64.49    5.30
  -7   2  -1   82.59    6.30
   7  -2   1   54.59    5.20
   7  -2   1   63.79    5.30
   7  -2   1   69.99    4.30
   7  -2   1   65.89    4.40
   7  -2   1   61.19    4.20
  -8   2  -1   14.20    2.90
  -8   2  -1    9.50    3.10
  -8   2  -1    6.70    3.60
   8  -2   1   10.30    3.10
   8  -2   1   16.60    3.30
   8  -2   1   13.10    1.90
  -9   2  -1  108.49    8.40
  -9   2  -1  100.19    7.60
  -9   2  -1  127.39    8.30
   9  -2   1  123.99    8.10
   9  -2   1   98.49    6.20
   9  -2   1  100.49    7.50
 -10   2  -1   34.10    4.80
 -10   2  -1   35.40    6.30
 -10   2  -1   31.70    5.00
  10  -2   1   24.80    4.60
  10  -2   1   23.30    4.20
   9   1  -1    7.10    2.70
   9   1  -1    5.50    3.20
   9   1  -1    5.90    2.80
  -9  -1   1    1.70    4.20
  -9  -1   1    3.20    3.30
  -9  -1   1    0.80    3.10
   8   1  -1   10.20    2.70
   8   1  -1    6.60    2.60
   8   1  -1    3.70    2.50
  -8  -1   1    9.90    3.20
  -8  -1   1    8.10    4.10
  -8  -1   1   10.20    3.40
   7   1  -1    1.80    1.80
   7   1  -1    2.60    2.30
  -7  -1   1    2.80    2.40
  -7  -1   1    7.90    3.50
  -7  -1   1    2.70    2.50
   6   1  -1   90.99    5.70
   6   1  -1   87.09    5.50
   6   1  -1   88.19    5.80
  -6  -1   1   87.09    6.30
  -6  -1   1   89.49    6.30
  -6  -1   1   93.19    6.00
   5   1  -1   21.80    2.50
   5   1  -1   27.90    2.70
   5   1  -1   28.40    3.10
   5   1  -1   22.20    2.60
   5   1  -1   21.10    2.40
  -5  -1   1   25.50    2.70
  -5  -1   1   21.90    3.20
  -5  -1   1   23.60    2.90
   4   1  -1  237.88   12.40
   4   1  -1  244.98   12.50
   4   1  -1  274.27   12.50
   4   1  -1  240.18   12.60
   4   1  -1  242.78   12.50
   4   1  -1  225.38   12.80
  -4  -1   1  229.58   12.90
  -4  -1   1  250.37   12.50
  -4  -1   1  235.78   12.70
  -4  -1   1  231.38   12.40
  -4  -1   1  223.28   12.60
   3   1  -1   25.30    2.20
   3   1  -1   24.20    2.60
   3   1  -1   26.30    2.50
   3   1  -1   27.40    2.50
   3   1  -1   25.80    2.30
  -3  -1   1   22.50    2.40
  -3  -1   1   20.70    2.60
  -3  -1   1   22.80    1.40
  -3  -1   1   24.20    2.20
  -3  -1   1   24.50    2.50
   2   1  -1  472.05   24.30
   2   1  -1  516.85   24.20
   2   1  -1  466.15   24.10
   2   1  -1  496.35   24.20
   2   1  -1  489.65   24.20
  -2  -1   1  484.55   24.20
  -2  -1   1  504.55   24.20
  -2  -1   1  507.25   24.30
  -2  -1   1  481.75   24.10
   1   1  -1 1363.96   68.39
   1   1  -1 1365.76   67.99
   1   1  -1 1443.06   68.09
   1   1  -1 1534.75   67.99
   1   1  -1 1498.65   69.29
  -1  -1   1 1441.46   68.69
  -1  -1   1 1434.16   68.69
  -1  -1   1 1296.17   67.89
  -1  -1   1 1285.47   68.49
  -1   1  -1 1260.67   61.09
  -1   1  -1 1214.58   60.79
  -1   1  -1 1220.08   60.69
  -1   1  -1 1178.88   60.69
  -1   1  -1 1362.36   63.79
   1  -1   1 1309.37   60.49
   1  -1   1 1222.38   61.29
   1  -1   1 1275.97   60.59
   1  -1   1 1215.38   63.59
   1  -1   1 1262.37   60.99
  -2   1  -1  138.39    6.70
  -2   1  -1  103.09   12.20
  -2   1  -1  125.89    6.40
  -2   1  -1  125.39    6.60
  -2   1  -1  131.59    6.60
  -2   1  -1  127.39    6.30
  -2   1  -1  137.29    6.60
  -2   1  -1  117.59    6.60
   2  -1   1  122.69    6.30
   2  -1   1  127.99    6.80
   2  -1   1  123.69    6.60
   2  -1   1  127.59    6.60
   2  -1   1  128.59    6.60
   2  -1   1  124.39    6.60
   2  -1   1  123.79    6.30
  -3   1  -1 1141.49   49.70
  -3   1  -1 1060.89   49.80
  -3   1  -1 1051.89   50.09
  -3   1  -1 1033.80   49.80
  -3   1  -1  969.40   49.70
  -3   1  -1  952.00   49.90
  -3   1  -1  976.40   49.90
   3  -1   1 1029.20   49.90
   3  -1   1 1025.20   49.60
   3  -1   1 1068.99   50.19
   3  -1   1 1050.39   49.90
   3  -1   1  996.20   49.80
   3  -1   1  923.51   49.90
   3  -1   1 1066.09   49.60
  -4   1  -1   64.39    4.50
  -4   1  -1   66.69    4.10
  -4   1  -1   64.79    4.30
  -4   1  -1   72.29    3.60
  -4   1  -1   65.79    4.40
  -4   1  -1   67.09    4.40
  -4   1  -1   64.89    4.00
   4  -1   1   66.09    3.80
   4  -1   1   74.49    4.10
   4  -1   1   69.49    3.90
   4  -1   1   68.09    4.80
   4  -1   1   67.09    4.20
   4  -1   1   66.49    4.40
   4  -1   1   67.29    4.30
  -5   1  -1  539.25   27.10
  -5   1  -1  549.54   27.30
  -5   1  -1  509.35   27.40
  -5   1  -1  593.04   27.90
  -5   1  -1  581.64   27.40
  -5   1  -1  534.15   27.40
   5  -1   1  554.64   27.00
   5  -1   1  536.55   27.40
   5  -1   1  512.75   27.30
   5  -1   1  529.95   27.40
   5  -1   1  565.44   26.90
   5  -1   1  548.15   26.90
  -6   1  -1   11.20    2.10
  -6   1  -1    8.70    2.30
  -6   1  -1    9.80    2.30
   6  -1   1    7.50    1.50
   6  -1   1   14.30    2.20
   6  -1   1    9.60    1.50
   6  -1   1   10.50    2.30
   6  -1   1   11.50    2.50
  -7   1  -1  115.29    7.40
  -7   1  -1  120.49    8.20
  -7   1  -1  116.09    7.10
   7  -1   1  102.19    6.30
   7  -1   1  108.39    7.10
   7  -1   1  116.89    7.20
   7  -1   1  107.19    7.20
   7  -1   1  104.29    6.20
  -8   1  -1   41.70    4.50
  -8   1  -1   45.30    5.00
  -8   1  -1   43.70    5.20
   8  -1   1   41.50    4.80
   8  -1   1   39.60    4.40
   8  -1   1   44.70    4.70
   8  -1   1   39.20    3.20
  -9   1  -1  127.49    8.30
  -9   1  -1   98.69    7.70
  -9   1  -1  116.99    9.40
   9  -1   1  100.79    7.60
   9  -1   1  107.49    7.70
   9  -1   1   99.99    7.70
   9   0  -1    2.80    2.90
   9   0  -1    5.60    3.00
   9   0  -1    3.20    2.40
   9   0  -1    6.20    3.60
  -9   0   1   12.60    4.60
  -9   0   1    5.10    3.20
  -9   0   1    5.40    3.20
   8   0  -1    8.80    2.40
   8   0  -1    8.10    2.80
  -8   0   1    3.00    2.70
  -8   0   1    6.20    2.90
  -8   0   1    9.00    3.10
   7   0  -1    0.20    1.60
   7   0  -1    0.30    0.80
   7   0  -1    1.60    2.00
  -7   0   1   -1.60    2.00
  -7   0   1   -0.10    2.10
  -7   0   1    0.70    2.10
   6   0  -1   16.60    2.20
   6   0  -1   13.70    2.40
   6   0  -1   13.90    1.60
  -6   0   1   15.50    2.70
  -6   0   1   18.90    2.70
  -6   0   1   13.00    2.60
   5   0  -1  140.69    7.00
   5   0  -1  125.19    7.40
   5   0  -1  132.19    7.40
   5   0  -1  134.49    7.40
  -5   0   1  128.49    7.40
  -5   0   1  133.99    7.90
  -5   0   1  125.29    7.70
   4   0  -1  256.27   13.80
   4   0  -1  277.77   14.00
   4   0  -1  288.37   13.70
   4   0  -1  295.27   13.50
   4   0  -1  260.27   14.10
   4   0  -1  259.27   13.70
  -4   0   1  253.87   14.10
  -4   0   1  258.77   13.70
  -4   0   1  273.97   13.80
  -4   0   1  263.07   14.00
  -4   0   1  265.27   14.00
   3   0  -1   79.69    4.70
   3   0  -1   76.69    4.30
   3   0  -1   70.59    4.30
   3   0  -1   73.69    4.20
   3   0  -1   74.89    4.10
   3   0  -1   70.49    4.10
  -3   0   1   64.39    4.10
  -3   0   1   80.49    4.50
  -3   0   1   67.99    4.50
  -3   0   1   74.99    4.60
   2   0  -1  293.67   15.40
   2   0  -1  306.07   15.60
   2   0  -1  285.87   15.50
   2   0  -1  308.97   15.30
   2   0  -1  331.67   15.50
  -2   0   1  345.27   15.60
  -2   0   1  316.77   15.50
  -2   0   1  316.67   15.40
  -2   0   1  315.17   15.50
  -2   0   1  304.87   15.60
   1   0  -1 1596.64   75.49
   1   0  -1 1683.23   75.79
   1   0  -1 1505.35   75.19
   1   0  -1 1537.55   75.29
  -1   0   1 1604.04   75.79
  -1   0   1 1514.45   75.69
  -1   0   1 1431.96   75.29
   0   0  -1    0.90    1.30
   0   0  -1    1.00    3.60
   0   0  -1   -0.10    0.20
   0   0  -1    2.40    0.20
   0   0   1    0.00    0.20
   0   0   1    5.70    2.30
   0   0   1    0.00    0.20
   0   0   1    4.30    5.80
   0   0   1    1.20    0.40
  -1   0  -1 1172.88   58.39
  -1   0  -1 1162.18   58.69
  -1   0  -1 1097.09   58.39
  -1   0  -1 1158.58   58.69
  -1   0  -1 1195.68   58.59
   1   0   1 1331.37   59.29
   1   0   1 1358.06   58.49
   1   0   1 1202.48   58.99
   1   0   1 1236.98   58.39
   1   0   1 1160.28   58.29
  -2   0  -1  248.38   12.70
  -2   0  -1  242.08   12.80
  -2   0  -1  266.77   12.60
  -2   0  -1  256.67   12.50
  -2   0  -1  255.17   12.50
  -2   0  -1  249.88   12.40
  -2   0  -1  270.67   12.80
   2   0   1  265.57   12.70
   2   0   1  242.98   12.50
   2   0   1  224.48   12.80
   2   0   1  231.38   12.30
   2   0   1  237.78   12.50
   2   0   1  256.67   12.30
   2   0   1  279.47   12.80
  -3   0  -1  793.92   41.50
  -3   0  -1  857.21   41.60
  -3   0  -1  880.21   41.60
  -3   0  -1  812.32   42.00
  -3   0  -1  849.91   41.70
  -3   0  -1  888.61   41.90
  -3   0  -1  844.62   41.50
   3   0   1  841.22   41.50
   3   0   1  845.02   42.00
   3   0   1  887.41   41.70
   3   0   1  891.11   41.90
   3   0   1  872.71   41.40
   3   0   1  836.02   41.50
  -4   0  -1  298.07   14.40
  -4   0  -1  276.87   14.40
  -4   0  -1  274.47   14.10
  -4   0  -1  271.67   14.80
  -4   0  -1  263.57   14.10
  -4   0  -1  253.17   14.10
  -4   0  -1  285.47   14.70
   4   0   1  293.77   14.60
   4   0   1  271.97   14.80
   4   0   1  305.27   14.40
   4   0   1  298.57   14.10
   4   0   1  292.77   14.10
   4   0   1  264.37   14.00
  -5   0  -1  281.77   14.40
  -5   0  -1  276.67   14.50
  -5   0  -1  277.77   15.00
  -5   0  -1  307.77   15.00
  -5   0  -1  276.17   14.20
  -5   0  -1  272.57   14.10
  -5   0  -1  270.47   14.60
   5   0   1  282.17   14.10
   5   0   1  262.37   14.10
   5   0   1  261.67   14.60
   5   0   1  281.67   14.50
   5   0   1  289.47   14.20
   5   0   1  297.17   14.80
  -6   0  -1  104.09    7.00
  -6   0  -1  117.49    6.70
   6   0   1  103.19    6.80
   6   0   1  111.29    6.00
   6   0   1  106.39    6.40
   6   0   1  102.49    6.80
   6   0   1   97.69    5.90
   6   0   1   97.99    5.80
  -7   0  -1  241.68   12.70
  -7   0  -1  228.08   12.70
  -7   0  -1  222.18   13.30
   7   0   1  213.08   11.60
   7   0   1  198.78   11.70
   7   0   1  225.18   12.20
   7   0   1  234.58   12.70
   7   0   1  219.28   12.70
  -8   0  -1   24.90    3.80
  -8   0  -1   28.80    5.10
  -8   0  -1   25.40    3.60
   8   0   1   21.60    2.40
   8   0   1   26.50    4.00
   8   0   1   31.50    4.10
   8   0   1   33.40    3.90
  -9   0  -1    9.00    3.20
  -9   0  -1   11.10    3.70
  -9   0  -1   13.20    4.60
   9   0   1   16.10    3.60
   9   0   1   15.50    3.50
   9   0   1   13.40    3.80
 -10   1   1   23.90    5.80
 -10   1   1   34.00    4.90
   9  -1  -1   -0.90    2.80
   9  -1  -1    4.20    2.20
   9  -1  -1    9.50    3.10
  -9   1   1   -0.30    2.90
  -9   1   1   -1.60    3.80
  -9   1   1    2.20    2.90
   8  -1  -1   -2.40    1.80
   8  -1  -1   -1.00    2.00
  -8   1   1   -0.90    2.40
  -8   1   1    1.90    3.40
  -8   1   1   -1.20    2.50
   7  -1  -1   36.00    3.70
   7  -1  -1   43.50    3.80
  -7   1   1   40.70    4.20
  -7   1   1   37.30    4.70
  -7   1   1   40.90    4.30
   6  -1  -1   82.29    5.00
   6  -1  -1   70.49    5.00
   6  -1  -1   81.09    5.10
  -6   1   1   83.99    5.40
  -6   1   1   77.19    6.00
  -6   1   1   79.19    5.50
   5  -1  -1  360.56   17.90
   5  -1  -1  370.46   17.90
   5  -1  -1  353.86   18.00
   5  -1  -1  354.56   17.40
   5  -1  -1  329.77   17.10
  -5   1   1  354.96   18.40
  -5   1   1  344.77   18.20
  -5   1   1  361.26   18.00
   4  -1  -1   49.40    3.30
   4  -1  -1   45.60    3.40
   4  -1  -1   46.90    3.30
   4  -1  -1   51.69    2.80
   4  -1  -1   54.29    3.00
   4  -1  -1   48.90    3.90
  -4   1   1   50.09    3.60
  -4   1   1   52.39    3.40
  -4   1   1   50.19    3.50
  -4   1   1   53.89    3.80
  -4   1   1   54.49    3.20
  -4   1   1   51.29    4.00
   3  -1  -1  656.43   32.20
   3  -1  -1  643.54   32.20
   3  -1  -1  685.13   32.50
   3  -1  -1  664.73   32.10
   3  -1  -1  646.34   32.30
  -3   1   1  649.04   32.50
  -3   1   1  659.73   32.00
  -3   1   1  652.93   32.20
  -3   1   1  681.63   32.40
  -3   1   1  665.53   32.20
  -3   1   1  633.24   32.30
   2  -1  -1  285.57   13.90
   2  -1  -1  284.27   14.00
   2  -1  -1  258.77   13.80
   2  -1  -1  281.07   14.00
   2  -1  -1  300.27   14.10
   2  -1  -1  310.37   14.10
  -2   1   1  258.57   13.70
  -2   1   1  287.57   13.90
  -2   1   1  283.77   14.10
  -2   1   1  268.37   14.00
  -2   1   1  287.37   13.90
  -2   1   1  279.87   14.10
   1  -1  -1  787.52   37.80
   1  -1  -1  807.72   36.80
   1  -1  -1  737.63   36.80
   1  -1  -1  754.92   36.80
  -1   1   1  773.82   36.80
  -1   1   1  714.13   36.90
  -1   1   1  734.63   36.90
  -1   1   1  776.32   36.90
   0  -1  -1  415.56   18.60
   0  -1  -1  344.57   18.60
   0  -1  -1  420.76   18.90
   0   1   1  340.27   27.20
   0   1   1  394.16   18.60
   0   1   1  372.36   18.50
  -1  -1  -1 3796.92  166.78
  -1  -1  -1 3562.44  166.78
  -1  -1  -1 3234.98  166.48
  -1  -1  -1 3572.74  168.68
  -1  -1  -1 3208.98  167.98
  -1  -1  -1 3569.14  166.98
   1   1   1 3451.35  166.58
   1   1   1 3166.58  167.98
   1   1   1 3495.95  166.88
   1   1   1 3411.26  166.98
   1   1   1 3373.26  167.98
  -2  -1  -1   40.60    2.70
  -2  -1  -1   39.80    2.70
  -2  -1  -1   41.20    3.50
  -2  -1  -1   39.30    2.70
  -2  -1  -1   49.30    3.20
  -2  -1  -1   46.40    3.20
   2   1   1   45.00    3.00
   2   1   1   38.30    2.60
   2   1   1   42.40    2.60
   2   1   1   43.50    3.00
   2   1   1   43.30    2.60
   2   1   1   44.50    3.10
  -3  -1  -1  157.38    8.00
  -3  -1  -1  146.39    8.00
  -3  -1  -1  138.69    7.60
  -3  -1  -1  146.99    8.20
  -3  -1  -1  146.69    7.70
  -3  -1  -1  136.99    7.60
  -3  -1  -1  147.69    7.70
   3   1   1  134.39    7.50
   3   1   1  148.59    8.00
   3   1   1  143.49    7.60
   3   1   1  142.99    7.90
   3   1   1  151.28    7.60
  -4  -1  -1  437.96   20.60
  -4  -1  -1  409.16   20.90
  -4  -1  -1  407.26   20.80
  -4  -1  -1  433.36   21.20
  -4  -1  -1  373.96   20.80
  -4  -1  -1  453.15   21.00
  -4  -1  -1  408.06   21.40
   4   1   1  384.86   20.80
   4   1   1  443.46   20.60
   4   1   1  437.66   21.20
   4   1   1  392.36   20.60
   4   1   1  403.46   20.70
  -5  -1  -1  144.79    8.20
  -5  -1  -1  130.79    8.00
  -5  -1  -1  163.98    8.70
  -5  -1  -1  153.88    7.70
  -5  -1  -1  152.78    8.30
  -5  -1  -1  133.49    8.60
   5   1   1  146.79    7.80
   5   1   1  134.49    7.70
   5   1   1  127.19    7.90
   5   1   1  142.29    8.00
   5   1   1  150.58    8.50
  -6  -1  -1  150.78    8.40
  -6  -1  -1  170.48   10.10
  -6  -1  -1  153.28    9.10
  -6  -1  -1  151.88    8.90
   6   1   1  173.88    9.50
   6   1   1  155.98    8.80
   6   1   1  154.78    8.60
   6   1   1  152.58    8.50
   6   1   1  148.29    8.70
  -7  -1  -1   75.49    5.70
  -7  -1  -1   69.59    6.80
   7   1   1   62.79    5.00
   7   1   1   67.59    4.70
   7   1   1   75.19    5.90
   7   1   1   71.49    5.60
  -8  -1  -1    0.50    2.20
  -8  -1  -1   -2.60    2.60
  -8  -1  -1    3.30    3.70
   8   1   1    1.70    2.50
   8   1   1    1.80    1.50
   8   1   1   -0.50    2.90
   8   1   1   -1.10    2.50
  -9  -1  -1   22.70    4.50
  -9  -1  -1   22.00    5.60
  -9  -1  -1   21.00    4.20
   9   1   1   31.30    5.10
   9   1   1   23.60    4.70
  10  -2  -1    4.60    2.30
  10  -2  -1    6.80    2.90
  10  -2  -1    3.10    3.40
 -10   2   1   10.10    3.70
 -10   2   1    3.70    3.30
 -10   2   1    8.70    3.70
   9  -2  -1   16.50    3.70
   9  -2  -1   10.20    2.50
  -9   2   1    6.50    3.40
  -9   2   1    4.00    2.90
  -9   2   1   12.10    3.50
   8  -2  -1   26.80    3.10
   8  -2  -1   24.00    3.30
  -8   2   1   25.60    4.50
  -8   2   1   26.50    3.70
  -8   2   1   23.10    3.70
   7  -2  -1   52.69    3.40
   7  -2  -1   55.19    4.20
  -7   2   1   59.39    5.00
  -7   2   1   47.80    5.00
  -7   2   1   48.30    4.60
   6  -2  -1   60.69    4.50
   6  -2  -1   63.69    4.20
   6  -2  -1   61.89    3.80
  -6   2   1   64.39    4.80
  -6   2   1   56.39    4.60
  -6   2   1   69.59    4.70
  -6   2   1   62.59    4.10
   5  -2  -1   15.40    1.90
   5  -2  -1   13.40    1.70
   5  -2  -1   14.00    2.00
  -5   2   1   15.30    1.70
  -5   2   1   14.80    2.20
  -5   2   1   14.30    2.60
  -5   2   1   13.20    2.10
  -5   2   1   13.70    1.90
   4  -2  -1  141.99    8.30
   4  -2  -1  154.68    8.20
   4  -2  -1  143.59    8.20
   4  -2  -1  149.39    8.00
   4  -2  -1  150.58    7.60
  -4   2   1  153.48    8.30
  -4   2   1  152.08    7.90
  -4   2   1  156.28    8.30
  -4   2   1  142.89    8.10
  -4   2   1  150.58    8.50
  -4   2   1  167.58    8.20
   3  -2  -1   50.59    3.20
   3  -2  -1   54.09    3.30
   3  -2  -1   52.09    3.30
   3  -2  -1   50.39    3.60
   3  -2  -1   57.59    3.10
  -3   2   1   51.99    3.50
  -3   2   1   40.30    4.90
  -3   2   1   59.79    3.40
  -3   2   1   55.59    3.40
  -3   2   1   51.49    3.10
  -3   2   1   48.90    3.30
  -3   2   1   48.40    3.30
   2  -2  -1   99.69    5.70
   2  -2  -1  102.99    5.50
   2  -2  -1  101.79    5.40
   2  -2  -1   98.79    5.60
   2  -2  -1  103.49    5.50
  -2   2   1   94.89    5.40
  -2   2   1  109.29    5.50
  -2   2   1  105.19    5.60
  -2   2   1  105.69    5.60
  -2   2   1  100.59    5.60
   1  -2  -1  910.31   41.40
   1  -2  -1  816.82   41.20
   1  -2  -1  886.61   41.10
   1  -2  -1  814.22   41.10
   1  -2  -1  781.42   41.10
  -1   2   1  845.62   41.10
  -1   2   1  875.31   41.10
  -1   2   1  865.31   41.10
  -1   2   1  822.92   41.30
   0  -2  -1 1236.58   61.89
   0  -2  -1 1293.97   62.19
   0  -2  -1 1253.17   61.79
   0  -2  -1 1258.97   61.89
   0   2   1 1171.48   61.89
   0   2   1 1357.36   62.19
   0   2   1 1336.67   61.89
   0   2   1 1314.97   61.79
  -1  -2  -1  437.66   20.90
  -1  -2  -1  422.96   20.90
  -1  -2  -1  419.76   21.10
  -1  -2  -1  440.76   21.20
  -1  -2  -1  431.86   21.60
   1   2   1  417.46   20.90
   1   2   1  441.16   21.60
   1   2   1  437.96   21.10
   1   2   1  374.26   21.30
   1   2   1  474.65   21.20
  -2  -2  -1  190.48   10.60
  -2  -2  -1  222.28   11.20
  -2  -2  -1  219.08   10.50
  -2  -2  -1  207.98   10.90
  -2  -2  -1  203.88   10.70
  -2  -2  -1  232.38   11.20
   2   2   1  204.18   10.50
   2   2   1  192.28   11.00
   2   2   1  210.78   10.60
   2   2   1  227.48   10.50
   2   2   1  191.48   10.30
   2   2   1  191.78   10.80
  -3  -2  -1   22.60    2.20
  -3  -2  -1   21.70    2.10
  -3  -2  -1   20.50    2.70
  -3  -2  -1   26.00    2.60
  -3  -2  -1   22.30    2.80
  -3  -2  -1   23.30    2.30
   3   2   1   20.20    1.80
   3   2   1   23.80    2.10
   3   2   1   24.60    2.80
   3   2   1   23.30    2.50
   3   2   1   25.50    2.20
  -4  -2  -1   56.99    3.90
  -4  -2  -1   52.09    4.00
  -4  -2  -1   65.09    4.60
  -4  -2  -1   67.19    4.40
  -4  -2  -1   62.29    4.60
  -4  -2  -1   62.59    5.10
   4   2   1   61.99    4.50
   4   2   1   74.29    4.00
   4   2   1   61.39    4.00
   4   2   1   72.99    4.20
   4   2   1   67.49    4.70
  -5  -2  -1   22.00    2.90
  -5  -2  -1   21.40    3.60
  -5  -2  -1   22.60    3.20
  -5  -2  -1   20.20    3.30
  -5  -2  -1   26.50    2.40
  -5  -2  -1   24.10    3.00
   5   2   1   27.70    3.40
   5   2   1   28.20    2.70
   5   2   1   20.00    2.40
   5   2   1   27.50    2.60
   5   2   1   22.60    3.10
  -6  -2  -1   44.20    3.60
  -6  -2  -1   56.09    5.00
  -6  -2  -1   48.80    4.70
  -6  -2  -1   57.09    5.90
   6   2   1   50.29    4.50
   6   2   1   60.69    4.20
   6   2   1   48.10    4.00
   6   2   1   59.99    5.00
   6   2   1   57.19    4.00
  -7  -2  -1   35.10    5.30
  -7  -2  -1   33.10    4.50
   7   2   1   36.20    3.60
   7   2   1   48.40    5.00
   7   2   1   35.70    3.30
   7   2   1   33.40    4.70
  -8  -2  -1   52.09    5.70
  -8  -2  -1   52.29    6.60
   8   2   1   46.00    4.50
   8   2   1   54.19    5.70
   8   2   1   47.10    5.60
  10  -3  -1   -1.40    2.40
  10  -3  -1    1.00    3.10
  10  -3  -1    0.60    2.10
 -10   3   1    1.40    3.00
 -10   3   1   -0.30    4.20
 -10   3   1   -0.90    2.90
   9  -3  -1   24.50    3.30
   9  -3  -1   25.80    3.90
  -9   3   1   25.50    4.30
  -9   3   1   23.70    3.50
  -9   3   1   24.00    4.10
   8  -3  -1   31.30    3.90
   8  -3  -1   32.70    3.40
   8  -3  -1   36.30    3.00
  -8   3   1   35.50    4.10
  -8   3   1   34.20    5.00
  -8   3   1   35.50    4.40
   7  -3  -1    9.70    2.00
   7  -3  -1    9.90    2.20
   7  -3  -1    8.90    2.30
  -7   3   1   12.20    3.20
  -7   3   1    8.50    1.90
  -7   3   1   10.60    9.30
  -7   3   1   12.30    2.70
  -7   3   1    8.10    2.40
   6  -3  -1  112.79    6.60
   6  -3  -1  112.39    6.80
   6  -3  -1  124.09    7.00
   6  -3  -1  112.09    6.80
  -6   3   1  118.89    6.50
  -6   3   1  119.69    6.80
  -6   3   1  116.49    7.60
  -6   3   1   97.69   12.80
  -6   3   1  115.49    7.20
   5  -3  -1   44.60    3.50
   5  -3  -1   48.20    3.30
   5  -3  -1   44.40    2.60
   5  -3  -1   41.60    3.40
   5  -3  -1   44.60    3.30
  -5   3   1   44.10    3.10
  -5   3   1   44.20    4.10
  -5   3   1   46.00    3.70
  -5   3   1   44.00    6.90
  -5   3   1   41.30    3.60
   4  -3  -1    3.90    1.10
   4  -3  -1    2.40    1.60
   4  -3  -1    4.50    1.40
   4  -3  -1    3.40    1.10
   4  -3  -1    1.90    1.40
   4  -3  -1    3.50    1.30
  -4   3   1    3.40    1.10
  -4   3   1    5.80    1.40
  -4   3   1    5.00    1.80
  -4   3   1    4.60    1.40
  -4   3   1    2.70    1.10
  -4   3   1    3.30    1.30
   3  -3  -1   20.20    2.40
   3  -3  -1   22.70    2.40
   3  -3  -1   25.60    2.20
   3  -3  -1   29.40    2.10
   3  -3  -1   25.90    2.40
   3  -3  -1   24.70    1.80
  -3   3   1   22.50    2.60
  -3   3   1   23.30    2.10
  -3   3   1   27.00    2.40
  -3   3   1   24.50    2.40
  -3   3   1   25.00    2.30
   2  -3  -1  691.83   32.40
   2  -3  -1  677.23   32.50
   2  -3  -1  667.43   32.70
   2  -3  -1  659.33   32.40
   2  -3  -1  637.34   32.00
   2  -3  -1  661.83   32.50
  -2   3   1  647.14   32.40
  -2   3   1  657.73   32.50
  -2   3   1  650.63   32.40
  -2   3   1  665.73   32.60
   1  -3  -1  167.68    9.00
   1  -3  -1  174.88    9.00
   1  -3  -1  168.38    9.00
   1  -3  -1  190.18    9.50
  -1   3   1  181.38    9.00
  -1   3   1  167.98    8.90
  -1   3   1  170.58    9.00
  -1   3   1  165.98    9.40
   0  -3  -1  410.86   36.60
   0  -3  -1  494.55   24.50
   0  -3  -1  457.35   24.50
   0  -3  -1  494.05   24.50
   0  -3  -1  556.54   25.20
   0   3   1  507.35   24.50
   0   3   1  518.75   24.20
   0   3   1  506.05   24.50
   0   3   1  508.05   25.00
  -1  -3  -1  588.14   27.90
  -1  -3  -1  575.54   29.00
  -1  -3  -1  543.55   28.30
  -1  -3  -1  589.24   28.50
  -1  -3  -1  561.94   28.00
   1   3   1  561.64   28.60
   1   3   1  579.14   28.00
   1   3   1  561.04   28.90
   1   3   1  601.44   28.40
   1   3   1  597.34   28.40
  -2  -3  -1  297.37   15.30
  -2  -3  -1  304.87   15.30
  -2  -3  -1  279.57   15.70
  -2  -3  -1  302.37   15.00
   2   3   1  300.67   15.20
   2   3   1  321.17   15.90
   2   3   1  322.57   15.50
   2   3   1  301.67   14.90
   2   3   1  275.47   15.20
  -3  -3  -1  101.39    6.80
  -3  -3  -1  108.09    6.40
  -3  -3  -1  109.39    6.20
  -3  -3  -1  109.59    7.00
   3   3   1  128.99    6.40
   3   3   1  122.99    6.70
   3   3   1  105.19    6.90
   3   3   1   99.09    5.80
   3   3   1  115.09    6.40
  -4  -3  -1  108.49    6.70
  -4  -3  -1   99.09    6.40
  -4  -3  -1  102.89    6.80
  -4  -3  -1  100.09    7.10
  -4  -3  -1   95.29    6.00
   4   3   1  108.39    6.80
   4   3   1   95.49    6.60
   4   3   1  103.79    6.00
   4   3   1  103.49    5.60
   4   3   1  107.59    6.10
  -5  -3  -1   95.09    6.70
  -5  -3  -1   98.29    6.50
  -5  -3  -1   94.99    6.80
  -5  -3  -1   87.89    5.60
   5   3   1  100.19    5.90
   5   3   1   89.49    6.60
   5   3   1   92.59    5.40
   5   3   1   90.49    5.90
  -6  -3  -1  115.89    8.10
  -6  -3  -1  117.09    9.00
  -6  -3  -1  123.79    8.50
   6   3   1  128.69    7.50
   6   3   1  133.59    8.60
  -7  -3  -1  103.09    7.60
  -7  -3  -1   98.79    7.90
   7   3   1   95.89    7.70
   7   3   1   99.79    6.30
   7   3   1  103.69    7.80
  -8  -3  -1   57.39    6.20
  -8  -3  -1   62.49    7.30
   8   3   1   51.39    6.30
   8   3   1   48.10    6.10
  10  -4  -1   12.10    2.90
  10  -4  -1   15.90    3.90
 -10   4   1   13.90    3.80
 -10   4   1   13.50    4.80
 -10   4   1   12.20    3.10
   9  -4  -1   41.70    4.10
   9  -4  -1   45.20    4.80
  -9   4   1   36.40    5.10
  -9   4   1   30.70    4.40
  -9   4   1   31.10    4.20
   8  -4  -1   10.90    2.50
   8  -4  -1    7.60    2.70
   8  -4  -1   11.60    2.10
  -8   4   1   13.70    3.20
  -8   4   1   10.20    2.90
  -8   4   1   12.70    3.80
   7  -4  -1   29.90    3.30
   7  -4  -1   31.60    3.30
   7  -4  -1   25.20    3.00
  -7   4   1   31.70    4.20
  -7   4   1   22.70    2.70
  -7   4   1   22.00    3.00
  -7   4   1   29.20    6.70
  -7   4   1   29.30    3.70
   6  -4  -1  502.15   24.00
   6  -4  -1  479.75   23.90
  -6   4   1  474.25   23.80
  -6   4   1  458.95   24.00
  -6   4   1  442.36   24.10
  -6   4   1  482.65   24.50
   5  -4  -1   48.90    3.60
   5  -4  -1   50.39    3.30
   5  -4  -1   47.00    3.70
   5  -4  -1   45.80    3.20
  -5   4   1   45.20    3.20
  -5   4   1   42.50    3.90
  -5   4   1   48.40    3.70
  -5   4   1   51.29    3.90
   4  -4  -1  357.76   19.20
   4  -4  -1  383.36   19.10
   4  -4  -1  371.46   19.20
   4  -4  -1  364.16   18.70
   4  -4  -1  354.46   19.00
   4  -4  -1  380.46   19.00
  -4   4   1  365.76   19.00
  -4   4   1  366.66   19.00
  -4   4   1  430.46   19.40
  -4   4   1  389.16   19.30
  -4   4   1  389.36   19.10
   3  -4  -1  146.69    7.50
   3  -4  -1  141.59    8.20
   3  -4  -1  150.08    8.00
   3  -4  -1  159.58    8.30
   3  -4  -1  150.48    8.30
   3  -4  -1  150.98    8.10
  -3   4   1  150.58    8.30
  -3   4   1  147.99    8.10
  -3   4   1  147.49    8.10
  -3   4   1  147.99    8.20
  -3   4   1  148.09    8.30
   2  -4  -1   96.69    5.20
   2  -4  -1   93.99    5.40
   2  -4  -1   90.29    5.20
   2  -4  -1   97.19    5.90
   2  -4  -1   88.39    5.30
  -2   4   1   92.89    4.50
  -2   4   1   82.79    5.20
  -2   4   1   88.39    5.20
  -2   4   1   89.19    5.70
  -2   4   1   86.99    5.20
   1  -4  -1    1.20    1.20
   1  -4  -1    0.80    1.00
   1  -4  -1    1.30    1.30
   1  -4  -1    2.00    2.00
  -1   4   1    3.00    1.50
  -1   4   1    1.60    1.20
  -1   4   1    1.30    1.40
  -1   4   1    1.50    0.90
   0  -4  -1  381.76   18.00
   0  -4  -1  286.57   31.20
   0  -4  -1  340.37   18.00
   0  -4  -1  367.66   18.00
   0  -4  -1  357.16   18.60
   0   4   1  370.46   18.70
   0   4   1  357.56   17.50
   0   4   1  378.66   18.00
   0   4   1  346.87   17.90
  -1  -4  -1 1079.59   70.59
  -1  -4  -1  971.40   47.00
  -1  -4  -1  957.90   46.90
  -1  -4  -1  974.10   46.20
  -1  -4  -1  918.41   47.00
  -1  -4  -1  946.41   47.60
   1   4   1  900.61   47.00
   1   4   1  974.70   46.40
   1   4   1  920.11   47.50
   1   4   1  955.20   46.80
   1   4   1  957.60   46.90
  -2  -4  -1   46.00    3.60
  -2  -4  -1   54.89    4.30
  -2  -4  -1   49.70    3.20
   2   4   1   49.99    5.20
   2   4   1   52.09    3.20
   2   4   1   53.19    3.60
   2   4   1   53.19    3.60
   2   4   1   52.79    4.10
  -3  -4  -1   47.90    3.40
  -3  -4  -1   50.29    5.10
  -3  -4  -1   55.89    5.00
  -3  -4  -1   44.70    4.10
   3   4   1   50.49    3.50
   3   4   1   58.89    3.90
   3   4   1   53.69    4.10
   3   4   1   52.59    3.80
  -4  -4  -1   88.19    5.90
  -4  -4  -1  103.39    6.70
  -4  -4  -1  101.99    7.30
  -4  -4  -1  100.69    7.20
   4   4   1  109.09    6.30
  -5  -4  -1  120.09    7.90
  -5  -4  -1  113.29    8.30
  -5  -4  -1  132.79    8.70
   5   4   1  112.29    6.30
   5   4   1  113.09    7.00
   5   4   1  122.19    8.20
  -6  -4  -1   16.30    4.30
  -6  -4  -1   17.10    4.00
  -6  -4  -1   18.30    3.70
   6   4   1   13.00    3.60
   6   4   1   15.80    2.80
  -7  -4  -1   14.30    3.70
  -7  -4  -1   18.60    4.90
   7   4   1   12.60    2.60
   7   4   1   20.40    4.20
   7   4   1   15.10    3.90
  10  -5  -1   34.80    4.70
  10  -5  -1   32.30    4.00
 -10   5   1   35.40    5.00
 -10   5   1   27.40    5.90
 -10   5   1   46.90    5.70
   9  -5  -1   18.90    3.00
   9  -5  -1   13.50    3.00
   9  -5  -1   23.10    3.60
  -9   5   1   19.60    3.70
  -9   5   1   21.70    4.80
  -9   5   1   14.90    3.70
   8  -5  -1  152.58    9.10
   8  -5  -1  154.28    9.20
   8  -5  -1  154.18    9.00
  -8   5   1  138.59    9.60
  -8   5   1  153.58    9.90
  -8   5   1  165.78    9.60
   7  -5  -1   41.20    3.90
   7  -5  -1   41.90    3.80
  -7   5   1   35.80    4.30
  -7   5   1   38.00    4.00
  -7   5   1   42.30    4.30
  -7   5   1   41.20    3.70
   6  -5  -1  606.34   30.30
   6  -5  -1  599.94   30.50
  -6   5   1  619.14   30.90
  -6   5   1  620.54   31.10
  -6   5   1  614.94   30.20
  -6   5   1  632.14   30.70
  -6   5   1  584.04   30.50
   5  -5  -1   73.69    4.50
   5  -5  -1   80.19    5.00
   5  -5  -1   71.59    4.70
  -5   5   1   77.19    5.10
  -5   5   1   71.39    5.10
  -5   5   1   73.29    4.80
  -5   5   1   71.79    5.40
   4  -5  -1   77.99    5.10
   4  -5  -1   70.59    4.90
   4  -5  -1   77.39    4.80
   4  -5  -1   79.99    4.90
   4  -5  -1   85.19    7.70
   4  -5  -1   69.79    4.20
  -4   5   1   70.59    5.00
  -4   5   1   77.89    5.10
  -4   5   1   68.49    4.70
  -4   5   1   71.99    5.10
   3  -5  -1   22.50    2.50
   3  -5  -1   21.50    3.00
   3  -5  -1   24.00    2.30
   3  -5  -1   20.80    2.40
   3  -5  -1   22.80    2.40
  -3   5   1   24.90    2.50
  -3   5   1   19.20    2.20
  -3   5   1   18.80    2.70
  -3   5   1   21.10    2.40
   2  -5  -1  191.98   10.30
   2  -5  -1  204.28   10.50
   2  -5  -1  187.78   11.00
   2  -5  -1  213.08   10.60
   2  -5  -1  180.28   10.50
  -2   5   1  208.08   10.50
  -2   5   1  202.58   11.00
  -2   5   1  187.88   10.50
  -2   5   1  187.58    9.60
  -2   5   1  207.38   10.60
   1  -5  -1    5.50    1.70
   1  -5  -1    4.60    1.30
   1  -5  -1    4.20    1.80
   1  -5  -1    5.40    1.60
  -1   5   1    4.30    1.50
  -1   5   1    5.40    1.60
  -1   5   1    6.40    1.50
  -1   5   1    5.10    1.80
   0  -5  -1   95.29    6.60
   0  -5  -1   99.09    5.80
   0  -5  -1   73.19   19.30
   0   5   1   94.59    5.10
   0   5   1   94.79    5.50
   0   5   1   91.49    5.50
  -1  -5  -1  512.25   47.20
  -1  -5  -1  445.86   23.80
  -1  -5  -1  442.26   23.10
   1   5   1  467.85   22.40
   1   5   1  446.46   22.90
   1   5   1  417.06   23.10
   1   5   1  479.45   23.00
  -2  -5  -1   39.90   21.60
  -2  -5  -1   30.90    3.30
  -2  -5  -1   30.80    2.40
  -2  -5  -1   26.40    4.00
   2   5   1   31.20    3.40
   2   5   1   31.30    2.40
   2   5   1   33.80    3.10
  -3  -5  -1  109.09    7.60
  -3  -5  -1  104.89    6.20
  -3  -5  -1  105.59    7.10
  -3  -5  -1  112.89    8.10
   3   5   1  107.99    6.90
   3   5   1  116.19    6.20
   3   5   1  109.39    6.70
  -4  -5  -1   49.30    4.50
  -4  -5  -1   65.19    6.20
  -4  -5  -1   62.39    5.40
  -4  -5  -1   65.69    6.50
   4   5   1   61.29    4.60
  -5  -5  -1   57.29    5.70
  -5  -5  -1   51.69    6.10
  -5  -5  -1   53.59    6.20
   5   5   1   46.20    5.50
   5   5   1   57.39    4.90
  -6  -5  -1    2.70    3.00
  -6  -5  -1    3.40    3.80
  -6  -5  -1    9.70    4.40
   6   5   1    5.10    3.40
   6   5   1    6.60    2.20
  10  -6  -1   43.60    4.50
  10  -6  -1   53.59    5.40
 -10   6   1   50.69    6.00
 -10   6   1   60.99    6.10
 -10   6   1   49.10    6.80
   9  -6  -1   54.59    5.10
   9  -6  -1   49.90    4.80
   9  -6  -1   42.30    4.60
  -9   6   1   49.70    6.20
  -9   6   1   44.00    5.10
  -9   6   1   51.99    5.60
   8  -6  -1  245.48   13.90
   8  -6  -1  264.87   13.90
  -8   6   1  244.78   14.50
  -8   6   1  255.67   14.30
  -8   6   1  266.97   14.80
   7  -6  -1  108.59    6.80
   7  -6  -1  110.39    6.70
  -7   6   1  107.09    7.80
  -7   6   1  101.29    7.30
  -7   6   1  108.19    7.20
   6  -6  -1   94.59    6.10
   6  -6  -1   89.89    5.50
   6  -6  -1   99.89    6.10
  -6   6   1   84.29    6.10
  -6   6   1   98.19    6.50
  -6   6   1   91.89    6.00
  -6   6   1   89.39    6.60
   5  -6  -1   19.60    2.70
   5  -6  -1   25.10    2.30
   5  -6  -1   31.60    3.60
  -5   6   1   24.40    3.20
  -5   6   1   22.10    3.00
  -5   6   1   22.90    3.30
   4  -6  -1  112.59    7.20
   4  -6  -1   92.59    6.80
   4  -6  -1  111.29    6.40
  -4   6   1  105.49    6.40
  -4   6   1  110.29    6.70
  -4   6   1  109.89    6.90
   3  -6  -1    7.20    2.10
   3  -6  -1   11.00    2.60
   3  -6  -1    9.50    2.10
  -3   6   1    9.30    2.20
  -3   6   1    4.10    2.50
  -3   6   1    6.70    1.90
   2  -6  -1  112.29    7.30
   2  -6  -1   97.59    6.10
   2  -6  -1  109.39    6.40
  -2   6   1  107.49    6.50
  -2   6   1   99.29    5.20
  -2   6   1   97.79    6.30
   1  -6  -1  110.09    7.40
   1  -6  -1  110.39    6.80
  -1   6   1  111.29    6.80
  -1   6   1  115.69    6.20
  -1   6   1  113.89    6.80
   0  -6  -1  208.38   12.60
   0  -6  -1  214.68   11.70
   0   6   1  216.58   10.80
   0   6   1  205.48   11.50
  -1  -6  -1  581.84   29.60
  -1  -6  -1  581.94   30.60
  -1  -6  -1  561.14   53.79
   1   6   1  570.94   29.60
   1   6   1  620.44   29.50
  -2  -6  -1  190.88   39.00
  -2  -6  -1  176.08   11.10
  -2  -6  -1  169.08   10.00
   2   6   1  163.68    8.80
   2   6   1  164.18    9.90
   2   6   1  175.98    9.70
  -3  -6  -1  133.39    8.50
  -3  -6  -1  127.99    8.90
  -3  -6  -1  124.49    9.10
   3   6   1  134.39    8.20
   3   6   1  134.69    8.00
  -4  -6  -1   18.50    4.30
  -4  -6  -1   15.90    3.60
  -4  -6  -1   20.60    4.70
   4   6   1   19.80    3.00
  -5  -6  -1   26.90    5.30
  -5  -6  -1   31.40    5.20
  -5  -6  -1   25.40    4.40
   5   6   1   27.40    3.60
   5   6   1   22.10    4.50
  -6  -6  -1   15.40    5.50
  -6  -6  -1   21.20    5.20
  -6  -6  -1   17.80    4.30
   6   6   1   17.10    4.60
   6   6   1   10.10    2.70
  10  -7  -1   54.89    5.40
 -10   7   1   52.39    7.00
 -10   7   1   54.99    6.30
 -10   7   1   52.49    5.70
   9  -7  -1    4.70    2.40
   9  -7  -1    5.90    2.90
   9  -7  -1    5.60    3.00
  -9   7   1    9.80    3.40
  -9   7   1    0.90    2.90
  -9   7   1    7.20    3.00
   8  -7  -1   51.99    4.50
   8  -7  -1   52.59    4.90
  -8   7   1   51.49    6.00
  -8   7   1   51.39    5.50
  -8   7   1   61.09    5.40
   7  -7  -1    4.40    2.40
   7  -7  -1    3.50    2.00
   7  -7  -1    6.70    2.10
  -7   7   1    3.00    2.60
  -7   7   1    5.40    2.80
  -7   7   1    4.60    3.00
   6  -7  -1   98.09    6.60
   6  -7  -1   93.99    6.80
  -6   7   1  103.69    6.80
  -6   7   1  109.39    7.30
  -6   7   1   94.09    6.50
   5  -7  -1  146.79    8.60
   5  -7  -1  162.28   12.90
   5  -7  -1  138.09    9.10
  -5   7   1  139.49    8.70
  -5   7   1  139.69    8.80
   4  -7  -1   93.89    6.90
   4  -7  -1   87.19    6.10
  -4   7   1  104.99    6.50
  -4   7   1   94.79    6.40
   3  -7  -1  193.78   11.70
   3  -7  -1  197.58   11.00
  -3   7   1  210.78   11.10
  -3   7   1  181.28   10.90
   2  -7  -1  336.07   18.90
   2  -7  -1  380.46   18.10
   2  -7  -1  353.96   17.90
  -2   7   1  338.27   17.90
  -2   7   1  304.77   17.80
   1  -7  -1  401.96   20.20
   1  -7  -1  372.66   21.10
  -1   7   1  377.76   19.40
  -1   7   1  398.96   20.20
   0  -7  -1   55.99    4.80
   0  -7  -1   60.19    6.30
   0  -7  -1   29.40   16.00
   0   7   1   56.79    4.40
   0   7   1   53.59    3.50
  -1  -7  -1  168.28   11.20
  -1  -7  -1  165.18   10.00
  -1  -7  -1  123.49   31.60
   1   7   1  169.48    8.70
   1   7   1  178.08    9.80
   1   7   1  162.48   10.00
  -2  -7  -1  141.29    9.70
  -2  -7  -1  172.88    9.80
  -2  -7  -1  153.48   10.90
   2   7   1  156.48    9.20
   2   7   1  164.28    9.50
   2   7   1  143.99    8.10
  -3  -7  -1   47.40    5.30
  -3  -7  -1   59.89    7.20
  -3  -7  -1   56.09    5.90
   3   7   1   62.09    5.30
   3   7   1   61.09    5.40
  -4  -7  -1    6.90    3.50
  -4  -7  -1    6.40    4.00
  -4  -7  -1    3.50    4.30
   4   7   1    8.30    2.60
  -5  -7  -1   46.80    5.60
  -5  -7  -1   43.10    5.90
  -5  -7  -1   37.20    6.40
   5   7   1   40.30    4.60
   5   7   1   29.20    5.50
   9  -8  -1   21.00    3.40
  -9   8   1   25.80    4.40
  -9   8   1   33.50    4.80
  -9   8   1   23.10    4.30
   8  -8  -1   98.19    7.00
  -8   8   1  108.49    7.20
  -8   8   1   92.99    7.20
  -8   8   1  101.79    8.20
   7  -8  -1   89.49    6.50
   7  -8  -1   82.79    6.20
  -7   8   1   82.99    6.70
  -7   8   1   77.39    6.90
   6  -8  -1   48.60    4.60
   6  -8  -1   39.40    4.90
  -6   8   1   43.80    4.50
  -6   8   1   43.90    4.50
   5  -8  -1  106.39    8.00
   5  -8  -1  107.09    7.10
  -5   8   1  106.29    7.00
  -5   8   1  102.99    7.20
   4  -8  -1  211.98   11.60
   4  -8  -1  200.38   12.30
  -4   8   1  189.08   11.40
  -4   8   1  206.98   11.70
   3  -8  -1  137.89    9.90
   3  -8  -1  151.78    9.10
  -3   8   1  153.08    9.10
  -3   8   1  151.38    9.00
   2  -8  -1   27.40    3.40
   2  -8  -1   35.90    4.80
  -2   8   1   34.20    3.70
  -2   8   1   35.10    3.20
  -2   8   1   26.60    3.50
   1  -8  -1   77.99    4.40
   1  -8  -1   69.89    7.30
   1  -8  -1   84.69    5.80
  -1   8   1   83.99    5.90
  -1   8   1   73.59    4.80
   0  -8  -1   69.29    5.30
   0  -8  -1   66.89    7.20
   0   8   1   65.49    5.40
  -1  -8  -1   87.59    7.90
  -1  -8  -1  112.29    7.40
   1   8   1   93.79    6.70
  -2  -8  -1   26.40    4.80
  -2  -8  -1   29.70    4.40
  -2  -8  -1   19.70    5.40
   2   8   1   31.90    3.90
   2   8   1   26.70    3.90
  -3  -8  -1   65.39    6.50
  -3  -8  -1   59.29    6.40
  -3  -8  -1   59.39    7.70
   3   8   1   63.69    5.70
  -4  -8  -1    8.10    3.90
  -4  -8  -1    6.60    5.10
  -4  -8  -1   10.30    4.20
   4   8   1    9.70    2.90
   9  -9  -1   70.19    6.30
  -9   9   1   64.59    7.00
   8  -9  -1   26.50    3.90
  -8   9   1   31.10    4.60
  -8   9   1   34.90    5.00
  -8   9   1   34.00    5.50
   7  -9  -1   19.60    3.60
   7  -9  -1   14.70    3.50
  -7   9   1   19.00    3.70
  -7   9   1   21.60    4.10
   6  -9  -1    7.70    3.80
   6  -9  -1    6.30    2.70
  -6   9   1   12.00    3.20
  -6   9   1    8.60    2.60
   5  -9  -1   93.49    6.80
   5  -9  -1   86.09    7.50
  -5   9   1   94.79    7.10
  -5   9   1   84.99    6.80
   4  -9  -1   14.60    4.20
   4  -9  -1   22.20    3.60
  -4   9   1   21.70    3.50
  -4   9   1   23.40    3.60
   3  -9  -1   63.79    5.60
   3  -9  -1   51.79    6.50
  -3   9   1   48.90    4.90
  -3   9   1   60.89    4.40
  -3   9   1   53.69    5.60
   2  -9  -1    1.70    1.60
   2  -9  -1    2.50    3.50
   2  -9  -1    1.60    2.50
  -2   9   1    6.10    2.50
  -2   9   1    7.00    2.60
  -2   9   1    2.10    1.50
   1  -9  -1   30.70    3.90
   1  -9  -1   19.80    4.50
  -1   9   1   24.70    3.70
   0  -9  -1   20.20    5.20
   0  -9  -1   19.60    3.90
   0   9   1   16.60    3.60
   0   9   1   21.50    3.70
  -1  -9  -1  134.39    8.90
  -1  -9  -1  102.89    9.90
   1   9   1  113.89    8.40
   1   9   1  113.39    7.90
  -2  -9  -1   34.50    5.00
  -2  -9  -1   30.90    4.90
  -2  -9  -1   31.00    6.30
   2   9   1   22.80    3.80
   8 -10  -1    9.20    3.70
  -8  10   1    5.00    3.40
  -8  10   1   10.90    4.00
   7 -10  -1   80.89    7.60
   7 -10  -1   87.39    6.90
  -7  10   1   80.89    7.50
  -7  10   1   84.79    6.70
   6 -10  -1   23.30    4.00
   6 -10  -1   21.50    4.60
  -6  10   1   22.40    4.00
  -6  10   1   22.60    4.40
   5 -10  -1   72.49    6.50
   5 -10  -1   69.19    7.50
  -5  10   1   78.79    7.00
  -5  10   1   60.79    6.10
   4 -10  -1   20.40    5.00
   4 -10  -1   30.50    4.00
  -4  10   1   32.20    4.00
  -4  10   1   26.30    4.60
   3 -10  -1   74.79    5.80
   3 -10  -1   67.39    8.10
  -3  10   1   79.29    6.30
  -3  10   1   65.29    5.00
  -3  10   1   62.99    6.60
   2 -10  -1   22.50    4.20
   2 -10  -1   24.80    5.60
  -2  10   1   20.60    3.80
   1 -10  -1   26.10    4.60
   1 -10  -1   29.60    5.80
  -1  10   1   29.90    4.30
   0 -10  -1    2.40    3.20
   0 -10  -1    6.20    4.60
   0  10   1   -1.20    3.20
   0  10   1    3.30    2.90
  -1 -10  -1   19.20    4.40
  -1 -10  -1   31.70    5.10
  -1 -10  -1   32.00    6.10
   1  10   1   29.30    4.30
   6 -11  -1    1.00    4.00
   6 -11  -1    3.40    3.10
   6 -11  -1    1.80    3.20
  -6  11   1   -1.10    3.60
  -6  11   1    2.30    3.10
   5 -11  -1   40.90    4.80
   5 -11  -1   36.00    5.00
   5 -11  -1   25.30    5.60
  -5  11   1   33.00    5.30
  -5  11   1   39.50    5.10
   4 -11  -1   16.90    5.30
   4 -11  -1   17.00    4.00
  -4  11   1   21.60    4.70
  -4  11   1   13.80    3.50
   3 -11  -1   19.10    5.60
   3 -11  -1   20.50    4.20
  -3  11   1   19.20    3.40
   2 -11  -1   16.20    5.50
   2 -11  -1   18.10    4.20
  -2  11   1   16.00    3.80
   1 -11  -1   -3.30    3.20
   1 -11  -1    1.80    3.40
  -1  11   1   -0.90    2.70
  -3  12  -2    3.00    3.90
   3 -12   2    6.90    3.60
  -4  12  -2   21.30    4.80
  -4  12  -2   24.70    4.50
  -4  12  -2   25.30    4.40
   4 -12   2   27.10    4.50
  -5  12  -2    8.70    4.10
   5 -12   2    4.50    3.30
   0  11  -2   10.80    2.90
   0 -11   2   10.30    3.90
  -1  11  -2   29.80    4.50
   1 -11   2   21.90    5.30
   1 -11   2   32.60    4.90
  -2  11  -2   32.70    4.60
   2 -11   2   32.80    4.70
   2 -11   2   27.30    5.50
  -3  11  -2    0.60    3.20
  -3  11  -2    6.50    2.40
  -3  11  -2    4.40    2.90
   3 -11   2    9.00    3.30
  -4  11  -2    4.10    3.20
  -4  11  -2    5.40    2.40
  -4  11  -2    4.80    3.40
   4 -11   2    5.40    3.10
  -5  11  -2   28.00    4.20
  -5  11  -2   27.20    4.70
  -5  11  -2   32.80    4.50
   5 -11   2   30.10    4.10
   5 -11   2   14.20   17.20
   5 -11   2   26.70    4.30
  -6  11  -2    0.20    3.30
  -6  11  -2    2.10    2.80
   6 -11   2    1.40    2.80
   6 -11   2    0.80    2.90
  -7  11  -2    9.80    3.20
  -7  11  -2    0.50    3.10
   7 -11   2   12.00    3.40
   7 -11   2    0.70    3.20
   2  10  -2   13.10    3.80
  -2 -10   2    6.80    3.90
   1  10  -2    2.20    2.80
  -1 -10   2    6.20    2.80
   0  10  -2   14.70    2.80
   0  10  -2   14.00    3.40
   0 -10   2    9.40    5.10
   0 -10   2   14.00    3.70
  -1  10  -2   31.60    4.20
  -1  10  -2   26.10    3.30
   1 -10   2   19.80    3.90
   1 -10   2   28.60    6.10
  -2  10  -2   36.80    4.20
  -2  10  -2   37.60    4.50
  -2  10  -2   35.40    4.20
   2 -10   2   38.00    6.30
   2 -10   2   34.60    4.50
  -3  10  -2   39.50    4.40
  -3  10  -2   40.30    4.40
  -3  10  -2   27.10    3.80
   3 -10   2   28.40    5.70
   3 -10   2   25.20    3.10
   3 -10   2   25.70    3.90
  -4  10  -2   14.80    3.70
  -4  10  -2   17.70    3.40
  -4  10  -2   18.50    3.50
   4 -10   2   16.40    3.00
   4 -10   2   19.30    3.50
  -5  10  -2   11.30    3.20
  -5  10  -2   11.30    3.60
   5 -10   2   11.30    3.00
   5 -10   2    6.30   12.90
   5 -10   2   14.10    3.20
  -6  10  -2   60.19    6.10
  -6  10  -2   71.29    6.30
   6 -10   2   52.29    5.40
   6 -10   2   62.39    5.60
  -7  10  -2   14.80    3.50
  -7  10  -2   21.20    4.30
   7 -10   2   19.70    3.80
  -8  10  -2   -1.90    3.20
  -8  10  -2   -1.70    2.90
  -8  10  -2   -2.00    2.70
   8 -10   2   -2.90    3.70
   8 -10   2   -4.00    3.00
   8 -10   2   -0.90    2.20
   3   9  -2   37.80    4.90
  -3  -9   2   34.20    4.80
   2   9  -2   -0.90    2.50
   2   9  -2   -1.30    2.30
  -2  -9   2    7.50    3.50
  -2  -9   2    1.00    3.10
   1   9  -2    0.00    2.40
   1   9  -2    1.30    1.70
  -1  -9   2   -2.80    4.10
  -1  -9   2    1.30    2.00
  -1  -9   2   -1.90    2.60
   0   9  -2   28.20    3.50
   0   9  -2   18.40    3.50
   0  -9   2   23.70    2.90
   0  -9   2   19.90    5.10
   0  -9   2   23.00    3.90
  -1   9  -2  131.09    8.60
  -1   9  -2  127.89    8.30
   1  -9   2  143.49    8.80
   1  -9   2  132.59   10.20
  -2   9  -2   65.09    5.80
  -2   9  -2   68.79    5.20
  -2   9  -2   62.29    5.20
   2  -9   2   73.29    5.70
   2  -9   2   62.99    7.20
   2  -9   2   71.49    4.40
  -3   9  -2   88.39    6.20
  -3   9  -2   82.29    6.20
  -3   9  -2   77.09    5.40
  -3   9  -2   88.89    6.50
   3  -9   2   79.79    5.40
   3  -9   2   81.79    6.00
   3  -9   2   86.69    7.60
  -4   9  -2  160.48    9.50
  -4   9  -2  142.79    9.40
   4  -9   2  147.39    9.00
   4  -9   2  162.38    9.30
  -5   9  -2  101.99    7.10
  -5   9  -2  101.79    7.10
   5  -9   2  144.29   20.90
   5  -9   2  105.89    7.10
   5  -9   2  111.29    7.10
  -6   9  -2   51.19    5.00
  -6   9  -2   44.20    4.90
   6  -9   2   46.50    4.30
   6  -9   2   38.10    4.70
   6  -9   2   44.90   14.20
  -7   9  -2   86.19    6.40
  -7   9  -2   83.19    6.60
  -7   9  -2   80.89    6.20
   7  -9   2   84.39    6.70
   7  -9   2   72.29    5.60
  -8   9  -2    0.10    3.10
  -8   9  -2    2.60    3.00
  -8   9  -2    1.80    2.80
   8  -9   2   -1.80    3.00
   8  -9   2    1.10    2.00
   8  -9   2    5.40    3.80
  -9   9  -2   16.20    3.60
  -9   9  -2   20.60    4.40
   9  -9   2   20.60    4.70
   9  -9   2   12.00    4.30
   4   8  -2   25.30    4.00
  -4  -8   2   24.80    4.20
  -4  -8   2   29.50    4.50
   3   8  -2   17.10    3.40
   3   8  -2   12.70    2.80
  -3  -8   2   11.10    2.90
  -3  -8   2   14.80    3.80
   2   8  -2   20.00    3.10
   2   8  -2   28.20    3.80
  -2  -8   2   25.20    3.30
  -2  -8   2   21.00    5.20
  -2  -8   2   30.70    4.40
   1   8  -2   90.19    6.50
   1   8  -2   85.79    5.90
   1   8  -2   88.79    5.70
  -1  -8   2   91.89    6.80
  -1  -8   2   91.39    8.30
  -1  -8   2   88.19    5.80
   0   8  -2    8.70    2.60
   0   8  -2   11.10    2.60
   0  -8   2    9.70    6.00
   0  -8   2   10.40    2.10
   0  -8   2   11.50    3.90
   0  -8   2   11.70    2.50
  -1   8  -2  214.98   12.30
  -1   8  -2  228.38   12.40
  -1   8  -2  239.58   12.60
   1  -8   2  225.78   12.60
   1  -8   2  214.18   13.40
   1  -8   2  222.68   11.70
  -2   8  -2  103.09    6.60
  -2   8  -2   93.89    6.20
  -2   8  -2   93.79    6.20
   2  -8   2  103.09    7.90
   2  -8   2   92.09    5.60
   2  -8   2   96.99    5.60
   2  -8   2   98.29    6.40
  -3   8  -2  120.29    7.70
  -3   8  -2  129.19    7.60
  -3   8  -2  109.59    7.50
  -3   8  -2  113.09    6.90
   3  -8   2  118.59    8.70
   3  -8   2  125.99    7.10
   3  -8   2  134.79    7.60
   3  -8   2  118.99    6.80
  -4   8  -2   53.59    4.80
  -4   8  -2   50.49    3.80
  -4   8  -2   52.69    4.70
   4  -8   2   50.89    4.30
   4  -8   2   62.09    4.40
   4  -8   2   52.09    4.00
  -5   8  -2   69.29    4.70
  -5   8  -2   71.99    5.50
  -5   8  -2   63.49   25.00
  -5   8  -2   68.99    5.30
   5  -8   2   79.19   17.80
   5  -8   2   62.79    5.20
   5  -8   2   72.39    5.20
   5  -8   2   65.69    5.00
  -6   8  -2   31.70    3.90
  -6   8  -2   25.40    3.40
  -6   8  -2   37.30    3.90
   6  -8   2   34.30    4.10
   6  -8   2   26.00   12.10
   6  -8   2   23.80    3.00
  -7   8  -2  115.39    7.60
  -7   8  -2  129.19    7.90
   7  -8   2   94.79    6.80
   7  -8   2  110.99    8.30
   7  -8   2  116.69    7.60
  -8   8  -2    0.80    2.80
  -8   8  -2    1.60    2.50
  -8   8  -2    3.10    3.00
   8  -8   2   -1.60    2.90
   8  -8   2    0.50    1.60
   8  -8   2   -2.00    3.50
  -9   8  -2   15.90    3.70
  -9   8  -2   18.50    4.00
  -9   8  -2   29.40    4.70
   9  -8   2   28.40    4.80
   9  -8   2   24.80    3.80
   9  -8   2   13.80    4.20
   5   7  -2   24.40    3.90
   5   7  -2   15.20    3.00
  -5  -7   2   24.70    4.60
  -5  -7   2   19.10    4.40
   4   7  -2    1.40    2.50
   4   7  -2   -1.70    2.20
  -4  -7   2    9.40    2.80
  -4  -7   2    4.80    3.10
   3   7  -2   43.50    4.40
   3   7  -2   49.70    4.70
  -3  -7   2   44.10    4.60
  -3  -7   2   37.60    4.80
   2   7  -2   19.30    2.90
   2   7  -2   20.90    2.00
   2   7  -2   24.00    3.30
  -2  -7   2   19.50    3.00
  -2  -7   2   12.90    4.20
  -2  -7   2   18.90    3.00
   1   7  -2   72.39    5.50
   1   7  -2   74.39    5.10
   1   7  -2   89.19    5.80
  -1  -7   2   88.99    5.60
  -1  -7   2   97.29    6.30
  -1  -7   2   93.69    7.40
   0   7  -2   39.90    3.80
   0   7  -2   44.20    3.90
   0  -7   2   33.30    3.10
   0  -7   2   36.20    4.60
   0  -7   2   34.50    3.70
  -1   7  -2  124.19    7.80
  -1   7  -2  136.89    8.00
  -1   7  -2  129.79    7.90
   1  -7   2  129.09    7.10
   1  -7   2  151.18    7.40
   1  -7   2  135.39    8.90
   1  -7   2  140.79    8.10
  -2   7  -2  146.39    8.80
  -2   7  -2  147.49    8.50
  -2   7  -2  149.49    8.70
   2  -7   2  144.69    8.60
   2  -7   2  148.19    8.10
   2  -7   2  155.38    8.00
   2  -7   2  173.38   10.00
  -3   7  -2  139.69    8.00
  -3   7  -2  144.69    7.70
  -3   7  -2  151.88    8.30
   3  -7   2  131.29    7.50
   3  -7   2  139.29    8.00
   3  -7   2  145.69    9.10
   3  -7   2  129.79    7.80
  -4   7  -2    6.40    1.60
  -4   7  -2    4.40   14.10
  -4   7  -2    7.50    2.00
  -4   7  -2    2.10    2.00
   4  -7   2    5.00    1.90
   4  -7   2    4.50   10.70
   4  -7   2   10.00    2.20
   4  -7   2    7.80    2.00
   4  -7   2    7.40    1.80
  -5   7  -2   91.39    6.00
  -5   7  -2  100.89    6.00
  -5   7  -2  103.39    6.30
  -5   7  -2   91.59    5.80
  -5   7  -2  111.39   32.20
  -5   7  -2   81.89    6.30
   5  -7   2   99.29    6.00
   5  -7   2   90.29    5.90
   5  -7   2   94.09    6.10
   5  -7   2  104.89   17.90
   5  -7   2   89.49    6.20
  -6   7  -2   12.00    2.70
  -6   7  -2   10.30    2.40
  -6   7  -2    9.80    2.40
  -6   7  -2   27.30   26.20
   6  -7   2   12.10    2.90
   6  -7   2    8.80    2.20
   6  -7   2    6.10   10.50
   6  -7   2   11.80    2.00
  -7   7  -2   18.40    3.30
  -7   7  -2   19.40    3.10
  -7   7  -2   20.80    3.40
   7  -7   2   16.10    2.30
   7  -7   2   14.10    3.30
   7  -7   2   20.20    3.00
   7  -7   2   21.30    3.70
  -8   7  -2    4.50    3.00
  -8   7  -2   -0.20    1.90
  -8   7  -2    5.00    2.60
   8  -7   2    2.80    2.50
   8  -7   2    2.50    1.60
   8  -7   2   -1.40    2.90
   8  -7   2    0.30    3.10
  -9   7  -2   19.50    4.30
  -9   7  -2   17.40    3.70
  -9   7  -2   22.40    4.00
   9  -7   2   13.20    3.60
   9  -7   2   19.80    3.60
   9  -7   2   17.70    4.20
 -10   7  -2   -0.40    3.40
 -10   7  -2   -2.30    3.00
 -10   7  -2   -0.10    3.60
  10  -7   2    1.70    3.20
  10  -7   2   -0.90    3.50
  10  -7   2    1.80    3.20
   6   6  -2    5.50    2.50
   6   6  -2    0.90    2.50
  -6  -6   2    5.40    3.70
  -6  -6   2    5.90    4.10
   5   6  -2   37.40    4.30
   5   6  -2   50.99    5.20
  -5  -6   2   54.09    5.90
  -5  -6   2   55.49    5.90
   4   6  -2   11.50    2.70
   4   6  -2   13.80    2.80
  -4  -6   2   12.00    3.00
  -4  -6   2   14.20    3.40
   3   6  -2   61.39    4.80
   3   6  -2   71.49    5.00
  -3  -6   2   67.29    5.10
  -3  -6   2   60.29    5.60
   2   6  -2  104.89    5.80
   2   6  -2  112.29    6.70
   2   6  -2  112.69    6.90
  -2  -6   2  107.59    6.90
  -2  -6   2  113.59    6.60
  -2  -6   2  103.69    6.60
  -2  -6   2  101.99    7.60
   1   6  -2   27.30    3.10
   1   6  -2   32.80    3.10
   1   6  -2   26.30    2.40
  -1  -6   2   26.40    3.20
  -1  -6   2   30.10    3.00
  -1  -6   2   28.50    4.20
  -1  -6   2   24.60    2.70
   0   6  -2  147.29    8.30
   0   6  -2  145.29    8.30
   0  -6   2  148.99    8.10
   0  -6   2  143.49    8.30
   0  -6   2  136.79    8.90
  -1   6  -2   12.40    2.10
  -1   6  -2   10.80    1.90
  -1   6  -2   14.40    2.20
   1  -6   2   15.50    2.20
   1  -6   2   14.40    1.50
   1  -6   2   12.30    2.70
   1  -6   2   13.80    1.60
   1  -6   2   13.40    2.10
   1  -6   2   11.90    1.70
  -2   6  -2   35.60    3.10
  -2   6  -2   25.60    3.80
  -2   6  -2   30.30    2.90
  -2   6  -2   28.40    3.10
   2  -6   2   27.50    3.80
   2  -6   2   26.60    2.20
   2  -6   2   25.30    2.40
   2  -6   2   30.80    2.80
   2  -6   2   28.70    2.80
  -3   6  -2   38.80    3.30
  -3   6  -2   28.80    3.60
  -3   6  -2   22.90   13.60
  -3   6  -2   41.30    3.40
  -3   6  -2   36.50    2.90
   3  -6   2   36.10    3.00
   3  -6   2   37.30    2.90
   3  -6   2   34.80    3.10
   3  -6   2   33.20    2.70
  -4   6  -2   45.70    3.80
  -4   6  -2   48.40    3.50
  -4   6  -2   42.50    3.50
  -4   6  -2   46.40    3.40
  -4   6  -2   39.60    4.10
  -4   6  -2   65.29   22.90
   4  -6   2   44.10    3.30
   4  -6   2   47.20    3.30
   4  -6   2   57.69   13.40
   4  -6   2   39.30    3.20
   4  -6   2   45.50    3.90
  -5   6  -2   17.40    2.20
  -5   6  -2   15.40    2.40
  -5   6  -2   19.90    2.70
  -5   6  -2   15.20    2.30
  -5   6  -2   13.90    2.40
   5  -6   2   15.30    2.30
   5  -6   2   22.20    2.30
   5  -6   2   16.90    2.70
   5  -6   2   32.10   11.50
   5  -6   2   17.60    2.10
  -6   6  -2   76.89    5.80
  -6   6  -2   87.59    5.90
  -6   6  -2   85.79    5.70
   6  -6   2   94.29    5.90
   6  -6   2   83.29    5.20
   6  -6   2   80.69    6.10
   6  -6   2   80.99    5.70
   6  -6   2   84.69    5.20
  -7   6  -2   -1.40    2.20
  -7   6  -2   -0.70    1.20
  -7   6  -2    0.30    2.10
  -7   6  -2   -2.20    2.00
   7  -6   2    1.00    2.10
   7  -6   2   -3.30    1.60
   7  -6   2   -3.20    1.30
   7  -6   2   -2.30    2.20
   7  -6   2    0.90    1.50
  -8   6  -2   14.60    3.70
  -8   6  -2   21.20    3.60
  -8   6  -2   12.90    3.10
   8  -6   2   15.80    3.40
   8  -6   2   11.60    3.40
   8  -6   2   15.80    3.30
   8  -6   2   15.70    2.10
  -9   6  -2   10.80    3.40
  -9   6  -2   18.80    3.70
  -9   6  -2   10.70    3.50
   9  -6   2   21.80    3.80
   9  -6   2   12.40    3.80
   9  -6   2   11.80    3.20
 -10   6  -2   26.30    5.30
 -10   6  -2   30.70    4.60
 -10   6  -2   22.80    3.90
  10  -6   2   18.10    4.50
  10  -6   2   20.70    4.30
   7   5  -2   12.20    3.40
   7   5  -2   12.40    3.80
  -7  -5   2   18.30    4.40
  -7  -5   2   15.80    4.50
   6   5  -2    1.20    2.70
   6   5  -2   10.10    3.40
   6   5  -2    3.60    2.50
  -6  -5   2    2.30    3.20
  -6  -5   2    6.20    2.70
   5   5  -2   26.30    3.60
   5   5  -2   23.30    3.40
  -5  -5   2   26.90    4.10
  -5  -5   2   22.10    4.00
   4   5  -2  140.09    7.60
   4   5  -2  111.49    6.00
   4   5  -2  115.99    7.70
  -4  -5   2  123.99    7.80
  -4  -5   2  124.59    7.80
   3   5  -2  146.19    8.60
   3   5  -2  147.09    8.70
  -3  -5   2  145.39    8.90
  -3  -5   2  150.08    8.80
   2   5  -2   26.80    3.00
   2   5  -2   22.50    2.60
  -2  -5   2   25.90    3.00
  -2  -5   2   18.90    3.50
  -2  -5   2   31.20    3.00
  -2  -5   2   24.50    2.70
  -2  -5   2   22.00    2.60
   1   5  -2   22.40    2.50
   1   5  -2   16.80    2.30
  -1  -5   2   18.10    2.30
  -1  -5   2   22.10    3.40
  -1  -5   2   19.90    2.20
  -1  -5   2   19.40    2.50
  -1  -5   2   19.10    2.20
   0   5  -2   53.19    3.90
   0   5  -2   55.39    4.00
   0   5  -2   63.99    4.10
   0   5  -2   57.59    4.80
   0   5  -2   57.69    3.90
   0  -5   2   59.39    4.00
   0  -5   2   67.39    5.10
   0  -5   2   62.29    4.20
   0  -5   2   60.09    3.80
  -1   5  -2  177.18    9.80
  -1   5  -2  187.78    9.60
  -1   5  -2  172.68   10.30
  -1   5  -2  179.08    9.60
  -1   5  -2  174.68    9.60
   1  -5   2  194.68    9.70
   1  -5   2  175.88    9.20
   1  -5   2  175.88    9.40
   1  -5   2  181.78   18.20
   1  -5   2  183.88    9.60
   1  -5   2  185.88    9.10
   1  -5   2  182.18   10.40
  -2   5  -2   19.60    2.00
  -2   5  -2   19.60    2.00
  -2   5  -2   21.10    2.90
  -2   5  -2   21.50    2.20
   2  -5   2   16.90    1.90
   2  -5   2   20.40    2.20
   2  -5   2   18.10    1.90
   2  -5   2   16.40    2.50
   2  -5   2   17.70    1.60
   2  -5   2   20.10    2.10
  -3   5  -2  131.19    7.40
  -3   5  -2  139.29    7.40
  -3   5  -2  132.69    7.20
  -3   5  -2  139.49    7.90
  -3   5  -2  133.89    7.40
  -3   5  -2  132.29    7.30
  -3   5  -2  137.59   24.30
   3  -5   2  134.79    7.50
   3  -5   2  132.79    7.30
   3  -5   2  139.89    7.40
   3  -5   2  127.39    7.50
   3  -5   2  144.99    7.40
  -4   5  -2  122.19    7.50
  -4   5  -2  129.69    7.20
  -4   5  -2  133.39    7.50
  -4   5  -2  135.19    7.30
  -4   5  -2  131.19    7.20
  -4   5  -2  124.19    7.40
  -4   5  -2  191.68   31.50
   4  -5   2  128.49    7.50
   4  -5   2  136.69    7.40
   4  -5   2  136.19    7.20
   4  -5   2  111.99   15.90
   4  -5   2  132.29    7.10
  -5   5  -2   32.10    3.00
  -5   5  -2   38.70    3.40
  -5   5  -2   32.50    2.90
  -5   5  -2   32.60    3.20
  -5   5  -2   31.10    2.90
   5  -5   2   22.00   10.80
   5  -5   2   22.60    3.20
   5  -5   2   31.50    2.60
   5  -5   2   29.70    2.60
   5  -5   2   30.20    3.30
   5  -5   2   31.10    3.20
   5  -5   2   29.50    3.10
  -6   5  -2   96.59    5.70
  -6   5  -2   91.09    6.10
  -6   5  -2   77.39    4.90
  -6   5  -2   94.89    6.00
   6  -5   2   89.39    6.00
   6  -5   2   92.29    5.80
   6  -5   2   87.79    6.10
   6  -5   2   86.19    5.10
  -7   5  -2   86.99    5.90
  -7   5  -2   76.59    5.70
  -7   5  -2   95.69    6.20
  -7   5  -2  100.99   17.20
   7  -5   2   86.49    6.10
   7  -5   2   92.69    6.10
   7  -5   2   81.89    5.00
   7  -5   2   79.99    5.10
   7  -5   2   80.29    6.00
  -8   5  -2   19.50    3.10
  -8   5  -2   13.00    3.30
  -8   5  -2   17.10    3.40
   8  -5   2   16.90    3.30
   8  -5   2   19.20    3.20
   8  -5   2   15.00    3.10
   8  -5   2   14.80    1.80
  -9   5  -2   32.40    4.10
  -9   5  -2   35.50    5.20
  -9   5  -2   29.90    4.50
   9  -5   2   32.70    3.90
   9  -5   2   28.50    4.50
   9  -5   2   25.60    4.30
 -10   5  -2   53.79    6.00
 -10   5  -2   51.39    6.90
 -10   5  -2   57.69    5.90
  10  -5   2   64.29    6.40
  10  -5   2   58.79    6.20
   7   4  -2   22.20    3.90
   7   4  -2   24.90    3.60
  -7  -4   2   27.40    4.90
  -7  -4   2   22.40    4.50
   6   4  -2   57.89    4.00
   6   4  -2   60.39    5.50
   6   4  -2   66.39    5.50
   6   4  -2   58.59    5.70
  -6  -4   2   59.09    6.20
  -6  -4   2   68.59    6.00
   5   4  -2  201.28   10.50
   5   4  -2  161.88   10.30
  -5  -4   2  183.28   10.90
  -5  -4   2  174.78   10.80
   4   4  -2  105.49    6.70
   4   4  -2   98.49    6.50
  -4  -4   2  102.69    7.00
  -4  -4   2  108.79    6.90
   3   4  -2    6.00    1.50
   3   4  -2    5.90    1.80
  -3  -4   2    9.90    2.30
  -3  -4   2   11.00    2.10
  -3  -4   2    8.20    2.20
   2   4  -2  194.18   10.20
   2   4  -2  184.18   10.80
   2   4  -2  195.88   10.30
   2   4  -2  186.88   10.30
  -2  -4   2  202.58   10.10
  -2  -4   2  184.68   10.20
  -2  -4   2  178.88   10.10
  -2  -4   2  197.98   10.40
  -2  -4   2  185.98   10.80
   1   4  -2   31.90    2.50
   1   4  -2   33.70    2.90
   1   4  -2   28.00    1.80
   1   4  -2   34.50    2.80
   1   4  -2   36.00    3.70
  -1  -4   2   34.80    2.80
  -1  -4   2   30.50    2.50
  -1  -4   2   30.20    3.60
  -1  -4   2   30.80    2.60
  -1  -4   2   32.00    2.70
  -1  -4   2   29.60    2.80
   0   4  -2   14.10    1.30
   0   4  -2   15.30    1.80
   0   4  -2   13.30    1.80
   0   4  -2   13.90    1.70
   0   4  -2   13.70    1.90
   0   4  -2   14.60    2.50
   0  -4   2   14.80    2.00
   0  -4   2   13.10    2.70
   0  -4   2   12.30    1.40
   0  -4   2   14.40    1.90
   0  -4   2   13.10    1.80
   0  -4   2   13.20    1.60
  -1   4  -2    8.50    2.10
  -1   4  -2   10.10    1.60
  -1   4  -2    9.10    1.70
  -1   4  -2    9.20    1.50
  -1   4  -2    9.90    1.50
   1  -4   2    8.80    1.30
   1  -4   2    8.00    1.50
   1  -4   2    7.20   10.70
   1  -4   2    7.90    1.30
   1  -4   2   10.30    0.90
   1  -4   2    8.80    1.40
  -2   4  -2  108.79    6.00
  -2   4  -2   85.69   19.60
  -2   4  -2   94.69    5.30
  -2   4  -2   93.19    5.40
  -2   4  -2   99.09    5.50
  -2   4  -2   91.79    5.40
  -2   4  -2  101.79    5.10
   2  -4   2   96.29    5.40
   2  -4   2   91.69    5.40
   2  -4   2   97.39    5.10
   2  -4   2   97.39    5.40
   2  -4   2   95.09    5.30
  -3   4  -2  538.45   27.20
  -3   4  -2  613.24   27.60
  -3   4  -2  561.44   27.40
  -3   4  -2  529.45   27.30
  -3   4  -2  544.05   27.20
  -3   4  -2  539.95   27.30
   3  -4   2  538.95   27.40
   3  -4   2  659.73   36.70
   3  -4   2  522.95   27.40
   3  -4   2  556.74   27.20
   3  -4   2  511.45   27.10
   3  -4   2  560.64   27.30
  -4   4  -2   92.59    5.50
  -4   4  -2   83.89    5.30
  -4   4  -2   91.59    5.40
  -4   4  -2   97.49    5.40
  -4   4  -2   87.69    5.10
  -4   4  -2   90.69    5.30
   4  -4   2   89.89   14.90
   4  -4   2  104.59    5.60
   4  -4   2   92.69    5.70
   4  -4   2   84.59    5.00
   4  -4   2   93.59    5.40
   4  -4   2   92.59    5.50
   4  -4   2   84.39    5.40
   4  -4   2   95.09    5.10
  -5   4  -2  149.09    8.40
  -5   4  -2  159.38    8.10
  -5   4  -2  151.28    8.70
  -5   4  -2  145.29    8.70
  -5   4  -2  150.38    8.90
  -5   4  -2  209.08   18.30
  -5   4  -2  169.28    8.30
   5  -4   2  155.98    8.00
   5  -4   2  141.69    8.00
   5  -4   2  143.69    8.70
   5  -4   2  159.38    8.70
   5  -4   2  156.18    8.90
   5  -4   2  143.59    8.70
  -6   4  -2   11.40    2.00
  -6   4  -2    9.20    2.60
  -6   4  -2    9.70   10.10
  -6   4  -2    8.40    0.80
  -6   4  -2   11.90    2.10
  -6   4  -2    9.50    0.80
   6  -4   2   17.50    2.40
   6  -4   2    9.00    1.50
   6  -4   2    7.90    2.10
   6  -4   2   11.00    2.10
   6  -4   2    9.00    1.40
  -7   4  -2   36.90   14.10
  -7   4  -2   28.10    4.10
  -7   4  -2   35.30    4.00
  -7   4  -2   37.00    3.70
   7  -4   2   31.30    2.50
   7  -4   2   31.70    3.80
   7  -4   2   29.70    3.70
   7  -4   2   30.50    3.80
  -8   4  -2   44.20    5.00
  -8   4  -2   48.60    4.50
  -8   4  -2   47.20    4.80
   8  -4   2   43.20    4.40
   8  -4   2   43.80    4.80
   8  -4   2   38.10    4.70
  -9   4  -2   19.10    3.90
  -9   4  -2   14.90    4.40
  -9   4  -2   15.10    3.20
   9  -4   2   20.80    4.00
   9  -4   2   15.30    2.80
   9  -4   2   15.50    4.10
 -10   4  -2   54.99    7.10
 -10   4  -2   55.59    6.10
 -10   4  -2   48.30    5.50
  10  -4   2   56.79    6.10
   8   3  -2   24.30    3.70
   8   3  -2   18.50    3.60
  -8  -3   2   15.10    4.80
  -8  -3   2   17.70    4.40
   7   3  -2   98.79    6.50
   7   3  -2   89.59    5.80
   7   3  -2   84.89    6.50
  -7  -3   2   74.69    7.20
  -7  -3   2   98.89    7.90
   6   3  -2   45.90    4.70
   6   3  -2   48.10    4.30
   6   3  -2   43.80    4.30
  -6  -3   2   33.00    4.50
  -6  -3   2   42.80    5.10
   5   3  -2   46.20    4.90
   5   3  -2   48.50    4.50
   5   3  -2   49.70    4.10
  -5  -3   2   49.30    4.80
  -5  -3   2   40.90    4.40
  -5  -3   2   49.40    3.70
   4   3  -2  762.82   39.70
   4   3  -2  856.61   39.80
   4   3  -2  778.12   40.00
  -4  -3   2  804.32   40.00
  -4  -3   2  782.92   39.10
  -4  -3   2  823.02   39.90
   3   3  -2    0.20    1.90
   3   3  -2    3.10    1.60
   3   3  -2    0.10    1.30
   3   3  -2    4.10    1.40
   3   3  -2    2.20    1.50
  -3  -3   2    0.90    1.10
  -3  -3   2    1.60    1.20
  -3  -3   2    1.70    1.50
   2   3  -2    2.60    1.40
   2   3  -2    0.70    0.90
   2   3  -2    2.30    1.30
   2   3  -2    2.20    1.30
   2   3  -2    2.20    1.40
  -2  -3   2    0.90    1.30
  -2  -3   2    2.90    1.60
  -2  -3   2    0.70    1.40
  -2  -3   2    1.00    0.90
   1   3  -2  102.99    6.10
   1   3  -2   96.29    5.60
   1   3  -2  103.09    5.50
   1   3  -2   98.79    5.60
  -1  -3   2   92.79    5.20
  -1  -3   2   99.09    5.60
  -1  -3   2   88.59    5.20
  -1  -3   2   91.29    5.60
  -1  -3   2  103.69    5.50
   0   3  -2   86.89    4.30
   0   3  -2   83.39    4.60
   0   3  -2   80.49    4.70
   0   3  -2   82.19    5.00
   0   3  -2   84.29    4.50
   0   3  -2   70.29    4.60
   0  -3   2   88.69    4.40
   0  -3   2   77.69    4.10
   0  -3   2   79.79    4.60
   0  -3   2   72.99    4.50
   0  -3   2   84.79    4.80
  -1   3  -2   10.20    1.30
  -1   3  -2   13.80    1.40
  -1   3  -2   10.20    1.30
  -1   3  -2   12.60    1.40
  -1   3  -2    9.70    1.50
  -1   3  -2   11.70    1.80
   1  -3   2   10.80    0.90
   1  -3   2   12.00   11.80
   1  -3   2   11.80    1.30
   1  -3   2   10.20    1.20
   1  -3   2   10.80    1.30
   1  -3   2    9.00    1.20
  -2   3  -2  173.58    9.30
  -2   3  -2  181.98    9.10
  -2   3  -2  179.78    9.60
  -2   3  -2  172.48   28.20
  -2   3  -2  175.48    9.10
  -2   3  -2  173.98    9.30
   2  -3   2  174.98    9.10
   2  -3   2  191.68    9.20
   2  -3   2  170.58    9.30
   2  -3   2  226.68   17.70
   2  -3   2  180.08    9.30
   2  -3   2  186.38    9.10
  -3   3  -2  233.98   11.90
  -3   3  -2  241.98   12.00
  -3   3  -2  249.78   11.70
  -3   3  -2  218.38   11.80
  -3   3  -2  231.38   11.90
  -3   3  -2  228.08   11.60
   3  -3   2  234.68   11.90
   3  -3   2  186.78   18.90
   3  -3   2  214.58   11.50
   3  -3   2  232.28   11.50
   3  -3   2  244.28   12.10
   3  -3   2  243.68   12.00
   3  -3   2  231.08   11.90
   3  -3   2  235.98   12.00
  -4   3  -2   43.70    2.90
  -4   3  -2   42.00    3.30
  -4   3  -2   40.50    2.70
  -4   3  -2   45.10   10.60
  -4   3  -2   43.70    3.10
  -4   3  -2   40.60    3.40
  -4   3  -2   41.00    2.70
  -4   3  -2   37.90    3.10
   4  -3   2   36.40    2.40
   4  -3   2   35.30    3.10
   4  -3   2   35.80    3.10
   4  -3   2   41.40    3.10
   4  -3   2   39.80    2.50
   4  -3   2   34.40    3.20
   4  -3   2   45.80    3.00
  -5   3  -2  332.57   17.90
  -5   3  -2  342.37   28.50
  -5   3  -2  353.36   18.60
  -5   3  -2  383.56   17.60
  -5   3  -2  347.27   17.50
  -5   3  -2  344.37   18.40
  -5   3  -2  366.46   18.50
  -5   3  -2  378.26   18.10
   5  -3   2  351.16   17.60
   5  -3   2  379.46   18.50
   5  -3   2  345.47   17.70
   5  -3   2  360.06   18.40
   5  -3   2  383.56   18.40
   5  -3   2  336.37   18.60
  -6   3  -2   81.29    5.80
  -6   3  -2   69.59   16.00
  -6   3  -2   78.39    4.90
  -6   3  -2   78.69    5.30
   6  -3   2   74.99    5.30
   6  -3   2   68.39    5.20
   6  -3   2   71.29    4.10
   6  -3   2   65.89    4.10
   6  -3   2   78.29    5.00
  -7   3  -2   53.89    5.00
  -7   3  -2   59.99    5.80
  -7   3  -2   56.49    4.40
   7  -3   2   56.69    4.30
   7  -3   2   68.59    5.10
   7  -3   2   50.69    4.90
   7  -3   2   55.29    3.50
  -8   3  -2   25.40    4.50
  -8   3  -2   31.80    3.80
  -8   3  -2   32.00    3.80
   8  -3   2   23.30    3.80
   8  -3   2   29.30    2.20
   8  -3   2   23.40    3.00
   8  -3   2   29.60    4.10
  -9   3  -2    1.20    2.50
  -9   3  -2    2.60    3.00
  -9   3  -2    8.20    4.10
   9  -3   2    4.10    3.10
   9  -3   2    5.60    3.20
 -10   3  -2   25.70    4.30
 -10   3  -2   29.30    5.20
 -10   3  -2   23.20    4.50
  10  -3   2   31.30    4.60
   8   2  -2   59.49    5.50
   8   2  -2   65.19    5.30
  -8  -2   2   54.49    6.10
  -8  -2   2   52.59    5.50
  -8  -2   2   50.59    6.10
   7   2  -2   12.40    2.70
   7   2  -2    9.40    2.50
  -7  -2   2   13.50    3.80
  -7  -2   2    5.60    3.10
   6   2  -2  203.78   11.30
   6   2  -2  203.88   11.20
   6   2  -2  192.98   11.50
   6   2  -2  186.58   11.20
  -6  -2   2  208.78   11.90
  -6  -2   2  208.58   12.00
  -6  -2   2  208.28   11.10
   5   2  -2   72.19    4.90
   5   2  -2   80.29    5.20
   5   2  -2   70.69    5.00
   5   2  -2   74.89    5.40
  -5  -2   2   73.29    4.90
  -5  -2   2   77.59    5.60
  -5  -2   2   80.19    5.80
   4   2  -2  161.58    9.80
   4   2  -2  191.68    9.60
   4   2  -2  163.18    9.60
   4   2  -2  183.98    9.70
   4   2  -2  177.38    9.80
  -4  -2   2  167.28    9.70
  -4  -2   2  167.48    9.70
  -4  -2   2  174.08    9.90
  -4  -2   2  186.78    9.20
   3   2  -2   16.50    2.40
   3   2  -2   16.40    2.10
   3   2  -2   13.90    2.10
   3   2  -2   15.30    2.20
   3   2  -2   14.90    1.90
  -3  -2   2   14.50    2.20
  -3  -2   2   19.50    2.30
  -3  -2   2   18.70    1.60
  -3  -2   2   13.80    1.80
  -3  -2   2   16.70    2.30
   2   2  -2   59.29    4.00
   2   2  -2   64.29    4.30
   2   2  -2   67.69    4.20
   2   2  -2   69.89    4.10
   2   2  -2   69.79    4.10
  -2  -2   2   65.89    4.00
  -2  -2   2   65.99    4.20
  -2  -2   2   68.99    4.20
  -2  -2   2   63.49    3.40
  -2  -2   2   60.89    4.20
   1   2  -2  527.65   24.70
   1   2  -2  499.65   24.80
   1   2  -2  471.05   24.50
   1   2  -2  477.05   24.30
   1   2  -2  481.35   24.50
  -1  -2   2  501.05   24.60
  -1  -2   2  500.45   24.50
  -1  -2   2  518.25   24.30
  -1  -2   2  521.25   24.30
  -1  -2   2  478.75   24.60
   0   2  -2 1070.79   50.79
   0   2  -2 1048.10   50.29
   0   2  -2 1012.50   50.39
   0   2  -2 1006.70   50.49
   0   2  -2 1056.39   50.39
   0   2  -2 1075.09   50.19
   0   2  -2 1024.10   50.29
   0  -2   2 1052.29   50.39
   0  -2   2  964.40   50.29
   0  -2   2 1059.69   50.49
   0  -2   2 1026.90   50.39
   0  -2   2 1065.39   50.29
   0  -2   2 1050.09   50.19
  -1   2  -2    3.10    0.60
  -1   2  -2    2.90   13.70
  -1   2  -2    2.60    0.60
  -1   2  -2    2.60    0.70
  -1   2  -2    2.40    0.90
  -1   2  -2    4.00    0.70
   1  -2   2    1.70    5.10
   1  -2   2    3.10    0.90
   1  -2   2    0.80    0.90
   1  -2   2    2.60    0.60
   1  -2   2    3.00    0.80
   1  -2   2    5.60   10.90
   1  -2   2    1.60    0.60
  -2   2  -2  301.77   16.40
  -2   2  -2  398.66   24.20
  -2   2  -2  309.17   16.90
  -2   2  -2  344.57   16.80
  -2   2  -2  328.87   16.70
  -2   2  -2  338.97   16.50
  -2   2  -2  342.57   16.70
  -2   2  -2  321.67   16.80
  -2   2  -2  409.56   38.30
   2  -2   2  332.37   16.90
   2  -2   2  360.86   16.30
   2  -2   2  300.17   16.70
   2  -2   2  328.57   23.80
   2  -2   2  354.86   16.90
   2  -2   2  354.16   16.80
   2  -2   2  338.37   16.70
  -3   2  -2 1096.29   54.49
  -3   2  -2 1138.89   54.89
  -3   2  -2 1058.59   54.39
  -3   2  -2 1172.28   54.79
  -3   2  -2 1146.99   54.79
  -3   2  -2 1126.19   63.29
  -3   2  -2 1118.19   54.99
   3  -2   2 1085.49   54.79
   3  -2   2 1174.08   54.99
   3  -2   2 1074.09   54.79
   3  -2   2 1259.27   54.49
   3  -2   2 1055.69   54.79
  -4   2  -2   53.99   13.30
  -4   2  -2   50.29    3.80
  -4   2  -2   53.49    3.20
  -4   2  -2   53.09    3.20
  -4   2  -2   53.89    3.80
  -4   2  -2   55.29    3.40
  -4   2  -2   55.39    3.90
   4  -2   2   54.79    3.90
   4  -2   2   61.59    3.90
   4  -2   2   55.49    3.00
   4  -2   2   51.39    3.70
   4  -2   2   51.99    2.90
   4  -2   2   52.09    4.10
   4  -2   2   55.39    3.80
  -5   2  -2  405.86   21.20
  -5   2  -2  437.56   20.60
  -5   2  -2  426.66   20.40
  -5   2  -2  410.66   20.00
  -5   2  -2  315.37   31.30
  -5   2  -2  395.76   20.90
  -5   2  -2  442.46   20.90
   5  -2   2  396.16   20.00
   5  -2   2  397.36   20.60
   5  -2   2  429.86   20.90
   5  -2   2  408.56   20.90
   5  -2   2  380.46   20.90
   5  -2   2  430.66   20.10
  -6   2  -2  164.68   23.80
  -6   2  -2  206.58   11.80
  -6   2  -2  202.18   11.30
  -6   2  -2  200.78   10.90
   6  -2   2  205.38   11.30
   6  -2   2  213.68   11.00
   6  -2   2  196.98   11.40
   6  -2   2  204.18   10.30
   6  -2   2  212.38   11.30
  -7   2  -2   30.00    3.90
  -7   2  -2   30.50    3.70
  -7   2  -2   25.80    3.00
   7  -2   2   24.90    3.50
   7  -2   2   25.10    3.60
   7  -2   2   27.90    3.40
   7  -2   2   21.80    2.00
  -8   2  -2    8.10    2.50
  -8   2  -2    5.90    3.00
  -8   2  -2    4.00    3.50
   8  -2   2    5.60    3.10
   8  -2   2   10.90    3.10
  -9   2  -2    2.90    3.20
  -9   2  -2    4.20    3.30
  -9   2  -2    2.00    2.90
   9  -2   2    6.90    3.20
   9  -2   2    7.70    2.80
 -10   2  -2   38.80    5.50
   9   1  -2   11.30    3.20
   9   1  -2   12.30    2.80
  -9  -1   2   19.00    5.00
  -9  -1   2   15.90    4.20
  -9  -1   2   11.20    3.50
   8   1  -2   41.60    4.40
   8   1  -2   39.40    4.30
  -8  -1   2   31.90    4.70
  -8  -1   2   33.40    4.30
  -8  -1   2   43.40    5.30
   7   1  -2    2.70    2.00
   7   1  -2    2.70    2.10
  -7  -1   2    2.80    2.40
  -7  -1   2    5.00    2.40
  -7  -1   2    6.70    2.90
   6   1  -2  107.39    6.40
   6   1  -2   95.49    6.10
   6   1  -2  108.79    7.00
   6   1  -2   98.89    6.30
  -6  -1   2  101.49    7.20
  -6  -1   2  102.99    6.50
  -6  -1   2  102.99    6.50
  -6  -1   2  101.49    7.00
   5   1  -2   80.59    5.10
   5   1  -2   83.89    5.00
   5   1  -2   85.09    5.30
   5   1  -2   78.79    5.30
  -5  -1   2   82.19    5.90
  -5  -1   2   79.29    5.60
   4   1  -2   44.90    3.50
   4   1  -2   43.10    3.10
   4   1  -2   36.70    3.30
   4   1  -2   38.70    3.10
   4   1  -2   39.60    2.90
   4   1  -2   38.50    3.70
  -4  -1   2   36.80    3.10
  -4  -1   2   39.00    3.70
  -4  -1   2   40.90    3.20
  -4  -1   2   37.00    3.10
   3   1  -2   37.20    2.80
   3   1  -2   39.60    3.20
   3   1  -2   40.10    2.90
   3   1  -2   41.50    3.10
   3   1  -2   39.00    3.20
  -3  -1   2   39.70    2.70
  -3  -1   2   36.80    3.20
  -3  -1   2   38.50    3.20
  -3  -1   2   38.70    2.90
   2   1  -2  443.96   22.40
   2   1  -2  468.95   22.30
   2   1  -2  470.75   22.30
   2   1  -2  463.75   22.40
  -2  -1   2  439.16   22.30
  -2  -1   2  458.35   22.50
  -2  -1   2  451.15   22.40
  -2  -1   2  413.16   22.20
   1   1  -2  513.05   25.20
   1   1  -2  540.95   25.40
   1   1  -2  517.55   25.30
   1   1  -2  514.05   25.40
   1   1  -2  579.04   25.60
  -1  -1   2  507.35   25.50
  -1  -1   2  488.65   25.30
  -1  -1   2  483.45   25.30
  -1  -1   2  546.15   25.20
  -1  -1   2  500.35   25.40
   0   1  -2  301.57   13.80
   0   1  -2  292.97   13.90
   0   1  -2  261.37   13.80
   0   1  -2  251.67   13.90
   0   1  -2  276.57   14.00
   0   1  -2  277.97   13.60
   0  -1   2  283.57   13.70
   0  -1   2  291.37   14.00
   0  -1   2  276.47   13.90
   0  -1   2  277.97   13.70
   0  -1   2  299.27   13.80
   0  -1   2  292.17   13.90
  -1   1  -2 5270.97  244.18
  -1   1  -2 5277.97  243.78
  -1   1  -2 4691.03  244.28
  -1   1  -2 5109.29  243.88
  -1   1  -2 4903.01  243.48
  -1   1  -2 4687.43  258.57
  -1   1  -2 5307.07  244.28
  -1   1  -2 5437.76  247.58
   1  -1   2 4763.62  244.18
   1  -1   2 4874.51  244.08
   1  -1   2 5267.57  244.88
   1  -1   2 4941.11  243.88
   1  -1   2 4387.36  246.68
   1  -1   2 5441.76  260.67
  -2   1  -2 1305.27   62.99
  -2   1  -2 1134.29   69.89
  -2   1  -2 1308.67   62.99
  -2   1  -2 1311.77   63.09
  -2   1  -2 1272.77   62.99
  -2   1  -2 1294.27   63.19
  -2   1  -2 1252.17   62.99
  -2   1  -2 1248.38   63.09
  -2   1  -2 1285.17   62.89
   2  -1   2 1408.06   62.99
   2  -1   2 1389.76   63.09
   2  -1   2 1350.36   63.09
   2  -1   2 1307.17   63.19
  -3   1  -2 1849.52   87.79
  -3   1  -2 1664.73   87.69
  -3   1  -2 1952.70   87.89
  -3   1  -2 1812.62   87.49
  -3   1  -2 1825.72   87.79
  -3   1  -2 1911.01   87.69
  -3   1  -2 1742.13   87.99
   3  -1   2 1852.31   87.69
   3  -1   2 1834.72   87.79
   3  -1   2 1714.73   87.49
   3  -1   2 1822.72   87.49
   3  -1   2 1682.83   87.39
  -4   1  -2 1191.48   55.69
  -4   1  -2 1104.59   55.59
  -4   1  -2 1136.59   54.89
  -4   1  -2 1184.28   55.09
  -4   1  -2 1103.19   54.89
  -4   1  -2 1232.68   55.49
  -4   1  -2 1130.19   55.19
   4  -1   2 1095.79   55.29
   4  -1   2 1194.48   55.39
   4  -1   2 1103.09   54.69
   4  -1   2 1154.68   55.19
   4  -1   2 1107.39   55.59
   4  -1   2 1050.19   55.49
   4  -1   2 1066.59   54.59
  -5   1  -2  323.67   16.60
  -5   1  -2  320.27   16.40
  -5   1  -2  320.97   16.60
  -5   1  -2  393.96   17.70
  -5   1  -2  290.27   16.80
  -5   1  -2  341.37   16.90
  -5   1  -2  299.67   16.20
  -5   1  -2  323.27   17.40
   5  -1   2  327.17   16.10
   5  -1   2  340.57   17.00
   5  -1   2  304.37   17.00
   5  -1   2  354.26   16.90
  -6   1  -2  193.48   11.20
  -6   1  -2  198.18   11.00
  -6   1  -2  215.38   12.00
  -6   1  -2  197.78   10.30
   6  -1   2  213.58   11.60
   6  -1   2  200.78   11.20
   6  -1   2  204.58   10.30
   6  -1   2  202.58   11.30
  -7   1  -2   21.20    3.40
  -7   1  -2   21.00    3.00
  -7   1  -2   19.40    3.40
   7  -1   2   15.30    1.60
   7  -1   2   17.90    3.20
   7  -1   2   17.00    3.30
   7  -1   2   18.70    3.00
  -8   1  -2   -1.30    2.90
  -8   1  -2    2.20    2.70
  -8   1  -2    1.50    2.20
   8  -1   2    1.10    2.60
   8  -1   2    2.10    2.20
   8  -1   2    2.90    1.10
   8  -1   2    0.90    2.50
  -9   1  -2   24.20    4.00
  -9   1  -2   44.20    4.90
  -9   1  -2   29.70    5.70
   9  -1   2   31.80    4.90
   9  -1   2   31.90    4.60
   9  -1   2   31.10    4.50
   9   0  -2    7.30    2.80
  -9   0   2   13.60    3.50
  -9   0   2   10.90    3.70
  -9   0   2    9.40    4.50
   8   0  -2   10.20    2.50
   8   0  -2   15.20    2.80
  -8   0   2   14.60    4.30
  -8   0   2   10.70    3.10
  -8   0   2    9.70    3.30
   7   0  -2   19.70    2.60
   7   0  -2   11.50    2.40
   7   0  -2   16.10    1.80
  -7   0   2   13.60    2.80
  -7   0   2   17.00    3.30
  -7   0   2   11.80    3.40
   6   0  -2    5.30    1.70
   6   0  -2    7.90    1.90
   6   0  -2    4.60    1.40
  -6   0   2    1.40    2.60
  -6   0   2    5.40    2.00
  -6   0   2    5.30    2.20
   5   0  -2   20.50    2.10
   5   0  -2   21.90    2.60
   5   0  -2   19.20    2.30
   5   0  -2   17.90    2.00
   5   0  -2   21.10    2.90
  -5   0   2   20.00    2.70
  -5   0   2   15.40    2.20
  -5   0   2   16.90    2.60
   4   0  -2  586.44   30.50
   4   0  -2  619.54   30.40
   4   0  -2  611.04   30.00
   4   0  -2  655.23   29.90
   4   0  -2  602.54   30.20
   4   0  -2  548.35   30.20
  -4   0   2  595.64   30.40
  -4   0   2  591.64   30.20
  -4   0   2  614.84   30.50
  -4   0   2  641.04   30.10
  -4   0   2  639.24   30.50
   3   0  -2  345.17   17.60
   3   0  -2  340.87   17.40
   3   0  -2  333.47   17.60
   3   0  -2  380.26   17.10
   3   0  -2  347.17   17.50
  -3   0   2  337.27   17.60
  -3   0   2  343.27   17.50
  -3   0   2  343.97   17.40
  -3   0   2  345.47   17.20
  -3   0   2  346.37   17.60
   2   0  -2 1744.13   83.79
   2   0  -2 1628.84   83.79
   2   0  -2 1700.13   84.59
   2   0  -2 1768.72   83.89
  -2   0   2 1770.92   83.89
  -2   0   2 1827.92   83.89
  -2   0   2 1790.22   83.79
  -2   0   2 1647.44   84.19
  -2   0   2 1696.93   83.89
   1   0  -2 4401.66  202.48
   1   0  -2 4124.69  201.28
   1   0  -2 4130.19  202.78
   1   0  -2 3991.20  201.78
   1   0  -2 3937.91  201.28
   1   0  -2 4317.07  202.18
  -1   0   2 3890.21  202.78
  -1   0   2 4314.57  201.38
  -1   0   2 4182.88  202.58
  -1   0   2 4411.56  202.98
  -1   0   2 4205.58  202.48
   0   0  -2  173.88    8.60
   0   0  -2  180.18    8.80
   0   0  -2  176.98    8.60
   0   0  -2  177.78    8.80
   0   0   2  171.38    8.80
   0   0   2  155.08   13.80
   0   0   2  186.98    8.60
   0   0   2  162.18    9.00
   0   0   2  184.38    8.80
   0   0   2  177.08    8.60
  -1   0  -2 1495.85   77.19
  -1   0  -2 1538.65   77.19
  -1   0  -2 1548.15   95.99
  -1   0  -2 1588.94   78.19
  -1   0  -2 1584.64   77.69
  -1   0  -2 1693.23   77.09
  -1   0  -2 1597.44   77.29
   1   0   2 1710.93   77.89
   1   0   2 1677.63   77.39
   1   0   2 1526.45   77.69
   1   0   2 1586.64   77.19
  -2   0  -2 1064.29   50.39
  -2   0  -2 1025.80   50.29
  -2   0  -2 1070.19   49.80
  -2   0  -2 1037.00   50.19
  -2   0  -2  997.20   50.09
  -2   0  -2 1053.69   49.80
  -2   0  -2 1128.79   50.09
  -2   0  -2 1067.09   50.19
  -2   0  -2 1035.00   50.39
   2   0   2  964.90   50.29
   2   0   2 1002.90   50.39
   2   0   2  967.00   50.19
   2   0   2 1022.30   50.09
   2   0   2  999.50   50.19
  -3   0  -2  170.18    8.80
  -3   0  -2  174.58    9.60
  -3   0  -2  169.68    9.10
  -3   0  -2  174.68    8.90
  -3   0  -2  180.28    9.10
  -3   0  -2  164.18    9.40
  -3   0  -2  164.98    9.20
   3   0   2  168.98    8.60
   3   0   2  169.68    9.20
   3   0   2  174.68    8.60
   3   0   2  182.78    9.10
   3   0   2  188.48    9.50
   3   0   2  174.78    9.10
  -4   0  -2  457.75   22.00
  -4   0  -2  398.06   21.70
  -4   0  -2  398.26   21.20
  -4   0  -2  441.06   21.40
  -4   0  -2  453.45   21.20
  -4   0  -2  413.06   21.20
  -4   0  -2  443.96   21.10
   4   0   2  440.16   21.30
   4   0   2  419.76   21.60
   4   0   2  396.06   20.80
   4   0   2  420.06   21.50
   4   0   2  425.86   21.30
  -5   0  -2   32.70    3.70
  -5   0  -2   40.30    3.00
  -5   0  -2   37.40    3.00
  -5   0  -2   39.90    2.90
  -5   0  -2   37.90    3.20
  -5   0  -2   35.70    3.10
   5   0   2   35.20    2.40
   5   0   2   40.70    3.40
   5   0   2   35.30    3.20
   5   0   2   31.80    2.80
   5   0   2   33.90    2.40
   5   0   2   37.60    3.70
  -6   0  -2   69.29    4.30
  -6   0  -2   56.29    5.60
  -6   0  -2   63.49    4.50
  -6   0  -2   63.49    4.20
   6   0   2   57.79    5.00
   6   0   2   57.29    4.50
   6   0   2   55.49    5.00
   6   0   2   57.69    3.60
  -7   0  -2   14.20    3.90
  -7   0  -2   11.70    2.60
   7   0   2   12.50    3.20
   7   0   2   19.60    3.50
   7   0   2   19.90    3.30
   7   0   2   12.80    1.60
  -8   0  -2   17.90    3.30
  -8   0  -2   22.90    4.70
  -8   0  -2   27.40    4.20
   8   0   2   19.20    3.80
   8   0   2   13.40    3.10
   8   0   2   21.60    3.60
  -9   0  -2   14.80    3.40
  -9   0  -2   16.70    5.00
  -9   0  -2   20.50    4.10
   9   0   2   20.20    3.80
   9   0   2   17.20    3.60
   9   0   2   18.00    4.10
 -10   1   2    4.90    4.80
   9  -1  -2   13.30    2.70
  -9   1   2   16.50    4.70
  -9   1   2   12.20    3.60
  -9   1   2   19.70    3.60
   8  -1  -2   38.10    3.90
  -8   1   2   37.70    4.70
  -8   1   2   43.70    5.30
  -8   1   2   39.10    4.30
   7  -1  -2   20.20    2.70
   7  -1  -2   18.70    2.50
  -7   1   2   17.00    2.60
  -7   1   2   13.00    3.50
  -7   1   2   20.10    3.30
   6  -1  -2    8.60    1.90
   6  -1  -2   12.10    1.30
   6  -1  -2    8.90    1.80
  -6   1   2    7.80    2.70
  -6   1   2   10.10    2.10
  -6   1   2   12.90    2.20
   5  -1  -2   77.19    4.70
   5  -1  -2   86.19    4.40
   5  -1  -2   84.39    5.30
   5  -1  -2   80.19    4.50
   5  -1  -2   80.79    5.10
  -5   1   2   78.39    5.00
  -5   1   2   80.29    5.40
  -5   1   2   87.69    5.80
   4  -1  -2  132.69    7.70
   4  -1  -2  148.59    7.90
   4  -1  -2  146.19    8.00
   4  -1  -2  137.79    7.80
  -4   1   2  142.49    8.00
  -4   1   2  140.39    8.10
  -4   1   2  141.69    7.70
  -4   1   2  148.09    8.00
  -4   1   2  137.29    7.60
   3  -1  -2   78.09    4.50
   3  -1  -2   77.19    4.20
   3  -1  -2   73.49    4.40
   3  -1  -2   66.89    4.70
   3  -1  -2   74.19    4.40
  -3   1   2   73.29    4.40
  -3   1   2   79.39    4.70
  -3   1   2   76.09    4.20
  -3   1   2   76.39    4.60
  -3   1   2   67.19    4.40
   2  -1  -2  219.28   10.80
   2  -1  -2  223.88   10.90
   2  -1  -2  211.68   10.80
   2  -1  -2  215.78   10.90
   2  -1  -2  217.18   11.00
   2  -1  -2  214.48   10.60
  -2   1   2  210.68   10.90
  -2   1   2  207.28   10.70
  -2   1   2  204.78   10.90
  -2   1   2  218.88   10.60
  -2   1   2  196.38   10.80
   1  -1  -2  295.57   14.50
   1  -1  -2  305.67   14.50
   1  -1  -2  293.67   14.50
   1  -1  -2  282.17   14.40
   1  -1  -2  313.27   18.40
   1  -1  -2  308.17   14.80
   1  -1  -2  300.97   14.70
  -1   1   2  271.87   14.50
  -1   1   2  294.77   14.80
  -1   1   2  286.07   14.40
  -1   1   2  282.47   14.50
  -1   1   2  290.67   14.40
   0  -1  -2 1243.68   59.09
   0  -1  -2 1274.17   59.59
   0  -1  -2 1218.98   59.79
   0  -1  -2 1209.78   59.09
   0  -1  -2 1168.68   59.39
   0   1   2 1190.78   59.49
   0   1   2 1193.38   59.79
   0   1   2 1248.68   59.29
   0   1   2 1237.18   59.39
   0   1   2 1248.58   59.49
  -1  -1  -2   93.59    5.10
  -1  -1  -2  106.69    5.80
  -1  -1  -2  105.19    5.30
  -1  -1  -2   96.39    5.60
  -1  -1  -2  106.59   21.00
  -1  -1  -2   92.29    5.10
   1   1   2   99.29    5.10
   1   1   2   98.09    5.80
   1   1   2  112.99    5.60
   1   1   2   98.09    5.10
   1   1   2   98.69    5.70
   1   1   2  102.19    5.30
  -2  -1  -2  147.59    8.50
  -2  -1  -2  154.48    8.50
  -2  -1  -2  174.38    9.20
  -2  -1  -2  171.48    8.60
  -2  -1  -2  152.48    9.00
  -2  -1  -2  172.88    8.60
   2   1   2  177.48    8.40
   2   1   2  175.78    9.10
   2   1   2  168.98    9.10
   2   1   2  187.68    9.10
   2   1   2  169.28    8.70
   2   1   2  165.18    8.70
   2   1   2  174.28    8.40
  -3  -1  -2   45.60    3.20
  -3  -1  -2   49.70    3.10
  -3  -1  -2   48.80    3.80
  -3  -1  -2   50.59    3.10
  -3  -1  -2   47.20    4.10
  -3  -1  -2   54.69    3.60
  -3  -1  -2   45.90    3.30
   3   1   2   47.50    3.60
   3   1   2   43.40    2.80
   3   1   2   49.90    3.70
   3   1   2   44.80    3.10
   3   1   2   44.30    3.40
   3   1   2   47.60    2.90
   3   1   2   48.10    3.70
  -4  -1  -2   33.70    2.80
  -4  -1  -2   37.20    3.00
  -4  -1  -2   35.60    2.90
  -4  -1  -2   39.80    4.10
  -4  -1  -2   45.10    3.40
  -4  -1  -2   42.80    3.70
  -4  -1  -2   38.30    2.90
   4   1   2   36.40    3.50
   4   1   2   33.70    3.10
   4   1   2   37.80    3.00
   4   1   2   33.80    2.40
   4   1   2   36.10    2.50
   4   1   2   35.50    3.30
  -5  -1  -2  180.98   11.10
  -5  -1  -2  182.98   10.20
  -5  -1  -2  197.68   10.10
  -5  -1  -2  181.98   10.20
  -5  -1  -2  194.08   10.40
   5   1   2  182.78   10.70
   5   1   2  177.78    9.70
   5   1   2  186.58    9.70
   5   1   2  190.38   10.20
   5   1   2  190.98   10.50
   5   1   2  200.38   10.40
  -6  -1  -2   18.30    2.70
  -6  -1  -2   16.90    3.30
  -6  -1  -2   16.80    2.30
  -6  -1  -2   19.00    2.80
   6   1   2   14.20    2.40
   6   1   2   20.50    3.40
   6   1   2   19.50    2.80
   6   1   2   18.80    3.20
   6   1   2   17.70    2.00
   6   1   2   19.30    2.00
  -7  -1  -2   29.50    4.90
  -7  -1  -2   21.80    3.30
   7   1   2   28.60    4.10
   7   1   2   22.80    2.20
   7   1   2   25.10    3.20
   7   1   2   19.50    3.60
  -8  -1  -2   36.70    5.60
  -8  -1  -2   36.90    4.50
   8   1   2   46.80    5.30
   8   1   2   24.70    3.40
   8   1   2   31.20    4.60
  -9  -1  -2  146.59   11.60
  10  -2  -2    3.30    2.60
  10  -2  -2   -1.30    3.10
 -10   2   2    3.70    3.20
 -10   2   2    5.20    3.50
 -10   2   2    4.10    3.50
   9  -2  -2   17.20    3.80
   9  -2  -2   16.30    3.00
  -9   2   2   13.50    3.70
  -9   2   2   20.30    3.80
  -9   2   2   17.90    4.80
   8  -2  -2   14.00    2.60
  -8   2   2   13.30    3.30
  -8   2   2   12.40    3.20
  -8   2   2   14.40    3.10
   7  -2  -2    5.20    1.90
   7  -2  -2    3.00    1.10
  -7   2   2    4.80    2.10
  -7   2   2    4.40    2.40
  -7   2   2    4.90    2.10
   6  -2  -2   51.39    2.90
   6  -2  -2   57.69    4.10
   6  -2  -2   52.69    3.50
   6  -2  -2   58.59    2.90
  -6   2   2   49.10    4.90
  -6   2   2   55.09    4.70
  -6   2   2   58.79    4.20
   5  -2  -2  100.39    6.00
   5  -2  -2  105.39    6.20
   5  -2  -2   99.69    5.40
  -5   2   2  100.39    6.00
  -5   2   2  107.99    6.40
  -5   2   2  100.49    5.50
  -5   2   2  107.99    6.70
   4  -2  -2  214.68   10.70
   4  -2  -2  199.78   10.20
   4  -2  -2  177.78   10.40
   4  -2  -2  194.28   10.80
   4  -2  -2  209.58   10.40
  -4   2   2  209.18   10.80
  -4   2   2  205.38   10.40
  -4   2   2  195.48   10.00
  -4   2   2  201.78   10.80
  -4   2   2  198.48   10.40
  -4   2   2  193.18   10.70
   3  -2  -2   48.00    3.30
   3  -2  -2   48.50    3.70
   3  -2  -2   51.39    3.30
   3  -2  -2   57.89    3.40
   3  -2  -2   56.99    3.40
  -3   2   2   48.00    3.20
  -3   2   2   52.89    3.20
  -3   2   2   54.29    3.60
  -3   2   2   51.29    3.50
  -3   2   2   51.79    3.90
  -3   2   2   40.80    4.40
   2  -2  -2   35.90    5.60
   2  -2  -2   35.60    2.40
   2  -2  -2   36.70    2.50
   2  -2  -2   34.60    2.50
   2  -2  -2   34.20    2.90
   2  -2  -2   33.80    2.70
  -2   2   2   32.10    2.40
  -2   2   2   32.10    2.90
  -2   2   2   33.90    2.50
  -2   2   2   31.20    2.50
  -2   2   2   29.10    2.60
  -2   2   2   34.30    2.60
   1  -2  -2  547.75   27.30
   1  -2  -2  516.15   26.90
   1  -2  -2  503.95   26.80
   1  -2  -2  553.04   26.60
   1  -2  -2  568.24   26.90
  -1   2   2  556.94   26.90
  -1   2   2  548.15   26.90
  -1   2   2  546.25   26.90
  -1   2   2  525.05   27.20
  -1   2   2  619.24   26.80
   0  -2  -2  190.08   10.10
   0  -2  -2  181.88    9.50
   0  -2  -2  180.18    9.60
   0  -2  -2  178.78    9.50
   0   2   2  189.88   26.70
   0   2   2  187.68   10.10
   0   2   2  194.58    9.50
   0   2   2  203.58    9.40
   0   2   2  180.58    9.50
  -1  -2  -2  524.75   25.90
  -1  -2  -2  517.15   25.10
  -1  -2  -2  541.85   48.10
  -1  -2  -2  477.85   24.90
  -1  -2  -2  543.05   25.30
  -1  -2  -2  551.14   25.30
   1   2   2  521.75   25.20
   1   2   2  528.95   25.20
   1   2   2  501.05   25.80
   1   2   2  471.35   25.60
   1   2   2  498.95   25.20
  -2  -2  -2  255.87   13.20
  -2  -2  -2  268.57   13.80
  -2  -2  -2  266.27   13.20
  -2  -2  -2  317.67   39.80
  -2  -2  -2  247.48   13.70
  -2  -2  -2  262.37   12.90
  -2  -2  -2  275.97   13.00
   2   2   2  262.37   13.80
   2   2   2  244.98   13.00
   2   2   2  241.88   13.00
   2   2   2  283.27   13.70
   2   2   2  249.18   13.30
  -3  -2  -2  146.79    8.00
  -3  -2  -2  144.19    7.90
  -3  -2  -2  144.79    8.50
  -3  -2  -2  136.89    7.70
  -3  -2  -2  136.49    8.50
  -3  -2  -2  144.09    8.50
   3   2   2  152.28    7.70
   3   2   2  142.29    7.70
   3   2   2  150.38    8.40
   3   2   2  158.98    7.80
   3   2   2  162.88    8.20
   3   2   2  145.79    8.40
   3   2   2  145.29    8.50
  -4  -2  -2   26.70    3.40
  -4  -2  -2   17.50    2.70
  -4  -2  -2   23.00    3.20
  -4  -2  -2   22.30    2.60
  -4  -2  -2   22.80    2.50
  -4  -2  -2   24.00    2.50
   4   2   2   24.50    2.30
   4   2   2   25.60    3.00
   4   2   2   25.70    2.40
   4   2   2   24.40    2.10
   4   2   2   22.20    3.10
   4   2   2   24.20    2.90
  -5  -2  -2   34.00    3.80
  -5  -2  -2   29.70    3.00
  -5  -2  -2   29.10    4.20
  -5  -2  -2   27.90    3.20
  -5  -2  -2   33.00    3.40
   5   2   2   41.00    3.30
   5   2   2   31.00    3.50
   5   2   2   39.10    4.20
   5   2   2   39.70    2.80
   5   2   2   34.80    3.60
  -6  -2  -2    3.80    2.00
  -6  -2  -2    4.00    2.60
  -6  -2  -2    7.90    2.70
  -6  -2  -2    7.60    2.60
   6   2   2    4.70    1.90
   6   2   2    6.20    2.70
   6   2   2    6.60    1.60
   6   2   2    3.50    2.60
   6   2   2    1.90    1.90
  -7  -2  -2  110.59    9.00
  -7  -2  -2  110.39    7.70
  -7  -2  -2  108.89    7.60
   7   2   2  118.69    7.80
   7   2   2  121.09    8.00
   7   2   2  103.99    6.90
  -8  -2  -2   10.10    3.70
  -8  -2  -2    6.90    3.20
   8   2   2   12.80    3.80
   8   2   2    7.00    2.90
  10  -3  -2   19.10    3.20
  10  -3  -2   21.90    4.30
 -10   3   2   20.80    4.40
 -10   3   2   20.70    4.10
 -10   3   2   15.30    5.20
   9  -3  -2   16.60    3.60
   9  -3  -2   16.60    3.10
  -9   3   2   11.90    3.60
  -9   3   2   18.70    3.60
  -9   3   2   15.90    4.60
   8  -3  -2    3.80    2.30
   8  -3  -2    1.00    1.30
   8  -3  -2    2.50    2.30
  -8   3   2   -0.60    3.10
  -8   3   2    2.60    2.70
  -8   3   2    4.70    2.00
   7  -3  -2  255.07   13.80
  -7   3   2  250.57   14.70
  -7   3   2  262.07   14.00
  -7   3   2  287.07   14.60
  -7   3   2  248.58   13.30
   6  -3  -2   34.40    3.10
   6  -3  -2   29.30    2.00
  -6   3   2   28.20    6.50
  -6   3   2   26.80    2.40
  -6   3   2   36.10    3.30
  -6   3   2   31.60    3.90
  -6   3   2   27.30    3.40
   5  -3  -2   37.30    2.70
   5  -3  -2   40.20    3.30
   5  -3  -2   39.60    3.10
   5  -3  -2   43.90    3.70
  -5   3   2   39.00    2.70
  -5   3   2   33.60    3.40
  -5   3   2   32.50    3.10
  -5   3   2   33.60    3.80
   4  -3  -2   39.80    3.30
   4  -3  -2   34.30    2.90
   4  -3  -2   35.60    2.80
   4  -3  -2   35.00    3.30
   4  -3  -2   35.10    2.70
  -4   3   2   35.70    2.90
  -4   3   2   35.20    2.90
  -4   3   2   31.70    2.80
  -4   3   2   34.80    3.30
  -4   3   2   36.30    3.50
   3  -3  -2  221.78   11.60
   3  -3  -2  221.38   11.80
   3  -3  -2  218.78   11.90
   3  -3  -2  226.58   11.70
   3  -3  -2  230.88   11.90
  -3   3   2  244.98   12.10
  -3   3   2  236.08   11.70
  -3   3   2  214.98   11.70
  -3   3   2  222.88   11.80
  -3   3   2  220.58   11.80
  -3   3   2  229.78   11.70
   2  -3  -2   77.89    4.90
   2  -3  -2   79.79    4.60
   2  -3  -2   77.39    4.80
   2  -3  -2   83.49    5.10
   2  -3  -2   75.69    3.90
   2  -3  -2   80.09    4.60
  -2   3   2   80.99    4.60
  -2   3   2   86.69    5.20
  -2   3   2   90.69    4.80
  -2   3   2   78.99    4.50
   1  -3  -2  249.68   12.50
   1  -3  -2  256.47   12.60
   1  -3  -2  234.88   13.00
  -1   3   2  231.58   12.40
  -1   3   2  239.08   12.60
  -1   3   2  231.98   13.00
  -1   3   2  251.77   12.60
  -1   3   2  267.27   12.20
   0  -3  -2  480.65   25.80
   0  -3  -2  500.65   25.20
   0  -3  -2  536.05   25.20
   0  -3  -2  511.95   25.30
   0   3   2  521.15   25.80
   0   3   2  497.95   24.90
   0   3   2  504.65   25.10
   0   3   2  477.85   25.10
   0   3   2  605.34   46.20
  -1  -3  -2  132.79    7.50
  -1  -3  -2  141.19    8.20
  -1  -3  -2  147.69    7.60
  -1  -3  -2  133.29   27.30
  -1  -3  -2  148.69    7.20
   1   3   2  127.29    7.40
   1   3   2  150.38    7.50
   1   3   2  133.59    8.20
   1   3   2  144.39    8.10
  -2  -3  -2  112.29   29.60
  -2  -3  -2   88.09    5.20
  -2  -3  -2   85.69    5.10
  -2  -3  -2   81.69    4.60
  -2  -3  -2   85.19    6.00
  -2  -3  -2   92.39    4.70
   2   3   2   91.39    5.70
   2   3   2   87.89    5.00
   2   3   2   89.79    5.90
   2   3   2   87.89    5.00
  -3  -3  -2   40.40    2.80
  -3  -3  -2   42.30    4.30
  -3  -3  -2   38.20    4.10
  -3  -3  -2   40.90    3.30
   3   3   2   40.90    4.10
   3   3   2   39.60    3.00
   3   3   2   38.40    2.90
   3   3   2   41.60    3.70
  -4  -3  -2   17.00    2.50
  -4  -3  -2   15.90    2.20
  -4  -3  -2   18.00    3.10
  -4  -3  -2   17.40    3.40
   4   3   2   20.10    2.00
   4   3   2   15.80    2.10
   4   3   2   19.40    2.80
   4   3   2   21.80    3.00
   4   3   2   16.90    2.00
  -5  -3  -2   30.40    3.20
  -5  -3  -2   30.20    3.70
  -5  -3  -2   28.60    3.20
  -5  -3  -2   32.80    4.30
  -5  -3  -2   37.40    4.80
   5   3   2   34.60    4.20
   5   3   2   28.70    2.80
   5   3   2   23.40    2.70
   5   3   2   36.10    2.90
   5   3   2   26.80    3.50
  -6  -3  -2   91.39    6.50
  -6  -3  -2   93.29    7.70
  -6  -3  -2   92.09    7.00
   6   3   2   86.69    5.30
   6   3   2   76.29    5.30
   6   3   2   84.39    6.60
   6   3   2   79.29    6.40
  -7  -3  -2   11.40    3.60
  -7  -3  -2   19.10    4.70
  -7  -3  -2   16.40    3.80
   7   3   2   12.70    3.60
   7   3   2    9.00    2.10
   7   3   2   19.40    4.00
  10  -4  -2    4.20    2.70
  10  -4  -2    5.00    3.10
 -10   4   2    3.10    3.10
 -10   4   2   -1.70    2.30
 -10   4   2    2.90    4.10
   9  -4  -2   49.99    4.80
   9  -4  -2   39.70    4.70
  -9   4   2   47.80    5.60
  -9   4   2   52.39    5.20
  -9   4   2   46.40    6.20
   8  -4  -2   47.10    4.60
   8  -4  -2   48.00    3.90
   8  -4  -2   51.79    4.60
  -8   4   2   51.59    5.30
  -8   4   2   54.19    6.00
  -8   4   2   50.39    4.90
   7  -4  -2  183.98   10.30
   7  -4  -2  185.48   10.20
  -7   4   2  179.78   10.40
  -7   4   2  177.78   11.10
  -7   4   2  187.28   10.80
  -7   4   2  179.78    9.80
   6  -4  -2   93.59    6.20
   6  -4  -2   98.19    5.70
   6  -4  -2  104.69    6.00
  -6   4   2  105.09    6.70
  -6   4   2   92.99    5.70
  -6   4   2  105.69    6.30
  -6   4   2  104.49    6.70
   5  -4  -2  190.38    9.30
   5  -4  -2  163.18    9.30
   5  -4  -2  166.78    9.00
  -5   4   2  157.78    9.80
  -5   4   2  153.68    9.40
  -5   4   2  185.38    9.30
   4  -4  -2   28.20    2.80
   4  -4  -2   33.90    3.20
   4  -4  -2   28.30    2.10
   4  -4  -2   32.10    3.20
   4  -4  -2   33.50    3.10
   4  -4  -2   28.40    2.70
  -4   4   2   31.20    3.00
  -4   4   2   27.30    3.20
  -4   4   2   29.30    2.90
  -4   4   2   29.80    3.00
  -4   4   2   24.70    2.70
   3  -4  -2   71.59    3.80
   3  -4  -2   79.69    5.20
   3  -4  -2   66.49    4.70
   3  -4  -2   77.09    4.50
   3  -4  -2   74.09    4.70
   3  -4  -2   82.89    4.60
  -3   4   2   68.49    4.40
  -3   4   2   70.89    4.40
  -3   4   2   65.79    4.40
  -3   4   2   73.19    4.90
  -3   4   2   76.09    5.00
   2  -4  -2  537.55   27.00
   2  -4  -2  561.04   27.40
   2  -4  -2  532.65   26.80
   2  -4  -2  542.35   26.90
   2  -4  -2  548.65   26.90
  -2   4   2  546.85   27.40
  -2   4   2  537.65   26.90
  -2   4   2  534.85   26.90
  -2   4   2  532.25   26.80
   1  -4  -2  592.34   28.80
   1  -4  -2  583.64   29.30
   1  -4  -2  591.14   28.70
   1  -4  -2  544.35   28.70
  -1   4   2  576.44   29.30
  -1   4   2  575.14   28.00
  -1   4   2  565.64   28.60
  -1   4   2  607.54   28.80
  -1   4   2  594.74   28.80
  -1   4   2  562.54   44.70
   0  -4  -2   63.89    3.90
   0  -4  -2   71.39    5.10
   0  -4  -2   62.69    4.10
   0  -4  -2   49.60   20.30
   0  -4  -2   54.59    3.90
   0   4   2   56.89    4.70
   0   4   2   62.59    3.90
   0   4   2   62.79    3.20
   0   4   2   61.39    4.00
  -1  -4  -2   53.49   22.60
  -1  -4  -2   68.09    4.40
  -1  -4  -2   70.99    5.40
  -1  -4  -2   66.19    4.40
  -1  -4  -2   74.49    3.80
   1   4   2   70.59    5.30
   1   4   2   56.69    4.90
   1   4   2   68.89    4.20
   1   4   2   67.29    4.30
  -2  -4  -2   39.20    2.40
  -2  -4  -2   40.70    4.40
  -2  -4  -2   43.00    3.40
  -2  -4  -2   41.30   23.30
   2   4   2   37.30    3.20
   2   4   2   40.30    3.00
   2   4   2   42.00    3.80
  -3  -4  -2   41.50    3.80
  -3  -4  -2   41.40    4.70
  -3  -4  -2   42.40    4.70
  -3  -4  -2   38.10    2.80
   3   4   2   44.80    3.30
   3   4   2   43.80    3.20
   3   4   2   45.10    4.00
  -4  -4  -2   40.10    4.10
  -4  -4  -2   43.10    5.00
  -4  -4  -2   39.10    3.30
  -4  -4  -2   37.00    4.50
   4   4   2   45.50    3.40
   4   4   2   51.39    4.60
   4   4   2   45.10    3.70
   4   4   2   38.90    4.70
  -5  -4  -2   27.80    4.40
  -5  -4  -2   26.50    4.60
  -5  -4  -2   20.60    3.50
   5   4   2   22.70    3.90
   5   4   2   20.20    3.50
   5   4   2   29.90    3.10
  -6  -4  -2    9.80    3.10
  -6  -4  -2    5.20    3.80
  -6  -4  -2    2.90    3.20
   6   4   2    4.30    1.80
   6   4   2    5.40    3.20
   6   4   2    5.00    3.00
  -7  -4  -2   31.10    5.10
  -7  -4  -2   19.20    4.10
   7   4   2   26.00    4.50
   7   4   2   17.70    4.40
  10  -5  -2   33.00    4.20
  10  -5  -2   30.90    4.40
 -10   5   2   32.70    4.60
 -10   5   2   31.70    5.00
 -10   5   2   31.40    5.90
   9  -5  -2   30.10    3.80
   9  -5  -2   30.80    4.10
   9  -5  -2   39.50    4.50
  -9   5   2   38.70    5.70
  -9   5   2   34.90    4.40
  -9   5   2   42.80    5.10
   8  -5  -2   58.89    4.80
   8  -5  -2   62.69    5.00
  -8   5   2   60.59    6.50
  -8   5   2   57.49    5.70
  -8   5   2   59.69    5.40
   7  -5  -2   51.99    4.20
   7  -5  -2   54.69    4.40
   7  -5  -2   46.00    3.30
  -7   5   2   56.69    5.10
  -7   5   2   55.19    5.50
  -7   5   2   49.80    3.90
  -7   5   2   44.20    4.20
   6  -5  -2   95.79    6.00
   6  -5  -2   96.39    5.80
   6  -5  -2   99.69    6.20
  -6   5   2   97.99    6.30
  -6   5   2  102.59    6.30
  -6   5   2   88.29    6.80
   5  -5  -2   39.70    3.70
   5  -5  -2   39.50    2.80
   5  -5  -2   45.00    3.80
  -5   5   2   49.20    4.20
  -5   5   2   38.60    3.50
  -5   5   2   42.20    4.20
  -5   5   2   32.80    3.40
   4  -5  -2  163.38    9.00
   4  -5  -2  151.78    8.10
   4  -5  -2  159.78    9.20
  -4   5   2  160.08    8.90
  -4   5   2  173.68    9.50
  -4   5   2  170.48    9.00
  -4   5   2  161.38    9.30
   3  -5  -2  505.35   25.50
   3  -5  -2  475.25   25.70
   3  -5  -2  508.95   25.40
  -3   5   2  494.65   25.30
  -3   5   2  511.55   25.50
  -3   5   2  532.15   25.90
   2  -5  -2  329.07   16.50
   2  -5  -2  328.37   17.20
   2  -5  -2  305.87   16.50
  -2   5   2  334.97   17.20
  -2   5   2  322.17   16.50
  -2   5   2  323.37   16.40
  -2   5   2  300.97   16.50
   1  -5  -2  161.68    9.70
   1  -5  -2  156.28    8.80
  -1   5   2  158.68    8.70
  -1   5   2  159.28    8.90
  -1   5   2  161.18    7.90
  -1   5   2  160.08    8.80
   0  -5  -2  148.59    8.10
   0  -5  -2  137.69    9.00
   0   5   2  141.19    7.10
   0   5   2  142.39    8.00
   0   5   2  144.99    7.90
  -1  -5  -2   93.89   28.30
  -1  -5  -2  125.09    7.20
  -1  -5  -2  124.39    8.20
  -1  -5  -2  120.19    6.10
   1   5   2  106.39    7.60
   1   5   2  132.59    7.10
   1   5   2  120.29    7.00
  -2  -5  -2   18.10   23.60
  -2  -5  -2   10.00    3.30
  -2  -5  -2   10.50    2.10
   2   5   2   16.00    2.80
   2   5   2   10.20    2.00
   2   5   2   16.90    2.50
  -3  -5  -2   51.09    5.50
  -3  -5  -2   52.79    4.70
  -3  -5  -2   42.00    5.40
  -3  -5  -2   45.50    3.30
   3   5   2   58.09    4.30
   3   5   2   63.49    5.10
  -4  -5  -2   50.49    4.80
  -4  -5  -2   45.50    5.90
  -4  -5  -2   43.10    5.40
   4   5   2   42.60    4.50
   4   5   2   40.40    3.70
  -5  -5  -2    7.10    3.60
  -5  -5  -2    1.80    2.70
  -5  -5  -2    5.80    3.80
   5   5   2   -1.90    2.40
   5   5   2    3.90    2.10
   5   5   2    1.70    3.20
  -6  -5  -2   15.10    4.00
  -6  -5  -2   15.20    4.50
  -6  -5  -2   19.30    5.00
   6   5   2   14.40    4.00
   6   5   2   10.90    3.50
   6   5   2   12.10    2.50
  10  -6  -2    5.90    2.80
  10  -6  -2    8.20    3.10
 -10   6   2    9.30    3.80
 -10   6   2    2.50    4.30
 -10   6   2    8.50    3.50
   9  -6  -2   -0.20    2.20
   9  -6  -2    0.50    2.70
   9  -6  -2    1.80    2.20
  -9   6   2   -0.90    2.50
  -9   6   2   -0.40    2.00
  -9   6   2   -1.90    3.50
   8  -6  -2   74.69    5.60
   8  -6  -2   77.39    5.50
  -8   6   2   69.59    6.50
  -8   6   2   64.19    6.80
  -8   6   2   67.69    6.00
   7  -6  -2   44.00    4.10
   7  -6  -2   38.90    3.40
   7  -6  -2   36.40    3.30
  -7   6   2   31.80    3.60
  -7   6   2   44.80    4.40
  -7   6   2   33.90    4.60
  -7   6   2   38.00    4.20
   6  -6  -2   54.89    4.50
   6  -6  -2   44.90    4.30
   6  -6  -2   41.80    3.30
  -6   6   2   50.59    4.60
  -6   6   2   43.70    4.90
  -6   6   2   44.50    4.50
  -6   6   2   44.70    4.10
   5  -6  -2   48.60    4.40
   5  -6  -2   46.70    4.10
  -5   6   2   44.60    4.10
  -5   6   2   48.50    4.30
  -5   6   2   42.40    4.50
   4  -6  -2   11.50    2.70
   4  -6  -2   13.70    2.30
  -4   6   2   12.80    2.10
  -4   6   2   11.90    2.50
   3  -6  -2  167.48    9.80
   3  -6  -2  170.88    9.20
  -3   6   2  159.38    9.10
  -3   6   2  145.89    8.90
   2  -6  -2    6.90    2.00
   2  -6  -2   10.80    3.00
  -2   6   2    6.90    1.90
  -2   6   2    9.40    2.30
  -2   6   2   10.30   11.70
   1  -6  -2  237.38   11.70
   1  -6  -2  199.08   12.40
  -1   6   2  213.48   11.50
  -1   6   2  201.88   10.70
   0  -6  -2   41.20   20.70
   0  -6  -2   86.49    6.80
   0  -6  -2   83.29    5.60
   0   6   2   87.99    5.40
   0   6   2   79.29    4.20
  -1  -6  -2   19.10    2.90
  -1  -6  -2    2.50   18.50
  -1  -6  -2   13.60    3.10
   1   6   2   17.00    2.50
   1   6   2   21.00    3.30
  -2  -6  -2  133.99   38.60
  -2  -6  -2  135.79    9.90
  -2  -6  -2  172.48    9.00
   2   6   2  139.29    9.00
   2   6   2  129.49    8.20
  -3  -6  -2    5.20    2.10
  -3  -6  -2    1.60    2.40
  -3  -6  -2    1.80    3.60
   3   6   2    4.80    2.80
   3   6   2    3.10    1.90
  -4  -6  -2   23.60    4.00
  -4  -6  -2   33.90    5.70
  -4  -6  -2   26.80    4.90
   4   6   2   24.00    3.10
   4   6   2   28.20    3.80
  -5  -6  -2   -1.10    3.00
  -5  -6  -2    3.60    4.00
  -5  -6  -2    8.60    4.80
   5   6   2    2.40    3.50
   5   6   2    8.60    3.20
   5   6   2    4.10    2.40
   9  -7  -2    9.20    2.80
   9  -7  -2    9.80    2.80
  -9   7   2   10.60    3.60
  -9   7   2    6.50    3.30
  -9   7   2    7.60    3.30
   8  -7  -2   13.00    2.50
   8  -7  -2   14.80    3.20
  -8   7   2   17.40    3.20
  -8   7   2   15.40    4.20
  -8   7   2   19.20    3.60
   7  -7  -2   25.10    3.50
   7  -7  -2   23.70    3.30
  -7   7   2   33.60    3.90
  -7   7   2   30.80    4.70
  -7   7   2   24.90    3.80
   6  -7  -2   14.40    3.20
   6  -7  -2   18.90    3.10
  -6   7   2   16.20    2.80
  -6   7   2   16.60    3.60
   5  -7  -2   21.80    4.20
   5  -7  -2   16.40    3.50
   5  -7  -2   18.70    3.00
  -5   7   2   10.80    2.40
  -5   7   2   17.60    2.80
   4  -7  -2   18.10    2.90
   4  -7  -2   21.20    3.60
  -4   7   2   16.30    2.80
  -4   7   2   17.00    3.10
   3  -7  -2  169.48   10.60
   3  -7  -2  171.78    9.80
  -3   7   2  171.98   10.00
  -3   7   2  148.69   21.30
  -3   7   2  178.58    9.90
   2  -7  -2   22.80    3.20
   2  -7  -2   22.30    4.10
  -2   7   2   21.60    3.00
  -2   7   2   23.10    3.40
   1  -7  -2   41.20    4.00
   1  -7  -2   39.30    4.90
  -1   7   2   37.60    2.70
  -1   7   2   33.80    3.60
   0  -7  -2   45.70    4.50
   0  -7  -2   38.20    5.00
   0   7   2   42.70    3.90
   0   7   2   41.50    2.50
  -1  -7  -2   63.89   32.70
  -1  -7  -2  140.79    8.40
  -1  -7  -2  122.19    9.10
   1   7   2  139.99    8.00
   1   7   2  128.79    8.50
  -2  -7  -2  116.49   10.00
  -2  -7  -2  145.69    8.90
   2   7   2  136.59    8.20
   2   7   2  127.89    8.60
  -3  -7  -2   21.80    5.30
  -3  -7  -2   25.20    4.70
  -3  -7  -2   20.00    3.70
   3   7   2   22.40    3.20
   3   7   2   24.10    3.90
  -4  -7  -2   52.79    7.30
  -4  -7  -2   60.29    6.10
  -4  -7  -2   59.69    6.80
   4   7   2   51.39    5.00
   9  -8  -2   11.20    3.10
  -9   8   2    9.50    3.60
  -9   8   2    4.40    3.90
  -9   8   2    8.20    3.60
   8  -8  -2    2.50    2.40
  -8   8   2    5.10    3.80
  -8   8   2    2.60    3.10
   7  -8  -2    8.60    2.90
   7  -8  -2   10.90    2.90
  -7   8   2   16.70    4.10
  -7   8   2   12.90    3.50
   6  -8  -2   12.70    3.20
   6  -8  -2   17.80    3.20
  -6   8   2   17.90    3.10
  -6   8   2   21.20    3.60
   5  -8  -2   15.20    3.70
   5  -8  -2   18.30    3.30
  -5   8   2   18.00    3.50
  -5   8   2   23.60    3.60
   4  -8  -2   23.10    4.30
   4  -8  -2   24.40    3.50
  -4   8   2   21.90    3.40
  -4   8   2   21.90   13.70
  -4   8   2   25.60    3.50
   3  -8  -2   -2.00    3.00
   3  -8  -2    0.40    2.20
  -3   8   2    2.90    2.20
  -3   8   2    4.70    2.70
   2  -8  -2   35.10    4.20
   2  -8  -2   28.70    5.10
  -2   8   2   39.20    3.80
  -2   8   2   33.90    2.70
  -2   8   2   28.00    4.00
   1  -8  -2   52.29    5.10
   1  -8  -2   53.99    6.20
  -1   8   2   48.10    3.30
  -1   8   2   64.79    5.20
   0  -8  -2   44.30    6.30
   0  -8  -2   53.39    5.20
   0   8   2   44.90    4.50
  -1  -8  -2    1.80    3.00
  -1  -8  -2    0.10    2.70
   1   8   2   -0.10    2.20
   1   8   2    3.60    2.80
  -2  -8  -2  106.89    7.80
  -2  -8  -2   83.09    9.20
  -2  -8  -2   94.89    7.90
   2   8   2   98.79    7.60
   2   8   2   97.19    7.10
  -3  -8  -2    9.30    5.00
  -3  -8  -2   11.80    4.10
  -3  -8  -2   11.80    3.50
   3   8   2   10.40    2.80
   3   8   2    9.40    2.80
   8  -9  -2   18.60    3.70
  -8   9   2   20.40    4.40
  -8   9   2   21.20    4.10
   7  -9  -2    2.50    2.80
   7  -9  -2    2.10    3.10
  -7   9   2    2.50    2.20
  -7   9   2    5.50    3.40
   6  -9  -2   20.40    3.60
   6  -9  -2   12.20    4.10
  -6   9   2   26.20    4.00
  -6   9   2   19.80    4.10
   5  -9  -2    0.90    2.00
   5  -9  -2    1.20    3.20
  -5   9   2    3.90    3.10
  -5   9   2    3.70    2.70
   4  -9  -2    9.40    2.60
   4  -9  -2    5.60    3.80
  -4   9   2    7.70    2.80
  -4   9   2    5.30    3.20
   3  -9  -2   20.80    4.80
   3  -9  -2   18.00    3.10
  -3   9   2   23.60    3.60
  -3   9   2   20.40    2.60
  -3   9   2   18.80    3.50
   2  -9  -2   12.00    4.40
   2  -9  -2   14.10    3.40
  -2   9   2   10.90    3.00
   1  -9  -2    3.40    2.80
   1  -9  -2   -0.80    2.80
  -1   9   2    0.60    2.40
   0  -9  -2   24.50    3.70
   0  -9  -2   10.90    5.10
   0   9   2   18.10    3.90
   0   9   2   19.30    3.50
  -1  -9  -2   17.40    3.50
  -1  -9  -2   13.00    5.30
   1   9   2   15.20    3.20
   1   9   2   17.80    4.20
  -2  -9  -2   69.69    8.50
  -2  -9  -2   73.19    7.50
  -2  -9  -2   71.99    7.00
   2   9   2   76.09    6.70
  -8  10   2    3.20    2.90
   7 -10  -2    3.50    3.80
   7 -10  -2    3.70    3.10
  -7  10   2    2.20    2.50
  -7  10   2    7.80    3.30
   6 -10  -2    7.50    4.30
   6 -10  -2    7.70    3.20
  -6  10   2   -1.20    3.30
  -6  10   2    6.90    3.20
   5 -10  -2   13.30    3.50
   5 -10  -2   10.70    4.20
  -5  10   2   15.60    3.60
  -5  10   2   14.50    4.00
   4 -10  -2   45.00    6.50
   4 -10  -2   46.90    5.20
  -4  10   2   53.19    5.40
  -4  10   2   40.80    5.50
   3 -10  -2   11.80    4.00
   3 -10  -2   17.80    3.70
  -3  10   2   11.40    3.40
  -3  10   2   14.30    3.40
   2 -10  -2   29.70    4.50
   2 -10  -2   25.90    5.70
  -2  10   2   27.50    4.00
   1 -10  -2   -2.60    2.90
   1 -10  -2   -2.60    4.10
  -1  10   2    1.20    2.70
   0 -10  -2    6.60    5.10
   0 -10  -2    6.30    3.50
   0  10   2    9.70    3.30
   0  10   2   10.70    3.80
   6 -11  -2   13.30    3.90
   6 -11  -2    8.10    4.60
  -6  11   2   10.40    4.40
  -6  11   2   11.00    3.80
   5 -11  -2   12.50    4.90
   5 -11  -2   11.60    3.80
  -5  11   2   13.00    3.70
  -5  11   2    5.50    3.10
   4 -11  -2   33.00    6.40
   4 -11  -2   44.80    5.60
  -4  11   2   40.80    5.00
  -4  11   2   38.40    5.70
   3 -11  -2    9.10    3.70
   3 -11  -2    9.50    5.10
  -3  11   2    7.40    3.20
   2 -11  -2    6.50    5.20
   2 -11  -2    7.20    3.80
  -2  11   2    3.10    3.20
  -3  12  -3   42.30    5.00
  -3  12  -3   36.30    5.40
  -3  12  -3   40.60    5.10
   3 -12   3   42.80    5.30
  -4  12  -3   70.39    7.40
  -4  12  -3   79.89    7.40
  -4  12  -3   94.69    7.70
   4 -12   3   84.19    7.20
  -5  12  -3   13.20    4.20
   5 -12   3   18.40    4.00
   0  11  -3   23.40    4.20
   0 -11   3   10.20    3.80
  -1  11  -3   51.69    5.70
  -1  11  -3   48.60    5.10
   1 -11   3   49.40    5.70
  -2  11  -3   53.39    5.60
  -2  11  -3   54.19    5.90
   2 -11   3   64.39    6.00
  -3  11  -3   21.70    3.70
  -3  11  -3   23.20    3.70
  -3  11  -3   27.40    4.50
   3 -11   3   20.00    3.70
  -4  11  -3   44.20    5.30
  -4  11  -3   49.60    5.50
  -4  11  -3   46.10    5.20
   4 -11   3   47.60    5.30
   4 -11   3   45.70    4.40
  -5  11  -3   19.90    4.00
  -5  11  -3   26.30    4.50
  -5  11  -3   26.90    4.00
   5 -11   3   27.00    4.10
   5 -11   3   27.00    3.90
   5 -11   3   36.30   17.70
  -6  11  -3   40.50    5.10
  -6  11  -3   48.80    5.60
   6 -11   3   41.50    5.10
   6 -11   3   35.80    4.60
  -7  11  -3    2.00    3.10
  -7  11  -3    0.90    2.60
   7 -11   3   -1.00    2.30
   7 -11   3    4.60    3.30
   7 -11   3    2.50    3.20
   2  10  -3   27.20    4.50
  -2 -10   3   38.70    5.50
   1  10  -3   41.70    4.70
   1  10  -3   43.10    5.10
  -1 -10   3   41.00    5.00
   0  10  -3   43.30    4.60
   0  10  -3   52.89    5.40
   0 -10   3   41.30    4.80
  -1  10  -3   35.10    4.50
  -1  10  -3   34.20    4.40
   1 -10   3   35.20    4.20
  -2  10  -3  103.09    7.40
  -2  10  -3   92.79    7.20
  -2  10  -3   98.19    7.00
   2 -10   3   98.09    7.20
  -3  10  -3   28.90    4.20
  -3  10  -3   28.20    4.10
  -3  10  -3   32.20    4.20
   3 -10   3   25.20    3.70
   3 -10   3   25.30    3.00
  -4  10  -3  151.48    9.80
  -4  10  -3  157.28   10.00
  -4  10  -3  154.68   10.10
   4 -10   3  155.78    9.10
   4 -10   3  160.28    9.50
  -5  10  -3   11.10    2.80
  -5  10  -3   11.70    3.20
   5 -10   3   14.80    2.90
   5 -10   3   16.50    3.40
   5 -10   3   10.60   15.30
  -6  10  -3  154.68    9.60
  -6  10  -3  144.29    9.60
   6 -10   3  122.89   22.80
   6 -10   3  140.09    9.20
   6 -10   3  144.39    8.70
  -7  10  -3    3.70    2.80
  -7  10  -3    1.70    2.50
   7 -10   3    3.80    3.10
   7 -10   3    1.10    3.70
   7 -10   3    2.60    2.20
  -8  10  -3   23.40    4.50
  -8  10  -3   26.20    4.30
   8 -10   3   20.90    4.40
   8 -10   3   19.70    5.00
   3   9  -3    9.50    3.30
   3   9  -3   15.60    3.60
  -3  -9   3   15.00    4.20
   2   9  -3   44.70    5.10
   2   9  -3   44.20    4.70
  -2  -9   3   41.50    5.40
   1   9  -3   49.90    4.90
   1   9  -3   44.20    4.80
  -1  -9   3   46.70    5.10
   0   9  -3   53.89    5.20
   0   9  -3   54.49    5.10
   0  -9   3   48.70    5.20
   0  -9   3   50.39    4.70
  -1   9  -3   32.50    3.80
  -1   9  -3   34.40    3.90
   1  -9   3   35.70    4.20
   1  -9   3   35.30    2.70
  -2   9  -3  244.88   14.20
  -2   9  -3  278.47   14.50
  -2   9  -3  258.37   14.40
   2  -9   3  260.17   14.30
   2  -9   3  253.67   13.40
  -3   9  -3   17.50    3.30
  -3   9  -3   15.40    2.90
  -3   9  -3   15.40    3.20
   3  -9   3   20.60    3.20
   3  -9   3   19.40    2.70
  -4   9  -3  186.38   11.40
  -4   9  -3  187.28   11.00
  -4   9  -3  192.58   11.10
   4  -9   3  195.28   10.80
   4  -9   3  182.98   10.60
  -5   9  -3   15.60    3.20
  -5   9  -3   16.70    3.20
   5  -9   3   15.60    3.10
   5  -9   3   13.90    2.60
   5  -9   3   19.70   16.70
  -6   9  -3   22.40    3.40
  -6   9  -3   21.90    3.50
  -6   9  -3   25.30    3.30
   6  -9   3   23.60    3.10
   6  -9   3   24.40   14.60
   6  -9   3   17.40    3.40
  -7   9  -3  160.08    9.90
  -7   9  -3  145.49    9.60
  -7   9  -3  164.98   10.10
   7  -9   3  172.78   11.00
   7  -9   3  159.48   10.20
   7  -9   3  152.28    8.90
  -8   9  -3   36.00    4.90
  -8   9  -3   36.60    4.50
  -8   9  -3   34.80    4.70
   8  -9   3   29.90    5.10
   8  -9   3   35.50    4.90
  -9   9  -3    4.60    3.30
  -9   9  -3    2.60    2.50
   9  -9   3    2.10    3.60
   9  -9   3   -0.80    3.60
   4   8  -3   31.60    4.40
  -4  -8   3   27.00    4.40
   3   8  -3   20.40    3.60
   3   8  -3   22.50    3.80
  -3  -8   3   19.70    4.10
  -3  -8   3   19.10    3.10
   2   8  -3   98.29    7.20
   2   8  -3   99.29    7.20
  -2  -8   3  109.89    7.80
   1   8  -3   74.09    4.60
   1   8  -3   77.19    6.00
   1   8  -3   78.79    6.00
  -1  -8   3   80.09    6.30
  -1  -8   3   81.29    5.10
   0   8  -3   17.10    2.70
   0   8  -3   19.40    3.00
   0  -8   3    8.10   10.20
   0  -8   3   19.40    2.00
   0  -8   3   24.80    3.20
  -1   8  -3    9.70    2.50
  -1   8  -3    7.40    2.40
  -1   8  -3   13.80    2.70
   1  -8   3   11.90    1.50
   1  -8   3    9.70    2.50
   1  -8   3    9.70    1.40
  -2   8  -3  370.86   19.90
  -2   8  -3  388.16   20.10
  -2   8  -3  383.06   19.80
   2  -8   3  383.46   19.20
   2  -8   3  370.86   19.80
   2  -8   3  384.56   18.80
  -3   8  -3   40.90    3.80
  -3   8  -3   40.60    3.90
  -3   8  -3   46.20    4.60
   3  -8   3   40.80    3.70
   3  -8   3   42.30    3.00
   3  -8   3   42.00    3.90
  -4   8  -3   96.49    6.70
  -4   8  -3  106.09    6.80
   4  -8   3  100.59    6.40
   4  -8   3  149.79   21.50
   4  -8   3  100.09    6.70
   4  -8   3  102.59    6.00
  -5   8  -3  135.79   35.00
  -5   8  -3  205.38   11.50
  -5   8  -3  198.48   11.00
  -5   8  -3  210.08   11.50
   5  -8   3  205.08   11.10
   5  -8   3  192.58   11.00
   5  -8   3  209.38   11.10
   5  -8   3  209.08   11.50
   5  -8   3  251.57   27.60
  -6   8  -3  149.59    8.70
  -6   8  -3  130.19    8.70
  -6   8  -3  161.68    9.10
   6  -8   3  142.69    9.00
   6  -8   3  133.99    8.10
   6  -8   3  143.19   22.80
   6  -8   3  144.79    9.70
  -7   8  -3   85.79    6.50
  -7   8  -3   80.29    6.20
   7  -8   3   83.29    6.80
   7  -8   3   92.89    7.30
  -8   8  -3   20.70    3.40
  -8   8  -3   26.40    4.00
   8  -8   3   20.10    4.10
   8  -8   3   22.70    4.40
  -9   8  -3   21.60    4.40
  -9   8  -3   23.70    4.20
  -9   8  -3   19.80    3.50
   9  -8   3   23.00    4.60
   9  -8   3   19.90    4.40
   9  -8   3   17.80    3.70
   5   7  -3   13.50    3.40
   5   7  -3   14.80    3.50
  -5  -7   3   11.90    3.60
  -5  -7   3    9.50    3.90
   4   7  -3   64.49    5.70
   4   7  -3   71.39    5.50
  -4  -7   3   63.09    6.50
  -4  -7   3   67.79    5.40
   3   7  -3   75.59    6.00
   3   7  -3   72.49    5.90
  -3  -7   3   70.59    5.40
  -3  -7   3   82.69    6.60
   2   7  -3  112.99    7.30
   2   7  -3  101.99    7.10
  -2  -7   3  117.29    7.70
   1   7  -3   24.60    3.20
   1   7  -3   23.20    2.10
   1   7  -3   19.60    3.00
  -1  -7   3   26.40    2.60
  -1  -7   3   21.30    3.30
   0   7  -3  284.07   15.00
   0   7  -3  291.47   15.10
   0  -7   3  294.97   15.20
   0  -7   3  264.77   14.10
  -1   7  -3  163.28    9.30
  -1   7  -3  167.98    9.30
  -1   7  -3  171.28    9.60
   1  -7   3  170.28    9.50
   1  -7   3  155.08    8.40
   1  -7   3  167.08    8.40
   1  -7   3  179.08   18.90
  -2   7  -3  316.67   16.10
  -2   7  -3  277.37   15.60
  -2   7  -3  284.97   15.70
   2  -7   3  295.07   14.80
   2  -7   3  318.07   15.70
   2  -7   3  306.77   15.30
  -3   7  -3   98.39    5.90
  -3   7  -3   90.19    5.50
  -3   7  -3   87.99    5.80
   3  -7   3   88.39    5.70
   3  -7   3   87.99    5.00
   3  -7   3   83.29    5.40
   3  -7   3   88.89    5.50
  -4   7  -3   16.90   19.70
  -4   7  -3   32.60    3.00
  -4   7  -3   27.00    2.60
  -4   7  -3   31.40    3.10
  -4   7  -3   26.60    3.20
   4  -7   3   26.80    3.10
   4  -7   3   22.80    2.50
   4  -7   3   25.70    2.70
   4  -7   3   26.60    2.80
   4  -7   3   41.10   15.10
  -5   7  -3  181.38    9.50
  -5   7  -3  167.68   41.90
  -5   7  -3  176.58    9.70
  -5   7  -3  170.68    9.70
  -5   7  -3  158.78   10.00
   5  -7   3  169.68   22.90
   5  -7   3  155.48    9.40
   5  -7   3  161.08    9.20
   5  -7   3  194.48   10.00
  -6   7  -3   38.30    3.80
  -6   7  -3   42.50    4.20
   6  -7   3   32.50    4.50
   6  -7   3   37.90    3.10
   6  -7   3   47.10   16.20
   6  -7   3   29.70    4.00
  -7   7  -3   59.99    5.20
  -7   7  -3   61.79    5.40
  -7   7  -3   61.09    5.30
   7  -7   3   59.49    5.80
   7  -7   3   55.79    5.50
   7  -7   3   65.49    5.20
  -8   7  -3    8.90    2.70
  -8   7  -3   12.50    3.40
  -8   7  -3   16.90    3.40
   8  -7   3   10.70    3.50
   8  -7   3    7.30    3.30
   8  -7   3   13.70    3.10
  -9   7  -3    7.60    3.60
  -9   7  -3    5.50    2.60
  -9   7  -3    5.80    3.00
   9  -7   3    9.40    3.20
   9  -7   3    6.40    3.00
   9  -7   3    3.30    3.30
   6   6  -3   27.60    4.60
   6   6  -3   34.20    4.40
  -6  -6   3   31.60    4.70
  -6  -6   3   37.30    5.20
   5   6  -3   36.40    4.50
   5   6  -3   40.80    4.60
  -5  -6   3   37.70    5.10
  -5  -6   3   42.10    4.90
   4   6  -3  111.89    7.70
   4   6  -3  124.59    8.10
  -4  -6   3  117.79    7.70
  -4  -6   3  113.09    8.30
   3   6  -3    6.30    2.40
   3   6  -3    4.90    2.20
  -3  -6   3    7.60    2.50
  -3  -6   3    6.10    2.70
   2   6  -3  121.49    7.50
   2   6  -3  124.09    7.50
  -2  -6   3  119.39    7.00
  -2  -6   3  119.29    7.70
   1   6  -3   85.49    4.60
   1   6  -3   89.19    5.70
   1   6  -3   84.99    5.70
  -1  -6   3   92.69    5.90
  -1  -6   3   82.09    5.40
  -1  -6   3   84.79    5.10
   0   6  -3  115.69    7.10
   0   6  -3  126.29    7.30
   0  -6   3  120.19    6.30
   0  -6   3  119.89    6.80
   0  -6   3  121.89    7.20
  -1   6  -3   39.50    3.70
  -1   6  -3   38.40    3.20
  -1   6  -3   33.90    3.20
   1  -6   3   32.20    3.00
   1  -6   3   37.10    2.10
   1  -6   3   35.10    2.60
   1  -6   3   27.20   13.60
   1  -6   3   33.80    2.00
   1  -6   3   38.30    3.20
   1  -6   3   34.60    3.00
  -2   6  -3   47.10    3.40
  -2   6  -3   41.90    4.00
  -2   6  -3   40.40    3.30
   2  -6   3   44.20    2.50
   2  -6   3   44.20    3.30
   2  -6   3   41.10    3.10
   2  -6   3   43.70    3.30
  -3   6  -3   40.60    3.50
  -3   6  -3   25.20   16.70
  -3   6  -3   47.40    4.20
  -3   6  -3   49.70    3.00
  -3   6  -3   42.90    3.40
  -3   6  -3   49.99    3.50
   3  -6   3   43.70    3.20
   3  -6   3   40.90    2.90
   3  -6   3   43.30    3.40
   3  -6   3   66.59   14.80
   3  -6   3   40.50    3.20
  -4   6  -3  203.58   10.40
  -4   6  -3  193.98   10.40
  -4   6  -3  190.68   10.10
  -4   6  -3  189.98   10.50
  -4   6  -3  172.48   34.40
  -4   6  -3  184.28   10.80
   4  -6   3  227.08   23.60
   4  -6   3  186.38   10.20
   4  -6   3  184.88   10.40
   4  -6   3  202.58   10.10
   4  -6   3  192.68   10.10
  -5   6  -3  240.48   12.30
  -5   6  -3  216.18   12.00
  -5   6  -3  232.48   12.20
  -5   6  -3  252.57   43.00
   5  -6   3  205.08   24.30
   5  -6   3  221.88   11.60
   5  -6   3  225.98   12.40
   5  -6   3  210.48   11.60
   5  -6   3  225.98   12.20
   5  -6   3  235.28   12.70
  -6   6  -3    4.10    1.80
  -6   6  -3    1.40    1.60
  -6   6  -3    6.60    2.20
  -6   6  -3   -0.10    1.80
   6  -6   3    2.60    1.30
   6  -6   3    4.20    1.30
   6  -6   3    0.60    2.20
   6  -6   3    4.60    2.70
   6  -6   3    5.10    2.10
  -7   6  -3    3.60    2.30
  -7   6  -3    3.30    2.50
  -7   6  -3    4.40    2.70
   7  -6   3    3.00    2.50
   7  -6   3    4.90    2.40
   7  -6   3    3.90    1.10
   7  -6   3    4.70    2.20
  -8   6  -3   27.80    3.90
  -8   6  -3   20.00    4.20
  -8   6  -3   19.00    3.30
   8  -6   3   21.00    3.70
   8  -6   3   14.50    3.30
   8  -6   3   18.50    3.80
  -9   6  -3   21.20    3.70
  -9   6  -3   18.50    4.20
  -9   6  -3   20.10    3.50
   9  -6   3   17.40    3.70
   9  -6   3   17.40    3.60
   9  -6   3   15.90    3.60
 -10   6  -3   57.29    6.90
 -10   6  -3   53.89    5.60
 -10   6  -3   51.79    5.80
  10  -6   3   49.30    6.00
  10  -6   3   51.49    5.50
  10  -6   3   54.69    6.20
   7   5  -3   40.70    4.70
   7   5  -3   22.70    4.60
   7   5  -3   34.30    5.10
  -7  -5   3   32.70    5.30
  -7  -5   3   35.90    5.00
   6   5  -3   22.10    3.50
   6   5  -3   15.10    3.50
  -6  -5   3   22.80    4.30
  -6  -5   3   20.60    4.50
   5   5  -3   57.39    5.50
   5   5  -3   58.29    4.70
  -5  -5   3   64.29    6.00
  -5  -5   3   52.39    5.40
   4   5  -3  186.98   10.70
   4   5  -3  188.48   10.80
  -4  -5   3  183.58   10.70
  -4  -5   3  184.78   11.20
   3   5  -3   32.90    3.60
   3   5  -3   30.70    3.50
  -3  -5   3   29.70    3.30
  -3  -5   3   32.40    3.80
   2   5  -3    6.80    1.00
   2   5  -3    7.70    1.70
   2   5  -3   10.20    2.30
  -2  -5   3   12.10    1.90
  -2  -5   3    8.90    1.80
  -2  -5   3    5.90    2.10
   1   5  -3  106.99    6.40
   1   5  -3  103.19    5.40
   1   5  -3   95.09    6.10
   1   5  -3  104.89    5.20
  -1  -5   3  112.59    6.40
  -1  -5   3  105.09    6.00
  -1  -5   3   95.99    6.10
   0   5  -3   67.89    4.50
   0   5  -3   73.39    4.70
   0   5  -3   67.79    5.20
   0   5  -3   68.09    3.90
   0   5  -3   67.39    4.30
   0   5  -3   66.49    4.40
   0  -5   3   63.99    4.10
   0  -5   3   73.99    4.60
   0  -5   3   68.89    3.70
   0  -5   3   69.89    4.40
  -1   5  -3  522.25   27.20
  -1   5  -3  565.54   27.50
  -1   5  -3  538.25   28.20
  -1   5  -3  566.54   27.40
  -1   5  -3  584.74   27.90
  -1   5  -3  532.65   27.50
   1  -5   3  542.05   27.40
   1  -5   3  584.04   27.40
   1  -5   3  548.55   27.30
   1  -5   3  557.34   27.50
  -2   5  -3  854.81   43.40
  -2   5  -3  894.41   42.80
  -2   5  -3  885.61   42.80
  -2   5  -3  873.81   42.80
   2  -5   3  860.91   42.70
   2  -5   3  845.12   42.70
   2  -5   3  837.72   42.30
   2  -5   3  885.51   42.80
   2  -5   3  926.71   42.70
  -3   5  -3  113.19    6.10
  -3   5  -3  101.79    6.00
  -3   5  -3   89.39   25.90
  -3   5  -3  106.19    6.60
  -3   5  -3  110.19    6.20
  -3   5  -3  105.59    5.80
  -3   5  -3  104.59    6.10
   3  -5   3  112.49    5.90
   3  -5   3  118.29   16.80
   3  -5   3  100.59    5.80
   3  -5   3  111.79    6.20
   3  -5   3  108.39    5.90
   3  -5   3   97.99    6.10
  -4   5  -3   46.90   23.40
  -4   5  -3   43.30    3.10
  -4   5  -3   44.30    3.20
  -4   5  -3   38.80    3.40
  -4   5  -3   42.10    3.60
  -4   5  -3   45.90    3.30
  -4   5  -3   37.90    3.00
   4  -5   3   39.50    2.80
   4  -5   3   43.80    3.40
   4  -5   3   37.60    3.60
   4  -5   3   42.70    2.80
   4  -5   3   42.20    3.50
   4  -5   3   24.50   13.00
  -5   5  -3   48.90    3.50
  -5   5  -3   37.20    3.70
  -5   5  -3   48.90    3.70
  -5   5  -3   45.30    3.50
  -5   5  -3   42.90    3.10
  -5   5  -3   45.20   27.90
   5  -5   3   43.60   15.70
   5  -5   3   51.19    4.10
   5  -5   3   42.90    2.80
   5  -5   3   48.60    4.20
   5  -5   3   45.70    4.30
   5  -5   3   41.50    2.80
   5  -5   3   44.50    3.80
  -6   5  -3   31.40    3.50
  -6   5  -3   34.20    2.80
  -6   5  -3   34.60    3.30
  -6   5  -3   29.50    3.50
  -6   5  -3   56.09   14.70
   6  -5   3   29.30    2.20
   6  -5   3   28.50    3.70
   6  -5   3   31.80    3.60
   6  -5   3   30.20    3.70
  -7   5  -3   77.49    6.10
  -7   5  -3   80.29    5.40
  -7   5  -3   73.99    4.20
  -7   5  -3  102.69   19.50
  -7   5  -3   72.99    4.10
  -7   5  -3   74.59    5.90
   7  -5   3   84.79    6.00
   7  -5   3   79.89    4.10
   7  -5   3   77.89    6.10
   7  -5   3   78.79    5.90
  -8   5  -3   42.50    4.30
  -8   5  -3   41.20    4.60
  -8   5  -3   37.10    4.90
   8  -5   3   37.40    4.50
   8  -5   3   34.00    4.40
   8  -5   3   34.30    4.40
  -9   5  -3   12.60    3.10
  -9   5  -3    9.70    4.00
  -9   5  -3   12.50    3.70
   9  -5   3   11.00    2.90
   9  -5   3   11.90    3.60
   9  -5   3   18.00    4.00
 -10   5  -3    5.60    3.50
 -10   5  -3    1.50    4.10
 -10   5  -3    4.60    3.00
  10  -5   3    6.50    4.00
  10  -5   3    7.50    3.60
   7   4  -3   56.79    5.50
   7   4  -3   57.19    5.70
   7   4  -3   60.79    6.00
  -7  -4   3   58.89    6.50
  -7  -4   3   57.99    6.10
   6   4  -3   27.10    3.60
   6   4  -3   26.30    3.90
  -6  -4   3   22.90    3.80
  -6  -4   3   26.60    4.30
   5   4  -3  188.78   10.90
   5   4  -3  182.48   10.70
  -5  -4   3  177.18   10.90
  -5  -4   3  198.18   11.40
   4   4  -3   39.90    4.00
   4   4  -3   31.10    3.50
  -4  -4   3   31.20    3.80
  -4  -4   3   38.80    3.90
   3   4  -3  358.26   19.30
   3   4  -3  400.86   19.60
  -3  -4   3  372.86   19.50
  -3  -4   3  370.56   19.20
   2   4  -3   -1.10    1.20
   2   4  -3    4.40    2.10
   2   4  -3   -0.10    1.50
  -2  -4   3    1.50    1.10
  -2  -4   3    0.00    1.20
  -2  -4   3    0.10    1.30
  -2  -4   3    1.60    1.60
   1   4  -3  510.35   27.50
   1   4  -3  526.35   27.40
   1   4  -3  535.45   28.00
   1   4  -3  557.44   26.90
   1   4  -3  599.84   27.50
  -1  -4   3  576.54   27.10
  -1  -4   3  540.55   27.30
  -1  -4   3  550.44   27.40
  -1  -4   3  556.84   27.50
  -1  -4   3  547.15   26.90
   0   4  -3  198.68   10.80
   0   4  -3  195.08    9.80
   0   4  -3  197.98   10.20
   0   4  -3  196.98   10.20
   0   4  -3  191.78    9.90
   0   4  -3  196.68   10.40
   0  -4   3  197.08   10.20
   0  -4   3  189.58    9.40
   0  -4   3  186.98   10.00
   0  -4   3  183.08    9.80
   0  -4   3  196.48   10.40
  -1   4  -3  389.66   17.60
  -1   4  -3  337.27   17.60
  -1   4  -3  347.57   18.00
  -1   4  -3  340.67   17.50
  -1   4  -3  339.77   17.60
  -1   4  -3  383.36   18.30
   1  -4   3  370.26   17.50
   1  -4   3  378.46   17.70
   1  -4   3  358.56   17.60
   1  -4   3  281.37   34.30
   1  -4   3  328.97   17.60
  -2   4  -3   10.40    1.40
  -2   4  -3   14.10    2.20
  -2   4  -3   10.60    1.50
  -2   4  -3   13.70    1.70
  -2   4  -3   11.20    1.40
  -2   4  -3   12.80    1.90
  -2   4  -3   12.70    1.10
  -2   4  -3    9.70   14.90
   2  -4   3   13.50    2.20
   2  -4   3   22.70   11.00
   2  -4   3    9.50    1.20
   2  -4   3   11.30    1.30
   2  -4   3    9.90    1.30
   2  -4   3   16.20   15.20
   2  -4   3    9.60    1.70
   2  -4   3    9.80    1.60
  -3   4  -3  125.09   31.70
  -3   4  -3  115.49    6.30
  -3   4  -3  120.79    6.30
  -3   4  -3  127.69    6.90
  -3   4  -3  124.99    6.70
  -3   4  -3  120.89    6.60
   3  -4   3  114.09    6.60
   3  -4   3  116.29    6.10
   3  -4   3  124.19    6.10
   3  -4   3  110.09    6.40
   3  -4   3  109.49    6.50
   3  -4   3  108.19    6.70
   3  -4   3  115.49   16.40
  -4   4  -3   75.09    4.70
  -4   4  -3  110.89   14.70
  -4   4  -3   70.09    4.10
  -4   4  -3   73.89    5.10
  -4   4  -3   57.59    4.40
  -4   4  -3   79.09   28.90
  -4   4  -3   81.39    4.70
  -4   4  -3   69.69    4.30
  -4   4  -3   74.39    4.50
   4  -4   3   70.79    3.80
   4  -4   3   59.79    4.40
   4  -4   3   68.79    4.70
   4  -4   3   66.09    4.90
   4  -4   3   74.69    4.60
   4  -4   3   76.09   15.90
   4  -4   3   71.89    3.70
   4  -4   3   68.79    4.40
  -5   4  -3  148.69    8.60
  -5   4  -3  167.68   18.90
  -5   4  -3  151.28    8.00
  -5   4  -3  148.59    8.70
  -5   4  -3  150.48    8.20
  -5   4  -3  145.59    8.10
   5  -4   3  151.58    8.70
   5  -4   3  148.89    8.60
   5  -4   3  156.78    8.80
   5  -4   3  150.58    8.70
   5  -4   3  151.98    7.50
  -6   4  -3   95.39    5.70
  -6   4  -3  108.19    7.00
  -6   4  -3  102.59    6.30
  -6   4  -3  109.29    6.80
  -6   4  -3  149.39   22.10
   6  -4   3  111.99    6.90
   6  -4   3  112.49    6.90
   6  -4   3  101.79    6.70
  -7   4  -3   37.30    4.60
  -7   4  -3   36.10    3.80
  -7   4  -3   34.10    3.40
   7  -4   3   35.80    3.90
   7  -4   3   37.30    4.00
   7  -4   3   39.70    4.40
  -8   4  -3   26.40    4.20
  -8   4  -3   21.10    3.40
  -8   4  -3   23.40    3.40
   8  -4   3   22.40    3.90
   8  -4   3   20.80    3.50
   8  -4   3   21.30    3.80
  -9   4  -3   14.10    3.70
  -9   4  -3   18.00    3.50
  -9   4  -3   21.30    4.20
   9  -4   3   15.80    3.80
   9  -4   3   22.00    3.80
   9  -4   3   14.10    2.90
 -10   4  -3    4.60    2.80
 -10   4  -3   10.00    3.20
 -10   4  -3    6.70    4.40
  10  -4   3    2.00    3.50
  10  -4   3    4.80    3.60
   8   3  -3   35.70    4.50
   8   3  -3   41.60    4.60
  -8  -3   3   47.60    5.00
  -8  -3   3   55.29    6.50
  -8  -3   3   49.99    6.00
   7   3  -3  146.89    9.30
   7   3  -3  145.09    9.30
   7   3  -3  162.18    9.70
  -7  -3   3  151.08   10.30
  -7  -3   3  147.09   10.20
   6   3  -3   49.60    4.60
   6   3  -3   57.49    5.30
   6   3  -3   61.99    4.80
  -6  -3   3   46.80    5.30
  -6  -3   3   45.60    5.20
   5   3  -3  543.05   26.80
   5   3  -3  520.55   26.50
  -5  -3   3  544.25   26.90
  -5  -3   3  493.35   25.70
  -5  -3   3  512.95   26.80
   4   3  -3    7.00    2.30
   4   3  -3    8.30    1.80
   4   3  -3    7.20    2.30
  -4  -3   3    5.80    2.10
  -4  -3   3    7.00    0.60
  -4  -3   3    6.40    2.20
  -4  -3   3    6.60    1.20
   3   3  -3  222.48   11.90
   3   3  -3  208.28   11.60
   3   3  -3  218.98   11.60
   3   3  -3  224.98   12.10
  -3  -3   3  215.08   11.80
  -3  -3   3  216.88   11.80
  -3  -3   3  212.78   10.90
  -3  -3   3  227.68   11.70
   2   3  -3   16.00    2.00
   2   3  -3   18.10    2.20
   2   3  -3   14.80    2.00
   2   3  -3   17.20    2.70
   2   3  -3   16.80    2.40
  -2  -3   3   15.90    2.10
  -2  -3   3   17.20    2.10
  -2  -3   3   16.30    2.00
  -2  -3   3   14.60    1.60
  -2  -3   3   19.40    2.10
   1   3  -3  565.04   28.30
   1   3  -3  558.34   27.40
   1   3  -3  585.44   27.80
   1   3  -3  577.74   28.00
   1   3  -3  557.14   27.80
  -1  -3   3  586.94   28.00
  -1  -3   3  555.44   27.40
  -1  -3   3  546.05   27.40
  -1  -3   3  568.64   27.70
  -1  -3   3  531.75   27.80
  -1  -3   3  546.45   27.60
   0   3  -3  366.76   17.20
   0   3  -3  387.96   17.40
   0   3  -3  326.57   17.40
   0   3  -3  328.87   17.60
   0   3  -3  338.17   17.40
   0   3  -3  338.97   17.20
   0  -3   3  369.16   17.20
   0  -3   3  369.36   17.60
   0  -3   3  337.37   17.30
   0  -3   3  327.27   17.40
   0  -3   3  350.06   17.70
  -1   3  -3  212.58   10.10
  -1   3  -3  214.18   10.10
  -1   3  -3  187.98   10.50
  -1   3  -3  210.98    9.80
  -1   3  -3  203.08   10.10
  -1   3  -3  205.28   10.20
   1  -3   3  134.39   28.60
   1  -3   3  186.18   10.00
   1  -3   3  213.48   10.50
   1  -3   3  195.78   10.20
   1  -3   3  196.08   10.10
   1  -3   3  192.18   10.00
  -2   3  -3  138.19   29.40
  -2   3  -3  146.39    7.70
  -2   3  -3  155.88    7.80
  -2   3  -3  150.58    8.10
  -2   3  -3  157.88    7.90
  -2   3  -3  151.48    8.00
   2  -3   3  168.18   16.40
   2  -3   3  193.68   31.70
   2  -3   3  143.69    7.50
   2  -3   3  152.68    8.00
   2  -3   3  147.29    7.90
   2  -3   3  153.68    7.50
   2  -3   3  147.19    8.30
  -3   3  -3  234.98   12.20
  -3   3  -3  266.87   38.60
  -3   3  -3  247.08   12.60
  -3   3  -3  235.88   12.50
  -3   3  -3  301.37   22.70
  -3   3  -3  240.68   12.60
  -3   3  -3  250.47   12.50
  -3   3  -3  237.68   12.10
  -3   3  -3  250.27   13.00
   3  -3   3  208.68   21.70
   3  -3   3  237.98   12.50
   3  -3   3  260.27   12.70
   3  -3   3  236.18   12.70
   3  -3   3  249.18   12.60
   3  -3   3  233.38   12.60
  -4   3  -3  198.28   10.00
  -4   3  -3  239.18   40.60
  -4   3  -3  199.08   10.40
  -4   3  -3  189.38   10.50
  -4   3  -3  203.58   20.60
  -4   3  -3  195.38   10.40
  -4   3  -3  214.98   10.80
  -4   3  -3  183.28    9.80
   4  -3   3  196.88   10.50
   4  -3   3  194.38   10.50
   4  -3   3  177.98   10.40
   4  -3   3  186.78   10.50
  -5   3  -3   68.69    4.00
  -5   3  -3   60.09    3.90
  -5   3  -3   80.19   16.90
  -5   3  -3   57.19    3.70
  -5   3  -3   69.39    4.90
  -5   3  -3   61.29    4.50
   5  -3   3   63.19    4.60
   5  -3   3   60.69    4.30
   5  -3   3   62.89    4.60
  -6   3  -3  205.98   11.30
  -6   3  -3  185.48   30.10
  -6   3  -3  191.68   11.30
  -6   3  -3  213.28   10.80
  -6   3  -3  200.98   10.50
  -6   3  -3  190.18   10.10
   6  -3   3  189.58   11.00
   6  -3   3  218.38   11.40
   6  -3   3  207.38   11.40
  -7   3  -3   31.10    4.50
  -7   3  -3   33.70    4.10
  -7   3  -3   33.90    3.40
   7  -3   3   42.90    4.40
   7  -3   3   39.30    4.30
   7  -3   3   42.30    4.10
  -8   3  -3   58.79    5.10
  -8   3  -3   62.79    6.40
  -8   3  -3   51.29    5.10
   8  -3   3   51.79    5.50
   8  -3   3   52.79    4.80
   8  -3   3   56.69    5.50
  -9   3  -3    4.60    3.10
  -9   3  -3    6.30    3.30
  -9   3  -3    5.40    2.80
   9  -3   3    4.60    3.30
   9  -3   3    7.30    3.20
 -10   3  -3    0.80    4.30
 -10   3  -3    5.50    3.80
   8   2  -3    7.70    2.70
   8   2  -3    7.90    2.70
  -8  -2   3    7.10    2.80
  -8  -2   3    9.80    4.20
  -8  -2   3    4.60    2.80
   7   2  -3  135.49    9.00
   7   2  -3  135.39    8.20
   7   2  -3  124.49    8.30
  -7  -2   3  117.49    9.00
  -7  -2   3  138.39    8.30
  -7  -2   3  140.99    9.50
   6   2  -3    6.70    2.10
   6   2  -3    7.20    2.30
   6   2  -3   13.70    3.00
   6   2  -3    9.00    2.60
  -6  -2   3    5.80    2.30
  -6  -2   3   10.70    3.20
  -6  -2   3    9.70    2.10
   5   2  -3  163.68    9.20
   5   2  -3  157.88    9.30
   5   2  -3  153.78    9.40
  -5  -2   3  160.78    9.50
  -5  -2   3  171.78    8.80
  -5  -2   3  151.68    9.60
   4   2  -3   91.69    5.80
   4   2  -3   91.29    5.70
   4   2  -3   84.19    5.70
   4   2  -3   84.69    5.40
  -4  -2   3   80.79    5.60
  -4  -2   3   82.19    5.70
   3   2  -3  182.38   10.20
   3   2  -3  188.98   10.10
   3   2  -3  186.08   10.30
   3   2  -3  188.58   10.10
   3   2  -3  191.58   10.20
  -3  -2   3  193.38   10.30
  -3  -2   3  172.98   10.10
  -3  -2   3  191.78   10.00
  -3  -2   3  205.48   10.20
   2   2  -3  169.18    9.20
   2   2  -3  158.18    9.00
   2   2  -3  192.68    9.20
   2   2  -3  165.88    9.30
  -2  -2   3  181.28    9.10
  -2  -2   3  196.68    9.50
  -2  -2   3  159.18    9.20
  -2  -2   3  162.18    9.00
  -2  -2   3  170.88    8.70
   1   2  -3  173.48    8.90
   1   2  -3  168.58    8.80
   1   2  -3  170.88    8.60
   1   2  -3  164.78    9.10
  -1  -2   3  176.98    8.80
  -1  -2   3  163.58    8.60
  -1  -2   3  169.18    8.70
  -1  -2   3  169.68    8.40
  -1  -2   3  171.98    8.90
  -1  -2   3  170.08    8.40
  -1  -2   3  167.98    9.00
   0   2  -3  403.96   19.70
   0   2  -3  407.56   19.30
   0   2  -3  387.86   19.60
   0   2  -3  394.46   19.50
   0   2  -3  390.76   19.50
   0   2  -3  429.26   19.90
   0   2  -3  393.76   19.30
   0   2  -3  376.46   19.50
   0  -2   3  377.86   19.50
   0  -2   3  390.66   19.70
   0  -2   3  397.66   19.30
   0  -2   3  415.66   19.50
   0  -2   3  421.76   19.90
   0  -2   3  376.06   19.40
  -1   2  -3   23.00    2.10
  -1   2  -3   15.00   18.50
  -1   2  -3   22.00    1.80
  -1   2  -3   25.90    1.50
  -1   2  -3   18.90    1.50
  -1   2  -3   22.50    2.30
  -1   2  -3   17.20    1.50
  -1   2  -3   25.50    2.20
   1  -2   3   20.40    2.10
   1  -2   3   13.30   17.80
   1  -2   3   22.70    1.80
   1  -2   3   18.40    1.60
   1  -2   3   23.50   10.30
  -2   2  -3  383.06   26.40
  -2   2  -3  340.87   16.80
  -2   2  -3  324.87   16.50
  -2   2  -3  342.47   16.60
  -2   2  -3  362.26   16.90
  -2   2  -3  348.77   16.70
  -2   2  -3  341.67   39.00
  -2   2  -3  312.67   16.60
  -2   2  -3  318.07   16.00
  -2   2  -3  310.87   16.60
  -2   2  -3  318.47   16.00
   2  -2   3  312.47   16.60
   2  -2   3  333.57   16.70
   2  -2   3  309.67   25.80
   2  -2   3  333.57   16.70
  -3   2  -3  706.43   59.29
  -3   2  -3  570.54   28.90
  -3   2  -3  607.04   28.80
  -3   2  -3  573.64   28.90
  -3   2  -3  615.44   28.30
  -3   2  -3  562.74   38.90
  -3   2  -3  559.34   29.00
  -3   2  -3  562.94   29.10
  -3   2  -3  586.74   28.80
  -3   2  -3  570.04   28.80
  -3   2  -3  552.14   28.20
   3  -2   3  614.64   29.00
   3  -2   3  540.35   28.80
   3  -2   3  592.94   28.90
  -4   2  -3  345.97   17.90
  -4   2  -3  297.17   28.50
  -4   2  -3  329.27   16.90
  -4   2  -3  365.96   17.80
  -4   2  -3  323.77   17.50
  -4   2  -3  345.47   17.50
  -4   2  -3  357.26   17.70
  -4   2  -3  331.07   17.00
  -4   2  -3  367.86   17.30
  -4   2  -3  338.17   17.50
   4  -2   3  349.77   17.60
   4  -2   3  327.07   17.50
   4  -2   3  338.57   17.80
   4  -2   3  366.56   17.60
  -5   2  -3   43.20    4.20
  -5   2  -3   43.00    3.50
  -5   2  -3   57.69   16.40
  -5   2  -3   45.00    3.10
  -5   2  -3   42.30    3.20
  -5   2  -3   46.50    3.50
  -5   2  -3   45.60    2.90
   5  -2   3   46.60    4.00
   5  -2   3   46.20    3.60
   5  -2   3   40.00    3.60
   5  -2   3   40.90    4.10
  -6   2  -3  266.27   13.40
  -6   2  -3  257.37   13.00
  -6   2  -3  264.17   14.40
  -6   2  -3  265.37   14.10
  -6   2  -3  262.87   13.50
   6  -2   3  263.67   14.40
   6  -2   3  246.08   13.70
   6  -2   3  241.48   13.90
   6  -2   3  263.37   14.00
  -7   2  -3   16.60    3.10
  -7   2  -3   13.70    3.00
  -7   2  -3   13.40    2.50
   7  -2   3   11.60    2.90
   7  -2   3   11.50    3.00
   7  -2   3   11.50    3.00
  -8   2  -3   15.20    3.60
  -8   2  -3   13.70    4.10
  -8   2  -3   17.00    2.90
   8  -2   3   10.10    3.20
   8  -2   3   18.00    3.70
   8  -2   3   13.80    3.50
  -9   2  -3   24.70    3.90
  -9   2  -3   26.50    4.50
  -9   2  -3   23.00    5.30
   9  -2   3   28.40    4.30
   9  -2   3   22.50    3.90
   9   1  -3   41.50    4.50
  -9  -1   3   41.70    4.90
  -9  -1   3   34.10    5.80
  -9  -1   3   28.40    5.10
   8   1  -3   23.80    3.60
   8   1  -3   25.20    3.20
  -8  -1   3   22.80    3.80
  -8  -1   3   24.00    4.30
  -8  -1   3   26.70    4.90
   7   1  -3  121.49    7.30
   7   1  -3  118.39    7.60
  -7  -1   3  114.79    8.30
  -7  -1   3  116.69    7.50
  -7  -1   3  131.29    8.40
   6   1  -3   33.60    3.00
   6   1  -3   31.80    3.30
   6   1  -3   31.10    3.40
   6   1  -3   33.60    4.00
  -6  -1   3   28.60    4.00
  -6  -1   3   31.50    3.30
  -6  -1   3   25.20    3.70
   5   1  -3  117.19    6.90
   5   1  -3  115.19    6.50
   5   1  -3  111.89    6.80
   5   1  -3  110.99    7.20
  -5  -1   3  106.59    7.00
  -5  -1   3  135.99    7.60
  -5  -1   3  117.29    6.70
   4   1  -3  115.89    7.30
   4   1  -3  136.59    7.20
   4   1  -3  128.19    7.20
   4   1  -3  116.29    7.00
   4   1  -3  116.69    7.30
  -4  -1   3  125.29    7.40
  -4  -1   3  122.59    7.30
  -4  -1   3  125.59    6.80
   3   1  -3  391.56   20.40
   3   1  -3  375.46   20.20
   3   1  -3  389.66   20.30
   3   1  -3  431.66   20.40
  -3  -1   3  403.16   20.20
  -3  -1   3  403.46   20.50
  -3  -1   3  390.46   19.90
  -3  -1   3  425.96   20.40
  -3  -1   3  425.46   20.50
   2   1  -3  363.26   19.40
   2   1  -3  404.16   19.40
   2   1  -3  417.46   19.40
   2   1  -3  389.76   19.00
   2   1  -3  388.66   19.60
  -2  -1   3  393.96   18.90
  -2  -1   3  371.56   19.50
  -2  -1   3  389.46   19.40
  -2  -1   3  363.86   19.40
  -2  -1   3  395.06   19.30
   1   1  -3  282.17   14.30
   1   1  -3  295.97   14.60
   1   1  -3  306.27   14.30
   1   1  -3  285.37   14.30
   1   1  -3  280.17   14.40
  -1  -1   3  272.97   14.20
  -1  -1   3  296.47   14.30
  -1  -1   3  305.47   14.40
  -1  -1   3  274.37   14.50
  -1  -1   3  279.07   14.30
   0   1  -3  418.06   21.10
   0   1  -3  403.86   21.10
   0   1  -3  496.75   20.90
   0   1  -3  405.56   21.20
   0   1  -3  425.66   20.90
   0   1  -3  411.76   21.20
   0  -1   3  435.06   20.80
   0  -1   3  419.66   21.10
   0  -1   3  432.96   21.20
   0  -1   3  425.06   20.80
   0  -1   3  435.16   21.20
  -1   1  -3  397.96   19.20
  -1   1  -3  425.86   27.00
  -1   1  -3  389.86   19.30
  -1   1  -3  418.66   19.20
  -1   1  -3  369.16   19.20
  -1   1  -3  394.06   19.20
  -1   1  -3  383.46   19.10
   1  -1   3  401.36   19.20
   1  -1   3  368.46   19.10
   1  -1   3  406.26   19.30
   1  -1   3  320.17   26.50
   1  -1   3  344.67   38.00
   1  -1   3  367.96   19.20
  -2   1  -3   78.89   23.90
  -2   1  -3   77.49    4.70
  -2   1  -3   85.69    4.70
  -2   1  -3   79.89    4.60
  -2   1  -3   75.79    4.50
  -2   1  -3   80.09   13.90
  -2   1  -3   80.69    5.10
   2  -1   3   85.39    4.90
   2  -1   3   73.79    4.70
   2  -1   3   76.59    5.00
   2  -1   3   79.79    4.70
   2  -1   3   74.69    4.60
   2  -1   3   77.19   14.50
  -3   1  -3   68.69   24.20
  -3   1  -3   49.50    3.50
  -3   1  -3   49.20    4.00
  -3   1  -3   44.40   14.20
  -3   1  -3   54.79    3.50
  -3   1  -3   50.69    2.80
  -3   1  -3   53.59    3.80
  -3   1  -3   55.09    3.60
  -3   1  -3   47.50    2.80
  -3   1  -3   52.89    4.10
  -3   1  -3   54.19    3.60
   3  -1   3   57.89    3.80
   3  -1   3   58.29    3.50
   3  -1   3   49.00    3.60
   3  -1   3   47.60    3.50
  -4   1  -3  860.21   42.10
  -4   1  -3  858.01   42.30
  -4   1  -3  815.92   41.30
  -4   1  -3  865.81   42.30
  -4   1  -3  849.52   41.70
  -4   1  -3  865.71   41.40
  -4   1  -3  897.21   41.90
   4  -1   3  811.32   42.00
   4  -1   3  848.02   42.20
   4  -1   3  852.71   41.90
   4  -1   3  834.02   41.90
  -5   1  -3   97.99    5.70
  -5   1  -3   99.19    5.70
  -5   1  -3   98.39    5.60
  -5   1  -3  108.89    6.00
  -5   1  -3  100.09    6.80
   5  -1   3   96.29    6.10
   5  -1   3  100.09    6.40
   5  -1   3   89.89    6.40
  -6   1  -3  116.09    6.80
  -6   1  -3   90.29    5.90
  -6   1  -3  101.39    6.30
  -6   1  -3  111.39    6.30
  -6   1  -3   98.79    7.00
   6  -1   3  105.99    6.70
   6  -1   3  109.39    6.70
   6  -1   3  105.79    7.10
  -7   1  -3    9.90    2.50
  -7   1  -3   19.20    3.60
  -7   1  -3   15.70    2.00
  -7   1  -3    9.60    3.10
   7  -1   3   19.70    3.20
   7  -1   3   15.60    3.00
   7  -1   3   17.00    3.40
  -8   1  -3   18.00    3.90
  -8   1  -3   28.90    4.30
  -8   1  -3   22.20    3.20
   8  -1   3   19.90    4.00
   8  -1   3   27.60    3.90
   8  -1   3   32.10    4.60
  -9   1  -3    9.80    3.30
  -9   1  -3   14.70    3.90
  -9   1  -3    8.50    3.80
   9  -1   3   13.60    4.10
   9  -1   3   14.30    3.60
   9  -1   3   16.70    3.70
   9   0  -3   55.19    5.50
  -9   0   3   51.79    5.30
  -9   0   3   57.79    6.40
  -9   0   3   66.49    7.30
   8   0  -3   30.00    3.80
   8   0  -3   27.00    3.10
  -8   0   3   20.50    4.10
  -8   0   3   27.40    3.70
  -8   0   3   28.80    4.50
   7   0  -3   42.30    4.10
   7   0  -3   37.70    3.40
  -7   0   3   37.00    5.00
  -7   0   3   34.30    4.30
  -7   0   3   37.30    4.00
   6   0  -3   82.79    5.60
   6   0  -3   71.69    4.80
   6   0  -3   75.69    5.30
   6   0  -3   81.89    4.80
  -6   0   3   71.29    5.80
  -6   0   3   74.89    6.10
  -6   0   3   84.89    5.20
   5   0  -3  271.77   14.30
   5   0  -3  266.37   14.20
   5   0  -3  272.27   13.80
   5   0  -3  291.87   14.80
  -5   0   3  288.07   14.20
  -5   0   3  250.27   14.70
  -5   0   3  285.87   14.70
   4   0  -3  202.38   10.30
   4   0  -3  228.38   11.30
   4   0  -3  211.98   11.20
   4   0  -3  206.78   10.90
   4   0  -3  211.78   11.00
  -4   0   3  211.28   11.30
  -4   0   3  209.38   11.20
  -4   0   3  197.18   11.20
  -4   0   3  202.88   10.90
  -4   0   3  188.38   10.50
   3   0  -3  811.82   40.50
   3   0  -3  799.52   40.60
   3   0  -3  805.72   40.60
   3   0  -3  896.51   39.90
   3   0  -3  836.92   40.70
  -3   0   3  911.41   40.50
  -3   0   3  767.32   40.60
  -3   0   3  850.91   40.60
  -3   0   3  749.33   40.60
  -3   0   3  819.62   40.10
   2   0  -3  169.38    8.20
   2   0  -3  162.58    8.70
   2   0  -3  176.68    8.70
   2   0  -3  161.68    8.60
   2   0  -3  154.88    8.70
  -2   0   3  170.48    8.50
  -2   0   3  170.58    8.70
  -2   0   3  155.38    8.80
  -2   0   3  169.58    8.80
  -2   0   3  160.68    8.20
   1   0  -3  258.47   13.20
   1   0  -3  246.98   13.40
   1   0  -3  270.37   13.10
   1   0  -3  280.27   13.50
   1   0  -3  241.58   13.30
   1   0  -3  279.97   13.60
  -1   0   3  295.57   19.80
  -1   0   3  279.87   13.40
  -1   0   3  283.77   13.10
  -1   0   3  262.07   13.50
  -1   0   3  268.07   13.30
   0   0  -3   68.79    3.60
   0   0  -3   70.29    3.80
   0   0  -3   72.39   10.10
   0   0  -3   74.59    3.50
   0   0  -3   70.89    3.80
   0   0   3   32.40   20.50
   0   0   3   53.49   11.30
   0   0   3   67.59    3.80
   0   0   3   65.19    4.20
   0   0   3   61.89    3.40
   0   0   3   62.99    3.80
   0   0   3   67.99    3.40
  -1   0  -3   34.60    2.30
  -1   0  -3   34.00    2.10
  -1   0  -3   28.80    2.90
  -1   0  -3   26.50    1.60
  -1   0  -3   33.70    3.00
  -1   0  -3   32.90    1.70
  -1   0  -3   28.10   18.30
  -1   0  -3   31.20    2.20
  -1   0  -3   27.00   12.20
  -1   0  -3   32.00    2.30
  -1   0  -3   31.80    2.20
   1   0   3   38.20   18.80
   1   0   3   33.40    2.60
   1   0   3   32.10    2.60
   1   0   3   30.20    2.40
  -2   0  -3   12.60    7.20
  -2   0  -3   19.80    1.30
  -2   0  -3   23.90    2.30
  -2   0  -3   23.00    2.50
  -2   0  -3   14.50    2.00
  -2   0  -3   22.00    2.00
  -2   0  -3   18.90    1.30
  -2   0  -3   16.80   22.30
  -2   0  -3   16.00    1.90
  -2   0  -3   18.50    2.00
   2   0   3   21.80    2.10
   2   0   3   25.20    2.50
   2   0   3   22.70    2.30
   2   0   3   25.90    2.80
  -3   0  -3   37.30    3.60
  -3   0  -3   41.30    2.90
  -3   0  -3   37.30    2.30
  -3   0  -3   39.30   25.50
  -3   0  -3   41.10    3.30
  -3   0  -3   33.50    2.90
  -3   0  -3   42.60    3.00
  -3   0  -3   36.80    3.20
  -3   0  -3   38.20    2.40
   3   0   3   33.40    2.90
   3   0   3   36.60    2.90
   3   0   3   40.80    3.10
   3   0   3   40.60    3.50
  -4   0  -3  549.35   27.50
  -4   0  -3  506.95   26.80
  -4   0  -3  544.15   26.50
  -4   0  -3  523.25   27.30
  -4   0  -3  531.05   26.90
  -4   0  -3  553.04   26.40
   4   0   3  571.74   27.10
   4   0   3  524.25   26.80
   4   0   3  532.65   27.20
  -5   0  -3  134.89    7.80
  -5   0  -3  126.49    7.70
  -5   0  -3  137.69    8.80
  -5   0  -3  138.99    7.60
  -5   0  -3  127.39    7.40
  -5   0  -3  133.29    7.80
   5   0   3  143.89    7.90
   5   0   3  143.89    8.50
   5   0   3  146.19    8.20
  -6   0  -3   81.29    5.30
  -6   0  -3   84.29    6.80
  -6   0  -3   80.49    5.40
  -6   0  -3   74.59    5.20
   6   0   3   84.19    5.90
   6   0   3   88.29    5.60
   6   0   3   70.39    5.80
  -7   0  -3   46.90    4.50
  -7   0  -3   56.59    4.30
  -7   0  -3   55.19    6.10
   7   0   3   57.29    5.70
   7   0   3   54.19    4.80
   7   0   3   56.89    5.50
  -8   0  -3   18.00    4.10
  -8   0  -3   15.80    3.00
  -8   0  -3   13.70    3.70
   8   0   3   14.30    3.10
   8   0   3   18.20    4.00
   8   0   3   11.40    3.60
  -9   0  -3   12.70    4.00
  -9   0  -3   12.90    4.20
  -9   0  -3   23.10    4.30
   9   0   3   16.60    4.20
   9   0   3   18.70    3.80
   9   0   3   17.00    4.20
   9  -1  -3   22.30    3.50
  -9   1   3   17.60    4.10
  -9   1   3   21.40    3.60
  -9   1   3   20.20    4.10
   8  -1  -3   13.50    2.90
  -8   1   3   10.20    3.30
  -8   1   3   14.70    2.90
  -8   1   3   13.00    4.10
   7  -1  -3  110.39    6.00
   7  -1  -3  105.09    6.00
   7  -1  -3  118.89    7.00
  -7   1   3  117.79    7.50
  -7   1   3  121.59    8.20
  -7   1   3  112.19    7.00
   6  -1  -3  466.35   24.00
   6  -1  -3  464.45   23.40
   6  -1  -3  494.05   24.60
  -6   1   3  509.15   24.40
  -6   1   3  492.55   25.00
  -6   1   3  488.55   25.10
   5  -1  -3  105.79    6.60
   5  -1  -3  112.99    7.00
  -5   1   3  111.99    6.40
  -5   1   3  121.19    7.30
  -5   1   3  107.99    6.90
   4  -1  -3   85.89    5.30
   4  -1  -3   85.99    5.20
   4  -1  -3   83.19    5.30
   4  -1  -3   83.89    5.00
  -4   1   3   79.69    5.00
  -4   1   3   83.39    5.60
  -4   1   3   81.99    5.30
  -4   1   3   85.19    4.90
  -4   1   3   79.99    5.20
   3  -1  -3 1233.28   61.39
   3  -1  -3 1160.58   61.39
   3  -1  -3 1336.67   61.49
   3  -1  -3 1264.07   61.09
   3  -1  -3 1297.37   61.29
  -3   1   3 1160.88   60.99
  -3   1   3 1229.08   61.39
  -3   1   3 1367.06   61.49
  -3   1   3 1258.07   61.29
  -3   1   3 1296.67   61.59
   2  -1  -3   50.99    3.50
   2  -1  -3   46.30    3.20
   2  -1  -3   49.80    3.70
   2  -1  -3   45.70    3.40
   2  -1  -3   50.79    3.30
   2  -1  -3   46.60    3.00
  -2   1   3   54.29    3.30
  -2   1   3   52.39    3.50
  -2   1   3   58.39    3.60
  -2   1   3   50.29    3.50
  -2   1   3   56.49    9.20
  -2   1   3   53.19    3.10
  -2   1   3   58.89    2.70
   1  -1  -3  154.78    7.60
   1  -1  -3  145.29    8.00
   1  -1  -3  131.69    7.70
   1  -1  -3  158.08    7.70
   1  -1  -3  146.39   14.80
   1  -1  -3  148.89    8.20
   1  -1  -3  151.88    7.70
  -1   1   3  149.69    7.70
  -1   1   3  151.38    7.70
  -1   1   3  160.28    7.60
  -1   1   3  154.48    7.60
  -1   1   3  139.59    7.60
  -1   1   3  125.29   14.80
   0  -1  -3   16.30    1.50
   0  -1  -3   15.00    1.40
   0  -1  -3   16.40    2.10
   0  -1  -3   16.70   10.20
   0  -1  -3   15.30    1.30
   0  -1  -3    5.60   18.80
   0  -1  -3   14.80    1.40
   0   1   3   18.90    1.70
   0   1   3   17.00    1.40
   0   1   3   21.30    2.20
   0   1   3   18.90   19.30
   0   1   3   15.70    1.30
   0   1   3   16.40    1.30
   0   1   3   17.60    2.30
  -1  -1  -3  136.09    7.60
  -1  -1  -3  132.59    6.90
  -1  -1  -3  139.39    7.20
  -1  -1  -3  137.39    6.90
  -1  -1  -3  140.59    7.20
  -1  -1  -3  124.79    6.90
  -1  -1  -3  128.39   32.80
  -1  -1  -3  128.39    7.80
   1   1   3  138.39    6.80
   1   1   3  138.49    6.70
   1   1   3  155.28   27.30
   1   1   3  142.59    7.80
   1   1   3  146.59    7.50
   1   1   3  133.59    7.20
   1   1   3  132.49    7.70
  -2  -1  -3   47.80    3.50
  -2  -1  -3   42.00    2.70
  -2  -1  -3   47.00    3.00
  -2  -1  -3   48.30    3.90
  -2  -1  -3   52.99   26.80
  -2  -1  -3   42.00    2.60
   2   1   3   42.10    3.40
   2   1   3   42.70    3.60
   2   1   3   51.19    3.30
   2   1   3   41.20    2.30
   2   1   3   45.50    3.20
  -3  -1  -3  263.37   43.10
  -3  -1  -3  219.38   11.90
  -3  -1  -3  220.48   12.00
  -3  -1  -3  215.48   11.00
  -3  -1  -3  225.28   11.80
  -3  -1  -3  200.58   11.00
  -3  -1  -3  227.48   11.20
  -3  -1  -3  211.88   11.00
  -3  -1  -3  221.98   11.40
   3   1   3  206.18   10.60
   3   1   3  214.38   11.70
   3   1   3  215.98   11.70
   3   1   3  229.38   11.90
   3   1   3  201.98   11.20
   3   1   3  227.08   11.50
   3   1   3  210.08   10.60
  -4  -1  -3  333.67   17.00
  -4  -1  -3  315.57   16.70
  -4  -1  -3  330.17   17.30
  -4  -1  -3  327.47   16.70
  -4  -1  -3  343.67   16.70
  -4  -1  -3  347.27   17.80
   4   1   3  331.97   16.20
   4   1   3  341.27   16.90
   4   1   3  313.67   17.20
   4   1   3  324.07   16.20
   4   1   3  338.67   17.20
   4   1   3  332.97   17.50
  -5  -1  -3   21.80    2.60
  -5  -1  -3   21.50    3.00
  -5  -1  -3   29.40    2.90
  -5  -1  -3   27.30    3.00
  -5  -1  -3   26.70    3.60
   5   1   3   27.70    3.10
   5   1   3   25.90    2.90
   5   1   3   22.40    1.70
   5   1   3   27.40    3.50
   5   1   3   25.30    3.10
  -6  -1  -3   21.60    3.00
  -6  -1  -3   20.00    3.60
  -6  -1  -3   22.50    3.20
   6   1   3   19.20    1.60
   6   1   3   22.90    3.50
   6   1   3   22.30    3.10
   6   1   3   20.40    3.60
   6   1   3   20.50    1.60
   6   1   3   18.90    2.80
  -7  -1  -3   -1.80    2.20
  -7  -1  -3    3.90    2.40
  -7  -1  -3    2.70    3.50
   7   1   3    3.90    2.20
   7   1   3    3.50    2.20
   7   1   3    2.50    2.80
  -8  -1  -3    8.50    3.20
  -8  -1  -3   11.70    3.60
   8   1   3   12.70    3.00
   8   1   3    9.20    3.50
   8   1   3    9.00    3.70
  10  -2  -3   30.80    4.80
  10  -2  -3   20.90    3.60
 -10   2   3   24.80    5.00
 -10   2   3   26.00    4.30
 -10   2   3   21.50    4.70
   9  -2  -3   34.40    4.20
  -9   2   3   41.00    4.60
  -9   2   3   46.20    6.30
  -9   2   3   37.10    4.70
   8  -2  -3   97.29    6.60
  -8   2   3   94.09    8.00
  -8   2   3  106.79    6.80
  -8   2   3   91.39    7.40
   7  -2  -3   33.20    2.40
   7  -2  -3   34.40    3.60
   7  -2  -3   35.10    2.30
   7  -2  -3   35.20    2.20
  -7   2   3   35.80    4.20
  -7   2   3   42.40    4.70
  -7   2   3   36.10    3.60
   6  -2  -3  192.08   10.00
   6  -2  -3  166.78    9.20
  -6   2   3  165.48   10.50
  -6   2   3  196.68   10.50
  -6   2   3  174.68    9.70
   5  -2  -3  231.78   11.60
   5  -2  -3  217.68   11.40
   5  -2  -3  234.28   11.30
  -5   2   3  204.38   11.70
  -5   2   3  198.68   11.30
  -5   2   3  204.68   12.00
   4  -2  -3   96.99    6.20
   4  -2  -3   93.39    6.20
   4  -2  -3   96.29    6.00
   4  -2  -3  102.99    6.20
   4  -2  -3  102.49    5.80
   4  -2  -3  100.59    6.00
  -4   2   3  118.89    6.50
  -4   2   3   98.99    5.20
  -4   2   3  106.39    5.80
  -4   2   3  107.49    6.10
  -4   2   3  134.99    9.90
  -4   2   3  109.09    6.60
  -4   2   3  103.39    6.30
   3  -2  -3  197.98   10.40
   3  -2  -3  218.98   10.60
   3  -2  -3  195.98   10.20
   3  -2  -3  196.58   10.70
   3  -2  -3  195.58   10.50
   3  -2  -3  184.88   10.50
  -3   2   3  196.08   10.50
  -3   2   3  197.38   10.40
  -3   2   3  211.58   10.20
  -3   2   3  194.58   10.50
  -3   2   3  193.08   10.60
   2  -2  -3  111.39    5.90
   2  -2  -3  114.49    6.30
   2  -2  -3  113.89    6.40
   2  -2  -3  119.29   11.60
   2  -2  -3  104.19    6.10
   2  -2  -3  113.69    6.00
   2  -2  -3  114.89    5.80
  -2   2   3  104.59    6.40
  -2   2   3  104.39    5.90
  -2   2   3  103.99    6.00
  -2   2   3  100.59    5.80
  -2   2   3   99.79    5.90
   1  -2  -3  855.41   39.30
   1  -2  -3  783.72   39.20
   1  -2  -3  779.22   39.00
   1  -2  -3  695.43   45.90
   1  -2  -3  862.21   39.00
   1  -2  -3  780.62   39.80
   1  -2  -3  835.12   39.30
  -1   2   3  785.42   39.20
  -1   2   3  786.62   39.20
  -1   2   3  839.42   39.10
  -1   2   3  783.42   39.30
  -1   2   3  842.72   39.80
   0  -2  -3   59.19    3.50
   0  -2  -3   27.60   20.70
   0  -2  -3   55.89    4.30
   0  -2  -3   63.29    3.30
   0  -2  -3   61.69    3.00
   0  -2  -3   60.59    3.50
   0  -2  -3   52.29    3.60
   0   2   3   55.39    3.00
   0   2   3   58.29    3.30
   0   2   3   53.39    3.30
   0   2   3   60.49    3.30
   0   2   3   49.40    4.20
   0   2   3   53.59   23.10
  -1  -2  -3  202.18    9.80
  -1  -2  -3  182.18    9.80
  -1  -2  -3  201.98    9.30
  -1  -2  -3  156.88   32.80
  -1  -2  -3  206.68   10.70
  -1  -2  -3  192.48    9.30
  -1  -2  -3  185.18    9.80
   1   2   3  209.88   10.70
   1   2   3  196.88    9.70
   1   2   3  186.48   10.50
   1   2   3  194.48    9.90
   1   2   3  167.48    9.60
  -2  -2  -3   32.20    3.00
  -2  -2  -3   30.20    2.40
  -2  -2  -3   32.40    2.40
  -2  -2  -3   39.60   23.80
  -2  -2  -3   26.60    2.00
  -2  -2  -3   32.70    2.40
   2   2   3   34.40    2.20
   2   2   3   29.60    3.00
   2   2   3   30.20    2.10
   2   2   3   38.30    3.60
   2   2   3   40.10    3.60
   2   2   3   34.00    2.60
  -3  -2  -3   76.09    4.30
  -3  -2  -3   73.79    4.50
  -3  -2  -3   80.19   31.60
  -3  -2  -3   75.49    4.60
  -3  -2  -3   82.89    5.40
  -3  -2  -3   80.39    4.50
  -3  -2  -3   64.69    5.30
   3   2   3   73.69    4.80
   3   2   3   72.29    4.20
   3   2   3   76.89    5.30
   3   2   3   74.49    4.20
   3   2   3   71.09    5.00
   3   2   3   83.19    5.40
  -4  -2  -3   14.70    2.00
  -4  -2  -3   19.70    2.90
  -4  -2  -3   21.20    2.50
  -4  -2  -3   15.20    2.10
  -4  -2  -3   18.40    3.00
   4   2   3   15.80    2.90
   4   2   3   16.40    2.10
   4   2   3   13.60    1.50
   4   2   3   17.20    2.40
   4   2   3   16.00    2.70
   4   2   3   13.60    1.50
   4   2   3   21.90    3.10
  -5  -2  -3    3.00    2.90
  -5  -2  -3    5.50    1.90
  -5  -2  -3    3.00    2.00
  -5  -2  -3    5.20    2.30
   5   2   3    4.30    1.10
   5   2   3    2.80    1.10
   5   2   3    6.30    2.20
   5   2   3    5.80    1.80
   5   2   3    4.10    2.20
  -6  -2  -3   56.29    5.00
  -6  -2  -3   53.69    6.20
  -6  -2  -3   59.59    5.00
   6   2   3   52.19    3.40
   6   2   3   58.89    5.40
   6   2   3   59.79    4.40
   6   2   3   57.09    5.80
  -7  -2  -3   38.40    4.70
  -7  -2  -3   47.00    5.80
  -7  -2  -3   44.60    4.90
   7   2   3   41.10    5.20
   7   2   3   42.20    4.00
   7   2   3   36.90    5.00
  -8  -2  -3   -3.40    3.90
  -8  -2  -3    0.70    2.90
   8   2   3    0.70    3.30
   8   2   3    4.20    3.40
  10  -3  -3   23.40    3.90
  10  -3  -3   19.30    4.00
 -10   3   3   22.50    4.10
 -10   3   3   24.00    4.80
 -10   3   3   17.90    5.10
   9  -3  -3   36.20    4.20
   9  -3  -3   29.60    4.40
  -9   3   3   38.50    4.40
  -9   3   3   40.00    6.00
  -9   3   3   42.30    5.00
   8  -3  -3  100.19    6.70
   8  -3  -3   98.99    5.60
  -8   3   3   91.29    8.00
  -8   3   3   95.39    6.70
  -8   3   3  101.79    7.50
   7  -3  -3    4.00    1.00
   7  -3  -3    9.10    2.20
  -7   3   3    4.20    2.10
  -7   3   3    2.40    2.40
  -7   3   3    6.30    3.20
   6  -3  -3  275.67   14.00
   6  -3  -3  246.78   13.40
  -6   3   3  266.97   13.80
  -6   3   3  263.47   13.10
  -6   3   3  252.17   14.30
  -6   3   3  269.77   14.60
   5  -3  -3   62.89    4.20
   5  -3  -3   54.49    3.90
   5  -3  -3   60.59    4.00
  -5   3   3   58.59    4.00
  -5   3   3   53.29    3.30
  -5   3   3   60.49    4.50
  -5   3   3   55.59    4.40
   4  -3  -3   67.09    4.60
   4  -3  -3   69.99    4.50
   4  -3  -3   75.09    4.50
   4  -3  -3   69.29    4.20
   4  -3  -3   63.49    5.00
  -4   3   3   65.09    4.20
  -4   3   3   67.29    4.60
  -4   3   3   63.19    4.90
  -4   3   3   60.29    4.50
  -4   3   3   65.19    4.10
   3  -3  -3 1222.78   58.09
   3  -3  -3 1207.08   58.09
   3  -3  -3 1215.68   57.89
   3  -3  -3 1186.38   57.69
   3  -3  -3 1177.38   57.99
  -3   3   3 1205.08   57.79
  -3   3   3 1117.99   57.69
  -3   3   3 1149.98   57.89
  -3   3   3 1204.48   58.09
  -3   3   3 1231.38   58.19
  -3   3   3 1114.59   57.59
   2  -3  -3  482.15   22.80
   2  -3  -3  423.06   22.30
   2  -3  -3  449.95   22.20
   2  -3  -3  405.86   22.00
   2  -3  -3  431.26   22.20
  -2   3   3  448.96   22.60
  -2   3   3  494.05   22.20
  -2   3   3  442.26   22.10
  -2   3   3  427.36   21.90
   1  -3  -3  400.66   19.70
   1  -3  -3  345.47   19.60
   1  -3  -3  424.96   20.40
  -1   3   3  399.56   19.70
  -1   3   3  392.76   19.80
  -1   3   3  381.76   20.30
  -1   3   3  391.06   19.60
  -1   3   3  414.96   19.30
   0  -3  -3   64.49    3.90
   0  -3  -3   60.79    3.80
   0  -3  -3   58.19    4.40
   0  -3  -3   33.10   20.60
   0  -3  -3   66.69    4.10
   0   3   3   66.79    3.80
   0   3   3   66.09   22.60
   0   3   3   64.79    4.50
   0   3   3   57.79    3.50
   0   3   3   56.49    3.70
  -1  -3  -3   15.10    2.70
  -1  -3  -3   14.50    1.60
  -1  -3  -3   17.30    1.90
  -1  -3  -3    8.80   17.70
  -1  -3  -3   13.10    1.80
   1   3   3   12.80    2.60
   1   3   3   19.60    1.80
   1   3   3   14.20    2.60
   1   3   3   17.60    1.80
   1   3   3   18.50    1.80
  -2  -3  -3  106.09    5.70
  -2  -3  -3  119.19    6.10
  -2  -3  -3  114.69   33.20
  -2  -3  -3  117.89    6.50
  -2  -3  -3  113.09    7.20
  -2  -3  -3  103.19    6.30
   2   3   3  122.59    7.20
   2   3   3  110.09    6.10
   2   3   3  120.79    6.20
   2   3   3  104.39    7.10
   2   3   3  115.59    6.40
  -3  -3  -3   94.49    5.60
  -3  -3  -3   89.59    5.10
  -3  -3  -3   85.69    4.90
  -3  -3  -3   92.79    6.20
   3   3   3   88.69    5.70
   3   3   3   92.69    5.20
   3   3   3  100.89    6.30
   3   3   3   87.29    6.20
   3   3   3   88.29    5.10
  -4  -3  -3   85.09    6.20
  -4  -3  -3   78.89    5.40
  -4  -3  -3   75.59    6.50
  -4  -3  -3   78.09    4.90
   4   3   3   87.39    6.20
   4   3   3   81.59    4.80
   4   3   3   80.19    4.80
   4   3   3   78.69    5.60
   4   3   3   78.29    5.90
  -5  -3  -3    6.30    2.80
  -5  -3  -3   -0.50    2.00
  -5  -3  -3    7.80    2.90
  -5  -3  -3   14.80    2.90
   5   3   3   11.60    2.70
   5   3   3    9.30    2.70
   5   3   3    9.40    1.50
  -6  -3  -3    1.80    3.20
  -6  -3  -3   -0.20    2.60
  -6  -3  -3    1.50    2.70
   6   3   3    4.60    2.90
   6   3   3    1.70    1.20
   6   3   3    4.50    3.00
  -7  -3  -3   11.70    4.60
  -7  -3  -3    8.20    3.10
  -7  -3  -3    5.80    4.30
   7   3   3    4.50    3.30
   7   3   3    8.20    3.60
  10  -4  -3    9.60    3.00
  10  -4  -3    8.00    3.60
 -10   4   3   10.20    3.40
 -10   4   3   11.80    4.80
 -10   4   3    8.90    3.90
   9  -4  -3   15.40    3.20
   9  -4  -3   18.70    3.30
  -9   4   3   13.90    3.80
  -9   4   3    9.40    3.20
  -9   4   3   18.60    4.70
   8  -4  -3  199.08   10.80
   8  -4  -3  178.28   10.70
  -8   4   3  172.58   11.30
  -8   4   3  188.98   10.80
  -8   4   3  182.18   11.50
   7  -4  -3  165.78    9.20
   7  -4  -3  158.48    8.80
  -7   4   3  150.48    8.10
  -7   4   3  149.99    9.20
  -7   4   3  154.48   10.00
  -7   4   3  138.39    8.80
   6  -4  -3  154.58    9.10
   6  -4  -3  167.18    9.00
  -6   4   3  178.68    9.80
  -6   4   3  155.78    9.50
  -6   4   3  153.98    9.00
  -6   4   3  155.98    8.40
   5  -4  -3  246.88   12.60
   5  -4  -3  228.68   12.50
  -5   4   3  222.28   12.70
  -5   4   3  252.07   12.50
  -5   4   3  217.68   12.90
   4  -4  -3   31.40    3.20
   4  -4  -3   27.40    2.70
   4  -4  -3   31.70    3.00
  -4   4   3   29.00    3.00
  -4   4   3   30.40    3.40
  -4   4   3   26.20    3.00
  -4   4   3   28.20    3.10
  -4   4   3   29.50    2.80
   3  -4  -3  914.61   41.60
   3  -4  -3  915.51   42.10
   3  -4  -3  856.31   41.40
   3  -4  -3  807.92   41.70
   3  -4  -3  796.32   41.90
   3  -4  -3  852.01   40.80
  -3   4   3  804.72   41.30
  -3   4   3  831.72   41.50
  -3   4   3  812.82   41.90
  -3   4   3  842.72   41.40
   2  -4  -3  328.07   17.10
   2  -4  -3  333.37   17.70
   2  -4  -3  333.87   17.30
   2  -4  -3  339.77   17.10
   2  -4  -3  319.07   16.90
  -2   4   3  324.47   17.10
  -2   4   3  345.07   16.70
  -2   4   3  332.97   17.10
  -2   4   3  341.37   17.00
  -2   4   3  341.47   17.60
   1  -4  -3  138.49    8.60
   1  -4  -3  144.79    7.80
   1  -4  -3  142.79    7.80
  -1   4   3  125.29   27.60
  -1   4   3  142.79    7.70
  -1   4   3  131.19    7.80
  -1   4   3  146.29    7.80
  -1   4   3  143.79    8.50
  -1   4   3  145.09    7.20
   0  -4  -3    5.40   17.40
   0  -4  -3   11.80    2.70
   0  -4  -3   12.00    1.70
   0  -4  -3   13.10    1.90
   0  -4  -3   16.80    2.20
   0   4   3   13.60    1.40
   0   4   3   16.60    1.90
   0   4   3   11.90    1.70
  -1  -4  -3   51.49    4.60
  -1  -4  -3   58.59   25.80
  -1  -4  -3   57.79    3.50
  -1  -4  -3   56.19    4.00
   1   4   3   58.29    3.70
   1   4   3   56.79    4.80
   1   4   3   62.29    3.90
   1   4   3   61.99    3.70
  -2  -4  -3    3.70    1.10
  -2  -4  -3    2.00    2.50
  -2  -4  -3    1.60   19.50
  -2  -4  -3   -0.40    1.40
   2   4   3    6.10    2.60
   2   4   3    3.90    1.40
   2   4   3    1.60    1.20
   2   4   3    3.60    1.50
  -3  -4  -3   72.99    5.10
  -3  -4  -3   73.39    6.10
  -3  -4  -3   66.89    4.00
   3   4   3   74.19    4.60
   3   4   3   67.59    5.30
   3   4   3   71.39    4.50
   3   4   3   78.19    5.70
   3   4   3   71.19    4.90
  -4  -4  -3   23.70    4.30
  -4  -4  -3   24.10    4.20
  -4  -4  -3   15.40    2.00
  -4  -4  -3   24.50    3.20
   4   4   3   16.10    2.30
   4   4   3   14.40    3.40
   4   4   3   24.20    3.50
   4   4   3   16.90    2.80
  -5  -4  -3    6.10    3.20
  -5  -4  -3    4.10    2.50
  -5  -4  -3    0.70    3.40
   5   4   3    0.70    2.50
   5   4   3    1.30    3.00
   5   4   3    1.70    1.30
  -6  -4  -3    1.80    3.80
  -6  -4  -3   -2.50    2.50
  -6  -4  -3    2.00    3.40
   6   4   3   -1.70    2.60
   6   4   3   -2.90    2.20
  -7  -4  -3    3.40    3.50
  -7  -4  -3    3.00    4.40
   7   4   3    4.10    3.40
   7   4   3    4.80    3.80
  10  -5  -3   12.60    3.10
  10  -5  -3   15.00    3.50
 -10   5   3   11.10    3.50
 -10   5   3    7.90    3.70
 -10   5   3   15.40    5.00
   9  -5  -3   57.79    5.30
   9  -5  -3   62.29    5.50
  -9   5   3   54.49    6.80
  -9   5   3   55.99    5.30
  -9   5   3   70.79    6.60
   8  -5  -3   78.89    5.90
   8  -5  -3   77.39    5.70
  -8   5   3   75.89    7.40
  -8   5   3   75.39    5.50
  -8   5   3   68.19    6.50
   7  -5  -3  135.69    8.60
   7  -5  -3  148.29    8.20
  -7   5   3  148.19    8.90
  -7   5   3  131.99    9.00
  -7   5   3  140.69    8.60
   6  -5  -3   31.20    3.20
   6  -5  -3   25.90    3.10
   6  -5  -3   25.30    2.50
  -6   5   3   26.70    3.50
  -6   5   3   25.90    3.00
  -6   5   3   28.60    4.00
   5  -5  -3  268.07   14.40
   5  -5  -3  318.97   15.50
   5  -5  -3  274.57   15.20
  -5   5   3  298.27   15.80
  -5   5   3  306.17   15.20
  -5   5   3  271.37   15.30
  -5   5   3  290.87   15.50
   4  -5  -3   78.89    4.00
   4  -5  -3   84.29    5.70
   4  -5  -3   81.19    5.10
   4  -5  -3   79.49    7.20
  -4   5   3   73.19    5.00
  -4   5   3   75.49    5.00
  -4   5   3   70.09    5.60
   3  -5  -3  355.06   18.30
   3  -5  -3  353.76   18.80
  -3   5   3  350.56   18.40
  -3   5   3  351.06   18.80
  -3   5   3  357.06   18.30
  -3   5   3  363.86   18.00
   2  -5  -3   54.19    4.80
   2  -5  -3   41.90    3.40
  -2   5   3   50.49    3.20
  -2   5   3   55.49    3.90
  -2   5   3   49.70    3.70
  -2   5   3   39.10   20.30
   1  -5  -3  189.18   10.90
   1  -5  -3  167.28    9.70
  -1   5   3  206.88   31.80
  -1   5   3  175.38    9.00
  -1   5   3  175.78    9.70
  -1   5   3  188.88    9.80
   0  -5  -3   27.00   21.00
   0  -5  -3   70.89    5.80
   0  -5  -3   65.39    4.60
   0   5   3   64.89    4.40
   0   5   3   69.09    4.30
   0   5   3   65.79    3.80
  -1  -5  -3   68.09    5.60
  -1  -5  -3   50.79   27.90
  -1  -5  -3   66.59    3.90
  -1  -5  -3   70.99    4.80
   1   5   3   62.39    4.20
   1   5   3   64.69    5.40
   1   5   3   69.49    4.50
   1   5   3   71.89    4.40
  -2  -5  -3   80.59    5.30
  -2  -5  -3   72.79    6.00
  -2  -5  -3   70.09    4.10
   2   5   3   67.79    4.80
   2   5   3   69.59    5.70
   2   5   3   73.09    4.80
   2   5   3   75.99    4.90
  -3  -5  -3   33.40    5.00
  -3  -5  -3   40.00    4.10
   3   5   3   46.00    4.90
   3   5   3   38.80    3.50
   3   5   3   31.00    3.50
   3   5   3   41.00    3.70
  -4  -5  -3   35.50    4.10
  -4  -5  -3   32.60    5.10
  -4  -5  -3   32.70    5.20
   4   5   3   31.70    4.30
   4   5   3   36.10    3.30
   4   5   3   30.50    4.70
   4   5   3   36.00    4.10
  -5  -5  -3   70.99    7.10
  -5  -5  -3   67.19    7.20
  -5  -5  -3   64.79    5.90
   5   5   3   63.89    6.90
   5   5   3   50.99    5.60
   5   5   3   73.89    4.70
  -6  -5  -3   -1.00    2.80
  -6  -5  -3    3.00    4.30
  -6  -5  -3    3.20    3.20
   6   5   3   -1.90    3.40
   6   5   3    2.30    3.00
  10  -6  -3   11.10    3.70
 -10   6   3    5.50    3.80
 -10   6   3    8.90    3.50
 -10   6   3    4.70    4.50
   9  -6  -3   72.09    6.00
   9  -6  -3   71.69    5.80
  -9   6   3   72.89    7.60
  -9   6   3   70.69    6.90
  -9   6   3   79.69    6.60
   8  -6  -3   -0.20    2.30
   8  -6  -3    1.50    1.90
  -8   6   3    7.40    3.70
  -8   6   3    3.60    2.80
  -8   6   3    2.20    2.60
   7  -6  -3   94.69    5.60
   7  -6  -3   89.09    6.40
   7  -6  -3   88.29    6.00
  -7   6   3   94.09    6.60
  -7   6   3   96.69    7.50
  -7   6   3   89.09    6.50
   6  -6  -3    5.40    2.40
   6  -6  -3    1.80    1.30
   6  -6  -3    3.70    2.10
  -6   6   3    0.00    2.70
  -6   6   3    2.10    2.30
  -6   6   3    1.90    2.30
  -6   6   3    3.00    2.20
   5  -6  -3   69.39    4.70
   5  -6  -3   61.29    5.20
  -5   6   3   62.19    5.20
   4  -6  -3    1.30    2.20
   4  -6  -3    1.60    1.50
  -4   6   3    2.40    1.90
  -4   6   3    0.40    1.50
  -4   6   3    1.40    1.80
   3  -6  -3  199.48   11.50
   3  -6  -3  182.28   10.60
  -3   6   3  190.18   10.70
  -3   6   3  171.98   10.60
  -3   6   3  205.28   10.20
   2  -6  -3  128.29    8.60
   2  -6  -3  130.39    7.70
  -2   6   3  125.59    7.80
  -2   6   3  126.59   25.90
  -2   6   3  120.29    7.50
  -2   6   3  129.49    6.80
   1  -6  -3  282.37   14.70
   1  -6  -3  272.77   15.70
  -1   6   3  293.07   13.60
  -1   6   3  275.07   13.50
  -1   6   3  259.07   13.50
  -1   6   3  268.17   14.50
   0  -6  -3   61.49   26.90
   0  -6  -3  107.89    6.90
   0  -6  -3  112.59    8.20
   0   6   3  112.09    6.70
   0   6   3  114.69    6.00
  -1  -6  -3   11.60    3.70
  -1  -6  -3   10.10    2.50
  -1  -6  -3    0.10   23.80
  -1  -6  -3    9.60    1.30
   1   6   3   10.40    2.10
   1   6   3    6.10    2.90
   1   6   3    6.20    1.70
  -2  -6  -3   33.70    4.00
  -2  -6  -3   41.70    5.60
   2   6   3   31.10    3.40
   2   6   3   31.40    3.50
   2   6   3   37.60    4.70
  -3  -6  -3  112.49    9.30
  -3  -6  -3  125.49    8.10
  -3  -6  -3  127.19    9.20
   3   6   3  127.99    7.40
   3   6   3  113.09    8.40
   3   6   3  111.39    7.60
  -4  -6  -3   -7.50    3.00
  -4  -6  -3    7.50    4.40
  -4  -6  -3    2.80    2.80
   4   6   3    0.80    2.40
   4   6   3   -1.50    1.80
   4   6   3    1.10    2.50
   4   6   3   -0.50    3.00
  -5  -6  -3   15.20    4.80
  -5  -6  -3   22.90    4.20
  -5  -6  -3   22.10    5.70
   5   6   3   17.40    3.70
   5   6   3   14.90    4.60
   5   6   3   15.60    2.70
   9  -7  -3   16.10    3.40
  -9   7   3   13.10    3.70
  -9   7   3   20.30    4.20
  -9   7   3   10.90    4.50
   8  -7  -3    1.10    2.40
  -8   7   3   -0.10    2.80
  -8   7   3   -1.80    2.00
  -8   7   3   -0.20    3.60
   7  -7  -3   50.19    4.80
   7  -7  -3   43.10    3.60
   7  -7  -3   45.80    4.70
  -7   7   3   45.00    5.70
  -7   7   3   47.10    5.10
  -7   7   3   44.00    4.80
   6  -7  -3   42.10    4.10
   6  -7  -3   30.10    3.90
  -6   7   3   37.40    4.40
   5  -7  -3   87.29    6.50
   5  -7  -3  102.69    7.20
  -5   7   3   98.09    6.80
  -5   7   3   91.49    6.60
   4  -7  -3   61.79    4.90
   4  -7  -3   55.59    5.70
  -4   7   3   27.00   21.50
  -4   7   3   62.39    5.20
  -4   7   3   55.59    4.20
  -4   7   3   54.59    5.00
   3  -7  -3  100.29    7.50
   3  -7  -3   95.79    6.20
  -3   7   3   98.79    6.50
  -3   7   3   96.59    5.70
  -3   7   3   83.59    6.60
  -3   7   3   77.49   23.60
   2  -7  -3  173.28   11.10
   2  -7  -3  162.48   10.30
  -2   7   3  179.48    9.30
  -2   7   3  182.48   10.60
  -2   7   3  195.58   10.40
   1  -7  -3   15.40    4.00
   1  -7  -3   14.70    2.50
  -1   7   3   11.90    2.20
  -1   7   3   14.00    1.10
  -1   7   3   14.20    1.10
  -1   7   3   13.20    1.20
   0  -7  -3   45.50    4.40
   0  -7  -3   37.10    5.50
   0   7   3   41.60    4.00
   0   7   3   41.30    2.90
  -1  -7  -3   88.39    6.50
  -1  -7  -3   77.59    7.10
   1   7   3   79.99    6.90
   1   7   3   81.89    5.30
   1   7   3  100.19    6.10
  -2  -7  -3   -1.60    2.40
  -2  -7  -3    3.60    4.10
   2   7   3   -0.60    1.60
   2   7   3    0.00    2.70
   2   7   3    3.10    2.30
  -3  -7  -3   46.30    6.90
  -3  -7  -3   56.59    6.60
  -3  -7  -3   49.00    5.40
   3   7   3   57.29    5.80
   3   7   3   48.80    4.60
  -4  -7  -3   24.00    5.10
  -4  -7  -3   20.10    5.60
  -4  -7  -3   15.70    3.90
   4   7   3   13.50    3.50
   4   7   3   21.90    4.20
   4   7   3    7.50    4.10
   4   7   3   13.10    2.80
   9  -8  -3   20.70    3.90
  -9   8   3   21.80    5.20
  -9   8   3   20.30    4.40
  -9   8   3   17.40    4.20
   8  -8  -3   36.30    4.40
  -8   8   3   32.80    5.40
  -8   8   3   25.70    4.40
   7  -8  -3   48.10    5.20
  -7   8   3   46.70    5.30
  -7   8   3   44.80    5.20
   6  -8  -3   73.29    6.40
   6  -8  -3   74.69    6.00
  -6   8   3   70.59    5.70
  -6   8   3   70.09    5.70
   5  -8  -3   41.40    4.50
   5  -8  -3   41.80    5.40
  -5   8   3   13.80   22.60
  -5   8   3   42.40    4.30
  -5   8   3   36.60    4.50
   4  -8  -3   20.10    4.30
   4  -8  -3   22.50    3.50
  -4   8   3   25.70    3.60
  -4   8   3    6.40   17.70
  -4   8   3   22.50    3.40
   3  -8  -3    0.40    1.80
   3  -8  -3    0.60    3.10
  -3   8   3   -3.00    2.70
  -3   8   3    1.00    2.20
   2  -8  -3   62.09    7.30
   2  -8  -3   78.29    6.20
  -2   8   3   84.29    4.60
  -2   8   3   78.89    5.90
   1  -8  -3    0.40    2.70
   1  -8  -3    0.40    2.40
  -1   8   3   -2.00    1.80
   0  -8  -3    5.00    2.90
   0  -8  -3    2.20    3.90
   0   8   3    5.70    3.30
   0   8   3    6.00    2.60
  -1  -8  -3   13.10    4.20
  -1  -8  -3   18.60    3.30
   1   8   3   16.30    3.00
   1   8   3   15.50    3.80
  -2  -8  -3    4.00    3.20
  -2  -8  -3    7.50    4.60
   2   8   3    9.70    3.50
   2   8   3    7.50    2.60
  -3  -8  -3    3.90    4.60
  -3  -8  -3    0.40    3.30
  -3  -8  -3   -1.50    4.10
   3   8   3    2.30    3.00
   3   8   3   -0.40    2.20
   8  -9  -3   -0.60    2.80
  -8   9   3   -2.30    3.20
  -8   9   3   -3.60    2.70
   7  -9  -3   41.70    4.70
   7  -9  -3   35.40    5.10
  -7   9   3   32.60    4.70
  -7   9   3   40.80    5.30
   6  -9  -3   12.40    3.40
   6  -9  -3   14.70    4.40
  -6   9   3   13.90    3.50
  -6   9   3   15.20    3.80
   5  -9  -3   10.30    3.10
   5  -9  -3    6.30    4.10
  -5   9   3   13.40    3.90
  -5   9   3   11.40    3.20
   4  -9  -3   19.00    4.70
   4  -9  -3   15.70    3.50
  -4   9   3   23.20    4.20
  -4   9   3   13.70    3.40
   3  -9  -3   -2.80    2.50
   3  -9  -3    1.60    3.80
  -3   9   3    1.30    3.20
  -3   9   3   -3.10    2.20
   2  -9  -3   11.80    3.30
   2  -9  -3    7.40    4.40
  -2   9   3   10.10    3.00
   1  -9  -3    5.40    3.10
   1  -9  -3    0.30    3.10
  -1   9   3    3.50    2.50
   0  -9  -3    1.30    3.00
   0  -9  -3    0.30    4.00
   0   9   3    2.20    2.50
   0   9   3   -1.90    3.10
  -1  -9  -3   11.10    3.50
  -1  -9  -3    5.80    4.00
   1   9   3    7.30    3.00
   1   9   3    7.90    3.60
  -2  -9  -3    8.90    3.90
  -2  -9  -3    9.60    5.60
  -2  -9  -3   -2.20    4.00
   7 -10  -3    7.60    3.60
   7 -10  -3    7.20    3.60
  -7  10   3    8.50    4.10
  -7  10   3    8.70    3.60
   6 -10  -3   11.30    4.40
   6 -10  -3   12.20    3.60
  -6  10   3    8.80    3.20
  -6  10   3   11.50    3.60
   5 -10  -3   -0.50    3.50
   5 -10  -3    0.50    3.00
  -5  10   3    2.40    3.60
  -5  10   3    3.30    2.90
   4 -10  -3   38.00    4.80
   4 -10  -3   23.80    5.50
  -4  10   3   28.70    4.20
  -4  10   3   22.20    4.70
   3 -10  -3    1.10    4.10
   3 -10  -3    1.30    3.00
  -3  10   3    1.60    2.60
   2 -10  -3    0.30    4.20
   2 -10  -3    2.60    3.10
  -2  10   3    1.00    2.40
   1 -10  -3    6.20    2.80
   1 -10  -3    3.30    3.70
  -1  10   3   11.40    3.50
   0 -10  -3   -0.20    3.50
   0 -10  -3    3.40    4.80
   0  10   3    5.60    4.00
   0  10   3    7.50    3.00
   4 -11  -3   12.50    3.90
  -3  12  -4    8.60    3.90
   3 -12   4    7.90    3.50
  -4  12  -4   33.20    4.90
  -4  12  -4   28.50    4.90
  -4  12  -4   33.50    5.10
   4 -12   4   33.30    4.90
   0  11  -4   10.30    2.90
   0  11  -4    6.80    2.90
   0 -11   4    9.60    3.80
  -1  11  -4   16.00    3.80
  -1  11  -4    6.60    3.30
   1 -11   4    9.40    3.60
  -2  11  -4   55.09    5.70
  -2  11  -4   54.09    5.80
  -2  11  -4   50.49    5.70
   2 -11   4   53.19    5.60
  -3  11  -4   77.49    6.90
  -3  11  -4   65.49    6.30
  -3  11  -4   89.09    7.10
   3 -11   4   77.79    6.40
  -4  11  -4   29.00    4.70
  -4  11  -4   26.90    4.10
  -4  11  -4   25.80    4.40
   4 -11   4   25.00    4.00
   4 -11   4   29.10    3.70
  -5  11  -4   34.40    5.20
  -5  11  -4   26.00    4.10
  -5  11  -4   11.60    3.80
   5 -11   4   34.30   21.50
   5 -11   4   23.60    3.70
   5 -11   4   27.70    3.80
  -6  11  -4   12.70    4.00
  -6  11  -4   15.00    3.90
  -6  11  -4    9.10    3.40
   6 -11   4   11.00    4.70
   6 -11   4   10.30    3.40
   6 -11   4    8.60    2.60
  -7  11  -4  139.39    9.60
  -7  11  -4  134.59    9.70
   7 -11   4  125.09    9.40
   7 -11   4  146.09   10.90
   2  10  -4   23.70    4.00
   2  10  -4   44.40    5.20
  -2 -10   4   35.00    5.40
   1  10  -4    7.30    2.80
   1  10  -4   12.90    3.40
  -1 -10   4   11.00    3.80
   0  10  -4   16.70    3.60
   0  10  -4   17.80    3.50
   0 -10   4   15.80    3.70
  -1  10  -4  102.19    7.60
  -1  10  -4  104.49    7.50
   1 -10   4  102.99    7.60
  -2  10  -4   42.00    4.90
  -2  10  -4   45.20    4.90
  -2  10  -4   38.80    4.80
   2 -10   4   58.09    5.30
  -3  10  -4   30.20    4.10
  -3  10  -4   28.50    4.10
  -3  10  -4   29.40    4.30
   3 -10   4   20.80    3.40
   3 -10   4   24.60    3.10
  -4  10  -4   15.10    3.20
  -4  10  -4   15.00    3.70
  -4  10  -4   17.00    3.60
   4 -10   4   14.60   18.70
   4 -10   4   19.10    3.10
   4 -10   4   12.90    2.90
  -5  10  -4  164.98    9.70
  -5  10  -4  144.59   10.20
  -5  10  -4  142.49    9.50
   5 -10   4  139.49    9.20
   5 -10   4  173.98   28.80
  -6  10  -4   17.80    3.90
  -6  10  -4   25.90    4.00
   6 -10   4   16.90    4.00
   6 -10   4   13.30   16.20
   6 -10   4   21.00    2.90
   6 -10   4   13.90    3.50
  -7  10  -4   66.49    6.00
  -7  10  -4   52.29    5.50
   7 -10   4   59.29    6.10
   7 -10   4   59.29    7.00
  -8  10  -4    9.70    3.70
  -8  10  -4    4.20    3.30
   8 -10   4    9.90    3.90
   8 -10   4   10.00    4.40
   3   9  -4    9.30    3.20
   3   9  -4    0.00    2.60
  -3  -9   4    2.40    3.40
   2   9  -4   56.59    5.80
   2   9  -4   64.79    5.90
  -2  -9   4   53.59    6.00
   1   9  -4   34.70    4.40
   1   9  -4   37.70    4.50
  -1  -9   4   30.00    4.30
   0   9  -4   50.69    5.00
   0   9  -4   41.30    4.70
   0  -9   4   43.80    5.00
  -1   9  -4   50.29    5.20
  -1   9  -4   57.89    5.10
  -1   9  -4   67.79    5.70
   1  -9   4   56.49    5.30
  -2   9  -4    7.70    2.80
  -2   9  -4    7.00    2.50
  -2   9  -4    9.40    2.70
   2  -9   4    8.00    2.50
  -3   9  -4   38.40    4.10
  -3   9  -4   45.00    5.00
  -3   9  -4   41.20    4.30
   3  -9   4   35.50    3.50
   3  -9   4   44.20    4.30
  -4   9  -4    0.30    2.40
  -4   9  -4    1.60    2.60
  -4   9  -4    1.80    2.10
   4  -9   4    1.70    2.10
   4  -9   4    2.80    2.20
   4  -9   4    4.80   15.80
  -5   9  -4  163.38    9.80
  -5   9  -4  167.98    9.70
   5  -9   4  175.98   28.90
   5  -9   4  142.09   10.40
   5  -9   4  153.28    9.00
   5  -9   4  155.68    9.50
  -6   9  -4   50.79    4.80
  -6   9  -4   34.40    3.80
  -6   9  -4   43.60    4.50
   6  -9   4   38.40   17.20
   6  -9   4   41.20    5.00
   6  -9   4   52.99    5.10
  -7   9  -4   52.59    5.10
  -7   9  -4   36.70    4.30
  -7   9  -4   36.90    4.70
   7  -9   4   47.60   17.90
   7  -9   4   39.50    5.10
   7  -9   4   35.10    4.80
  -8   9  -4   48.40    5.00
  -8   9  -4   53.89    5.60
  -8   9  -4   59.19    5.60
   8  -9   4   44.80    5.60
   8  -9   4   49.90    6.20
  -9   9  -4   37.70    5.50
  -9   9  -4   36.00    4.80
   9  -9   4   39.20    5.80
   4   8  -4   20.40    4.00
   4   8  -4   29.90    4.30
  -4  -8   4   28.00    4.30
   3   8  -4   39.10    4.80
   3   8  -4   44.00    5.00
  -3  -8   4   36.30    4.70
   2   8  -4   47.40    4.60
   2   8  -4   28.40    4.20
  -2  -8   4   40.90    3.50
  -2  -8   4   44.90    4.80
   1   8  -4   25.20    3.60
   1   8  -4   22.50    3.20
  -1  -8   4   26.70    3.80
  -1  -8   4   24.40    2.30
   0   8  -4   29.90    3.80
   0   8  -4   22.60    3.10
   0  -8   4   27.60    1.80
   0  -8   4   32.90    3.90
   0  -8   4   23.40    1.70
   0  -8   4   11.90   14.60
  -1   8  -4    7.80    2.30
  -1   8  -4    9.40    2.50
  -1   8  -4    9.60    2.60
   1  -8   4   13.80   10.20
   1  -8   4    8.20    2.50
  -2   8  -4   14.10    2.40
  -2   8  -4   13.90    2.60
  -2   8  -4   17.20    3.10
   2  -8   4   16.60    2.40
   2  -8   4   15.20    2.60
  -3   8  -4  103.29    6.30
  -3   8  -4   88.39    6.40
  -3   8  -4   95.59    6.20
   3  -8   4   86.69    5.80
   3  -8   4   89.79    6.00
  -4   8  -4   18.00    3.00
  -4   8  -4   24.00    3.10
   4  -8   4   19.60    2.60
   4  -8   4   25.60    2.30
   4  -8   4   36.80   17.20
   4  -8   4   20.40    3.00
   4  -8   4   21.50    2.70
  -5   8  -4  194.28   10.10
  -5   8  -4  184.48   10.50
  -5   8  -4  205.18   10.70
  -5   8  -4  107.29   35.60
   5  -8   4  181.28   10.10
   5  -8   4  175.18   10.10
   5  -8   4  183.48   10.00
   5  -8   4  203.38   28.30
   5  -8   4  213.68   11.00
   5  -8   4  177.78   11.50
  -6   8  -4  232.18   12.70
  -6   8  -4  223.68   12.80
  -6   8  -4  235.28   12.40
   6  -8   4  219.68   13.50
   6  -8   4  199.58   29.50
   6  -8   4  227.18   13.00
  -7   8  -4   49.10    4.60
  -7   8  -4   45.20    4.90
   7  -8   4   50.09    5.90
   7  -8   4   37.10   16.30
   7  -8   4   40.90    5.00
  -8   8  -4  127.29    8.90
  -8   8  -4  123.79    8.30
   8  -8   4  133.49    9.20
   8  -8   4  124.09    9.30
  -9   8  -4   14.80    4.50
  -9   8  -4   14.50    3.30
  -9   8  -4   14.30    3.40
   9  -8   4   15.60    4.30
   9  -8   4    9.70    4.00
   5   7  -4   26.50    4.70
   5   7  -4   33.70    4.50
  -5  -7   4   24.00    4.80
  -5  -7   4   33.20    4.40
   4   7  -4   30.80    4.30
   4   7  -4   30.70    4.20
  -4  -7   4   27.20    4.60
  -4  -7   4   23.00    3.40
   3   7  -4   47.90    4.90
   3   7  -4   52.59    5.10
  -3  -7   4   41.00    5.00
  -3  -7   4   45.70    4.00
   2   7  -4   90.59    6.40
   2   7  -4   78.99    5.80
  -2  -7   4   85.99    5.30
  -2  -7   4   86.69    6.60
   1   7  -4   -0.40    1.80
   1   7  -4    0.60    2.00
  -1  -7   4   -0.10    1.10
  -1  -7   4    2.60    2.30
   0   7  -4   -1.20    1.70
   0   7  -4    2.60    2.00
   0  -7   4    8.00   16.60
   0  -7   4    3.10    0.70
   0  -7   4    4.70    2.10
  -1   7  -4  140.29    8.30
  -1   7  -4  143.39    8.60
  -1   7  -4  146.49    8.10
   1  -7   4  140.49    8.30
   1  -7   4  133.99   25.20
  -2   7  -4   67.89    4.80
  -2   7  -4   70.69    4.90
  -2   7  -4   74.49    5.60
   2  -7   4   70.79    5.00
   2  -7   4   75.59    4.80
  -3   7  -4   80.09    5.80
  -3   7  -4   77.79    5.10
  -3   7  -4   73.19    5.00
   3  -7   4   75.29    4.80
   3  -7   4   74.49    4.80
   3  -7   4  107.19   19.90
   3  -7   4   73.29    5.10
  -4   7  -4  280.57   14.90
  -4   7  -4  271.67   14.90
  -4   7  -4  282.57   14.30
   4  -7   4  309.27   15.60
   4  -7   4  273.67   15.00
   4  -7   4  274.67   14.40
   4  -7   4  271.47   14.50
   4  -7   4  336.17   30.90
  -5   7  -4  186.88   10.30
  -5   7  -4  196.78   10.30
  -5   7  -4  187.68   10.10
  -5   7  -4  140.69   43.10
   5  -7   4  183.28   26.40
   5  -7   4  170.68   10.80
   5  -7   4  192.38   10.70
   5  -7   4  179.98   10.10
  -6   7  -4  123.39    8.10
  -6   7  -4  128.09    8.20
  -6   7  -4  125.89    7.90
   6  -7   4  132.19    8.50
   6  -7   4  120.39   24.20
   6  -7   4  148.49    9.00
   6  -7   4  131.19    6.90
  -7   7  -4    7.80    2.40
  -7   7  -4   11.00    2.80
  -7   7  -4    8.40    2.80
   7  -7   4    6.10    3.40
   7  -7   4    8.00    3.10
  -8   7  -4   38.20    4.70
  -8   7  -4   41.00    4.30
  -8   7  -4   38.00    4.60
   8  -7   4   38.10    4.70
   8  -7   4   29.20    4.30
   8  -7   4   33.30    4.80
  -9   7  -4    3.80    2.50
  -9   7  -4    5.20    3.50
  -9   7  -4    3.00    2.50
   9  -7   4    2.10    3.00
   9  -7   4    0.40    3.30
   9  -7   4    0.10    3.40
   6   6  -4   12.50    3.70
   6   6  -4   13.80    3.40
  -6  -6   4   10.10    3.30
  -6  -6   4   12.80    4.00
   5   6  -4  112.59    8.30
   5   6  -4  110.99    8.10
  -5  -6   4  129.79    8.60
  -5  -6   4  124.49    8.30
   4   6  -4  112.59    7.60
   4   6  -4  125.89    8.20
  -4  -6   4  117.09    7.80
  -4  -6   4  126.79    8.20
   3   6  -4    2.60    2.20
   3   6  -4    3.50    1.00
   3   6  -4    4.50    2.50
  -3  -6   4    1.30    2.50
  -3  -6   4    4.00    2.10
   2   6  -4   30.90    3.70
   2   6  -4   34.70    2.40
   2   6  -4   38.80    3.80
  -2  -6   4   39.10    3.20
  -2  -6   4   35.60    3.20
  -2  -6   4   46.00    4.40
   1   6  -4   72.09    4.20
   1   6  -4   83.79    5.50
   1   6  -4   67.19    5.00
  -1  -6   4   75.29    4.20
  -1  -6   4   67.49    5.30
  -1  -6   4   71.19    4.60
   0   6  -4  104.59    5.70
   0   6  -4   93.39    6.00
   0   6  -4   92.19    5.30
   0   6  -4   98.09    6.30
   0  -6   4   94.69    5.60
   0  -6   4   88.89    6.00
  -1   6  -4   83.09    4.90
  -1   6  -4   89.09    5.20
  -1   6  -4   83.89    5.40
  -1   6  -4   84.49    5.80
   1  -6   4   86.59    5.20
   1  -6   4   88.69    5.40
   1  -6   4   55.39   21.50
   1  -6   4   88.69    5.20
  -2   6  -4  208.58   11.50
  -2   6  -4  229.18   11.50
  -2   6  -4  215.68   12.20
   2  -6   4  238.88   31.70
   2  -6   4  226.98   11.60
   2  -6   4  214.08   11.40
   2  -6   4  206.68   11.40
  -3   6  -4  247.68   12.20
  -3   6  -4  230.58   12.20
  -3   6  -4  229.68   11.60
   3  -6   4  222.38   12.30
   3  -6   4  211.98   11.80
   3  -6   4  310.47   27.40
   3  -6   4  224.78   11.80
   3  -6   4  231.58   12.80
  -4   6  -4  222.48   43.10
  -4   6  -4  286.47   14.40
  -4   6  -4  269.37   15.30
  -4   6  -4  274.17   14.80
  -4   6  -4  303.27   14.80
   4  -6   4  274.47   14.90
   4  -6   4  275.17   14.50
   4  -6   4  278.57   14.30
   4  -6   4  321.97   29.10
   4  -6   4  299.07   15.40
   4  -6   4  297.97   14.30
  -5   6  -4   40.20    3.80
  -5   6  -4   42.10    3.50
  -5   6  -4   45.00    4.10
  -5   6  -4   28.40   28.40
   5  -6   4   35.60    2.40
   5  -6   4   37.40    3.90
   5  -6   4   43.10   15.70
   5  -6   4   41.70    3.70
   5  -6   4   34.40    4.20
  -6   6  -4   95.09    6.30
  -6   6  -4  100.39    6.10
  -6   6  -4   95.29    6.50
  -6   6  -4   91.29    6.10
   6  -6   4   90.69    6.80
   6  -6   4   94.99    6.50
   6  -6   4   93.39    6.70
   6  -6   4   75.09   20.90
  -7   6  -4   24.90    3.90
  -7   6  -4   28.20    3.20
  -7   6  -4   23.40    3.60
   7  -6   4   30.50    3.90
   7  -6   4   26.70    3.70
   7  -6   4   32.00    4.30
  -8   6  -4   31.00    4.40
  -8   6  -4   31.10    3.80
  -8   6  -4   33.10    4.60
   8  -6   4   29.50    4.60
   8  -6   4   33.10    4.20
   8  -6   4   36.30    4.80
  -9   6  -4   88.69    7.20
  -9   6  -4   66.69    6.60
  -9   6  -4   70.99    6.20
   9  -6   4   71.49    6.80
   9  -6   4   70.89    6.80
   9  -6   4   61.99    6.70
   7   5  -4   49.30    5.30
   7   5  -4   56.69    6.00
   7   5  -4   39.40    5.10
  -7  -5   4   39.30    5.70
  -7  -5   4   49.00    6.30
   6   5  -4   46.40    5.40
   6   5  -4   51.99    5.30
  -6  -5   4   57.69    5.90
  -6  -5   4   56.59    6.20
   5   5  -4   39.50    4.40
   5   5  -4   34.40    4.40
  -5  -5   4   33.10    4.40
  -5  -5   4   32.40    4.30
   4   5  -4  102.79    6.90
   4   5  -4  110.39    7.50
  -4  -5   4  108.39    6.10
  -4  -5   4  115.29    7.30
  -4  -5   4  113.39    7.70
   3   5  -4   45.80    4.50
   3   5  -4   39.00    3.90
  -3  -5   4   44.10    3.40
  -3  -5   4   44.20    4.40
  -3  -5   4   46.40    3.60
  -3  -5   4   44.00    3.80
   2   5  -4  254.87   13.80
   2   5  -4  272.37   14.20
   2   5  -4  247.98   13.10
  -2  -5   4  246.18   13.30
  -2  -5   4  289.27   14.20
  -2  -5   4  267.67   13.60
   1   5  -4  244.28   12.30
   1   5  -4  237.98   12.60
   1   5  -4  217.88   11.60
  -1  -5   4  217.58   11.70
  -1  -5   4  227.48   12.10
  -1  -5   4  240.78   12.40
  -1  -5   4  230.38   11.50
   0   5  -4  512.55   25.30
   0   5  -4  482.65   24.80
   0   5  -4  511.05   24.90
   0   5  -4  517.25   25.60
   0   5  -4  524.55   24.70
   0  -5   4  493.65   25.20
   0  -5   4  463.75   25.00
   0  -5   4  505.55   24.80
   0  -5   4  540.75   25.60
   0  -5   4  484.25   25.30
  -1   5  -4   30.10    2.50
  -1   5  -4   29.90    3.30
  -1   5  -4   29.20    2.60
  -1   5  -4   28.60    2.40
  -1   5  -4   31.80    2.70
  -1   5  -4   31.60    3.70
   1  -5   4   14.10   16.20
   1  -5   4   28.30    2.90
   1  -5   4   28.10    2.30
   1  -5   4   30.80    2.70
   1  -5   4   28.00    2.40
  -2   5  -4  461.75   23.10
  -2   5  -4  465.55   23.80
  -2   5  -4  449.06   23.60
  -2   5  -4  473.65   23.00
  -2   5  -4  485.85   23.00
  -2   5  -4  469.65   23.00
   2  -5   4  436.96   23.40
   2  -5   4  443.86   22.80
   2  -5   4  442.76   23.10
   2  -5   4  509.05   47.60
   2  -5   4  468.45   23.00
   2  -5   4  452.25   22.80
  -3   5  -4  270.97   14.70
  -3   5  -4  290.07   14.10
  -3   5  -4  272.47   13.80
  -3   5  -4  192.48   38.60
  -3   5  -4  296.37   14.20
  -3   5  -4  274.57   14.00
  -3   5  -4  272.17   14.30
  -3   5  -4  265.47   14.30
   3  -5   4  329.17   27.60
   3  -5   4  279.67   14.60
   3  -5   4  282.07   14.40
   3  -5   4  294.27   14.20
   3  -5   4  249.78   13.70
  -4   5  -4  170.38    8.70
  -4   5  -4  150.08    8.90
  -4   5  -4  153.18   39.60
  -4   5  -4  161.18    8.50
  -4   5  -4  152.18    9.10
   4  -5   4  163.88    7.90
   4  -5   4  159.68   23.80
   4  -5   4  162.88    8.80
   4  -5   4  160.68    9.20
   4  -5   4  162.08    9.10
  -5   5  -4   75.09    4.50
  -5   5  -4   56.09    4.70
  -5   5  -4   79.49    4.90
  -5   5  -4   76.59    4.30
  -5   5  -4   71.39    4.90
   5  -5   4   68.39    5.10
   5  -5   4   63.89    4.90
   5  -5   4   83.69    5.50
   5  -5   4   58.19   18.40
   5  -5   4   64.59    5.00
  -6   5  -4   85.89    5.30
  -6   5  -4   83.39    5.80
  -6   5  -4   82.39    5.80
   6  -5   4   75.79    5.80
   6  -5   4   82.69    6.00
   6  -5   4   75.99    6.00
  -7   5  -4   66.49    4.70
  -7   5  -4   60.69    4.00
  -7   5  -4   57.09    5.40
  -7   5  -4   58.29    5.60
   7  -5   4   71.19    6.10
   7  -5   4   55.29    5.40
   7  -5   4   52.89    5.40
  -8   5  -4   57.29    5.70
  -8   5  -4   58.09    6.00
  -8   5  -4   64.89    5.10
   8  -5   4   52.19    5.70
   8  -5   4   59.59    5.90
   8  -5   4   56.29    5.50
  -9   5  -4   33.70    4.00
  -9   5  -4   34.90    5.00
  -9   5  -4   35.50    5.40
   9  -5   4   29.30    4.40
   9  -5   4   28.60    4.20
   9  -5   4   33.10    4.80
   7   4  -4   42.20    4.70
   7   4  -4   48.70    5.20
   7   4  -4   52.19    5.80
  -7  -4   4   59.29    6.10
  -7  -4   4   60.29    6.30
   6   4  -4   65.09    6.10
   6   4  -4   67.19    5.50
  -6  -4   4   65.19    6.50
  -6  -4   4   58.09    6.30
   5   4  -4   28.20    4.10
   5   4  -4   25.90    3.60
  -5  -4   4   38.60    4.30
  -5  -4   4   24.90    3.90
   4   4  -4  534.25   26.50
   4   4  -4  517.35   26.70
  -4  -4   4  541.15   26.50
  -4  -4   4  476.75   26.60
  -4  -4   4  522.15   25.40
   3   4  -4   89.49    5.90
   3   4  -4  106.69    6.40
   3   4  -4   88.69    5.80
  -3  -4   4   95.29    5.70
  -3  -4   4   89.69    5.20
  -3  -4   4   87.29    6.20
  -3  -4   4   92.29    5.30
   2   4  -4  339.67   17.00
   2   4  -4  314.57   16.60
   2   4  -4  306.37   16.30
  -2  -4   4  343.07   16.30
  -2  -4   4  313.57   16.10
  -2  -4   4  315.27   16.70
  -2  -4   4  321.47   16.30
   1   4  -4   31.70    3.00
   1   4  -4   35.00    3.90
   1   4  -4   35.30    2.90
   1   4  -4   33.10    2.40
   1   4  -4   35.30    3.00
   1   4  -4   33.50    2.50
  -1  -4   4   31.50    2.70
  -1  -4   4   36.20    2.30
  -1  -4   4   34.70    2.80
  -1  -4   4   32.80    3.30
  -1  -4   4   31.60    2.30
  -1  -4   4   32.90    2.70
   0   4  -4 1224.58   58.69
   0   4  -4 1200.58   57.99
   0   4  -4 1082.29   58.09
   0   4  -4 1125.59   57.99
   0   4  -4 1199.08   58.29
   0   4  -4 1229.98   58.29
   0   4  -4 1124.49   58.89
   0  -4   4 1216.78   58.29
   0  -4   4 1250.57   58.69
   0  -4   4 1281.37   58.19
   0  -4   4 1213.58   58.39
   0  -4   4 1207.18   57.89
  -1   4  -4   93.79    5.50
  -1   4  -4   94.59    5.50
  -1   4  -4  103.29    5.60
  -1   4  -4  101.29    6.20
  -1   4  -4   96.59    5.60
  -1   4  -4  116.39    5.40
   1  -4   4   94.29    5.40
   1  -4   4   97.19    5.40
   1  -4   4  104.09    5.50
   1  -4   4   96.99    6.00
   1  -4   4   66.39   23.60
  -2   4  -4  333.17   17.50
  -2   4  -4  389.76   17.80
  -2   4  -4  367.66   18.20
  -2   4  -4  365.76   17.80
  -2   4  -4  362.56   18.00
  -2   4  -4  328.77   18.30
  -2   4  -4  349.37   17.70
   2  -4   4  354.16   18.20
   2  -4   4  359.06   18.00
   2  -4   4  393.36   42.80
   2  -4   4  343.47   17.50
   2  -4   4  355.16   17.80
  -3   4  -4  300.97   13.70
  -3   4  -4  226.88   42.40
  -3   4  -4  257.87   13.20
  -3   4  -4  256.37   13.60
  -3   4  -4  255.47   13.30
  -3   4  -4  253.87   13.00
   3  -4   4  239.18   23.30
   3  -4   4  260.67   13.40
   3  -4   4  254.37   13.60
   3  -4   4  267.07   13.80
  -4   4  -4   27.90    2.20
  -4   4  -4   37.30    3.00
  -4   4  -4   27.80    2.40
  -4   4  -4   49.80   14.00
  -4   4  -4   29.10   25.40
  -4   4  -4   31.20    2.90
   4  -4   4   32.10    3.40
   4  -4   4   23.20   13.30
   4  -4   4   31.70    3.10
   4  -4   4   34.70    3.20
  -5   4  -4  134.49    7.30
  -5   4  -4  145.79   20.00
  -5   4  -4  140.59    7.80
  -5   4  -4  124.09    7.10
  -5   4  -4  133.59    7.90
   5  -4   4  133.09    8.00
   5  -4   4  128.59    8.00
   5  -4   4  146.89    8.10
  -6   4  -4  139.09    8.60
  -6   4  -4  133.79    7.60
  -6   4  -4  145.59    7.80
  -6   4  -4  136.59    8.40
  -6   4  -4  146.09    7.90
   6  -4   4  128.69    8.30
   6  -4   4  140.19    8.60
   6  -4   4  143.09    8.60
  -7   4  -4   42.10    4.90
  -7   4  -4   45.30    4.50
  -7   4  -4   43.90    3.00
  -7   4  -4   45.80    4.00
   7  -4   4   41.10    4.40
   7  -4   4   38.70    4.40
   7  -4   4   44.30    4.50
  -8   4  -4   45.80    5.30
  -8   4  -4   47.80    4.50
  -8   4  -4   46.80    4.90
   8  -4   4   40.30    5.20
   8  -4   4   49.90    5.40
   8  -4   4   52.09    5.00
  -9   4  -4   47.50    5.00
  -9   4  -4   57.89    6.70
  -9   4  -4   55.99    5.90
   9  -4   4   61.19    5.00
   9  -4   4   57.29    6.10
   9  -4   4   50.69    6.00
   8   3  -4   18.80    3.60
  -8  -3   4   19.80    4.80
  -8  -3   4   15.50    3.20
  -8  -3   4   18.80    3.90
   7   3  -4   22.10    3.20
   7   3  -4   20.90    3.50
   7   3  -4   29.90    4.40
  -7  -3   4   19.20    4.30
  -7  -3   4   21.80    3.10
  -7  -3   4   26.50    4.40
   6   3  -4  322.67   16.50
   6   3  -4  305.47   16.80
  -6  -3   4  293.87   16.70
  -6  -3   4  284.67   16.70
   5   3  -4   15.10    2.60
   5   3  -4   18.00    3.20
  -5  -3   4   13.10    3.00
  -5  -3   4   12.50    2.90
  -5  -3   4   13.50    1.60
   4   3  -4  415.06   21.90
   4   3  -4  430.76   22.20
  -4  -3   4  435.86   20.90
  -4  -3   4  431.26   22.20
  -4  -3   4  421.86   21.90
   3   3  -4    3.00    2.00
   3   3  -4    2.30    2.00
   3   3  -4    1.00    1.10
   3   3  -4    5.80    1.60
  -3  -3   4    0.60    0.90
  -3  -3   4    3.70    1.60
  -3  -3   4    4.60    2.00
   2   3  -4  367.36   20.10
   2   3  -4  398.16   19.90
   2   3  -4  427.36   20.30
   2   3  -4  399.86   20.70
   2   3  -4  413.26   20.50
  -2  -3   4  401.56   20.10
  -2  -3   4  391.66   20.30
  -2  -3   4  390.06   19.90
  -2  -3   4  395.66   19.60
  -2  -3   4  408.76   19.80
  -2  -3   4  393.06   20.40
   1   3  -4  342.97   16.00
   1   3  -4  330.97   16.70
   1   3  -4  320.47   16.40
   1   3  -4  304.77   16.30
  -1  -3   4  298.47   15.80
  -1  -3   4  319.47   16.60
  -1  -3   4  320.07   16.20
  -1  -3   4  323.87   16.00
  -1  -3   4  327.37   16.40
  -1  -3   4  340.27   16.30
   0   3  -4  910.91   43.00
   0   3  -4  860.81   43.00
   0   3  -4  860.11   43.00
   0   3  -4  911.31   43.40
   0   3  -4  889.31   42.70
   0   3  -4  934.01   43.10
   0   3  -4  933.31   42.60
   0  -3   4  849.81   43.20
   0  -3   4  811.52   42.90
   0  -3   4  873.21   42.90
   0  -3   4  877.61   42.70
   0  -3   4  863.31   43.40
  -1   3  -4   27.50    2.00
  -1   3  -4   28.30    2.90
  -1   3  -4   28.30    2.50
  -1   3  -4   26.40    2.10
  -1   3  -4   27.60    2.50
  -1   3  -4   31.70    2.60
  -1   3  -4   28.50    2.00
   1  -3   4   26.40    1.90
   1  -3   4   28.90   20.50
   1  -3   4   22.70    2.60
   1  -3   4   33.80   12.40
   1  -3   4   28.10    2.00
  -2   3  -4  290.27   14.10
  -2   3  -4  275.77   14.70
  -2   3  -4  292.67   14.30
  -2   3  -4  293.87   14.70
  -2   3  -4  280.17   14.70
  -2   3  -4  292.77   14.50
  -2   3  -4  261.37   14.00
  -2   3  -4  277.57   14.30
   2  -3   4  352.66   42.20
   2  -3   4  314.07   26.50
   2  -3   4  289.37   14.60
   2  -3   4  264.97   14.70
  -3   3  -4  404.66   22.20
  -3   3  -4  418.46   52.59
  -3   3  -4  453.95   22.10
  -3   3  -4  472.75   22.00
  -3   3  -4  461.15   21.40
  -3   3  -4  413.76   22.30
  -3   3  -4  455.55   22.20
  -3   3  -4  478.45   22.00
  -3   3  -4  453.35   21.40
  -3   3  -4  446.96   22.10
   3  -3   4  410.16   22.10
   3  -3   4  340.27   32.20
   3  -3   4  430.16   22.20
   3  -3   4  433.06   22.10
  -4   3  -4  291.97   15.40
  -4   3  -4  295.57   15.90
  -4   3  -4  330.27   46.60
  -4   3  -4  303.57   15.30
  -4   3  -4  305.07   16.20
  -4   3  -4  327.17   16.20
  -4   3  -4  353.16   29.20
   4  -3   4  313.17   16.10
   4  -3   4  317.27   16.20
   4  -3   4  310.77   16.10
  -5   3  -4  133.89    7.70
  -5   3  -4  121.59    7.00
  -5   3  -4  124.89    6.70
  -5   3  -4  108.99    7.30
  -5   3  -4  116.89    6.50
   5  -3   4  133.29    7.60
   5  -3   4  128.79    7.50
   5  -3   4  114.89    7.40
  -6   3  -4   20.00    3.40
  -6   3  -4   19.30    3.10
  -6   3  -4   19.70    2.30
  -6   3  -4   19.40    2.00
  -6   3  -4   17.80    2.10
   6  -3   4   22.90    3.00
   6  -3   4   19.50    2.80
   6  -3   4   24.00    3.40
  -7   3  -4   48.10    5.30
  -7   3  -4   42.70    3.90
  -7   3  -4   55.39    5.20
  -7   3  -4   49.10    3.20
   7  -3   4   50.19    4.70
   7  -3   4   57.69    5.30
   7  -3   4   54.69    4.90
  -8   3  -4   11.40    3.40
  -8   3  -4   12.60    2.70
  -8   3  -4   10.50    3.80
   8  -3   4   13.30    3.60
   8  -3   4    8.90    3.10
  -9   3  -4   84.69    6.40
  -9   3  -4   82.99    7.30
  -9   3  -4   82.49    8.30
   9  -3   4   93.99    7.30
   9  -3   4   78.39    7.70
   8   2  -4   10.20    2.90
  -8  -2   4    9.40    3.00
  -8  -2   4   11.80    4.30
  -8  -2   4   19.80    4.40
   7   2  -4   67.79    6.50
   7   2  -4   81.29    5.80
   7   2  -4   68.79    5.00
  -7  -2   4   62.69    5.30
  -7  -2   4   67.59    6.70
  -7  -2   4   56.69    6.10
   6   2  -4  318.07   16.70
   6   2  -4  297.97   16.10
   6   2  -4  362.46   17.30
   6   2  -4  293.57   17.10
  -6  -2   4  315.47   17.10
  -6  -2   4  296.77   16.10
  -6  -2   4  312.17   16.10
  -6  -2   4  303.07   17.10
   5   2  -4    0.90    2.10
   5   2  -4    1.80    2.30
   5   2  -4   -0.40    1.60
  -5  -2   4    0.70    2.20
  -5  -2   4    0.30    1.50
  -5  -2   4   -1.00    2.00
   4   2  -4  172.78    9.70
   4   2  -4  162.88    9.50
   4   2  -4  166.88    9.80
   4   2  -4  177.38   10.00
  -4  -2   4  169.28    9.80
  -4  -2   4  183.78    9.80
   3   2  -4  161.28    9.20
   3   2  -4  155.98    8.80
   3   2  -4  179.58    9.50
   3   2  -4  162.08    8.90
  -3  -2   4  155.48    9.00
  -3  -2   4  159.88    9.10
  -3  -2   4  162.08    8.90
  -3  -2   4  160.48    8.70
   2   2  -4  780.32   37.60
   2   2  -4  751.72   37.90
   2   2  -4  733.23   37.50
   2   2  -4  733.83   37.70
  -2  -2   4  744.83   37.70
  -2  -2   4  756.62   37.50
  -2  -2   4  766.32   37.90
  -2  -2   4  858.21   37.60
  -2  -2   4  760.42   37.30
   1   2  -4  686.03   31.90
   1   2  -4  654.73   31.70
   1   2  -4  610.44   32.10
   1   2  -4  639.54   31.80
   1   2  -4  642.04   31.90
  -1  -2   4  662.83   31.80
  -1  -2   4  674.33   31.80
  -1  -2   4  630.44   31.90
  -1  -2   4  628.94   31.80
  -1  -2   4  628.54   31.70
  -1  -2   4  683.73   32.20
   0   2  -4  440.46   20.00
   0   2  -4  373.76   19.60
   0   2  -4  384.66   20.10
   0   2  -4  431.06   20.00
   0   2  -4  410.66   19.40
   0   2  -4  395.56   19.60
   0   2  -4  399.86   19.70
   0  -2   4  374.26   20.00
   0  -2   4  378.46   19.90
   0  -2   4  382.06   19.90
   0  -2   4  380.96   19.60
   0  -2   4  441.96   19.60
  -1   2  -4  220.58   10.50
  -1   2  -4  199.58   11.00
  -1   2  -4  196.68   10.90
  -1   2  -4  232.48   11.00
  -1   2  -4  209.38   11.00
  -1   2  -4  206.48   11.10
  -1   2  -4  220.38   10.40
  -1   2  -4  205.08   10.40
   1  -2   4  200.18   10.90
   1  -2   4  212.28   11.00
   1  -2   4  230.48   22.40
   1  -2   4  174.58   35.50
  -2   2  -4  135.79    7.40
  -2   2  -4  134.39   16.50
  -2   2  -4  138.49    7.40
  -2   2  -4  127.79    7.30
  -2   2  -4  117.09    6.90
  -2   2  -4  123.79    7.10
  -2   2  -4  138.19   33.10
  -2   2  -4  128.19    7.20
   2  -2   4  141.29    7.50
   2  -2   4  141.09    7.30
   2  -2   4  101.59   18.40
   2  -2   4  172.98   37.60
  -3   2  -4  166.58    9.20
  -3   2  -4  194.48   21.50
  -3   2  -4  159.08    7.90
  -3   2  -4  153.08    8.80
  -3   2  -4  171.58   34.50
  -3   2  -4  168.88    8.70
  -3   2  -4  164.88    8.70
  -3   2  -4  167.28    9.00
  -3   2  -4  158.18    7.90
  -3   2  -4  175.08    9.00
  -3   2  -4  156.98    8.90
   3  -2   4  166.18    8.90
   3  -2   4  151.68    8.90
   3  -2   4  147.09    8.80
   3  -2   4  146.59   22.60
  -4   2  -4  161.18    9.30
  -4   2  -4  167.78    9.60
  -4   2  -4  169.28    9.20
  -4   2  -4  173.58    9.30
  -4   2  -4  174.28    8.40
  -4   2  -4  171.88    8.50
  -4   2  -4  147.39   22.20
   4  -2   4  166.18    9.30
   4  -2   4  174.88    9.40
   4  -2   4  165.08    9.20
   4  -2   4  153.38    9.40
  -5   2  -4  580.84   29.10
  -5   2  -4  604.64   30.20
  -5   2  -4  629.64   29.50
  -5   2  -4  614.54   29.00
  -5   2  -4  564.04   29.70
   5  -2   4  589.84   29.90
   5  -2   4  601.34   29.80
   5  -2   4  537.85   30.10
   5  -2   4  598.14   29.80
  -6   2  -4   42.30    3.40
  -6   2  -4   40.40    3.20
  -6   2  -4   48.50    5.00
  -6   2  -4   40.90    3.40
  -6   2  -4   49.50    4.50
   6  -2   4   51.09    5.00
   6  -2   4   52.19    4.60
   6  -2   4   38.40    4.30
  -7   2  -4  140.19    8.10
  -7   2  -4  154.88    8.60
  -7   2  -4  150.28    9.70
  -7   2  -4  152.58    9.50
   7  -2   4  157.08    9.30
   7  -2   4  153.08    9.80
   7  -2   4  150.18    9.30
  -8   2  -4   28.70    4.40
  -8   2  -4   25.60    3.30
  -8   2  -4   25.20    4.40
   8  -2   4   27.90    4.00
   8  -2   4   28.40    4.40
   8  -2   4   25.20    4.40
  -9   2  -4  115.59    9.60
  -9   2  -4  111.79    8.60
   9  -2   4  113.79    8.40
   9  -2   4  117.29    8.40
   9   1  -4   22.80    3.90
  -9  -1   4   23.80    4.00
  -9  -1   4   23.00    5.30
  -9  -1   4   21.90    4.30
   8   1  -4   69.99    5.90
  -8  -1   4   68.09    5.30
  -8  -1   4   54.69    6.30
  -8  -1   4   60.19    6.90
   7   1  -4   11.40    2.80
   7   1  -4    9.70    3.30
  -7  -1   4   10.70    2.80
  -7  -1   4   12.60    2.50
  -7  -1   4   13.90    3.20
   6   1  -4  252.37   13.60
   6   1  -4  239.48   12.90
   6   1  -4  239.98   13.10
   6   1  -4  234.38   12.30
  -6  -1   4  239.68   12.60
  -6  -1   4  231.88   13.40
  -6  -1   4  226.48   13.50
   5   1  -4   70.69    5.30
   5   1  -4   65.99    4.90
   5   1  -4   67.89    4.10
   5   1  -4   70.89    4.90
  -5  -1   4   69.69    5.40
  -5  -1   4   66.39    4.40
  -5  -1   4   69.99    5.30
   4   1  -4  214.08   12.00
   4   1  -4  214.48   11.80
   4   1  -4  243.78   12.30
  -4  -1   4  221.88   12.10
  -4  -1   4  221.68   11.30
  -4  -1   4  222.18   12.10
   3   1  -4  672.53   34.30
   3   1  -4  678.93   33.70
   3   1  -4  718.63   34.40
   3   1  -4  738.83   34.30
   3   1  -4  723.03   34.60
  -3  -1   4  656.43   34.30
  -3  -1   4  688.23   34.40
  -3  -1   4  686.13   34.20
  -3  -1   4  678.13   33.70
  -3  -1   4  699.13   34.50
   2   1  -4  180.78    9.50
   2   1  -4  169.38    9.20
   2   1  -4  188.28    9.50
   2   1  -4  176.68    9.60
   2   1  -4  188.48    9.80
  -2  -1   4  176.68    8.80
  -2  -1   4  180.18    9.40
  -2  -1   4  181.08    9.80
  -2  -1   4  183.58    9.60
  -2  -1   4  188.08    9.60
   1   1  -4  548.15   26.00
   1   1  -4  516.65   25.70
   1   1  -4  542.25   25.80
   1   1  -4  511.15   25.60
   1   1  -4  553.04   25.80
  -1  -1   4  509.35   25.90
  -1  -1   4  520.75   25.70
  -1  -1   4  529.95   25.60
  -1  -1   4  468.65   25.80
   0   1  -4  333.27   15.80
   0   1  -4  290.37   15.90
   0   1  -4  322.37   15.40
   0   1  -4  298.57   15.50
   0   1  -4  303.67   15.80
   0   1  -4  309.37   15.90
   0  -1   4  334.27   15.30
   0  -1   4  317.47   25.60
   0  -1   4  308.67   15.90
   0  -1   4  298.17   15.80
   0  -1   4  315.87   15.30
   0  -1   4  328.77   15.90
  -1   1  -4  211.78   10.90
  -1   1  -4  203.28   10.90
  -1   1  -4  213.18   10.90
  -1   1  -4  209.88   11.20
  -1   1  -4  243.98   20.50
  -1   1  -4  219.18   11.10
  -1   1  -4  212.88   10.30
  -1   1  -4  207.98   10.90
   1  -1   4  197.18   19.90
   1  -1   4  174.78   36.20
   1  -1   4  211.58   11.10
   1  -1   4  194.58   11.00
   1  -1   4  235.78   11.20
  -2   1  -4  100.59    5.50
  -2   1  -4   91.49    6.00
  -2   1  -4   93.29    5.60
  -2   1  -4   97.09    5.70
  -2   1  -4   86.89   27.90
  -2   1  -4   95.49   13.30
  -2   1  -4  101.39    5.60
   2  -1   4   97.29    6.00
   2  -1   4  107.39    5.90
   2  -1   4  123.99   31.30
   2  -1   4   93.69    5.70
   2  -1   4   95.39    5.70
   2  -1   4   98.29    5.70
   2  -1   4   74.29   17.00
  -3   1  -4 1058.69   52.29
  -3   1  -4 1050.59   52.19
  -3   1  -4 1053.49   89.39
  -3   1  -4 1071.99   52.09
  -3   1  -4  869.21   63.79
  -3   1  -4 1066.99   51.99
  -3   1  -4 1127.59   52.29
  -3   1  -4 1074.99   52.49
  -3   1  -4 1011.30   51.19
  -3   1  -4 1069.39   51.99
  -3   1  -4 1086.89   51.19
   3  -1   4 1038.10   51.99
   3  -1   4 1121.99   52.19
   3  -1   4 1121.69   52.39
  -4   1  -4   38.00    3.20
  -4   1  -4   34.20    2.20
  -4   1  -4   32.90    3.20
  -4   1  -4   25.80    3.00
  -4   1  -4   36.30    3.90
  -4   1  -4   34.40    2.30
   4  -1   4   35.00    2.90
   4  -1   4   38.20    3.60
   4  -1   4   39.60    3.10
  -5   1  -4  578.54   27.70
  -5   1  -4  569.84   28.40
  -5   1  -4  540.45   27.10
  -5   1  -4  539.35   27.20
   5  -1   4  512.15   28.00
   5  -1   4  518.35   28.20
   5  -1   4  604.84   27.90
  -6   1  -4  249.08   13.60
  -6   1  -4  236.58   12.50
  -6   1  -4  242.48   12.40
   6  -1   4  223.68   13.40
   6  -1   4  220.28   12.70
   6  -1   4  235.48   13.20
  -7   1  -4   73.99    7.10
  -7   1  -4   73.59    6.50
  -7   1  -4   80.39    5.50
  -7   1  -4   72.79    5.10
   7  -1   4   87.09    6.50
   7  -1   4   71.39    6.50
   7  -1   4   81.79    5.60
  -8   1  -4   24.50    3.90
  -8   1  -4   22.50    4.90
  -8   1  -4   25.70    3.30
   8  -1   4   31.30    4.10
   8  -1   4   34.20    4.80
   8  -1   4   20.40    4.10
  -9   1  -4   25.80    5.60
  -9   1  -4   26.80    4.70
   9  -1   4   23.50    4.20
   9  -1   4   24.70    4.40
   9  -1   4   32.00    5.30
   9   0  -4   24.00    3.90
  -9   0   4   21.20    4.50
  -9   0   4   21.70    4.60
  -9   0   4   20.90    3.60
   8   0  -4   32.40    4.00
  -8   0   4   30.10    3.70
  -8   0   4   30.40    4.70
  -8   0   4   38.50    5.60
   7   0  -4   50.59    3.60
   7   0  -4   52.79    4.80
   7   0  -4   52.39    5.40
  -7   0   4   56.09    4.60
  -7   0   4   44.70    5.60
  -7   0   4   50.09    5.40
   6   0  -4  182.18   10.30
   6   0  -4  165.98    8.90
   6   0  -4  168.18    9.80
   6   0  -4  178.48    9.60
  -6   0   4  163.78   10.10
  -6   0   4  177.68   10.30
  -6   0   4  165.68    9.40
   5   0  -4  138.29    6.80
   5   0  -4  129.09    7.60
   5   0  -4  124.69    8.00
  -5   0   4  134.19    8.20
  -5   0   4  127.69    7.30
  -5   0   4  137.89    8.10
   4   0  -4  497.75   24.50
   4   0  -4  502.65   24.60
   4   0  -4  532.45   25.40
   4   0  -4  536.05   25.70
   4   0  -4  486.85   25.50
  -4   0   4  478.65   24.90
  -4   0   4  536.45   25.70
  -4   0   4  483.25   25.50
   3   0  -4  102.89    6.70
   3   0  -4  117.39    6.60
   3   0  -4  117.89    6.70
   3   0  -4  102.89    6.60
  -3   0   4  120.59    6.50
  -3   0   4  126.29    6.10
  -3   0   4  118.29    6.80
  -3   0   4  121.49    6.70
  -3   0   4  112.59    6.70
   2   0  -4  274.77   13.50
   2   0  -4  252.87   13.70
   2   0  -4  265.67   13.60
   2   0  -4  269.67   13.10
   2   0  -4  264.17   13.60
   2   0  -4  270.07   13.00
  -2   0   4  261.17   13.70
  -2   0   4  271.97   13.80
  -2   0   4  272.77   13.10
  -2   0   4  260.47   13.60
  -2   0   4  259.27   13.40
   1   0  -4  159.88    8.00
   1   0  -4  161.48    8.30
   1   0  -4  163.18    7.70
   1   0  -4  156.48    8.30
   1   0  -4  149.39    8.10
   1   0  -4  158.48    7.90
  -1   0   4  162.58    8.30
  -1   0   4  141.89    7.90
  -1   0   4  140.69    7.90
  -1   0   4  147.49   16.60
   0   0  -4  743.63   35.40
   0   0  -4  696.63   35.20
   0   0  -4  755.02   35.00
   0   0  -4  799.42   45.20
   0   0  -4  671.43   34.90
   0   0   4  720.33   35.20
   0   0   4  734.43   34.80
   0   0   4  676.63   35.20
   0   0   4  738.93   35.60
   0   0   4  691.93   34.80
  -1   0  -4   18.90    2.00
  -1   0  -4   10.60    8.90
  -1   0  -4   17.40    2.50
  -1   0  -4   16.50    1.20
  -1   0  -4   21.30    2.10
  -1   0  -4   17.50    1.20
  -1   0  -4    3.10   22.80
  -1   0  -4   17.80    1.90
  -1   0  -4   16.40    1.80
  -1   0  -4   15.50    2.50
  -1   0  -4   19.10    2.00
   1   0   4   13.40    2.00
   1   0   4   17.20   17.00
   1   0   4   17.20    2.00
   1   0   4   16.20    2.40
  -2   0  -4  184.38   10.30
  -2   0  -4  196.78   11.00
  -2   0  -4  172.48   34.30
  -2   0  -4  172.88   21.00
  -2   0  -4  217.18   10.40
  -2   0  -4  189.58    9.70
  -2   0  -4  198.38    9.70
  -2   0  -4  211.58   10.60
  -2   0  -4  184.98   10.70
  -2   0  -4  207.38   10.50
   2   0   4  190.58   10.40
   2   0   4  203.08   10.90
   2   0   4  255.87   37.70
   2   0   4  205.88   10.70
  -3   0  -4  473.35   22.90
  -3   0  -4  436.06   23.70
  -3   0  -4  473.95   23.80
  -3   0  -4  481.05   24.10
  -3   0  -4  442.16   23.40
  -3   0  -4  477.05   55.69
  -3   0  -4  396.66   35.60
  -3   0  -4  490.55   22.90
  -3   0  -4  442.46   23.60
  -3   0  -4  465.05   23.50
   3   0   4  497.35   24.10
   3   0   4  481.25   23.60
   3   0   4  470.75   23.80
   3   0   4  500.55   23.50
  -4   0  -4  106.39    6.10
  -4   0  -4  101.59    5.50
  -4   0  -4  109.89    5.60
  -4   0  -4  103.99    6.30
  -4   0  -4  102.29    6.60
  -4   0  -4   97.19    6.20
   4   0   4   97.19    6.30
   4   0   4   90.69    6.00
   4   0   4   89.49    6.50
  -5   0  -4  257.07   12.80
  -5   0  -4  244.58   13.30
  -5   0  -4  248.18   14.10
  -5   0  -4  244.08   13.00
  -5   0  -4  234.58   12.60
   5   0   4  251.07   13.60
   5   0   4  250.57   13.20
   5   0   4  248.48   13.80
  -6   0  -4  105.29    6.90
  -6   0  -4  116.29    6.70
  -6   0  -4  102.09    8.10
   6   0   4  127.39    8.10
   6   0   4  106.89    7.00
   6   0   4  103.99    7.40
  -7   0  -4    4.70    2.30
  -7   0  -4    0.20    2.60
  -7   0  -4    1.80    2.10
   7   0   4    5.10    3.00
   7   0   4    3.80    2.50
   7   0   4    1.20    2.30
  -8   0  -4   26.20    4.10
  -8   0  -4   29.60    4.00
  -8   0  -4   32.90    5.70
   8   0   4   37.30    5.00
   8   0   4   26.30    4.90
   8   0   4   29.30    4.00
   9  -1  -4   16.30    3.30
  -9   1   4   14.00    3.50
  -9   1   4   23.30    5.10
  -9   1   4   20.50    4.30
   8  -1  -4   67.89    5.80
  -8   1   4   63.29    6.40
  -8   1   4   64.89    6.90
  -8   1   4   63.99    5.20
   7  -1  -4  138.99    8.50
   7  -1  -4  138.09    7.70
  -7   1   4  134.89    8.70
  -7   1   4  136.29    8.20
  -7   1   4  144.79    9.50
   6  -1  -4  117.19    7.10
   6  -1  -4  108.49    7.20
  -6   1   4  113.29    7.50
  -6   1   4  121.69    6.80
  -6   1   4  105.89    7.70
   5  -1  -4   21.20    3.10
   5  -1  -4   23.20    2.80
  -5   1   4   19.20    2.90
  -5   1   4   23.20    2.40
  -5   1   4   22.20    3.00
   4  -1  -4  284.27   15.60
   4  -1  -4  285.37   15.40
   4  -1  -4  306.97   15.10
   4  -1  -4  321.57   15.70
  -4   1   4  309.07   15.90
  -4   1   4  282.77   16.00
  -4   1   4  302.97   15.50
  -4   1   4  300.67   15.10
  -4   1   4  303.67   15.70
   3  -1  -4  140.99    7.00
   3  -1  -4  132.39    7.40
   3  -1  -4  139.39    7.60
   3  -1  -4  130.99    7.50
   3  -1  -4  142.09    7.50
  -3   1   4  132.09    7.30
  -3   1   4  123.99    7.50
  -3   1   4  129.39    7.60
  -3   1   4  129.19    7.60
  -3   1   4  124.89    6.90
  -3   1   4  153.78   14.20
   2  -1  -4  186.98   10.30
   2  -1  -4  202.68   10.00
   2  -1  -4  179.38   10.10
   2  -1  -4  205.28    9.70
   2  -1  -4  189.08   10.10
   2  -1  -4  198.18   10.60
  -2   1   4  187.18   10.10
  -2   1   4  169.38   17.10
  -2   1   4  195.68   10.10
  -2   1   4  185.78    9.50
  -2   1   4  196.48   10.00
  -2   1   4  204.98    9.80
   1  -1  -4   52.39    3.10
   1  -1  -4   60.29    3.40
   1  -1  -4   52.99    3.30
   1  -1  -4   72.69   12.90
   1  -1  -4   52.19    4.10
   1  -1  -4   55.99    3.40
   1  -1  -4   49.90    3.80
  -1   1   4   40.90   11.20
  -1   1   4   51.69    3.20
  -1   1   4   59.79    3.50
  -1   1   4   51.99    3.20
  -1   1   4   21.00   21.20
   0  -1  -4   76.79   29.90
   0  -1  -4  152.38    7.60
   0  -1  -4  128.69   18.70
   0  -1  -4  144.79    7.50
   0  -1  -4  146.79    7.60
   0  -1  -4  151.98    8.50
   0   1   4  151.28    7.60
   0   1   4  153.78    7.40
   0   1   4  139.09    8.20
   0   1   4  152.58    7.90
   0   1   4  149.09    7.40
   0   1   4  116.89   29.80
  -1  -1  -4  122.99    6.10
  -1  -1  -4  112.69    6.40
  -1  -1  -4   90.69   18.70
  -1  -1  -4  110.89    6.00
  -1  -1  -4  122.19    6.00
  -1  -1  -4   91.39   32.40
  -1  -1  -4  113.49    6.30
  -1  -1  -4  118.29    6.90
   1   1   4  110.59    6.60
   1   1   4  115.19    7.10
   1   1   4  106.49    6.30
   1   1   4  123.59   30.20
   1   1   4  130.99    7.00
  -2  -1  -4  187.28    9.80
  -2  -1  -4  184.18   10.30
  -2  -1  -4  184.08   10.50
  -2  -1  -4  173.98    9.30
  -2  -1  -4  176.48    9.30
  -2  -1  -4  201.48    9.80
  -2  -1  -4  166.48   40.50
   2   1   4  181.98   10.30
   2   1   4  206.18   10.40
   2   1   4  167.98    9.70
   2   1   4  194.68   10.10
  -3  -1  -4  310.57   16.20
  -3  -1  -4  307.27   15.70
  -3  -1  -4  317.37   16.00
  -3  -1  -4  305.77   15.40
  -3  -1  -4  300.87   15.30
   3   1   4  319.57   16.20
   3   1   4  288.07   15.80
   3   1   4  322.17   16.40
   3   1   4  290.77   16.10
  -4  -1  -4  234.58   13.00
  -4  -1  -4  239.98   12.50
  -4  -1  -4  234.98   12.10
  -4  -1  -4  232.18   12.20
  -4  -1  -4  226.18   13.40
  -4  -1  -4  229.08   12.20
   4   1   4  269.17   13.30
   4   1   4  232.18   12.40
   4   1   4  245.78   13.20
   4   1   4  232.28   13.00
   4   1   4  226.28   12.70
  -5  -1  -4  103.69    7.70
  -5  -1  -4  105.69    7.00
  -5  -1  -4   95.29    6.20
  -5  -1  -4   98.89    6.20
   5   1   4  104.79    7.30
   5   1   4  113.69    6.60
   5   1   4  101.89    6.90
  -6  -1  -4    8.90    3.70
  -6  -1  -4   11.70    2.50
  -6  -1  -4   14.60    3.00
   6   1   4   12.60    2.90
   6   1   4   12.60    2.80
   6   1   4   12.60    3.20
  -7  -1  -4   41.20    4.20
  -7  -1  -4   36.30    4.30
  -7  -1  -4   44.80    5.50
   7   1   4   40.00    4.30
   7   1   4   40.50    5.20
   7   1   4   39.00    5.00
  -8  -1  -4  104.39    9.40
  -8  -1  -4   95.99    7.20
   8   1   4   91.19    6.60
   8   1   4   89.19    7.20
   8   1   4   89.39    8.00
   9  -2  -4   60.29    5.40
  -9   2   4   46.00    6.00
  -9   2   4   60.19    6.20
  -9   2   4   53.29    5.20
   8  -2  -4   49.70    4.80
  -8   2   4   49.60    5.60
  -8   2   4   41.70    4.40
  -8   2   4   43.50    5.70
   7  -2  -4   98.79    5.70
   7  -2  -4   89.79    6.50
  -7   2   4   86.69    7.40
  -7   2   4   98.69    7.20
  -7   2   4  104.69    6.30
   6  -2  -4   28.90    3.10
   6  -2  -4   29.90    3.00
  -6   2   4   29.70    3.80
  -6   2   4   27.60    3.60
  -6   2   4   28.50    2.90
   5  -2  -4  123.39    7.40
   5  -2  -4  128.19    7.30
   5  -2  -4  118.69    7.70
   5  -2  -4  124.69    7.50
  -5   2   4  124.29    7.80
  -5   2   4  137.59    7.20
  -5   2   4  124.69    7.80
  -5   2   4  162.58   13.20
   4  -2  -4  318.67   16.60
   4  -2  -4  323.77   17.10
   4  -2  -4  350.36   17.20
   4  -2  -4  329.47   16.90
  -4   2   4  329.27   17.30
  -4   2   4  318.67   21.50
  -4   2   4  350.26   17.10
  -4   2   4  342.47   17.20
  -4   2   4  311.57   17.10
  -4   2   4  326.87   16.60
   3  -2  -4  388.26   18.40
   3  -2  -4  375.16   18.10
   3  -2  -4  336.57   18.40
   3  -2  -4  385.56   18.70
   3  -2  -4  355.56   18.70
   3  -2  -4  340.77   18.40
  -3   2   4  376.66   18.10
  -3   2   4  348.07   18.30
  -3   2   4  382.76   18.50
  -3   2   4  360.86   18.70
  -3   2   4  368.86   18.50
  -3   2   4  377.66   17.70
  -3   2   4  309.17   23.60
   2  -2  -4  413.86   21.80
   2  -2  -4  457.55   21.60
   2  -2  -4  441.56   22.00
   2  -2  -4  406.96   21.70
   2  -2  -4  475.25   28.80
   2  -2  -4  428.66   22.30
   2  -2  -4  436.96   22.10
  -2   2   4  435.86   21.70
  -2   2   4  441.76   21.90
  -2   2   4  441.16   21.80
  -2   2   4  449.86   21.70
   1  -2  -4  226.38   11.10
   1  -2  -4  225.38   11.10
   1  -2  -4  224.28   12.00
   1  -2  -4  179.68   19.80
   1  -2  -4  218.68   11.30
   1  -2  -4  225.38   11.30
   1  -2  -4  205.88   11.30
  -1   2   4  225.78   11.30
  -1   2   4  236.38   11.20
  -1   2   4  222.78   11.30
  -1   2   4  221.88   11.20
  -1   2   4  210.98   11.90
   0  -2  -4  736.83   36.10
   0  -2  -4  782.82   36.10
   0  -2  -4  745.83   35.70
   0  -2  -4  735.83   36.20
   0  -2  -4  732.13   36.90
   0  -2  -4  814.32   36.00
   0   2   4  687.13   35.80
   0   2   4  714.33   36.80
   0   2   4  665.83   64.09
   0   2   4  689.73   36.20
   0   2   4  769.22   35.90
   0   2   4  758.72   36.90
   0   2   4  714.63   35.70
  -1  -2  -4  272.17   13.80
  -1  -2  -4  258.37   13.80
  -1  -2  -4  274.87   14.00
  -1  -2  -4  282.87   14.80
  -1  -2  -4  272.27   13.40
   1   2   4  273.17   14.80
   1   2   4  262.87   14.20
   1   2   4  290.07   13.60
   1   2   4  271.37   14.00
   1   2   4  285.07   14.90
   1   2   4  261.97   13.60
   1   2   4  364.36   42.90
  -2  -2  -4   93.79    5.40
  -2  -2  -4   89.99   33.40
  -2  -2  -4   99.39    5.40
  -2  -2  -4   94.89    6.50
  -2  -2  -4   95.99    5.60
   2   2   4  107.49    5.80
   2   2   4   96.09    6.20
   2   2   4   95.99    5.00
   2   2   4   99.29    6.20
   2   2   4   99.09    6.40
   2   2   4   90.69    5.00
  -3  -2  -4   74.39    5.40
  -3  -2  -4   73.69    4.50
  -3  -2  -4   72.69    4.40
  -3  -2  -4   67.99    4.10
  -3  -2  -4   71.69    4.50
   3   2   4   84.89    5.00
   3   2   4   72.29    3.80
   3   2   4   78.19    5.10
   3   2   4   69.39    5.20
   3   2   4   64.59    3.70
  -4  -2  -4  177.48    9.50
  -4  -2  -4  163.08   10.70
  -4  -2  -4  178.18    9.80
  -4  -2  -4  178.88   10.60
   4   2   4  213.88   11.00
   4   2   4  164.38    8.90
   4   2   4  197.98   10.30
   4   2   4  189.38   10.70
  -5  -2  -4   49.70    4.10
  -5  -2  -4   61.59    5.40
  -5  -2  -4   42.80    5.60
  -5  -2  -4   53.89    4.30
   5   2   4   58.79    5.50
   5   2   4   45.50    4.80
   5   2   4   57.49    4.10
  -6  -2  -4  109.29    7.20
  -6  -2  -4  127.89    9.10
  -6  -2  -4  108.59    7.90
   6   2   4  112.89    7.80
   6   2   4  110.59    7.90
   6   2   4  105.29    6.90
  -7  -2  -4   49.00    6.50
  -7  -2  -4   53.59    5.00
  -7  -2  -4   52.99    6.10
   7   2   4   51.19    4.50
   7   2   4   49.50    6.00
   7   2   4   45.20    5.10
  10  -3  -4    8.10    3.40
  10  -3  -4    3.50    2.80
 -10   3   4   -1.00    3.70
 -10   3   4    5.60    4.60
 -10   3   4    3.20    3.00
   9  -3  -4   49.10    5.00
  -9   3   4   50.09    5.80
  -9   3   4   45.30    6.20
  -9   3   4   41.90    4.60
   8  -3  -4   24.00    3.50
  -8   3   4   21.10    4.60
  -8   3   4   29.10    3.60
  -8   3   4   23.80    4.10
   7  -3  -4   79.29    5.80
   7  -3  -4   77.39    5.00
  -7   3   4   82.09    6.60
  -7   3   4   97.09    7.10
   6  -3  -4  309.07   15.80
   6  -3  -4  310.67   15.60
  -6   3   4  296.57   16.30
  -6   3   4  274.07   16.00
  -6   3   4  302.17   15.60
   5  -3  -4  471.85   26.00
   5  -3  -4  516.15   25.90
   5  -3  -4  536.55   26.20
  -5   3   4  556.44   26.40
  -5   3   4  544.85   25.90
  -5   3   4  534.85   26.60
  -5   3   4  476.75   25.00
   4  -3  -4  214.18   11.00
   4  -3  -4  199.68   11.50
   4  -3  -4  197.98   11.20
  -4   3   4  214.28   11.00
  -4   3   4  203.08   11.70
  -4   3   4  233.08   11.60
  -4   3   4  210.58   11.40
   3  -3  -4  312.77   16.10
   3  -3  -4  289.97   15.90
   3  -3  -4  310.47   16.40
   3  -3  -4  337.07   15.80
   3  -3  -4  305.07   16.30
  -3   3   4  321.77   16.10
  -3   3   4  315.07   15.90
  -3   3   4  302.37   15.90
  -3   3   4  306.87   15.80
   2  -3  -4  726.93   35.00
   2  -3  -4  705.83   35.10
   2  -3  -4  654.73   42.50
   2  -3  -4  708.43   35.20
   2  -3  -4  734.53   35.50
   2  -3  -4  716.73   35.80
   2  -3  -4  735.33   34.60
  -2   3   4  690.03   35.70
  -2   3   4  735.73   35.10
  -2   3   4  695.43   35.10
  -2   3   4  732.53   35.00
  -2   3   4  695.23   35.00
   1  -3  -4  257.37   12.50
   1  -3  -4  247.88   12.90
   1  -3  -4  247.68   13.00
   1  -3  -4  255.67   13.00
   1  -3  -4  252.87   13.80
  -1   3   4  246.98   12.80
  -1   3   4  251.07   12.60
  -1   3   4  255.67   13.00
  -1   3   4  253.27   13.80
   0  -3  -4  451.35   21.70
   0  -3  -4  425.76   21.70
   0  -3  -4  456.35   21.90
   0  -3  -4  422.36   22.60
   0   3   4  436.16   21.50
   0   3   4  438.76   21.60
   0   3   4  496.75   52.09
   0   3   4  415.86   21.40
   0   3   4  405.56   22.40
  -1  -3  -4   80.69    4.90
  -1  -3  -4   80.69    4.80
  -1  -3  -4   63.49   29.10
  -1  -3  -4   83.99    4.90
  -1  -3  -4   80.69    5.70
   1   3   4   76.39    4.60
   1   3   4   81.99    4.80
   1   3   4   75.79    5.90
   1   3   4   89.89    4.70
  -2  -3  -4  124.69    6.80
  -2  -3  -4  119.29    6.70
  -2  -3  -4  102.69   40.80
  -2  -3  -4  115.79    6.60
  -2  -3  -4  127.49    8.00
   2   3   4  118.69    6.90
   2   3   4  122.79    6.40
   2   3   4  116.89    6.40
   2   3   4  129.69    7.90
   2   3   4  113.49    7.40
  -3  -3  -4   22.10    1.80
  -3  -3  -4   27.70    2.50
  -3  -3  -4   25.50    3.80
  -3  -3  -4   22.60    2.70
   3   3   4   25.30    3.50
   3   3   4   24.30    3.60
   3   3   4   24.90    2.00
   3   3   4   23.20    2.90
   3   3   4   22.00    2.00
  -4  -3  -4  304.97   17.30
  -4  -3  -4  286.47   16.30
  -4  -3  -4  314.67   17.40
  -4  -3  -4  308.97   15.70
   4   3   4  322.77   17.20
   4   3   4  345.07   17.30
   4   3   4  314.87   16.60
   4   3   4  305.07   15.50
   4   3   4  308.77   15.50
  -5  -3  -4   83.59    7.50
  -5  -3  -4   69.49    5.40
  -5  -3  -4   74.09    6.30
   5   3   4   63.79    6.30
   5   3   4   68.49    5.60
   5   3   4   64.49    3.80
  -6  -3  -4   21.90    4.20
  -6  -3  -4   26.20    3.60
  -6  -3  -4   22.60    4.90
   6   3   4   28.50    4.60
   6   3   4   23.70    4.10
  -7  -3  -4   17.60    3.60
  -7  -3  -4   18.70    5.30
   7   3   4   19.50    4.60
   7   3   4   11.90    3.90
  10  -4  -4   15.80    3.70
  10  -4  -4   10.70    3.30
 -10   4   4   11.10    5.00
 -10   4   4   17.60    3.80
 -10   4   4    9.60    4.20
   9  -4  -4   79.49    6.00
   9  -4  -4   62.39    5.80
  -9   4   4   77.59    7.80
  -9   4   4   70.99    6.70
  -9   4   4   63.29    5.80
   8  -4  -4  172.68   10.10
  -8   4   4  169.48   11.20
  -8   4   4  152.18    9.60
  -8   4   4  163.58   10.50
   7  -4  -4  253.37   13.00
  -7   4   4  214.98   13.30
  -7   4   4  231.98   13.30
  -7   4   4  219.58   12.50
   6  -4  -4  155.18    8.80
   6  -4  -4  145.49    8.70
  -6   4   4  149.29    7.70
  -6   4   4  139.69    9.50
  -6   4   4  154.98    9.30
  -6   4   4  160.88    8.70
   5  -4  -4  107.59    6.60
   5  -4  -4  104.29    6.30
  -5   4   4  102.89    6.10
  -5   4   4   85.79    6.10
  -5   4   4   91.09    6.90
   4  -4  -4   99.19    6.50
   4  -4  -4  101.99    6.10
  -4   4   4   96.09    6.20
  -4   4   4   96.39    6.40
  -4   4   4  102.79    6.10
  -4   4   4   91.99    5.80
   3  -4  -4  140.39   14.70
   3  -4  -4  177.88    9.50
   3  -4  -4  142.69    8.40
   3  -4  -4  147.29    8.60
  -3   4   4  161.88    8.70
  -3   4   4  174.98    9.00
  -3   4   4  138.49    9.10
  -3   4   4  165.58    8.50
   2  -4  -4 1037.50   47.10
   2  -4  -4  800.32   55.69
   2  -4  -4  960.10   47.80
   2  -4  -4  948.81   47.10
  -2   4   4 1005.60   46.70
  -2   4   4  952.40   47.10
  -2   4   4  994.20   47.10
  -2   4   4  932.71   47.00
   1  -4  -4  163.68    9.90
   1  -4  -4  177.18    9.00
   1  -4  -4  162.58    9.20
  -1   4   4  159.58    8.20
  -1   4   4  162.18    8.70
  -1   4   4  158.38    8.80
  -1   4   4  144.29   31.70
   0  -4  -4  155.38    9.70
   0  -4  -4  146.09    8.60
   0   4   4  151.68    8.40
   0   4   4  167.78    8.50
   0   4   4  161.88    8.20
   0   4   4  174.88   36.00
  -1  -4  -4    6.10   24.00
  -1  -4  -4    0.70    1.20
  -1  -4  -4   -1.50    2.20
  -1  -4  -4    1.00    1.40
   1   4   4    1.80    2.40
   1   4   4    1.60    1.30
   1   4   4    1.60    1.20
   1   4   4    0.80    1.20
  -2  -4  -4  415.96   21.20
  -2  -4  -4  449.16   22.90
  -2  -4  -4  420.76   21.70
   2   4   4  411.76   21.30
   2   4   4  433.46   22.60
   2   4   4  421.76   21.30
   2   4   4  411.96   21.50
   2   4   4  461.85   22.40
  -3  -4  -4  110.99    6.20
  -3  -4  -4  113.09    6.90
  -3  -4  -4  104.79    8.10
   3   4   4   96.99    6.10
   3   4   4  106.99    7.30
   3   4   4  106.29    7.60
   3   4   4  113.89    7.00
   3   4   4  119.29    6.30
  -4  -4  -4   83.19    6.90
  -4  -4  -4   86.29    6.00
  -4  -4  -4   83.29    7.20
   4   4   4   83.89    5.00
   4   4   4   94.19    7.10
   4   4   4   77.89    6.00
   4   4   4   89.19    6.90
  -5  -4  -4   21.80    4.70
  -5  -4  -4   28.10    5.10
  -5  -4  -4   16.30    3.50
   5   4   4   23.50    4.40
   5   4   4   17.80    3.40
  -6  -4  -4   32.40    4.60
  -6  -4  -4   23.40    5.30
  -6  -4  -4   23.50    4.70
   6   4   4   20.80    4.60
   6   4   4   25.40    4.20
 -10   5   4   45.00    7.00
   9  -5  -4   56.39    5.50
  -9   5   4   55.49    5.50
  -9   5   4   61.19    6.40
  -9   5   4   55.19    6.40
   8  -5  -4   49.90    4.80
   8  -5  -4   33.50    3.50
  -8   5   4   34.50    4.20
  -8   5   4   30.50    4.50
  -8   5   4   30.80    4.80
   7  -5  -4   78.39    4.90
   7  -5  -4   64.59    4.90
   7  -5  -4   73.69    5.60
  -7   5   4   69.29    6.20
  -7   5   4   61.29    5.40
  -7   5   4   57.99    6.50
   6  -5  -4   59.69    4.10
   6  -5  -4   68.09    5.10
   6  -5  -4   62.59    5.10
  -6   5   4   67.79    5.50
  -6   5   4   58.79    4.80
  -6   5   4   66.99    6.20
   5  -5  -4  105.49    6.80
   5  -5  -4   93.69    5.10
   5  -5  -4   82.69    5.80
  -5   5   4   89.69    5.80
  -5   5   4   98.09    6.50
  -5   5   4   90.59    6.90
   4  -5  -4  407.86   20.40
   4  -5  -4  387.46   20.80
  -4   5   4  388.36   20.10
  -4   5   4  392.16   20.20
   3  -5  -4   56.79   12.90
   3  -5  -4   62.89    4.30
   3  -5  -4   66.89    5.40
  -3   5   4   66.69    4.60
  -3   5   4   60.49    4.20
  -3   5   4   24.40   22.80
  -3   5   4   64.69    4.80
   2  -5  -4  516.65   26.20
   2  -5  -4  552.44   27.20
  -2   5   4  499.65   26.10
  -2   5   4  514.45   25.60
  -2   5   4  519.25   26.30
   1  -5  -4   67.99    5.70
   1  -5  -4   71.69    4.80
  -1   5   4   70.99    4.80
  -1   5   4   72.19    4.70
  -1   5   4   76.89    3.80
  -1   5   4   78.39   27.70
   0  -5  -4  254.77   12.80
   0  -5  -4  238.08   13.90
   0   5   4  234.88   12.00
   0   5   4  238.48   12.50
   0   5   4  219.58   12.30
  -1  -5  -4   46.50    3.20
  -1  -5  -4   50.29    5.30
  -1  -5  -4   17.00   27.60
  -1  -5  -4   49.99    4.20
   1   5   4   46.10    3.70
   1   5   4   45.90    5.00
   1   5   4   48.80    3.40
   1   5   4   44.80    3.40
  -2  -5  -4  114.49    6.60
  -2  -5  -4  118.69    7.50
  -2  -5  -4  124.99    9.00
   2   5   4  124.49    7.00
   2   5   4  118.09    7.10
   2   5   4  121.69    7.10
   2   5   4  128.39    8.40
  -3  -5  -4   89.79    7.60
  -3  -5  -4   82.59    6.00
   3   5   4   79.99    5.40
   3   5   4   92.09    7.00
   3   5   4   88.89    6.00
   3   5   4   77.89    6.40
  -4  -5  -4   52.69    6.60
  -4  -5  -4   65.39    7.00
  -4  -5  -4   61.39    5.50
   4   5   4   44.20    4.70
   4   5   4   58.59    5.90
   4   5   4   57.99    6.20
  -5  -5  -4   24.90    3.90
  -5  -5  -4   28.40    5.40
  -5  -5  -4   28.80    5.20
   5   5   4   12.40    4.20
   5   5   4   20.30    3.60
   9  -6  -4    1.90    2.70
  -9   6   4   -0.20    2.30
  -9   6   4   -3.70    3.80
  -9   6   4   -0.40    2.80
   8  -6  -4   53.69    4.40
   8  -6  -4   57.39    5.30
  -8   6   4   47.30    5.50
  -8   6   4   48.10    5.20
  -8   6   4   61.79    6.80
   7  -6  -4   20.10    3.10
   7  -6  -4   24.10    3.50
  -7   6   4   12.80    3.20
  -7   6   4   15.50    4.30
  -7   6   4   19.10    3.20
   6  -6  -4  135.19    8.60
   6  -6  -4  134.19    8.40
   6  -6  -4  128.39    7.00
  -6   6   4  119.99    9.00
  -6   6   4  150.58    8.80
  -6   6   4  124.39    8.20
   5  -6  -4   97.59    6.40
   5  -6  -4   92.29    6.70
  -5   6   4   86.09    6.00
   4  -6  -4  108.49   14.50
   4  -6  -4  121.49    8.20
   4  -6  -4  127.09    7.50
  -4   6   4  112.09    7.40
  -4   6   4  127.79    7.60
  -4   6   4  112.69    7.10
   3  -6  -4   58.19    5.70
   3  -6  -4   48.80    4.00
  -3   6   4   48.40    4.60
  -3   6   4   57.49    4.40
  -3   6   4   58.39    4.00
  -3   6   4   36.60   24.30
   2  -6  -4  384.06   19.90
   2  -6  -4  365.76   21.00
  -2   6   4  399.16   46.90
  -2   6   4  405.16   20.00
  -2   6   4  376.26   20.00
   1  -6  -4   10.70    2.40
   1  -6  -4   10.40    2.90
  -1   6   4   10.00    2.10
   0  -6  -4   16.70    2.80
   0  -6  -4   11.70    3.70
   0   6   4   11.20    3.50
   0   6   4   14.40    2.40
   0   6   4   15.00    1.70
  -1  -6  -4   87.29    6.20
  -1  -6  -4   86.79    5.10
  -1  -6  -4   90.79    7.80
   1   6   4   93.99    5.30
   1   6   4   81.99    5.60
   1   6   4   85.39    7.10
  -2  -6  -4   34.00    3.90
  -2  -6  -4   24.00    5.10
   2   6   4   24.10    3.00
   2   6   4   32.70    3.40
   2   6   4   30.90    4.50
  -3  -6  -4   25.70    5.50
  -3  -6  -4   39.30    4.30
   3   6   4   29.10    3.10
   3   6   4   30.50    3.70
   3   6   4   23.70    4.50
   3   6   4   29.30    4.80
  -4  -6  -4   31.70    5.00
  -4  -6  -4   37.80    6.20
  -4  -6  -4   29.20    4.30
   4   6   4   24.70    4.10
   4   6   4   27.20    4.60
   4   6   4   30.20    5.10
  -5  -6  -4   29.30    5.80
  -5  -6  -4   21.30    4.40
  -5  -6  -4   21.60    5.60
   5   6   4   25.10    4.20
   5   6   4   19.70    4.90
   9  -7  -4   -1.40    2.70
  -9   7   4   -0.40    3.10
  -9   7   4   -3.30    2.80
  -9   7   4   -3.50    3.80
   8  -7  -4  106.29    7.60
  -8   7   4  105.69    9.00
  -8   7   4  100.79    8.00
  -8   7   4   99.19    7.60
   7  -7  -4   22.80    3.30
   7  -7  -4   10.40    2.80
  -7   7   4   21.00    3.80
   6  -7  -4   49.99    4.70
  -6   7   4   42.70    4.80
  -6   7   4   47.60    5.00
   5  -7  -4   67.69    5.50
   5  -7  -4   61.19    6.20
  -5   7   4   55.59    5.50
  -5   7   4   72.39    5.60
   4  -7  -4   53.79   13.60
   4  -7  -4   68.19    5.70
   4  -7  -4   70.19    6.40
  -4   7   4   70.39    5.00
  -4   7   4   36.80   24.90
  -4   7   4   70.69    5.30
  -4   7   4   68.69    5.40
   3  -7  -4   30.30    3.80
   3  -7  -4   29.10    4.80
  -3   7   4   38.70    4.40
  -3   7   4   25.00   22.40
  -3   7   4   36.30    3.80
   2  -7  -4    5.00    2.50
   2  -7  -4    1.40    2.30
  -2   7   4    2.00   18.90
  -2   7   4    3.50    2.00
  -2   7   4    2.50    1.10
   1  -7  -4   11.80    4.00
   1  -7  -4    6.40    2.60
  -1   7   4    8.20    2.30
   0  -7  -4   66.59    5.30
   0  -7  -4   69.79    7.60
   0   7   4   72.49    4.20
   0   7   4   77.99    6.90
   0   7   4   72.29    5.50
  -1  -7  -4   39.10    4.50
  -1  -7  -4   35.50    5.90
   1   7   4   32.40    5.20
   1   7   4   35.10    3.20
   1   7   4   37.70    3.70
  -2  -7  -4   29.60    5.80
  -2  -7  -4   32.40    4.30
   2   7   4   28.70    4.70
   2   7   4   26.90    3.10
   2   7   4   31.40    3.70
  -3  -7  -4   28.40    5.80
  -3  -7  -4   17.20    4.90
  -3  -7  -4   26.60    4.20
   3   7   4   21.00    4.30
   3   7   4   19.10    4.70
   3   7   4   16.70    2.70
  -4  -7  -4    6.40    5.00
  -4  -7  -4    4.30    4.50
  -4  -7  -4   -1.90    3.00
   4   7   4   -5.40    3.70
   4   7   4    0.00    2.40
   8  -8  -4   70.29    6.40
  -8   8   4   71.79    6.70
   7  -8  -4   36.50    4.20
   7  -8  -4   23.80    3.90
  -7   8   4   24.70    4.20
  -7   8   4   32.80    4.20
   6  -8  -4   33.20    3.90
   6  -8  -4   29.60    4.70
  -6   8   4   24.70    4.20
  -6   8   4   22.70    3.90
   5  -8  -4   33.10    4.30
   5  -8  -4   41.30    5.30
  -5   8   4   16.50   25.60
  -5   8   4   38.10    4.40
  -5   8   4   22.40    3.70
   4  -8  -4   45.20    5.90
   4  -8  -4   45.10    4.80
  -4   8   4   41.90    4.70
  -4   8   4   41.00    4.60
  -4   8   4   32.20   23.60
   3  -8  -4   15.00    4.30
   3  -8  -4   15.90    3.40
  -3   8   4   20.10    3.30
  -3   8   4   14.00    3.80
  -3   8   4   18.10   20.00
   2  -8  -4   52.89    6.90
   2  -8  -4   68.49    5.90
  -2   8   4   68.99    5.30
   1  -8  -4   16.20    3.50
   1  -8  -4   19.80    5.00
  -1   8   4   18.90    3.10
   0  -8  -4    8.60    4.60
   0  -8  -4    2.20    2.80
   0   8   4    6.20    2.40
   0   8   4   12.10    4.10
  -1  -8  -4   26.80    4.20
  -1  -8  -4   24.50    5.50
   1   8   4   25.60    5.10
   1   8   4   27.70    3.60
  -2  -8  -4    1.70    4.30
  -2  -8  -4   -2.40    2.80
   2   8   4   -0.20    2.40
   2   8   4   -0.90    3.20
   8  -9  -4   14.40    3.90
  -8   9   4    6.10    3.90
  -8   9   4   10.00    3.60
   7  -9  -4   13.40    3.80
   7  -9  -4   26.30    4.30
  -7   9   4   26.10    4.40
  -7   9   4   25.90    4.50
   6  -9  -4    3.00    3.90
   6  -9  -4    3.30    2.20
  -6   9   4    4.40    2.70
  -6   9   4    3.60    3.50
   5  -9  -4   29.30    4.20
   5  -9  -4   22.50    4.90
  -5   9   4   24.00    3.90
  -5   9   4   30.10    4.20
   4  -9  -4   13.50    4.50
   4  -9  -4   13.10    3.60
  -4   9   4   12.10    3.20
  -4   9   4   14.30    3.30
   3  -9  -4   41.60    6.40
   3  -9  -4   40.60    5.10
  -3   9   4   52.49    5.20
   2  -9  -4   36.20    4.50
   2  -9  -4   44.50    6.70
  -2   9   4   41.50    4.60
   1  -9  -4   37.00    4.90
   1  -9  -4   31.50    6.00
  -1   9   4   37.50    4.40
   0  -9  -4    3.00    3.20
   0  -9  -4   -1.90    4.30
   0   9   4    2.90    3.90
   0   9   4    1.60    2.50
  -1  -9  -4   20.20    6.10
  -1  -9  -4   11.40    3.90
   1   9   4   13.10    4.90
   1   9   4   17.60    3.60
   6 -10  -4    2.30    4.00
   6 -10  -4    2.40    3.20
  -6  10   4   -2.90    3.40
  -6  10   4    1.80    3.00
   5 -10  -4   91.19    7.70
   5 -10  -4   77.89    9.00
  -5  10   4   92.99    7.20
  -5  10   4   68.89    7.40
   4 -10  -4   20.90    3.80
   4 -10  -4   13.50    5.00
  -4  10   4   16.10    3.80
  -4  10   4   21.00    3.90
   3 -10  -4   38.90    4.70
   3 -10  -4   31.60    6.40
  -3  10   4   39.30    4.80
   2 -10  -4    5.40    3.40
   2 -10  -4    5.30    3.80
  -2  10   4    2.50    2.80
   1 -10  -4   23.20    4.50
   1 -10  -4   17.80    6.00
  -1  10   4   19.60    5.20
  -1  10   4   20.00    3.80
   0  11  -5    8.50    3.90
   0  11  -5   12.70    3.70
   0 -11   5    5.70    3.50
  -1  11  -5   14.00    3.70
  -1  11  -5   15.90    3.80
   1 -11   5   13.40    4.00
  -2  11  -5   18.20    3.40
  -2  11  -5   20.60    3.90
  -2  11  -5   22.20    4.20
   2 -11   5   16.00    3.70
  -3  11  -5   12.30    3.60
  -3  11  -5    7.80    3.10
  -3  11  -5    6.30    3.30
   3 -11   5    3.30    2.90
  -4  11  -5   15.10    3.80
  -4  11  -5   15.10    3.60
  -4  11  -5   18.90    4.10
   4 -11   5   11.90   22.00
   4 -11   5   20.50    5.00
   4 -11   5   18.90    3.40
   4 -11   5   15.40    3.50
  -5  11  -5    2.40    3.20
  -5  11  -5    9.60    3.90
  -5  11  -5    4.90    2.80
   5 -11   5    2.80   22.50
   5 -11   5    4.50    4.30
   5 -11   5    6.40    2.50
   5 -11   5    8.00    3.30
  -6  11  -5   16.90    3.80
  -6  11  -5   10.90    3.80
  -6  11  -5   21.90    4.90
   6 -11   5   18.90    4.40
   6 -11   5   19.80    5.30
   6 -11   5   23.20   21.10
  -7  11  -5    7.20    3.70
   2  10  -5   31.10    4.70
   2  10  -5   24.90    4.90
  -2 -10   5   25.10    4.90
   1  10  -5   10.80    3.40
   1  10  -5    6.50    3.20
  -1 -10   5    4.00    3.40
   0  10  -5    5.30    2.80
   0  10  -5    6.20    3.00
   0 -10   5    4.30    3.10
  -1  10  -5    5.20    2.80
  -1  10  -5    9.20    3.20
   1 -10   5    0.30    2.70
  -2  10  -5   18.30    3.80
  -2  10  -5   10.70    3.40
  -2  10  -5   16.10    3.40
   2 -10   5   16.40    3.30
  -3  10  -5    5.30    3.10
  -3  10  -5    3.10    2.40
  -3  10  -5   -1.60    2.30
   3 -10   5   -1.40    2.50
   3 -10   5    3.50    2.30
   3 -10   5    3.30    2.40
  -4  10  -5   39.60    4.60
  -4  10  -5   33.70    4.30
  -4  10  -5   34.10    5.10
   4 -10   5   37.40    4.10
   4 -10   5   63.79   24.40
   4 -10   5   35.70    5.50
  -5  10  -5    5.00    2.90
  -5  10  -5    2.60    2.40
  -5  10  -5    0.70    3.30
   5 -10   5    2.10   21.70
   5 -10   5    3.90    2.00
   5 -10   5    1.80    3.10
   5 -10   5    5.70    2.90
  -6  10  -5   16.60    3.50
  -6  10  -5    8.70    3.00
   6 -10   5    4.10    4.20
   6 -10   5   14.60    3.70
   6 -10   5   19.50   19.50
  -7  10  -5    3.60    3.10
  -7  10  -5    7.60    3.00
   7 -10   5   11.20    4.40
   7 -10   5    4.90    3.50
  -8  10  -5   99.99    7.50
  -8  10  -5   77.39    7.30
   8 -10   5   67.89    7.20
   8 -10   5   81.59    8.30
   3   9  -5   15.70    4.30
   3   9  -5   21.80    4.10
  -3  -9   5   18.20    4.30
   2   9  -5   11.60    2.90
   2   9  -5   10.40    3.40
  -2  -9   5   11.60    3.40
  -2  -9   5    8.60    3.60
   1   9  -5    7.30    3.00
   1   9  -5   10.40    3.20
  -1  -9   5    7.60    3.30
   0   9  -5    4.50    2.80
   0   9  -5   10.30    2.90
   0  -9   5    7.10    3.00
  -1   9  -5    5.00    2.80
  -1   9  -5    1.60    2.20
  -1   9  -5    4.10    2.00
   1  -9   5    5.50    2.60
  -2   9  -5   23.80    4.00
  -2   9  -5   23.20    3.20
  -2   9  -5   25.00    3.40
   2  -9   5   21.10    3.10
  -3   9  -5   15.90    3.00
  -3   9  -5   16.00    2.90
  -3   9  -5   11.40    3.40
   3  -9   5   17.90    4.00
   3  -9   5   15.20    2.60
   3  -9   5   11.80    2.50
  -4   9  -5   28.10    3.60
  -4   9  -5   22.40    3.30
  -4   9  -5   16.50    3.90
   4  -9   5   19.00    4.10
   4  -9   5   24.00    3.40
   4  -9   5   22.50   18.80
   4  -9   5   24.60    3.00
  -5   9  -5   14.90    3.20
  -5   9  -5   14.20    3.10
   5  -9   5   -2.80   19.30
   5  -9   5    7.90    3.10
   5  -9   5   17.10    3.30
  -6   9  -5   68.39    5.60
  -6   9  -5   77.59    5.90
   6  -9   5   89.49    6.70
   6  -9   5   76.99   22.70
   6  -9   5   73.89    7.40
  -7   9  -5   13.50    3.30
  -7   9  -5   12.80    3.30
   7  -9   5   14.80    3.80
   7  -9   5   13.50    4.30
   7  -9   5    7.40   17.30
  -8   9  -5    4.40    3.20
  -8   9  -5    5.00    2.60
   8  -9   5    2.30    3.50
   8  -9   5    1.70    3.80
   4   8  -5   50.19    5.50
   4   8  -5   36.80    5.20
  -4  -8   5   48.40    5.90
   3   8  -5   17.00    4.20
   3   8  -5   20.10    3.80
  -3  -8   5   18.20    4.00
  -3  -8   5   15.60    3.10
   2   8  -5    5.50    2.90
   2   8  -5    8.50    2.90
  -2  -8   5    3.10    2.70
  -2  -8   5    5.80    3.10
   1   8  -5   68.79    5.90
   1   8  -5   75.49    5.80
  -1  -8   5   75.99    6.10
   0   8  -5    1.80    2.30
   0   8  -5    4.80    2.40
   0  -8   5   -0.50    2.30
   0  -8   5   -0.70   15.50
  -1   8  -5    0.50    1.50
  -1   8  -5   -0.70    2.10
  -1   8  -5   -0.30    2.20
   1  -8   5    2.10   13.20
   1  -8   5   -0.90    1.80
  -2   8  -5    6.30    2.20
  -2   8  -5    0.40    1.90
  -2   8  -5    3.80    2.40
   2  -8   5    3.90    2.20
   2  -8   5    7.30    3.00
  -3   8  -5    5.50    2.10
  -3   8  -5    6.90    2.90
  -3   8  -5    5.90    2.00
   3  -8   5    8.20    2.40
   3  -8   5    5.50    1.80
   3  -8   5   11.10    2.20
   3  -8   5    3.90    2.80
   3  -8   5   12.70   15.60
  -4   8  -5  106.09    7.00
  -4   8  -5  108.59    7.00
  -4   8  -5  121.49    8.10
   4  -8   5  116.69    8.10
   4  -8   5  107.59    6.40
   4  -8   5  117.29    7.30
   4  -8   5  102.99    6.40
   4  -8   5  134.79   25.40
  -5   8  -5  124.99    7.30
  -5   8  -5  125.69    7.90
  -5   8  -5  120.99    7.80
   5  -8   5  129.39    8.30
   5  -8   5  155.18   29.10
   5  -8   5  156.18    9.40
  -6   8  -5   10.40    2.50
  -6   8  -5   16.00    2.60
  -6   8  -5   11.50    3.10
   6  -8   5   16.30    3.40
   6  -8   5   13.10    2.90
   6  -8   5   25.60   20.60
  -7   8  -5   84.69    6.30
  -7   8  -5   82.79    6.50
  -7   8  -5   94.39    6.40
   7  -8   5   78.19    7.10
   7  -8   5   65.29   22.20
   7  -8   5   85.09    7.70
  -8   8  -5   11.80    3.50
  -8   8  -5   11.20    2.90
   8  -8   5   10.60    3.20
   8  -8   5   15.30    4.20
  -9   8  -5   27.20    4.60
  -9   8  -5   23.50    4.40
   9  -8   5   27.60    4.90
   9  -8   5   29.50    4.60
   5   7  -5    9.10    3.20
   5   7  -5    1.30    3.10
  -5  -7   5    2.50    3.80
   4   7  -5    7.10    3.20
   4   7  -5    4.60    2.30
  -4  -7   5    4.50    2.40
  -4  -7   5    4.70    3.30
   3   7  -5   40.70    4.80
   3   7  -5   50.99    4.90
  -3  -7   5   35.30    3.50
  -3  -7   5   45.10    4.70
  -3  -7   5   33.10    3.60
   2   7  -5    8.70    3.00
   2   7  -5   10.80    2.40
  -2  -7   5   13.60    1.90
  -2  -7   5    9.40    3.00
  -2  -7   5   11.40    2.70
   1   7  -5   -3.30    1.20
   1   7  -5    2.70    2.30
   1   7  -5    3.10    1.20
  -1  -7   5    0.70    1.70
  -1  -7   5   -0.60    2.20
  -1  -7   5    0.30    0.80
  -1  -7   5   -1.50    2.10
   0   7  -5   29.80    2.30
   0   7  -5   25.10    2.40
   0   7  -5   24.70    3.10
   0   7  -5   32.70    3.80
   0  -7   5   19.00    3.00
   0  -7   5   25.70    2.70
   0  -7   5   25.30    3.30
   0  -7   5   -3.30   17.90
  -1   7  -5   53.59    5.00
  -1   7  -5   49.70    3.90
  -1   7  -5   49.90    3.70
  -1   7  -5   57.59    4.10
   1  -7   5   50.89    3.90
   1  -7   5   52.29    4.20
   1  -7   5   40.50   23.50
   1  -7   5   57.69    3.90
   1  -7   5   53.59    4.90
  -2   7  -5   49.30    3.70
  -2   7  -5   48.40    4.80
  -2   7  -5   42.00    3.90
   2  -7   5   49.80    3.80
   2  -7   5   46.70    4.70
   2  -7   5   45.90    3.60
   2  -7   5   58.59   23.70
  -3   7  -5  245.18   13.70
  -3   7  -5  264.97   14.70
  -3   7  -5  275.97   13.90
   3  -7   5  256.47   13.50
   3  -7   5  357.66   32.90
   3  -7   5  247.88   13.40
   3  -7   5  255.57   13.90
   3  -7   5  263.37   14.40
  -4   7  -5   47.70    4.20
  -4   7  -5   19.10   26.10
  -4   7  -5   51.79    3.30
  -4   7  -5   46.80    4.10
   4  -7   5   68.79   19.50
   4  -7   5   49.80    3.30
   4  -7   5   50.29    4.50
   4  -7   5   45.00    4.90
  -5   7  -5   73.99    5.20
  -5   7  -5   73.99    4.80
  -5   7  -5   75.69    5.10
   5  -7   5   66.49    3.70
   5  -7   5   67.39    5.50
   5  -7   5   95.69   23.70
   5  -7   5   72.89    5.70
  -6   7  -5   14.20    2.90
  -6   7  -5   19.90    2.90
   6  -7   5   19.30    3.50
   6  -7   5   16.80   19.80
   6  -7   5   14.50    3.20
  -7   7  -5   47.80    4.80
  -7   7  -5   51.79    5.00
   7  -7   5   57.89    6.00
   7  -7   5   52.09    5.20
  -8   7  -5   50.49    5.20
  -8   7  -5   44.80    4.90
  -8   7  -5   48.60    4.80
   8  -7   5   46.60    5.60
   8  -7   5   46.80    5.60
  -9   7  -5   24.40    4.50
  -9   7  -5   22.20    4.50
   9  -7   5   18.30    3.80
   9  -7   5   18.00    4.30
   9  -7   5   20.20    4.20
   6   6  -5    2.70    3.20
   6   6  -5    4.80    2.90
  -6  -6   5    0.30    2.70
  -6  -6   5    3.00    2.90
   5   6  -5   12.60    3.70
   5   6  -5   12.50    3.30
  -5  -6   5    9.50    3.00
  -5  -6   5   11.00    3.60
   4   6  -5   36.40    4.60
   4   6  -5   33.90    4.10
  -4  -6   5   30.00    4.40
  -4  -6   5   31.40    3.60
   3   6  -5   25.70    3.50
   3   6  -5   35.10    4.30
  -3  -6   5   22.60    2.80
  -3  -6   5   33.90    4.10
  -3  -6   5   23.70    3.00
  -3  -6   5   23.80    2.80
   2   6  -5   30.50    2.40
   2   6  -5   29.60    3.50
   2   6  -5   35.70    3.90
  -2  -6   5   25.90    2.50
  -2  -6   5   29.30    2.80
  -2  -6   5   27.20    3.20
  -2  -6   5   24.00    3.50
   1   6  -5  219.58   11.80
   1   6  -5  204.68   11.30
   1   6  -5  216.98   10.60
  -1  -6   5  207.48   11.40
  -1  -6   5  200.28   11.20
  -1  -6   5  193.28   10.50
  -1  -6   5  191.18   10.20
   0   6  -5  134.29    7.60
   0   6  -5  135.19    7.40
   0   6  -5  132.99    7.70
   0   6  -5  137.99    8.60
   0   6  -5  150.88    8.20
   0  -6   5  145.49    8.30
   0  -6   5  134.59    7.50
   0  -6   5  146.89    8.00
   0  -6   5  152.28    8.20
  -1   6  -5  168.28    9.20
  -1   6  -5  164.38    8.90
  -1   6  -5  158.88    9.70
  -1   6  -5  159.88    8.80
   1  -6   5  128.89   33.40
   1  -6   5  161.88    9.00
   1  -6   5  164.58    9.40
   1  -6   5  177.08    9.10
   1  -6   5  179.08    8.90
  -2   6  -5   92.19    5.70
  -2   6  -5  102.79    6.60
  -2   6  -5   95.49    5.70
  -2   6  -5   92.39    5.60
   2  -6   5   87.79    6.30
   2  -6   5   98.79    5.60
   2  -6   5   92.19    5.40
   2  -6   5  141.49   22.60
   2  -6   5   90.59    5.80
   2  -6   5  124.99   30.80
   2  -6   5   91.29    5.70
  -3   6  -5   37.60    4.20
  -3   6  -5   42.30    3.60
  -3   6  -5   40.00    3.40
  -3   6  -5   35.30    3.00
  -3   6  -5   12.70   20.70
  -3   6  -5   42.30    2.50
   3  -6   5   44.30   16.40
   3  -6   5   39.10    3.70
   3  -6   5   39.20    2.80
   3  -6   5   34.30    3.70
  -4   6  -5   43.30    3.10
  -4   6  -5   36.40    3.50
  -4   6  -5   38.10    3.50
  -4   6  -5   42.60    3.30
  -4   6  -5   21.20   29.20
   4  -6   5   40.80    4.00
   4  -6   5   35.50    4.10
   4  -6   5   44.50   16.90
  -5   6  -5  198.08   12.10
  -5   6  -5  244.88   12.00
  -5   6  -5  217.28   11.50
   5  -6   5  206.68   12.40
   5  -6   5  202.48   30.20
   5  -6   5  215.08   12.10
  -6   6  -5   49.50    4.60
  -6   6  -5   55.89    4.60
  -6   6  -5   52.59    4.80
  -6   6  -5   49.20    4.00
   6  -6   5   40.40   21.50
   6  -6   5   60.49    5.40
   6  -6   5   46.60    5.20
  -7   6  -5   30.30    3.40
  -7   6  -5   27.30    4.00
  -7   6  -5   29.70    3.90
   7  -6   5   34.30    4.70
   7  -6   5   35.10    4.10
   7  -6   5   19.30    3.50
  -8   6  -5   19.90    4.10
  -8   6  -5   18.40    3.00
  -8   6  -5   18.80    3.70
   8  -6   5   13.50    3.60
   8  -6   5   13.50    3.60
   8  -6   5   19.80    3.60
  -9   6  -5   31.20    5.00
  -9   6  -5   32.10    4.90
   9  -6   5   39.00    5.30
   9  -6   5   36.00    5.10
   9  -6   5   29.00    4.90
   7   5  -5    2.30    3.40
  -7  -5   5    2.10    3.60
  -7  -5   5    2.80    3.80
   6   5  -5  117.29    8.70
   6   5  -5  116.69    8.30
  -6  -5   5  123.89    8.70
  -6  -5   5  121.99    8.60
   5   5  -5   12.90    3.50
   5   5  -5   11.90    3.00
  -5  -5   5   11.10    3.50
  -5  -5   5   14.90    3.20
   4   5  -5   50.79    5.20
   4   5  -5   55.99    5.00
  -4  -5   5   60.19    5.40
  -4  -5   5   53.29    4.80
  -4  -5   5   55.89    4.10
  -4  -5   5   51.79    3.50
   3   5  -5   48.90    4.90
   3   5  -5   46.40    4.40
  -3  -5   5   49.70    3.50
  -3  -5   5   45.80    3.90
  -3  -5   5   45.00    4.60
  -3  -5   5   44.70    3.50
   2   5  -5   78.19    5.30
   2   5  -5   74.69    5.60
  -2  -5   5   76.69    5.00
  -2  -5   5   80.79    4.70
  -2  -5   5   74.09    4.50
  -2  -5   5   74.59    5.50
   1   5  -5  381.86   20.00
   1   5  -5  391.96   20.50
   1   5  -5  359.66   19.50
  -1  -5   5  387.56   19.90
  -1  -5   5  392.46   19.20
  -1  -5   5  403.46   19.40
  -1  -5   5  399.66   19.90
  -1  -5   5  415.56   20.10
   0   5  -5  225.48   12.60
   0   5  -5  249.88   12.90
   0   5  -5  260.67   13.50
   0   5  -5  247.78   12.50
   0   5  -5  241.48   12.40
   0  -5   5  261.97   13.00
   0  -5   5  245.78   12.40
   0  -5   5  241.48   12.70
   0  -5   5  240.78   13.00
  -1   5  -5  139.69    7.80
  -1   5  -5  142.29    7.50
  -1   5  -5  140.79    7.80
  -1   5  -5  151.48    7.80
  -1   5  -5  135.69    7.70
  -1   5  -5  144.19    8.30
   1  -5   5  134.09    8.20
   1  -5   5   89.79   28.70
   1  -5   5  145.99    7.50
   1  -5   5  148.99    7.70
   1  -5   5  145.19    7.60
  -2   5  -5   32.20    3.30
  -2   5  -5   34.70    2.60
  -2   5  -5   36.30    2.60
  -2   5  -5   31.90    3.00
  -2   5  -5   38.80    2.80
  -2   5  -5   29.00    1.90
  -2   5  -5   33.30    3.60
   2  -5   5   37.50    3.70
   2  -5   5   36.70    2.50
   2  -5   5   37.20    2.80
   2  -5   5   35.20   14.50
   2  -5   5   46.90   23.10
   2  -5   5   43.10    3.40
   2  -5   5   33.90    2.30
  -3   5  -5  196.68   10.70
  -3   5  -5  230.58   10.70
  -3   5  -5  210.88   10.80
  -3   5  -5  198.28   10.90
  -3   5  -5  133.09   37.80
  -3   5  -5  231.18   11.60
   3  -5   5  200.58   11.00
   3  -5   5  201.78   11.50
   3  -5   5  222.28   25.70
   3  -5   5  209.08   11.30
  -4   5  -5   79.49    4.50
  -4   5  -5   61.79   32.20
  -4   5  -5   67.69    4.70
  -4   5  -5   73.89    4.80
   4  -5   5   82.99    5.40
   4  -5   5   80.09    5.70
   4  -5   5   86.79   20.30
  -5   5  -5  313.47   15.50
  -5   5  -5  319.17   16.10
  -5   5  -5  318.07   15.70
  -5   5  -5  316.07   16.30
   5  -5   5  294.57   16.40
   5  -5   5  226.08   31.80
   5  -5   5  311.37   16.70
  -6   5  -5   19.00    2.90
  -6   5  -5   22.90    2.50
  -6   5  -5   21.70    3.30
  -6   5  -5   19.90    2.40
  -6   5  -5   21.30    3.20
   6  -5   5   14.00    3.20
   6  -5   5   25.70    3.30
   6  -5   5   16.80    2.90
  -7   5  -5   29.40    3.20
  -7   5  -5   32.00    3.20
  -7   5  -5   26.80    3.90
  -7   5  -5   26.50    3.90
   7  -5   5   30.80    4.30
   7  -5   5   21.50    3.80
   7  -5   5   32.60    4.40
  -8   5  -5   49.30    5.50
  -8   5  -5   57.89    4.70
  -8   5  -5   56.79    6.10
   8  -5   5   52.79    5.80
   8  -5   5   52.49    5.80
   8  -5   5   54.69    5.50
  -9   5  -5   12.50    3.70
  -9   5  -5    9.30    4.10
   9  -5   5   11.60    3.90
   9  -5   5   11.10    3.80
   9  -5   5   10.20    3.30
   7   4  -5    7.10    3.40
   7   4  -5   15.00    3.00
  -7  -4   5   10.60    2.80
  -7  -4   5   12.40    3.90
  -7  -4   5   10.40    4.00
   6   4  -5   35.30    4.30
   6   4  -5   40.70    5.00
  -6  -4   5   31.10    4.60
  -6  -4   5   41.90    5.20
   5   4  -5    5.80    2.50
   5   4  -5    5.80    2.90
  -5  -4   5    3.20    2.60
  -5  -4   5    8.40    3.10
   4   4  -5   74.19    5.60
   4   4  -5   73.19    5.50
  -4  -4   5   80.59    5.80
  -4  -4   5   76.89    5.60
   3   4  -5  143.49    8.10
   3   4  -5  135.69    7.90
   3   4  -5  129.49    8.40
  -3  -4   5  137.09    7.80
  -3  -4   5  133.99    7.30
  -3  -4   5  144.29    8.20
  -3  -4   5  132.99    7.20
   2   4  -5   66.39    4.30
   2   4  -5   75.39    5.20
   2   4  -5   59.59    4.30
  -2  -4   5   70.99    4.20
  -2  -4   5   63.59    3.80
  -2  -4   5   63.19    4.20
  -2  -4   5   72.79    4.90
   1   4  -5  507.35   24.90
   1   4  -5  487.35   23.90
   1   4  -5  493.25   24.50
  -1  -4   5  485.75   23.80
  -1  -4   5  493.95   23.90
  -1  -4   5  461.05   24.30
  -1  -4   5  496.95   24.40
  -1  -4   5  477.25   24.50
   0   4  -5  343.67   17.00
   0   4  -5  314.97   17.00
   0   4  -5  334.97   17.50
   0   4  -5  325.07   16.30
   0   4  -5  335.97   16.50
   0   4  -5  338.87   17.00
   0   4  -5  330.07   16.80
   0  -4   5  342.67   17.40
   0  -4   5  347.97   16.80
   0  -4   5  345.37   16.50
   0  -4   5  344.17   17.00
   0  -4   5  319.67   17.10
  -1   4  -5  614.14   29.10
  -1   4  -5  614.54   30.20
  -1   4  -5  601.04   29.70
  -1   4  -5  591.24   29.30
  -1   4  -5  626.74   29.50
  -1   4  -5  570.84   29.50
  -1   4  -5  575.04   29.00
  -1   4  -5  593.94   29.70
   1  -4   5  638.04   30.00
   1  -4   5  591.44   29.30
   1  -4   5  584.04   29.30
  -2   4  -5  120.49    6.80
  -2   4  -5  108.59    6.10
  -2   4  -5  111.39    7.00
  -2   4  -5  115.99    6.80
  -2   4  -5  106.79    6.50
  -2   4  -5  118.79    6.20
  -2   4  -5  108.99    6.10
  -2   4  -5  117.19    6.10
   2  -4   5  140.99   21.60
   2  -4   5  124.19   34.10
   2  -4   5  112.49    6.20
   2  -4   5  113.89    6.60
   2  -4   5  110.59    6.90
  -3   4  -5  247.18   12.50
  -3   4  -5  261.97   12.80
  -3   4  -5  274.07   13.00
  -3   4  -5  255.47   13.40
  -3   4  -5  176.88   44.50
  -3   4  -5  239.38   12.40
   3  -4   5  239.08   13.20
   3  -4   5  208.48   25.50
   3  -4   5  263.47   13.50
  -4   4  -5   92.19    5.70
  -4   4  -5   97.49    5.10
  -4   4  -5   95.99    5.00
  -4   4  -5   79.59    5.60
   4  -4   5   86.49    6.20
   4  -4   5   96.49    5.90
   4  -4   5   86.59   20.30
  -5   4  -5  324.37   16.60
  -5   4  -5  297.77   15.90
  -5   4  -5  308.07   15.70
  -5   4  -5  319.37   16.70
   5  -4   5  320.77   16.80
   5  -4   5  322.57   16.90
   5  -4   5  329.47   16.90
  -6   4  -5   78.89    6.00
  -6   4  -5   74.89    4.70
  -6   4  -5   84.09    5.90
  -6   4  -5   83.09    5.00
  -6   4  -5   86.59    5.50
   6  -4   5   72.79    5.90
   6  -4   5   75.89    6.00
   6  -4   5   80.79    6.00
  -7   4  -5   22.10    2.70
  -7   4  -5   21.40    3.90
  -7   4  -5   26.10    2.90
  -7   4  -5   24.40    3.80
   7  -4   5   32.20    3.90
   7  -4   5   25.70    3.70
   7  -4   5   32.70    4.00
  -8   4  -5   30.30    3.60
  -8   4  -5   32.10    5.00
  -8   4  -5   29.10    4.50
   8  -4   5   36.30    4.60
   8  -4   5   30.10    4.30
   8  -4   5   43.20    5.10
  -9   4  -5    3.20    2.70
  -9   4  -5    5.10    3.80
   9  -4   5    6.10    3.50
   9  -4   5    5.00    3.60
   8   3  -5    8.30    3.70
   8   3  -5    9.30    3.30
  -8  -3   5    6.60    3.80
  -8  -3   5    2.50    3.80
   7   3  -5   -1.30    2.20
   7   3  -5   -2.20    2.80
  -7  -3   5   -1.50    1.80
  -7  -3   5    0.90    3.30
  -7  -3   5    0.50    3.10
   6   3  -5   18.30    2.70
   6   3  -5   24.40    4.10
   6   3  -5   19.10    3.00
  -6  -3   5   18.50    3.80
  -6  -3   5   18.60    2.50
  -6  -3   5   14.80    3.60
   5   3  -5  129.09    8.70
   5   3  -5  137.49    8.20
  -5  -3   5  139.49    8.50
  -5  -3   5  139.59    8.70
  -5  -3   5  127.39    6.80
   4   3  -5    3.60    2.40
   4   3  -5    4.50    1.90
  -4  -3   5    2.30    2.30
  -4  -3   5    6.90    2.40
   3   3  -5  102.39    6.10
   3   3  -5   94.59    6.20
   3   3  -5   99.19    5.90
  -3  -3   5   91.59    4.80
  -3  -3   5   95.39    5.90
  -3  -3   5  108.89    6.40
  -3  -3   5   96.09    5.30
   2   3  -5   56.79    3.70
   2   3  -5   53.59    3.90
   2   3  -5   53.49    4.10
  -2  -3   5   51.59    3.70
  -2  -3   5   57.29    3.10
  -2  -3   5   55.19    3.60
  -2  -3   5   54.39    3.00
  -2  -3   5   58.09    3.80
  -2  -3   5   61.19    4.20
   1   3  -5  759.42   37.60
   1   3  -5  751.12   37.30
   1   3  -5  753.32   37.50
   1   3  -5  763.12   38.00
  -1  -3   5  842.42   37.30
  -1  -3   5  715.33   37.90
  -1  -3   5  764.72   37.60
  -1  -3   5  811.62   37.50
  -1  -3   5  741.23   37.50
  -1  -3   5  732.03   36.90
   0   3  -5   18.50    2.30
   0   3  -5   21.60    2.10
   0   3  -5   23.40    1.50
   0   3  -5   22.80    1.70
   0   3  -5   21.00    2.00
   0   3  -5   21.70    2.20
   0   3  -5   21.40    2.30
   0   3  -5   20.10    2.30
   0  -3   5   10.50   15.50
   0  -3   5   24.40    2.70
   0  -3   5   20.20   10.10
   0  -3   5   20.70    1.70
   0  -3   5   22.90    2.00
   0  -3   5   18.60    2.30
  -1   3  -5  147.99    8.60
  -1   3  -5  153.58    8.40
  -1   3  -5  153.88    7.80
  -1   3  -5  160.68    8.40
  -1   3  -5  157.08    8.30
  -1   3  -5  163.68    7.80
  -1   3  -5  150.78    7.90
   1  -3   5  174.08   21.40
   1  -3   5   89.49   30.50
   1  -3   5  154.58    8.40
   1  -3   5  142.39    7.40
  -2   3  -5   21.30    2.60
  -2   3  -5   37.50   10.70
  -2   3  -5   22.40    2.40
  -2   3  -5   21.20    2.50
  -2   3  -5   31.30    2.40
  -2   3  -5   21.30    1.60
  -2   3  -5   25.60    1.70
  -2   3  -5   25.80    2.90
  -2   3  -5   19.60    2.70
  -2   3  -5   23.00    2.10
  -2   3  -5   23.70    2.70
  -2   3  -5   14.50   24.30
   2  -3   5   19.90    2.30
   2  -3   5   23.10   17.70
   2  -3   5   27.00   13.70
   2  -3   5   28.40    3.10
  -3   3  -5  326.47   15.10
  -3   3  -5  295.77   15.00
  -3   3  -5  307.07   15.70
  -3   3  -5  247.58   47.20
  -3   3  -5  327.17   16.30
  -3   3  -5  321.47   15.90
   3  -3   5  313.67   16.00
   3  -3   5  232.18   27.90
   3  -3   5  315.37   16.10
  -4   3  -5   53.39    3.00
  -4   3  -5   50.29    4.00
  -4   3  -5   50.79    2.90
  -4   3  -5   54.39    4.00
   4  -3   5   51.99    4.10
   4  -3   5   48.70   17.30
   4  -3   5   51.39    4.30
   4  -3   5   48.10    4.20
  -5   3  -5   15.50    1.50
  -5   3  -5   12.90    2.40
  -5   3  -5   13.70    1.50
  -5   3  -5   13.90    2.60
  -5   3  -5   12.90    2.60
   5  -3   5   14.30    2.70
   5  -3   5   14.80    2.80
   5  -3   5    9.70    2.50
  -6   3  -5  178.88   10.80
  -6   3  -5  182.58    9.40
  -6   3  -5  183.58   10.50
  -6   3  -5  181.38    9.50
  -6   3  -5  171.08    9.90
   6  -3   5  168.38   10.40
   6  -3   5  180.98   10.50
   6  -3   5  188.98   10.60
  -7   3  -5    2.30    3.00
  -7   3  -5    1.40    1.70
  -7   3  -5    1.20    1.60
  -7   3  -5   -0.10    1.80
   7  -3   5    2.10    2.10
   7  -3   5   -1.00    1.90
   7  -3   5    0.80    2.20
  -8   3  -5   59.69    5.00
  -8   3  -5   70.49    6.50
  -8   3  -5   60.09    6.70
   8  -3   5   81.69    6.80
   8  -3   5   70.09    6.60
  -9   3  -5   16.80    4.20
  -9   3  -5   19.80    4.20
   9  -3   5   20.00    4.20
   9  -3   5   18.00    4.30
   8   2  -5    2.40    3.40
   8   2  -5    5.50    2.80
  -8  -2   5    9.80    4.00
  -8  -2   5    5.60    2.40
  -8  -2   5    5.20    3.60
   7   2  -5   19.50    3.50
   7   2  -5   37.10    5.00
   7   2  -5   37.30    4.90
  -7  -2   5   25.60    3.00
  -7  -2   5   27.80    4.70
  -7  -2   5   15.90    3.90
   6   2  -5   -2.10    1.40
   6   2  -5    2.60    2.60
   6   2  -5    1.20    1.50
  -6  -2   5    1.50    2.70
  -6  -2   5    3.30    3.00
  -6  -2   5   -0.40    1.60
   5   2  -5   64.89    5.20
   5   2  -5   68.89    5.10
  -5  -2   5   64.89    4.50
  -5  -2   5   78.59    5.80
  -5  -2   5   81.69    5.80
   4   2  -5   17.20    3.10
   4   2  -5   22.60    2.70
  -4  -2   5   19.10    2.80
  -4  -2   5   15.40    1.70
  -4  -2   5   20.00    2.60
   3   2  -5  287.67   15.70
   3   2  -5  275.27   15.30
   3   2  -5  297.27   15.40
  -3  -2   5  305.47   15.40
  -3  -2   5  326.77   15.40
  -3  -2   5  295.07   14.60
  -3  -2   5  288.77   15.50
   2   2  -5  164.98    9.50
   2   2  -5  168.58    8.80
   2   2  -5  179.18    9.20
   2   2  -5  178.98    9.10
   2   2  -5  177.98    9.00
  -2  -2   5  174.88    9.00
  -2  -2   5  159.08    9.10
  -2  -2   5  165.28    9.50
  -2  -2   5  153.58    8.80
  -2  -2   5  169.18    9.10
   1   2  -5  143.09    7.90
   1   2  -5  145.09    7.80
   1   2  -5  154.28    7.90
   1   2  -5  145.69    7.90
   1   2  -5  148.09    8.40
  -1  -2   5  147.19    7.90
  -1  -2   5  140.69    7.90
  -1  -2   5  213.08   20.70
  -1  -2   5  149.69    7.90
  -1  -2   5  138.69    8.30
  -1  -2   5  144.49    7.70
   0   2  -5   38.10    2.50
   0   2  -5   24.90    2.40
   0   2  -5   36.50    2.00
   0   2  -5   35.60    2.70
   0   2  -5   37.20    2.40
   0   2  -5   36.10    3.00
   0   2  -5   45.60    3.30
   0  -2   5   35.30    3.00
   0  -2   5   35.20    3.20
   0  -2   5   19.00   23.20
   0  -2   5   36.00    2.90
   0  -2   5   38.00   11.50
   0  -2   5   32.60    2.30
   0  -2   5   35.00    2.10
  -1   2  -5    3.10    0.80
  -1   2  -5    7.60    7.70
  -1   2  -5    4.50    1.60
  -1   2  -5    4.10    1.20
  -1   2  -5    1.60    1.40
  -1   2  -5    6.80    1.80
  -1   2  -5    4.40    0.90
  -1   2  -5    2.80    0.70
  -1   2  -5    4.20    1.30
  -1   2  -5    2.70    1.50
  -1   2  -5   -4.70   12.60
   1  -2   5   -2.90   19.50
   1  -2   5    2.10    1.60
   1  -2   5    3.20    1.60
   1  -2   5    4.30    8.50
  -2   2  -5   77.19    4.90
  -2   2  -5   85.99   12.80
  -2   2  -5   74.19    4.50
  -2   2  -5   76.49    5.00
  -2   2  -5   80.29    4.90
  -2   2  -5   54.89   23.60
  -2   2  -5   80.19    4.80
  -2   2  -5   87.99    5.10
  -2   2  -5   85.69    5.30
   2  -2   5   85.79    5.20
   2  -2   5  106.19   31.30
   2  -2   5   71.29   15.90
   2  -2   5   69.29    4.90
  -3   2  -5   27.30    3.00
  -3   2  -5   36.10    3.20
  -3   2  -5   31.20    3.70
  -3   2  -5   46.50   15.10
  -3   2  -5   27.70    3.10
  -3   2  -5   31.80    3.90
  -3   2  -5   29.80   19.30
  -3   2  -5   35.40    3.00
  -3   2  -5   25.20    3.00
   3  -2   5   33.80    3.20
   3  -2   5   32.10    3.10
   3  -2   5   34.70    3.30
   3  -2   5   27.10   14.80
  -4   2  -5  611.74   30.80
  -4   2  -5  637.24   31.10
  -4   2  -5  608.54   29.80
  -4   2  -5  631.34   29.90
  -4   2  -5  614.94   31.00
   4  -2   5  558.24   31.10
   4  -2   5  641.54   31.00
   4  -2   5  625.94   30.90
   4  -2   5  610.74   31.00
  -5   2  -5   54.39    4.50
  -5   2  -5   50.79    4.00
  -5   2  -5   40.50    3.00
  -5   2  -5   48.20    2.90
  -5   2  -5   45.60    4.70
   5  -2   5   46.40    4.80
   5  -2   5   57.39    4.80
   5  -2   5   48.00    4.40
  -6   2  -5  140.69    8.80
  -6   2  -5  121.09    7.60
  -6   2  -5  125.89    7.90
  -6   2  -5  125.79    7.20
  -6   2  -5  127.29    7.00
   6  -2   5  128.99    8.10
   6  -2   5  141.29    8.20
   6  -2   5  126.69    8.70
  -7   2  -5   29.90    3.30
  -7   2  -5   35.20    5.00
  -7   2  -5   41.70    4.40
   7  -2   5   41.70    4.90
   7  -2   5   42.60    4.60
   7  -2   5   38.70    4.50
  -8   2  -5  167.48   10.60
  -8   2  -5  164.88   11.60
   8  -2   5  172.58   11.50
   8  -2   5  169.98   10.80
   8  -2   5  180.68   10.90
  -9   2  -5   46.20    5.90
  -9   2  -5   49.20    6.80
   9  -2   5   44.80    5.50
   9  -2   5   46.90    5.60
  -9  -1   5    5.20    3.90
  -9  -1   5    3.70    4.40
   8   1  -5   15.90    4.00
   8   1  -5   14.60    3.30
  -8  -1   5   12.90    2.40
  -8  -1   5   13.10    3.90
  -8  -1   5    9.60    3.30
   7   1  -5   35.50    4.10
   7   1  -5   28.70    4.40
  -7  -1   5   33.70    3.40
  -7  -1   5   35.90    4.50
  -7  -1   5   31.80    4.50
   6   1  -5   37.30    4.20
   6   1  -5   38.70    4.00
   6   1  -5   50.79    4.80
   6   1  -5   36.90    2.80
  -6  -1   5   33.30    4.30
  -6  -1   5   42.20    3.50
  -6  -1   5   45.50    5.00
   5   1  -5  103.69    6.40
   5   1  -5   95.89    6.80
   5   1  -5   99.19    5.40
  -5  -1   5   97.59    6.80
  -5  -1   5  104.29    5.70
  -5  -1   5   97.49    6.80
   4   1  -5  125.09    7.90
   4   1  -5  129.39    6.90
   4   1  -5  145.09    7.90
  -4  -1   5  136.39    8.10
  -4  -1   5  142.09    8.10
  -4  -1   5  137.39    7.10
   3   1  -5  103.39    6.20
   3   1  -5   99.39    5.60
   3   1  -5   99.89    6.30
   3   1  -5  102.89    6.10
  -3  -1   5  106.99    6.10
  -3  -1   5  105.29    5.30
  -3  -1   5  111.99    6.40
  -3  -1   5  101.19    6.30
   2   1  -5  192.48    9.90
   2   1  -5  179.78    9.40
   2   1  -5  185.58    9.70
   2   1  -5  170.18    9.50
   2   1  -5  177.38    9.60
  -2  -1   5  171.18    9.80
  -2  -1   5  187.38    9.80
  -2  -1   5  182.88    9.50
  -2  -1   5  182.28    9.60
   1   1  -5   26.80    2.60
   1   1  -5   23.50    2.10
   1   1  -5   20.60    1.10
   1   1  -5   22.30    2.00
   1   1  -5   24.10    2.30
   1   1  -5   24.20    2.20
   1   1  -5   21.00    2.20
  -1  -1   5   34.60   12.20
  -1  -1   5   23.20    2.00
  -1  -1   5   22.70    1.90
  -1  -1   5   26.20    2.70
  -1  -1   5   20.20    2.50
   0   1  -5   14.20    1.30
   0   1  -5   12.00    1.90
   0   1  -5   14.90    1.50
   0   1  -5   24.60   11.10
   0   1  -5   19.60    2.00
   0   1  -5   15.10    1.80
   0  -1   5   11.70    1.00
   0  -1   5   14.80    2.20
   0  -1   5    8.00   16.30
   0  -1   5   16.00    1.90
   0  -1   5   18.50   12.40
  -1   1  -5  114.99    7.10
  -1   1  -5  115.49    6.70
  -1   1  -5  125.59    6.00
  -1   1  -5  135.09   18.70
  -1   1  -5  127.19    6.00
  -1   1  -5  108.09    6.70
  -1   1  -5   60.39   29.90
  -1   1  -5  127.59    6.80
  -1   1  -5  110.29    6.50
  -1   1  -5  130.19    6.90
   1  -1   5  130.39    6.90
   1  -1   5  113.49    7.10
   1  -1   5  107.09   18.00
   1  -1   5   98.69   30.00
  -2   1  -5  136.29   40.20
  -2   1  -5  168.78    9.60
  -2   1  -5  182.28    9.60
  -2   1  -5  189.38    9.60
  -2   1  -5  192.58    9.60
  -2   1  -5  192.68   23.20
  -2   1  -5  178.78   10.00
  -2   1  -5  179.78    9.70
   2  -1   5  141.39   23.40
   2  -1   5  182.28    9.90
   2  -1   5  182.48   39.20
   2  -1   5  167.28    9.70
   2  -1   5  183.38   10.00
  -3   1  -5  184.98   10.20
  -3   1  -5  198.48   10.70
  -3   1  -5  191.78    9.30
  -3   1  -5  181.38    9.30
  -3   1  -5  191.08   10.50
   3  -1   5  188.28   10.40
   3  -1   5  216.68   11.10
   3  -1   5  188.18   10.40
   3  -1   5  190.88   10.70
  -4   1  -5  299.37   15.00
  -4   1  -5  293.07   16.10
  -4   1  -5  305.87   16.40
  -4   1  -5  315.37   15.00
   4  -1   5  316.97   15.90
   4  -1   5  310.47   16.10
   4  -1   5  289.57   16.30
  -5   1  -5  208.88   12.50
  -5   1  -5  200.48   10.90
  -5   1  -5  216.58   11.00
  -5   1  -5  213.68   11.90
   5  -1   5  206.48   12.20
   5  -1   5  223.98   12.20
   5  -1   5  243.98   12.10
  -6   1  -5  186.28   10.10
  -6   1  -5  182.58   10.70
  -6   1  -5  185.38   11.40
   6  -1   5  197.28   11.00
   6  -1   5  200.98   11.30
   6  -1   5  180.98   11.50
  -7   1  -5   31.10    3.70
  -7   1  -5   36.60    5.30
  -7   1  -5   50.79    5.20
  -7   1  -5   42.20    3.70
   7  -1   5   39.40    5.20
   7  -1   5   49.00    4.90
   7  -1   5   38.10    4.80
  -8   1  -5   32.10    5.00
  -8   1  -5   37.90    5.00
   8  -1   5   35.00    5.10
   8  -1   5   38.10    5.70
   8  -1   5   40.00    4.70
   9   0  -5    1.20    2.70
  -9   0   5    8.00    4.40
  -9   0   5    8.80    2.80
  -9   0   5    8.70    3.80
   8   0  -5   10.60    3.10
  -8   0   5   15.50    4.50
  -8   0   5   14.40    2.60
  -8   0   5   14.60    3.80
   7   0  -5   38.60    4.30
   7   0  -5   29.90    4.50
  -7   0   5   33.30    5.00
  -7   0   5   36.10    3.50
  -7   0   5   28.30    4.30
   6   0  -5   37.70    4.30
   6   0  -5   41.20    4.00
  -6   0   5   38.20    3.30
  -6   0   5   40.00    4.10
  -6   0   5   40.20    4.70
   5   0  -5   52.69    3.00
   5   0  -5   53.99    4.30
   5   0  -5   48.60    4.10
  -5   0   5   58.49    4.50
  -5   0   5   52.59    4.70
  -5   0   5   54.89    3.50
   4   0  -5    3.30    1.00
   4   0  -5    2.80    1.50
   4   0  -5    1.10    1.10
  -4   0   5    1.30    0.90
  -4   0   5    3.30    2.10
  -4   0   5    2.30    1.70
   3   0  -5   17.40    2.40
   3   0  -5   13.00    2.20
   3   0  -5   15.70    2.10
   3   0  -5   14.20    1.70
   3   0  -5   16.40    2.30
  -3   0   5   22.20   10.10
  -3   0   5   15.20    2.40
  -3   0   5   13.70    2.20
  -3   0   5   15.70    2.00
  -3   0   5   17.70    1.40
  -3   0   5   18.70    2.50
   2   0  -5   69.09    3.80
   2   0  -5   68.09    3.80
   2   0  -5   67.29    4.30
   2   0  -5   75.39    4.70
   2   0  -5   68.99    4.60
   2   0  -5   75.99    4.60
  -2   0   5   73.29    3.80
  -2   0   5   73.99   13.70
  -2   0   5   79.89    4.70
  -2   0   5   73.19    4.40
  -2   0   5   74.49    4.30
   1   0  -5   90.89    5.30
   1   0  -5   89.29    5.10
   1   0  -5   88.59    4.90
   1   0  -5  107.89   15.10
   1   0  -5   83.79    5.30
   1   0  -5   91.19    4.60
   1   0  -5   84.59    5.00
   1   0  -5   80.99    5.30
  -1   0   5   74.69   14.70
  -1   0   5   90.79    5.30
  -1   0   5   86.39    5.70
  -1   0   5   98.29    5.00
  -1   0   5   88.59    4.80
   0   0  -5  132.69    7.00
   0   0  -5  128.19    6.40
   0   0  -5  122.49    6.70
   0   0  -5  134.09    6.70
   0   0  -5  132.29   17.90
   0   0  -5  120.69    6.80
   0   0  -5  129.79    6.50
   0   0   5  116.79    6.80
   0   0   5  125.59    7.20
   0   0   5   91.19   17.70
   0   0   5   65.09   29.40
   0   0   5  122.79    6.80
   0   0   5  112.39    6.10
  -1   0  -5  969.90   50.19
  -1   0  -5 1081.79   49.30
  -1   0  -5 1030.90   49.90
  -1   0  -5 1045.90   49.80
  -1   0  -5  979.10   49.99
  -1   0  -5  970.30   50.29
  -1   0  -5 1029.40   49.70
  -1   0  -5 1021.60   62.49
  -1   0  -5 1045.00   49.80
  -1   0  -5 1019.40   49.20
   1   0   5 1028.90   50.29
   1   0   5  984.70   86.09
   1   0   5 1001.10   49.90
  -2   0  -5   55.29    4.50
  -2   0  -5   68.79    3.80
  -2   0  -5   52.29   17.10
  -2   0  -5   58.59    3.20
  -2   0  -5   44.50   29.30
  -2   0  -5   57.39    4.10
  -2   0  -5   57.39    4.00
  -2   0  -5   60.69    4.10
  -2   0  -5   52.69    4.70
  -2   0  -5   61.49    3.20
  -2   0  -5   58.39    4.00
   2   0   5   61.79    4.40
   2   0   5   63.79    4.40
   2   0   5   59.79    4.10
   2   0   5   55.59   28.60
  -3   0  -5  102.19    6.80
  -3   0  -5   98.69    6.30
  -3   0  -5  114.89    5.60
  -3   0  -5  107.69    5.60
   3   0   5  114.89    6.70
   3   0   5  104.79    6.90
   3   0   5  115.49    7.00
  -4   0  -5  325.77   16.20
  -4   0  -5  314.07   17.30
  -4   0  -5  297.17   17.40
  -4   0  -5  333.07   16.30
   4   0   5  320.27   17.10
   4   0   5  325.07   17.40
   4   0   5  328.77   17.70
   4   0   5  363.76   17.10
  -5   0  -5   57.69    3.70
  -5   0  -5   55.89    3.80
  -5   0  -5   60.49    5.90
  -5   0  -5   44.60    4.40
   5   0   5   52.29    4.90
   5   0   5   58.79    5.60
   5   0   5   66.89    4.70
  -6   0  -5   64.39    5.20
  -6   0  -5   62.99    4.50
  -6   0  -5   69.09    6.40
   6   0   5   65.79    6.40
   6   0   5   62.39    5.20
   6   0   5   66.79    5.20
  -7   0  -5   70.09    7.20
  -7   0  -5   65.59    5.10
   7   0   5   70.69    7.00
   7   0   5   72.19    5.70
   7   0   5   61.89    6.30
  -8   0  -5   10.50    4.50
   8   0   5   10.90    3.10
   8   0   5   11.30    3.90
   8   0   5   16.40    3.80
   9  -1  -5   19.90    3.80
  -9   1   5   23.90    4.60
  -9   1   5   20.40    3.50
  -9   1   5   22.40    5.00
   8  -1  -5   15.50    3.20
  -8   1   5    9.60    3.00
  -8   1   5    9.30    3.80
  -8   1   5   10.50    2.60
   7  -1  -5   58.39    4.40
   7  -1  -5   59.79    5.90
   7  -1  -5   64.19    5.20
  -7   1   5   57.09    5.50
  -7   1   5   57.39    4.40
  -7   1   5   59.29    6.20
   6  -1  -5  160.08    9.90
   6  -1  -5  181.78    9.70
   6  -1  -5  166.28    9.40
  -6   1   5  163.08    8.90
  -6   1   5  160.38   10.20
  -6   1   5  143.39    9.80
   5  -1  -5   14.10    2.40
   5  -1  -5   13.10    2.60
  -5   1   5   14.70    3.10
  -5   1   5   16.80    2.60
  -5   1   5   15.80    1.90
   4  -1  -5   32.10    2.50
   4  -1  -5   32.30    3.10
   4  -1  -5   34.50    3.50
  -4   1   5   31.80    3.20
  -4   1   5   37.10    3.80
  -4   1   5   43.70   10.60
  -4   1   5   34.00    2.60
   3  -1  -5   58.79    4.20
   3  -1  -5   54.79    4.30
   3  -1  -5   57.19    4.20
   3  -1  -5   54.19    3.90
   3  -1  -5   58.79    3.40
   3  -1  -5   58.19    4.50
  -3   1   5   60.29   12.20
  -3   1   5   57.89    3.50
  -3   1   5   60.09    3.90
  -3   1   5   56.49    4.00
  -3   1   5   61.59    4.10
  -3   1   5   63.19    4.30
   2  -1  -5   99.99    5.20
   2  -1  -5  103.59    5.70
   2  -1  -5   95.79    5.80
   2  -1  -5  100.39    6.40
   2  -1  -5  109.69    6.10
   2  -1  -5   96.89    5.80
  -2   1   5  100.09    5.80
  -2   1   5  104.39    5.40
  -2   1   5   91.09    5.20
  -2   1   5   96.89    5.50
  -2   1   5   96.99   15.40
  -2   1   5   91.39    5.60
   1  -1  -5  135.59   16.50
   1  -1  -5  110.09    6.10
   1  -1  -5  120.99    6.40
   1  -1  -5  112.29    6.60
   1  -1  -5  112.39    6.20
   1  -1  -5  130.89    6.50
   1  -1  -5  113.19    7.20
  -1   1   5   97.29    6.10
  -1   1   5  121.29    6.50
  -1   1   5   81.39   16.10
  -1   1   5  125.79    6.30
  -1   1   5  115.79    6.10
   0  -1  -5  578.54   27.80
   0  -1  -5  517.65   39.50
   0  -1  -5  561.14   28.70
   0  -1  -5  551.84   27.70
   0  -1  -5  595.44   27.90
   0  -1  -5  573.04   27.80
   0  -1  -5  514.75   27.70
   0   1   5  586.94   27.80
   0   1   5  618.94   28.10
   0   1   5  593.84   27.50
   0   1   5  557.74   28.60
   0   1   5  513.45   27.40
  -1  -1  -5  214.28   11.20
  -1  -1  -5  131.19   39.90
  -1  -1  -5  236.28   10.90
  -1  -1  -5  229.48   10.90
  -1  -1  -5  164.08   23.90
  -1  -1  -5  227.48   11.00
  -1  -1  -5  216.98   11.30
  -1  -1  -5  204.38   12.00
   1   1   5  207.88   37.00
   1   1   5  208.98   11.50
   1   1   5  221.48   11.30
   1   1   5  214.38   12.00
  -2  -1  -5   44.10    3.40
  -2  -1  -5   47.50    2.90
  -2  -1  -5   48.60    3.10
  -2  -1  -5   45.90    2.90
  -2  -1  -5   48.40    3.40
  -2  -1  -5   47.80    4.30
   2   1   5   49.30    4.40
   2   1   5   50.09    4.00
   2   1   5   44.00    3.50
  -3  -1  -5  164.18    9.00
  -3  -1  -5  176.68   10.30
  -3  -1  -5  181.88    9.10
  -3  -1  -5  169.98    9.50
   3   1   5  172.08    9.70
   3   1   5  187.28   10.20
   3   1   5  177.28   10.30
  -4  -1  -5   82.29    5.90
  -4  -1  -5   78.69    4.80
  -4  -1  -5   75.49    6.40
  -4  -1  -5   86.59    4.70
   4   1   5   71.69    5.60
   4   1   5   77.59    6.00
   4   1   5   75.89    6.20
  -5  -1  -5   93.29    6.70
  -5  -1  -5  102.19    7.30
  -5  -1  -5   93.39    5.90
  -5  -1  -5   98.39    5.90
   5   1   5   83.29    7.00
   5   1   5  109.49    6.50
   5   1   5   99.79    6.80
  -6  -1  -5   79.99    6.30
  -6  -1  -5   83.79    6.80
  -6  -1  -5   63.29    5.10
   6   1   5   74.79    6.80
   6   1   5   81.29    5.70
   6   1   5   82.59    6.00
  -7  -1  -5   69.59    7.40
  -7  -1  -5   80.19    6.10
  -7  -1  -5   88.39    6.80
   7   1   5   91.69    7.70
   7   1   5   73.89    6.00
   7   1   5   83.89    6.50
  -8  -1  -5   11.60    5.00
   8   1   5   14.80    3.30
   8   1   5   23.70    4.70
   8   1   5   25.60    5.00
   9  -2  -5   13.60    3.30
  -9   2   5   14.10    3.40
  -9   2   5   12.10    2.80
  -9   2   5   10.90    4.60
   8  -2  -5  102.59    7.10
  -8   2   5   84.29    6.20
  -8   2   5   98.79    8.20
  -8   2   5   97.39    7.20
   7  -2  -5   35.30    3.40
   7  -2  -5   30.00    3.70
  -7   2   5   40.00    5.10
  -7   2   5   29.20    4.30
  -7   2   5   32.10    3.30
   6  -2  -5  124.09    7.70
   6  -2  -5  123.99    7.50
   6  -2  -5  116.29    7.90
  -6   2   5  119.29    8.00
  -6   2   5  126.79    8.40
  -6   2   5  119.99    7.00
  -6   2   5  135.39   14.80
   5  -2  -5   80.09    5.90
   5  -2  -5   85.89    5.30
   5  -2  -5   97.59    5.90
   5  -2  -5   83.19    5.70
  -5   2   5   86.49    5.30
  -5   2   5   88.89   12.50
  -5   2   5   84.59    6.00
  -5   2   5   85.89    6.40
   4  -2  -5   41.80    3.00
   4  -2  -5   41.10    3.70
   4  -2  -5   44.40    3.60
   4  -2  -5   45.50    3.70
  -4   2   5   40.50    4.10
  -4   2   5   34.40    3.60
  -4   2   5   40.30    9.70
  -4   2   5   38.20    3.00
   3  -2  -5   16.20    2.10
   3  -2  -5   14.10    1.70
   3  -2  -5   12.70    2.40
   3  -2  -5   12.70    2.00
  -3   2   5    8.20    8.00
  -3   2   5   13.70    1.20
  -3   2   5   14.20    1.90
  -3   2   5   10.80    2.00
  -3   2   5   13.00    2.00
  -3   2   5   12.00    1.80
   2  -2  -5  564.34   28.70
   2  -2  -5  572.74   29.00
   2  -2  -5  694.53   38.50
   2  -2  -5  596.44   29.50
   2  -2  -5  606.94   28.90
   2  -2  -5  583.14   28.40
   2  -2  -5  533.15   28.60
  -2   2   5  547.85   28.50
  -2   2   5  601.74   28.70
  -2   2   5  574.44   28.40
  -2   2   5  536.65   28.50
   1  -2  -5  105.19    6.10
   1  -2  -5  116.99    6.20
   1  -2  -5  117.29    6.10
   1  -2  -5  123.29   19.00
   1  -2  -5  109.89    7.00
   1  -2  -5  112.09    6.00
   1  -2  -5  107.49    6.30
  -1   2   5  110.29    6.10
  -1   2   5  110.09    6.00
  -1   2   5  111.99    6.30
  -1   2   5   54.69   27.80
  -1   2   5  113.49    6.10
   0  -2  -5   45.50    3.90
   0  -2  -5   48.90    3.00
   0  -2  -5   47.00    3.00
   0  -2  -5   41.70    3.30
   0  -2  -5   41.60    2.80
   0  -2  -5   26.20   20.60
   0  -2  -5   39.70   14.70
   0   2   5   52.99    3.60
   0   2   5   41.90    3.90
   0   2   5   48.80    2.80
   0   2   5   43.80   26.60
   0   2   5   47.80    4.20
   0   2   5   48.00    2.80
  -1  -2  -5   26.50    2.60
  -1  -2  -5   25.70    2.40
  -1  -2  -5   20.60   15.30
  -1  -2  -5   30.80    2.30
  -1  -2  -5   10.60   23.70
  -1  -2  -5   25.10    2.10
  -1  -2  -5   22.80    3.40
  -1  -2  -5   23.20    1.70
   1   2   5   22.60   24.90
   1   2   5   26.10    1.70
   1   2   5   22.20    2.70
   1   2   5   30.30    2.60
   1   2   5   22.70    1.60
   1   2   5   24.90    3.50
  -2  -2  -5  155.88    8.30
  -2  -2  -5  154.58    8.30
  -2  -2  -5  154.38    9.60
  -2  -2  -5  158.68    8.60
  -2  -2  -5  162.28    8.00
   2   2   5  159.98    9.20
   2   2   5  143.79    9.20
   2   2   5  156.88    8.70
  -3  -2  -5  537.55   26.30
  -3  -2  -5  545.05   26.40
  -3  -2  -5  519.05   26.50
  -3  -2  -5  520.55   26.00
  -3  -2  -5  543.05   27.60
   3   2   5  550.14   27.60
   3   2   5  509.95   26.80
   3   2   5  522.25   27.20
  -4  -2  -5   73.59    5.60
  -4  -2  -5   54.69    3.80
  -4  -2  -5   62.69    4.10
  -4  -2  -5   53.59    5.60
   4   2   5   54.79    5.70
   4   2   5   54.19    4.90
   4   2   5   57.39    5.50
  -5  -2  -5   91.59    7.60
  -5  -2  -5   83.59    6.50
  -5  -2  -5   75.29    5.40
   5   2   5   82.89    6.90
   5   2   5   74.19    6.10
  -6  -2  -5   55.49    6.80
  -6  -2  -5   78.19    6.50
  -6  -2  -5   57.99    5.20
   6   2   5   59.69    6.50
   6   2   5   61.19    6.00
  -7  -2  -5   83.39    6.40
  -7  -2  -5   83.29    8.60
   7   2   5   79.09    7.40
   7   2   5   93.59    8.10
   9  -3  -5   18.90    3.50
  -9   3   5   16.40    4.10
  -9   3   5   15.70    4.70
  -9   3   5   15.20    3.10
   8  -3  -5   34.00    4.20
  -8   3   5   33.90    5.20
  -8   3   5   31.90    3.70
  -8   3   5   38.20    5.00
   7  -3  -5   37.80    4.10
   7  -3  -5   30.40    3.30
  -7   3   5   34.40    4.50
  -7   3   5   29.90    4.30
  -7   3   5   38.00    3.80
   6  -3  -5   80.39    5.70
   6  -3  -5   77.49    5.70
  -6   3   5   83.39    5.40
  -6   3   5  100.19    7.00
  -6   3   5   77.39    6.10
   5  -3  -5   12.40    2.40
   5  -3  -5   13.10    2.10
   5  -3  -5   11.60    2.00
  -5   3   5   11.70    2.30
  -5   3   5   12.50    3.10
  -5   3   5   13.00    2.20
   4  -3  -5  144.69    8.80
   4  -3  -5  177.28    9.50
   4  -3  -5  153.78    8.80
   4  -3  -5  167.98    8.50
  -4   3   5  151.28    9.50
  -4   3   5  153.78    7.90
  -4   3   5  152.98    8.50
  -4   3   5  156.08    9.00
   3  -3  -5  211.78   11.30
   3  -3  -5  208.18   11.40
   3  -3  -5  208.08   12.10
   3  -3  -5  223.48   11.10
  -3   3   5  248.58   11.70
  -3   3   5  200.48   11.20
  -3   3   5  207.78   11.30
  -3   3   5  205.08   11.20
   2  -3  -5  284.07   24.20
   2  -3  -5  301.07   14.70
   2  -3  -5  299.07   15.20
   2  -3  -5  314.97   16.20
   2  -3  -5  294.57   15.00
   2  -3  -5  301.27   15.10
  -2   3   5  268.27   15.00
  -2   3   5  296.97   15.10
  -2   3   5  298.67   15.20
  -2   3   5  299.37   15.20
   1  -3  -5  430.96   20.50
   1  -3  -5  324.37   31.10
   1  -3  -5  401.66   19.90
   1  -3  -5  376.96   21.20
   1  -3  -5  390.26   19.90
   1  -3  -5  423.86   20.40
   1  -3  -5  418.66   20.40
  -1   3   5  408.16   20.00
  -1   3   5  448.66   20.30
  -1   3   5  414.36   20.50
  -1   3   5  287.07   47.70
  -1   3   5  421.06   20.30
   0  -3  -5   35.50   15.60
   0  -3  -5   32.90    2.80
   0  -3  -5   32.70    3.10
   0  -3  -5   17.10   22.90
   0  -3  -5   22.60    3.20
   0  -3  -5   31.20    2.70
   0   3   5   29.20    2.30
   0   3   5   19.90   22.80
   0   3   5   22.60    3.60
   0   3   5   36.90    3.30
   0   3   5   31.60    2.40
  -1  -3  -5  544.25   26.50
  -1  -3  -5  539.75   26.50
  -1  -3  -5  539.25   27.70
  -1  -3  -5  500.35   26.40
   1   3   5  535.85   27.00
   1   3   5  509.75   27.50
   1   3   5  620.94   65.69
   1   3   5  539.65   26.50
   1   3   5  523.15   26.10
   1   3   5  521.25   26.10
  -2  -3  -5   57.99    4.10
  -2  -3  -5   53.79    3.90
  -2  -3  -5   66.39    5.60
   2   3   5   68.89    5.20
   2   3   5   52.09    3.40
   2   3   5   63.39    5.00
   2   3   5   64.39    4.40
   2   3   5   60.79    3.40
  -3  -3  -5  123.99    8.40
  -3  -3  -5  112.89    5.90
  -3  -3  -5  115.39    5.90
  -3  -3  -5  132.29    7.00
  -3  -3  -5  124.59    6.70
   3   3   5  131.29    8.30
   3   3   5   99.19    5.90
   3   3   5  123.69    7.20
   3   3   5  126.89    8.00
   3   3   5  110.59    5.90
  -4  -3  -5   26.20    3.10
  -4  -3  -5   27.60    4.60
  -4  -3  -5   24.80    4.20
   4   3   5   20.80    3.90
   4   3   5   16.20    3.00
   4   3   5   19.40    3.90
  -5  -3  -5   80.09    7.90
  -5  -3  -5   82.69    5.80
  -5  -3  -5   86.29    7.10
   5   3   5   90.19    7.30
   5   3   5   80.89    6.60
   5   3   5   72.49    5.80
  -6  -3  -5   29.90    5.00
  -6  -3  -5   35.10    4.30
  -6  -3  -5   32.90    5.90
   6   3   5   33.00    4.30
   6   3   5   33.10    5.20
  -7  -3  -5   79.79    9.00
   9  -4  -5   17.30    3.50
  -9   4   5   15.90    3.20
  -9   4   5   10.00    3.60
  -9   4   5   12.60    3.90
   8  -4  -5   21.80    3.60
  -8   4   5   17.50    3.10
  -8   4   5   25.30    4.30
  -8   4   5   22.70    4.10
   7  -4  -5   15.10    2.60
   7  -4  -5   24.00    3.50
  -7   4   5   22.90    3.10
  -7   4   5   19.90    3.30
  -7   4   5   18.50    4.30
   6  -4  -5   63.89    5.10
   6  -4  -5   62.89    5.10
  -6   4   5   54.09    6.20
  -6   4   5   64.29    5.70
  -6   4   5   75.69    4.90
   5  -4  -5  112.69    6.90
   5  -4  -5  128.99    7.50
  -5   4   5   99.59    7.10
  -5   4   5   98.49    7.30
  -5   4   5  114.19    6.80
   4  -4  -5  172.98   10.40
   4  -4  -5  172.48   10.00
  -4   4   5  173.48   10.10
  -4   4   5  176.28    9.80
  -4   4   5  193.18   10.40
   3  -4  -5  380.86   19.90
   3  -4  -5  358.56   18.90
   3  -4  -5  424.36   28.20
   3  -4  -5  409.06   20.80
  -3   4   5  392.76   19.70
  -3   4   5  385.36   19.90
  -3   4   5  390.26   19.80
   2  -4  -5   39.10    4.40
   2  -4  -5   36.50   12.30
   2  -4  -5   36.60    3.30
  -2   4   5   -0.10   22.30
  -2   4   5   37.00    2.80
  -2   4   5   36.90    3.20
  -2   4   5   34.80    3.40
  -2   4   5   40.60    3.10
   1  -4  -5  303.97   31.80
   1  -4  -5  375.56   19.80
   1  -4  -5  391.96   20.90
  -1   4   5  406.26   19.60
  -1   4   5  419.86   19.70
  -1   4   5  342.07   49.40
  -1   4   5  403.86   19.10
   0  -4  -5   61.89    4.40
   0  -4  -5   56.09    5.10
   0   4   5   62.09    4.00
   0   4   5   59.19    5.50
   0   4   5   59.29    3.90
   0   4   5   81.49   31.30
  -1  -4  -5  188.78   11.30
  -1  -4  -5  170.38   10.00
  -1  -4  -5  185.78    9.90
   1   4   5  204.68    9.90
   1   4   5  169.68    9.60
   1   4   5  183.28    9.70
   1   4   5  191.88   10.70
   1   4   5  181.48   11.30
  -2  -4  -5   76.89    4.80
  -2  -4  -5   71.49    5.20
  -2  -4  -5   77.19    6.70
   2   4   5   69.79    4.40
   2   4   5   72.39    4.50
   2   4   5   80.59    6.10
   2   4   5   81.49    6.60
   2   4   5   75.09    5.10
  -3  -4  -5  115.79    7.30
  -3  -4  -5  135.19    7.80
  -3  -4  -5  115.99    9.10
   3   4   5  134.89    6.90
   3   4   5  128.39    8.40
   3   4   5  128.19    7.90
   3   4   5  128.39    8.90
  -4  -4  -5   14.90    3.70
  -4  -4  -5   12.70    4.00
  -4  -4  -5   15.30    2.80
   4   4   5   14.20    3.00
   4   4   5   17.70    4.00
   4   4   5   11.10    3.00
  -5  -4  -5   49.20    6.60
  -5  -4  -5   52.19    6.30
  -5  -4  -5   51.69    5.00
   5   4   5   44.00    5.10
   5   4   5   60.39    6.40
   5   4   5   59.79    6.40
  -6  -4  -5   44.50    5.30
  -6  -4  -5   49.80    6.90
  -6  -4  -5   44.80    6.30
   6   4   5   43.00    5.30
   6   4   5   49.40    6.40
   9  -5  -5    3.40    2.80
   9  -5  -5    0.60    2.60
  -9   5   5    1.20    2.40
  -9   5   5    1.60    3.90
  -9   5   5    5.00    3.10
   8  -5  -5   55.99    5.40
   8  -5  -5   56.49    4.60
  -8   5   5   49.60    5.40
  -8   5   5   50.19    6.40
  -8   5   5   47.60    4.90
   7  -5  -5   17.40    2.50
   7  -5  -5   21.80    3.60
   7  -5  -5   19.00    3.00
  -7   5   5   23.90    4.10
  -7   5   5   22.50    3.70
  -7   5   5   20.60    3.30
   6  -5  -5   26.50    3.80
   6  -5  -5   27.20    3.70
  -6   5   5   31.30    3.90
  -6   5   5   21.90    3.10
  -6   5   5   32.90    4.80
   5  -5  -5  112.99    7.10
   5  -5  -5  109.49    7.50
  -5   5   5  106.49    6.90
  -5   5   5  105.19    7.20
   4  -5  -5   30.90    4.10
   4  -5  -5   38.20    9.40
   4  -5  -5   31.70    3.40
  -4   5   5   30.80    3.40
  -4   5   5   26.40    3.40
  -4   5   5   26.90    3.40
   3  -5  -5  385.46   31.30
   3  -5  -5  426.36   22.30
   3  -5  -5  429.06   21.40
  -3   5   5  412.26   21.40
  -3   5   5  415.56   20.90
  -3   5   5  411.86   21.30
   2  -5  -5   91.69    5.80
   2  -5  -5   99.49    7.30
   2  -5  -5   75.99   18.50
  -2   5   5   99.19    6.00
  -2   5   5   69.69   29.60
   1  -5  -5   20.70    3.90
   1  -5  -5   24.90    3.00
  -1   5   5   33.20   26.10
  -1   5   5   25.80    2.80
  -1   5   5   28.00    2.70
   0  -5  -5   37.40    3.70
   0  -5  -5   34.90    5.00
   0   5   5   31.80    4.60
   0   5   5   40.40    3.20
   0   5   5   44.50    3.60
   0   5   5   41.80    2.90
  -1  -5  -5   44.70    5.90
  -1  -5  -5   55.79    4.30
  -1  -5  -5   46.60    3.80
   1   5   5   51.49    3.80
   1   5   5   49.70    5.60
   1   5   5   47.30    3.60
   1   5   5   54.59    3.70
  -2  -5  -5   49.99    4.50
  -2  -5  -5   51.19    6.40
   2   5   5   58.39    4.00
   2   5   5   53.89    4.10
   2   5   5   49.99    5.50
   2   5   5   52.09    5.80
  -3  -5  -5   73.09    5.70
  -3  -5  -5   59.69    7.10
   3   5   5   65.39    6.60
   3   5   5   60.89    6.10
   3   5   5   62.69    5.30
   3   5   5   67.49    4.30
  -4  -5  -5   73.79    7.80
  -4  -5  -5   58.69    5.60
  -4  -5  -5   57.39    7.20
   4   5   5   75.99    7.30
   4   5   5   63.29    5.90
   4   5   5   70.89    6.80
  -5  -5  -5   39.20    6.10
  -5  -5  -5   39.50    5.00
  -5  -5  -5   34.70    6.20
   5   5   5   38.10    5.00
   5   5   5   38.20    5.70
   5   5   5   33.60    5.50
   9  -6  -5   14.60    3.60
  -9   6   5    7.70    3.00
  -9   6   5   11.70    4.80
  -9   6   5   12.80    3.50
   8  -6  -5    0.80    2.60
  -8   6   5   -1.60    2.50
  -8   6   5    6.10    4.10
  -8   6   5    2.50    3.10
   7  -6  -5   33.90    4.30
   7  -6  -5   34.00    4.10
  -7   6   5   38.40    5.70
  -7   6   5   29.50    4.10
  -7   6   5   39.60    4.80
   6  -6  -5   90.69    7.10
   6  -6  -5   80.79    6.40
  -6   6   5   95.39    6.60
   5  -6  -5  100.39    6.30
   5  -6  -5   84.99    7.00
  -5   6   5   89.89    6.50
  -5   6   5   90.59    6.60
   4  -6  -5   21.50    3.90
   4  -6  -5   22.00    3.30
   4  -6  -5   25.60   10.20
  -4   6   5   21.20    3.20
  -4   6   5   19.50    2.90
  -4   6   5    3.60   22.80
  -4   6   5   25.10    3.60
   3  -6  -5  126.29    8.60
   3  -6  -5  135.39    7.80
   3  -6  -5  109.39   20.10
  -3   6   5   81.89   33.30
  -3   6   5  136.19    7.90
  -3   6   5  131.79    7.80
  -3   6   5  121.49    7.20
   2  -6  -5   98.79    6.60
   2  -6  -5   98.49    7.90
  -2   6   5   94.79   33.80
  -2   6   5   99.29    5.40
  -2   6   5  103.89    6.50
   1  -6  -5    1.60    2.10
   1  -6  -5    3.50    3.20
  -1   6   5    4.50    1.80
  -1   6   5    9.40   23.10
   0  -6  -5   66.19    7.10
   0  -6  -5   65.59    5.20
   0   6   5   71.49    6.10
   0   6   5   62.29    3.90
   0   6   5   71.49    4.80
  -1  -6  -5  122.09    7.60
  -1  -6  -5  114.39    8.70
   1   6   5  127.69    7.20
   1   6   5  110.79    8.70
   1   6   5  108.39    6.70
  -2  -6  -5   66.59    7.50
  -2  -6  -5   56.09    5.20
   2   6   5   57.39    6.30
   2   6   5   50.59    6.00
   2   6   5   55.39    4.30
   2   6   5   63.49    4.40
  -3  -6  -5   24.30    3.70
  -3  -6  -5   23.30    5.40
   3   6   5   21.90    4.50
   3   6   5   22.60    3.30
   3   6   5   18.90    2.40
   3   6   5   26.60    5.10
  -4  -6  -5   94.59    9.40
  -4  -6  -5  100.19    9.20
  -4  -6  -5   99.69    7.50
   4   6   5   85.79    8.60
   4   6   5  102.49    8.20
   4   6   5   97.39    6.90
  -9   7   5   32.00    4.70
  -9   7   5   31.90    6.30
   8  -7  -5   12.20    3.40
  -8   7   5    7.80    3.40
  -8   7   5   16.60    3.80
   7  -7  -5   58.19    5.70
   7  -7  -5   55.19    5.60
  -7   7   5   47.90    5.30
   6  -7  -5   21.20    4.30
   6  -7  -5   16.40    2.90
  -6   7   5   17.20    3.50
  -6   7   5   17.00    3.50
   5  -7  -5   75.19    5.90
   5  -7  -5   62.59    6.60
  -5   7   5   35.10   31.20
  -5   7   5   75.89    5.90
  -5   7   5   74.69    5.60
   4  -7  -5  143.79   10.10
   4  -7  -5  147.49    9.20
  -4   7   5  143.39    9.10
  -4   7   5  152.68    9.40
   3  -7  -5   34.50    4.80
   3  -7  -5   24.90    3.70
  -3   7   5   27.50    3.70
  -3   7   5   35.70    4.50
  -3   7   5   28.40   26.10
   2  -7  -5   44.10    4.60
   2  -7  -5   36.00    5.50
  -2   7   5   43.70    4.30
  -2   7   5   54.39   29.60
   1  -7  -5  135.39   10.80
   1  -7  -5  168.28    9.70
  -1   7   5  154.18    9.10
   0  -7  -5   21.10    5.00
   0  -7  -5   23.30    3.60
   0   7   5   21.50    3.20
   0   7   5   18.10    4.50
  -1  -7  -5   23.80    3.80
  -1  -7  -5   27.20    5.70
   1   7   5   28.00    3.30
   1   7   5   25.60    4.90
  -2  -7  -5   80.29    6.50
  -2  -7  -5   74.09    8.70
   2   7   5   69.19    7.40
   2   7   5   82.89    7.40
  -3  -7  -5   19.30    5.60
  -3  -7  -5   19.40    4.00
   3   7   5   17.70    4.70
   3   7   5   13.90    4.40
   8  -8  -5   19.60    4.00
  -8   8   5   22.20    4.30
   7  -8  -5   27.40    4.20
   7  -8  -5   27.90    4.70
  -7   8   5   24.20    3.80
  -7   8   5   18.40    3.50
   6  -8  -5   46.90    5.90
   6  -8  -5   54.49    5.60
  -6   8   5   49.70    5.30
  -6   8   5   50.79    5.60
   5  -8  -5   68.69    7.30
   5  -8  -5   77.09    6.40
  -5   8   5   66.19    6.00
  -5   8   5   26.90   28.90
  -5   8   5   67.09    6.10
   4  -8  -5   52.19    5.40
   4  -8  -5   53.39    6.70
  -4   8   5   50.99    5.30
  -4   8   5   46.00   40.50
  -4   8   5   63.99    5.70
   3  -8  -5   29.70    5.40
   3  -8  -5   40.00    4.70
  -3   8   5   33.20    4.10
   2  -8  -5   48.30    6.40
   2  -8  -5   50.89    5.40
  -2   8   5   52.29    4.90
   1  -8  -5   30.50    4.20
   1  -8  -5   18.20    5.00
  -1   8   5   27.90    3.60
   0  -8  -5   28.90    4.20
   0  -8  -5   20.30    5.60
   0   8   5   28.70    5.40
   0   8   5   30.10    3.60
  -1  -8  -5   51.29    5.70
  -1  -8  -5   42.70    6.60
   1   8   5   53.39    6.50
   1   8   5   54.49    4.90
  -2  -8  -5   26.30    4.50
  -2  -8  -5   22.50    6.10
   2   8   5   33.50    6.00
   2   8   5   27.90    3.60
   2   8   5   25.20    5.60
   7  -9  -5   14.10    4.10
   7  -9  -5   12.00    3.60
  -7   9   5   13.30    3.70
  -7   9   5    8.10    3.90
   6  -9  -5   55.59    5.80
   6  -9  -5   39.50    6.20
  -6   9   5   36.00    4.90
  -6   9   5   29.80    5.10
   5  -9  -5   15.70    4.70
   5  -9  -5   15.40    3.70
  -5   9   5   19.70    3.80
  -5   9   5   15.80    3.60
   4  -9  -5  147.29    9.70
   4  -9  -5  124.59   10.60
  -4   9   5  144.29    9.30
  -4   9   5  143.39   10.00
   3  -9  -5    8.00    3.50
   3  -9  -5    7.20    3.50
  -3   9   5    8.00    3.10
   2  -9  -5   41.10    6.80
   2  -9  -5   57.19    5.60
  -2   9   5   50.79    5.10
   1  -9  -5   37.30    4.90
   1  -9  -5   36.50    6.40
  -1   9   5   38.50    4.40
  -1   9   5   33.00    5.80
   0  -9  -5   47.30    7.10
   0  -9  -5   55.69    6.10
   0   9   5   46.80    6.90
   0   9   5   56.69    5.30
   4 -10  -5   87.69    7.80
   4 -10  -5   68.69    8.70
  -4  10   5   79.69    7.10
   3 -10  -5    4.00    3.50
   3 -10  -5    2.80    4.80
  -3  10   5    5.90    3.10
  -1  11  -6   77.89    7.00
  -1  11  -6   63.39    6.80
   1 -11   6   78.29    7.00
   1 -11   6   58.79    6.80
  -2  11  -6   12.20    3.50
  -2  11  -6   18.00    3.50
  -2  11  -6   15.30    4.00
   2 -11   6    9.00    4.20
   2 -11   6   14.10    3.80
  -3  11  -6   -0.60    3.00
  -3  11  -6    4.10    2.90
  -3  11  -6    1.90    2.70
   3 -11   6   -6.70    3.50
   3 -11   6    9.00   24.20
   3 -11   6   -1.70    2.80
  -4  11  -6    9.80    3.80
  -4  11  -6    3.00    2.80
  -4  11  -6    4.10    3.10
   4 -11   6    5.80   23.10
   4 -11   6    2.80    2.60
   4 -11   6    0.50    3.00
   4 -11   6    4.30    2.60
  -5  11  -6   25.60    5.10
  -5  11  -6   21.20    3.80
  -5  11  -6   25.30    4.20
   5 -11   6   20.60    4.50
   5 -11   6   20.90    3.80
   5 -11   6   18.40   23.40
  -6  11  -6   21.00    4.10
  -6  11  -6   20.50    5.00
  -6  11  -6   22.40    3.90
   6 -11   6   22.20    5.40
   6 -11   6   22.40    4.30
   6 -11   6   38.30   25.50
   1  10  -6   10.10    3.70
   1  10  -6   20.50    3.60
  -1 -10   6   12.10    4.10
  -1 -10   6   22.40    4.50
   0  10  -6   54.19    6.10
   0  10  -6   43.30    5.10
   0 -10   6   49.70    5.60
   0 -10   6   33.40    4.90
  -1  10  -6   23.30    4.30
  -1  10  -6   21.40    3.90
   1 -10   6   20.30    4.60
   1 -10   6   27.50    4.30
  -2  10  -6   17.80    3.20
  -2  10  -6   18.80    4.10
  -2  10  -6   19.10    3.50
   2 -10   6   19.60    3.60
   2 -10   6   13.90    4.20
  -3  10  -6   13.70    3.20
  -3  10  -6   10.60    3.60
  -3  10  -6   15.80    3.20
   3 -10   6   26.70   24.00
   3 -10   6   13.90    4.10
   3 -10   6    7.20    2.50
  -4  10  -6   16.80    4.20
  -4  10  -6   10.50    3.00
  -4  10  -6   14.80    3.10
   4 -10   6    8.90    2.30
   4 -10   6   15.80    3.40
   4 -10   6   19.50   22.80
   4 -10   6   11.00    4.10
  -5  10  -6   11.90    3.30
  -5  10  -6   18.10    3.90
  -5  10  -6   13.60    3.10
   5 -10   6   11.90    4.40
   5 -10   6   29.70   21.90
   5 -10   6   15.10    3.50
  -6  10  -6   32.80    4.30
  -6  10  -6   26.80    5.20
  -6  10  -6   23.70    3.90
   6 -10   6   18.80    4.30
   6 -10   6   37.70   22.40
   6 -10   6   25.20    4.40
  -7  10  -6   15.80    3.80
  -7  10  -6   13.70    3.60
   7 -10   6    9.30    4.70
   7 -10   6   15.70    4.00
   7 -10   6    5.00   18.90
   3   9  -6   32.00    5.20
   3   9  -6   33.00    4.80
  -3  -9   6   18.70    4.50
   2   9  -6   23.30    3.60
   2   9  -6   18.30    4.20
  -2  -9   6   18.60    4.00
  -2  -9   6   14.70    3.20
   1   9  -6   22.30    4.10
   1   9  -6   17.30    3.50
  -1  -9   6   21.00    3.90
  -1  -9   6   18.70    3.50
   0   9  -6   18.60    3.80
   0   9  -6   15.30    2.90
   0  -9   6   16.50    3.60
  -1   9  -6   15.70    3.70
  -1   9  -6   11.50    2.90
  -1   9  -6   13.30    2.50
   1  -9   6   11.80    2.90
   1  -9   6    9.70    3.50
  -2   9  -6    4.40    2.40
  -2   9  -6    5.60    2.90
  -2   9  -6    1.70    2.40
   2  -9   6   -0.50    3.00
   2  -9   6    6.00    2.50
  -3   9  -6   41.00    4.20
  -3   9  -6   38.50    5.00
  -3   9  -6   38.30    4.00
   3  -9   6   27.20   21.10
   3  -9   6   31.70    3.60
   3  -9   6   37.70    5.10
  -4   9  -6    0.40    2.20
  -4   9  -6    3.70    2.60
  -4   9  -6    0.80    2.10
   4  -9   6    1.10   18.90
   4  -9   6    2.00    3.40
   4  -9   6   -0.60    2.30
   4  -9   6    1.80    1.60
  -5   9  -6    1.30    3.30
  -5   9  -6    0.70    2.10
  -5   9  -6   -1.90    2.20
   5  -9   6  -12.20   17.70
   5  -9   6    1.90    3.50
   5  -9   6    5.10    2.80
  -6   9  -6   17.60    3.20
  -6   9  -6   13.70    3.20
   6  -9   6   12.40   20.80
   6  -9   6   14.20    3.90
   6  -9   6   16.10    4.60
  -7   9  -6   -1.50    2.50
  -7   9  -6   -0.80    2.20
   7  -9   6    2.90   17.30
   7  -9   6   -1.20    3.50
   7  -9   6   -1.00    3.30
  -8   9  -6   17.10    3.90
   8  -9   6   16.80    4.80
   8  -9   6   17.80    4.40
   4   8  -6   88.79    7.00
   4   8  -6   60.19    7.00
   3   8  -6   22.10    3.90
   3   8  -6   27.60    4.60
  -3  -8   6   19.30    4.20
   2   8  -6   16.00    3.30
   2   8  -6   15.10    3.30
  -2  -8   6    7.20    3.10
  -2  -8   6   10.60    2.90
   1   8  -6   29.30    3.90
   1   8  -6   26.20    4.10
  -1  -8   6   37.90    4.40
  -1  -8   6   25.10    3.80
   0   8  -6   12.20    2.80
   0   8  -6   14.90    3.50
   0  -8   6    4.00   17.80
   0  -8   6   14.80    2.90
   0  -8   6   13.20    3.20
  -1   8  -6   32.20    3.70
  -1   8  -6   27.80    4.10
  -1   8  -6   30.10    3.30
   1  -8   6   25.90    3.30
   1  -8   6   24.60   20.60
   1  -8   6   27.10    4.00
  -2   8  -6    1.30    2.70
  -2   8  -6   -1.80    1.70
  -2   8  -6    0.80    1.80
  -2   8  -6    4.70    1.90
   2  -8   6    1.70    2.20
   2  -8   6    5.20   16.80
   2  -8   6    5.20    2.10
  -3   8  -6   27.40    3.30
  -3   8  -6   23.60    4.10
  -3   8  -6   21.30    3.00
   3  -8   6   22.60    3.50
   3  -8   6   25.70    3.30
   3  -8   6   35.30   19.70
   3  -8   6   25.10    2.70
   3  -8   6   21.00    4.00
  -4   8  -6   35.60    4.90
  -4   8  -6   26.80    3.30
  -4   8  -6   30.20    3.40
   4  -8   6   19.00   19.10
   4  -8   6   29.10    3.70
   4  -8   6   29.60    2.40
   4  -8   6   24.40    4.20
  -5   8  -6   35.20    2.90
  -5   8  -6   28.70    3.40
  -5   8  -6   33.60    3.90
   5  -8   6   31.50    4.20
   5  -8   6   31.70   21.00
   5  -8   6   32.90    5.00
  -6   8  -6    4.80    2.60
  -6   8  -6    6.50    2.10
  -6   8  -6    5.70    2.20
   6  -8   6   -9.90   17.50
   6  -8   6   -0.80    3.30
   6  -8   6    2.10    3.10
  -7   8  -6   23.20    3.90
  -7   8  -6   26.10    3.60
  -7   8  -6   24.20    3.50
   7  -8   6   20.90    4.60
   7  -8   6   26.30    4.40
   7  -8   6   23.70   23.30
  -8   8  -6    3.20    3.00
  -8   8  -6    0.00    2.90
   8  -8   6    0.40    3.70
   8  -8   6    1.50    3.50
   5   7  -6   22.90    4.60
   5   7  -6   22.00    4.10
  -5  -7   6   20.30    4.60
   4   7  -6   70.39    6.80
   4   7  -6   64.79    6.30
  -4  -7   6   74.69    6.90
   3   7  -6    4.70    3.10
   3   7  -6   15.90    3.20
  -3  -7   6   13.20    3.60
  -3  -7   6   10.90    2.40
   2   7  -6   12.90    2.50
   2   7  -6   17.90    3.60
  -2  -7   6   12.20    2.80
  -2  -7   6   10.50    3.10
  -2  -7   6   12.40    1.70
   1   7  -6   16.70    2.90
   1   7  -6   25.00    3.80
   1   7  -6   15.40    2.10
  -1  -7   6   16.50    2.80
  -1  -7   6   14.80    2.10
  -1  -7   6   17.20    3.10
   0   7  -6    2.10    1.50
   0   7  -6    2.00    1.20
   0   7  -6    1.40    1.90
   0   7  -6    0.40    1.80
   0  -7   6   -2.40    2.40
   0  -7   6    0.10    2.00
   0  -7   6   -1.70   22.60
   0  -7   6    2.00    1.50
  -1   7  -6  102.39    7.10
  -1   7  -6  105.39    6.00
  -1   7  -6   98.79    6.00
  -1   7  -6  101.99    6.30
   1  -7   6  100.69    6.20
   1  -7   6   70.69   30.40
   1  -7   6   91.29    5.90
   1  -7   6   97.19    6.60
   1  -7   6  100.39    6.10
  -2   7  -6   27.10    2.80
  -2   7  -6   28.20    3.20
  -2   7  -6   31.20    3.90
   2  -7   6   22.10   17.60
   2  -7   6   40.90   24.80
   2  -7   6   28.70    3.90
   2  -7   6   25.00    2.60
   2  -7   6   26.60    2.60
  -3   7  -6    4.70    1.70
  -3   7  -6    4.30    2.70
  -3   7  -6    3.90    1.60
   3  -7   6    5.90    2.10
   3  -7   6    2.90    1.40
   3  -7   6   11.30   17.00
   3  -7   6    3.00    2.70
   3  -7   6    2.50    1.20
  -4   7  -6    0.30    1.80
  -4   7  -6   -0.50    2.40
  -4   7  -6    2.70    1.20
  -4   7  -6    2.10    1.70
   4  -7   6    0.10    1.60
   4  -7   6    0.80    2.60
   4  -7   6   -0.40   15.80
  -5   7  -6   46.60    4.30
  -5   7  -6   48.70    3.70
  -5   7  -6   44.00    3.90
   5  -7   6   49.99    4.70
   5  -7   6   45.90    5.00
   5  -7   6   52.89   21.50
  -6   7  -6    3.10    2.20
  -6   7  -6    2.90    1.90
  -6   7  -6    1.40    2.40
   6  -7   6    2.20    3.10
   6  -7   6   -1.20    2.80
   6  -7   6   -3.80   17.30
  -7   7  -6    4.90    2.80
  -7   7  -6    4.00    2.70
   7  -7   6    4.10    3.50
   7  -7   6    2.10    3.30
  -8   7  -6   11.80    3.40
  -8   7  -6   17.10    3.90
   8  -7   6    9.70    3.80
   8  -7   6   10.00    3.90
  -9   7  -6    7.50    3.70
  -9   7  -6    9.20    3.80
   9  -7   6   10.10    4.10
   9  -7   6    7.30    4.00
   6   6  -6   20.20    4.60
   6   6  -6   30.40    4.60
  -6  -6   6   32.20    4.90
   5   6  -6   49.70    5.80
   5   6  -6   49.10    5.30
  -5  -6   6   52.69    5.20
  -5  -6   6   46.40    5.70
   4   6  -6   48.80    5.20
   4   6  -6   58.99    6.00
  -4  -6   6   56.79    6.00
  -4  -6   6   50.09    4.50
   3   6  -6    2.00    2.20
   3   6  -6    1.30    2.00
  -3  -6   6    0.10    2.50
  -3  -6   6    0.30    1.60
  -3  -6   6   -1.60    1.80
   2   6  -6    4.00    2.10
   2   6  -6    1.10    1.40
   2   6  -6    1.60    2.40
  -2  -6   6    0.30    1.20
  -2  -6   6    0.90    1.30
  -2  -6   6    2.40    2.30
  -2  -6   6    5.40    2.10
   1   6  -6  110.79    7.50
   1   6  -6  122.09    7.40
   1   6  -6  124.69    6.80
  -1  -6   6  123.79    7.30
  -1  -6   6  110.69    6.40
  -1  -6   6  120.39    7.40
   0   6  -6   75.09    4.50
   0   6  -6   72.79    5.10
   0   6  -6   72.09    4.70
   0   6  -6   84.79    6.00
   0  -6   6   76.99    5.20
   0  -6   6   18.60   24.90
   0  -6   6   81.49    5.00
   0  -6   6   79.69    5.70
  -1   6  -6  105.99    6.30
  -1   6  -6  109.69    6.40
  -1   6  -6   93.89    7.00
  -1   6  -6  105.09    6.00
   1  -6   6  105.89    6.00
   1  -6   6  106.99    6.00
   1  -6   6  104.89    6.90
   1  -6   6   96.69   34.70
  -2   6  -6   27.30    3.20
  -2   6  -6   28.90    2.60
  -2   6  -6   27.50    2.80
  -2   6  -6   27.90    3.50
   2  -6   6   23.00    2.20
   2  -6   6   30.10    3.70
   2  -6   6   48.80   18.00
   2  -6   6   35.70   25.90
   2  -6   6   30.70    2.30
   2  -6   6   27.30    2.70
  -3   6  -6   61.89    3.80
  -3   6  -6   44.50    3.10
  -3   6  -6   57.99    3.90
  -3   6  -6   52.09    5.20
   3  -6   6   60.39    4.50
   3  -6   6   83.39   32.00
   3  -6   6   59.99    5.20
   3  -6   6   69.59   18.30
  -4   6  -6   63.69    4.60
  -4   6  -6   81.39    5.10
  -4   6  -6   77.69    4.70
  -4   6  -6   77.79    4.70
   4  -6   6   81.79    5.70
   4  -6   6   73.99    5.50
   4  -6   6   79.79   19.80
  -5   6  -6   91.49    6.20
  -5   6  -6  107.69    5.80
  -5   6  -6   85.69    5.80
   5  -6   6   94.19   24.90
   5  -6   6   83.59    6.90
   5  -6   6   91.89    6.70
  -6   6  -6   54.89    4.70
  -6   6  -6   47.10    4.70
   6  -6   6   50.89    5.50
   6  -6   6   40.30   21.40
   6  -6   6   46.70    5.00
  -7   6  -6   60.49    4.40
  -7   6  -6   50.79    5.30
  -7   6  -6   51.99    5.10
   7  -6   6   57.29    5.50
   7  -6   6   49.30    5.80
  -8   6  -6    4.70    2.40
  -8   6  -6   14.10    3.50
   8  -6   6    5.50    3.40
   8  -6   6   10.00    3.10
   8  -6   6    8.90    3.50
  -9   6  -6    7.20    3.80
  -9   6  -6    4.40    3.40
   9  -6   6    1.00    3.50
   9  -6   6    3.80    3.90
   9  -6   6   10.00    3.10
   6   5  -6   10.90    3.20
   6   5  -6    9.00    3.70
  -6  -5   6   13.70    4.10
  -6  -5   6    4.80    3.00
   5   5  -6   19.40    4.10
   5   5  -6   27.90    4.00
  -5  -5   6   26.30    3.60
  -5  -5   6   24.40    3.90
   4   5  -6   12.20    2.80
   4   5  -6   11.60    2.90
  -4  -5   6    9.30    1.60
  -4  -5   6   11.10    2.70
  -4  -5   6   15.20    3.40
   3   5  -6   56.79    4.30
   3   5  -6   45.20    5.10
   3   5  -6   65.59    4.80
  -3  -5   6   52.09    3.50
  -3  -5   6   48.80    4.10
  -3  -5   6   54.49    4.80
  -3  -5   6   52.19    3.90
   2   5  -6  145.19    7.90
   2   5  -6  146.49    8.60
   2   5  -6  129.09    8.90
  -2  -5   6  146.99    7.50
  -2  -5   6  151.08    7.90
  -2  -5   6  155.68    8.30
  -2  -5   6  132.79    8.60
   1   5  -6  236.18   12.50
   1   5  -6  222.88   11.00
   1   5  -6  216.48   11.80
   1   5  -6  211.88   11.40
  -1  -5   6  193.58   11.50
  -1  -5   6  212.58   10.90
  -1  -5   6  225.08   11.80
  -1  -5   6  234.58   11.90
   0   5  -6   55.99    3.70
   0   5  -6   49.80    4.80
   0   5  -6   53.79    3.70
   0   5  -6   58.09    3.90
   0   5  -6   51.79    3.30
   0  -5   6   45.80    4.10
   0  -5   6   57.49    3.70
   0  -5   6   15.30   22.20
   0  -5   6   52.89    3.30
   0  -5   6   62.29    4.10
  -1   5  -6  209.68   11.20
  -1   5  -6  203.58   10.60
  -1   5  -6  209.98   11.80
  -1   5  -6  221.28   11.10
  -1   5  -6  211.58   11.10
  -1   5  -6  220.18   11.00
   1  -5   6  200.48   10.60
   1  -5   6  215.78   11.50
   1  -5   6  124.59   36.90
   1  -5   6  202.08   10.70
   1  -5   6  218.58   10.80
  -2   5  -6    5.90    1.30
  -2   5  -6    6.10    1.00
  -2   5  -6    4.50    2.20
  -2   5  -6    8.10    1.50
  -2   5  -6    9.70    1.50
  -2   5  -6    6.50    1.80
   2  -5   6    0.50   13.50
   2  -5   6    5.90    1.50
   2  -5   6    7.40   21.00
   2  -5   6    6.70    2.40
   2  -5   6    5.80    0.70
  -3   5  -6  193.78    9.80
  -3   5  -6  181.38    9.50
  -3   5  -6  183.68    9.60
  -3   5  -6  189.48   10.80
  -3   5  -6  176.38    9.60
  -3   5  -6  108.39   40.20
   3  -5   6  175.88   10.60
   3  -5   6  177.18   27.50
   3  -5   6  267.07   45.00
   3  -5   6  188.68   10.30
  -4   5  -6  208.68   11.00
  -4   5  -6  202.78   10.80
  -4   5  -6  202.38   10.50
  -4   5  -6  200.48   10.40
   4  -5   6  190.58   11.60
   4  -5   6  206.88   11.30
   4  -5   6  205.58   31.10
  -5   5  -6  106.19    6.90
  -5   5  -6  116.79    6.20
  -5   5  -6  114.59    7.10
  -5   5  -6  119.59    6.40
   5  -5   6  105.79   25.30
   5  -5   6  109.89    7.20
   5  -5   6  103.59    7.60
  -6   5  -6   23.80    3.60
  -6   5  -6   26.50    2.60
  -6   5  -6   26.20    3.40
  -6   5  -6   24.20    2.40
   6  -5   6   26.50    4.00
   6  -5   6   30.10    4.20
   6  -5   6   28.40    3.60
  -7   5  -6   11.80    2.30
  -7   5  -6   11.90    2.70
  -7   5  -6   12.70    2.80
  -7   5  -6   16.60    3.70
   7  -5   6    9.60    2.80
   7  -5   6   10.50    3.30
   7  -5   6    7.90    3.30
  -8   5  -6    7.70    3.50
  -8   5  -6    8.20    2.70
   8  -5   6    5.20    3.10
   8  -5   6    7.10    3.40
   8  -5   6   10.80    3.00
  -9   5  -6   15.50    4.10
  -9   5  -6   27.10    5.10
   9  -5   6   31.00    5.00
   9  -5   6   20.10    4.70
   9  -5   6   18.80    4.10
   7   4  -6   12.50    4.00
   7   4  -6    7.70    3.10
  -7  -4   6    6.30    4.10
  -7  -4   6    8.30    3.20
   6   4  -6    6.80    3.40
   6   4  -6    6.10    2.80
  -6  -4   6    7.50    2.10
  -6  -4   6    3.80    3.20
  -6  -4   6    4.60    3.50
   5   4  -6   81.09    6.70
   5   4  -6   68.69    5.50
  -5  -4   6   80.99    6.10
  -5  -4   6   81.89    7.00
   4   4  -6  113.49    7.20
   4   4  -6  116.69    7.50
  -4  -4   6  110.49    6.10
  -4  -4   6  106.89    7.20
  -4  -4   6  104.19    7.20
   3   4  -6  113.89    6.60
   3   4  -6   96.09    6.40
   3   4  -6  106.89    7.00
  -3  -4   6  105.29    6.50
  -3  -4   6  112.59    6.10
  -3  -4   6  103.39    7.00
  -3  -4   6  104.59    5.60
   2   4  -6  153.08    8.80
   2   4  -6  128.19    7.70
   2   4  -6  138.39    8.10
  -2  -4   6  142.79    7.10
  -2  -4   6  132.09    8.20
  -2  -4   6  143.09    7.80
  -2  -4   6  148.09    7.80
   1   4  -6  360.96   18.80
   1   4  -6  385.26   18.20
   1   4  -6  334.37   17.60
  -1  -4   6  349.37   18.20
  -1  -4   6  341.17   17.30
  -1  -4   6  363.76   18.20
  -1  -4   6  361.16   18.00
   0   4  -6  260.87   12.80
   0   4  -6  244.58   13.50
   0   4  -6  246.18   12.80
   0   4  -6  239.38   12.80
   0   4  -6  250.07   12.90
   0   4  -6  246.08   12.20
   0   4  -6  251.17   12.30
   0  -4   6  241.58   13.10
   0  -4   6  245.78   12.70
   0  -4   6  246.78   12.20
   0  -4   6  239.68   12.50
  -1   4  -6  170.98    9.20
  -1   4  -6  172.58    9.60
  -1   4  -6  177.78   10.00
  -1   4  -6  180.18    8.90
  -1   4  -6  177.48    9.00
  -1   4  -6  164.58    9.20
  -1   4  -6  171.88    9.60
   1  -4   6  233.58   23.80
   1  -4   6  146.99   39.80
   1  -4   6  186.78   10.00
   1  -4   6  177.48    8.80
  -2   4  -6  131.29    7.90
  -2   4  -6  124.79    6.90
  -2   4  -6  131.79    7.80
  -2   4  -6  128.39    6.90
  -2   4  -6  147.79    7.20
  -2   4  -6  127.09    7.00
   2  -4   6  132.19    7.80
   2  -4   6  137.09   19.70
   2  -4   6  120.29   36.60
  -3   4  -6  130.09    6.70
  -3   4  -6  132.09    6.70
  -3   4  -6  135.99    8.10
  -3   4  -6  123.89    7.20
  -3   4  -6  119.29    7.20
   3  -4   6  136.39   23.40
   3  -4   6  128.39    7.80
   3  -4   6  127.09    7.60
   3  -4   6  181.98   44.30
  -4   4  -6  173.98    9.10
  -4   4  -6  190.48   10.00
  -4   4  -6  188.88    9.20
  -4   4  -6  180.48   10.10
   4  -4   6  189.38   10.40
   4  -4   6  165.58   28.80
   4  -4   6  167.28   10.50
  -5   4  -6   44.40    2.90
  -5   4  -6   44.50    4.10
  -5   4  -6   43.10    4.10
  -5   4  -6   38.10    2.70
   5  -4   6   45.40    4.40
   5  -4   6   46.70    4.60
   5  -4   6   48.00    4.70
  -6   4  -6    6.40    2.50
  -6   4  -6    4.10    1.30
  -6   4  -6    2.90    1.50
  -6   4  -6    3.40    2.30
  -6   4  -6    1.80    2.40
   6  -4   6    3.00    2.80
   6  -4   6    6.10    2.70
   6  -4   6    4.80    2.70
  -7   4  -6    3.60    2.90
  -7   4  -6   14.40    3.40
  -7   4  -6    8.10    1.90
  -7   4  -6    5.40    2.40
   7  -4   6   13.50    3.40
   7  -4   6    6.80    2.60
   7  -4   6   13.30    2.90
  -8   4  -6    9.30    3.80
  -8   4  -6    7.70    2.70
   8  -4   6   10.40    3.10
   8  -4   6    7.80    3.00
  -9   4  -6   28.70    5.40
  -9   4  -6   41.00    5.30
   9  -4   6   29.10    5.10
   9  -4   6   38.60    5.40
   7   3  -6    8.30    3.10
   7   3  -6    6.10    3.50
  -7  -3   6   14.00    4.00
  -7  -3   6   13.20    4.00
   6   3  -6    2.10    2.50
   6   3  -6   -0.90    2.90
  -6  -3   6    5.30    3.40
  -6  -3   6    8.40    3.40
  -6  -3   6    1.20    1.40
   5   3  -6   35.70    4.60
   5   3  -6   30.20    3.60
  -5  -3   6   36.50    2.80
  -5  -3   6   37.60    4.50
  -5  -3   6   46.00    4.90
   4   3  -6   16.60    2.80
   4   3  -6   21.80    3.50
  -4  -3   6   18.30    1.70
  -4  -3   6   15.90    2.70
  -4  -3   6   17.80    3.10
  -4  -3   6   13.70    1.40
   3   3  -6  235.18   13.20
   3   3  -6  234.28   12.60
   3   3  -6  238.78   12.80
  -3  -3   6  245.48   12.70
  -3  -3   6  225.48   11.80
  -3  -3   6  233.78   12.80
  -3  -3   6  241.08   11.60
  -3  -3   6  237.88   11.60
   2   3  -6   15.30    2.20
   2   3  -6   12.70    1.90
   2   3  -6   17.00    2.60
  -2  -3   6   13.60    1.60
  -2  -3   6   14.50    2.00
  -2  -3   6   14.10    2.10
  -2  -3   6   11.70    2.10
  -2  -3   6   11.80    1.90
   1   3  -6  169.48   10.00
   1   3  -6  194.18   10.00
   1   3  -6  194.98   10.60
   1   3  -6  187.18    9.80
   1   3  -6  196.48   10.20
  -1  -3   6  179.88    9.80
  -1  -3   6  250.07   23.40
  -1  -3   6  193.68   10.00
  -1  -3   6  197.88    9.90
  -1  -3   6  166.48   10.00
   0   3  -6  127.19    7.10
   0   3  -6  129.69    7.20
   0   3  -6  114.39    7.50
   0   3  -6  124.49    7.10
   0   3  -6  127.59    6.30
   0   3  -6  125.29    6.70
   0   3  -6  132.59    6.80
   0   3  -6  120.19    6.90
   0  -3   6  117.19    6.50
   0  -3   6   55.99   30.50
   0  -3   6  129.69    7.40
   0  -3   6  173.88   22.00
   0  -3   6  123.49    6.60
   0  -3   6  121.39    7.20
   0  -3   6  138.69    7.20
  -1   3  -6  147.69    8.10
  -1   3  -6  155.08    7.40
  -1   3  -6  132.09    8.10
  -1   3  -6  138.69    8.30
  -1   3  -6  142.09    7.90
  -1   3  -6  146.89    7.50
  -1   3  -6  139.89    8.20
  -1   3  -6  142.59    7.40
   1  -3   6  149.59    8.20
   1  -3   6   91.59   34.10
   1  -3   6  150.98   20.00
   1  -3   6  135.29    8.10
  -2   3  -6   69.69    3.60
  -2   3  -6   64.29    4.80
  -2   3  -6   46.20   30.40
  -2   3  -6   66.89    3.70
  -2   3  -6   67.49    5.00
  -2   3  -6   63.99    5.00
  -2   3  -6   70.09    4.10
   2  -3   6   68.89    4.90
   2  -3   6   61.19   17.40
   2  -3   6   71.79   31.30
  -3   3  -6   62.79    4.30
  -3   3  -6   57.69    3.00
  -3   3  -6   49.10    3.80
   3  -3   6   57.69   18.70
   3  -3   6   54.59    4.40
   3  -3   6   89.79   35.70
   3  -3   6   60.19    4.40
  -4   3  -6   15.00    1.20
  -4   3  -6   12.50    2.50
  -4   3  -6   15.40    1.10
  -4   3  -6   17.60    2.50
   4  -3   6   12.10    2.70
   4  -3   6   14.00    2.70
   4  -3   6   15.50   13.30
   4  -3   6   20.40    2.80
  -5   3  -6  162.18    9.50
  -5   3  -6  160.38    8.20
  -5   3  -6  161.88    8.30
  -5   3  -6  152.28    9.70
  -5   3  -6  172.38    9.60
   5  -3   6  163.18    9.80
   5  -3   6  167.08    9.70
   5  -3   6  159.88    9.60
  -6   3  -6   77.19    5.40
  -6   3  -6   68.49    4.10
  -6   3  -6   72.49    6.10
  -6   3  -6   70.79    5.20
  -6   3  -6   66.39    4.30
   6  -3   6   63.79    5.40
   6  -3   6   66.09    5.90
   6  -3   6   75.99    5.80
  -7   3  -6   16.40    2.90
  -7   3  -6   16.50    3.50
  -7   3  -6   13.80    2.40
  -7   3  -6   15.10    3.80
   7  -3   6   14.40    3.00
   7  -3   6   15.30    3.20
  -8   3  -6   -3.00    3.20
  -8   3  -6   -0.70    3.10
   8  -3   6    3.10    3.10
   8  -3   6    4.10    2.50
  -9   3  -6   22.40    4.60
  -9   3  -6   18.80    5.10
   9  -3   6   17.50    4.40
   9  -3   6   20.80    4.10
   8   2  -6   14.50    3.60
   8   2  -6   16.00    3.40
  -8  -2   6   16.50    4.60
  -8  -2   6   11.60    4.20
   7   2  -6   29.80    4.20
   7   2  -6   28.30    4.70
  -7  -2   6   29.60    4.70
  -7  -2   6   29.10    4.80
   6   2  -6   10.80    3.40
   6   2  -6    9.70    2.70
   6   2  -6   12.40    1.80
  -6  -2   6    8.40    3.30
  -6  -2   6   11.50    1.80
  -6  -2   6    7.60    3.20
   5   2  -6   49.90    4.90
   5   2  -6   50.49    4.60
  -5  -2   6   45.20    3.20
  -5  -2   6   49.30    4.70
  -5  -2   6   56.99    5.10
   4   2  -6    6.20    1.70
   4   2  -6    4.80    2.40
  -4  -2   6    4.70    2.20
  -4  -2   6    3.90    0.90
  -4  -2   6    7.00    2.20
   3   2  -6  189.18   10.40
   3   2  -6  195.68   10.30
   3   2  -6  199.08    9.90
   3   2  -6  190.18   10.80
  -3  -2   6  188.18   10.50
  -3  -2   6  175.68    9.20
  -3  -2   6  195.78   10.40
   2   2  -6   64.89    4.60
   2   2  -6   77.69    5.10
   2   2  -6   75.59    4.60
   2   2  -6   70.69    4.70
  -2  -2   6   70.19    4.50
  -2  -2   6   79.49    5.00
  -2  -2   6   71.39    4.70
  -2  -2   6   77.99    4.80
   1   2  -6  385.16   21.20
   1   2  -6  432.06   21.30
   1   2  -6  423.66   21.20
   1   2  -6  429.06   21.40
   1   2  -6  437.96   21.80
  -1  -2   6  421.46   21.40
  -1  -2   6  413.16   21.00
  -1  -2   6  412.56   21.10
  -1  -2   6  429.86   21.80
  -1  -2   6  529.85   35.00
   0   2  -6   34.80    3.00
   0   2  -6   33.80    2.70
   0   2  -6   36.40    3.10
   0   2  -6   34.60    3.10
   0   2  -6   35.20    2.50
   0   2  -6   37.50    2.70
   0   2  -6   35.60    2.10
   0  -2   6   39.10    3.30
   0  -2   6   37.10    2.10
   0  -2   6   48.30   13.70
   0  -2   6   32.60    2.10
   0  -2   6   38.80    3.20
   0  -2   6   41.00    3.60
   0  -2   6   17.90   19.80
  -1   2  -6  148.39    8.00
  -1   2  -6  128.29    7.10
  -1   2  -6  145.69    7.30
  -1   2  -6  136.49    7.90
  -1   2  -6  141.79    7.90
  -1   2  -6  140.59    7.90
  -1   2  -6  132.29    7.70
  -1   2  -6  126.09    8.10
  -1   2  -6  149.59    7.20
   1  -2   6  147.89    8.20
   1  -2   6  142.59    7.90
   1  -2   6  109.09   36.20
   1  -2   6  140.79   19.00
  -2   2  -6    4.00    2.00
  -2   2  -6    5.20    1.70
  -2   2  -6    4.10    0.50
  -2   2  -6    2.10    1.50
  -2   2  -6    6.20    1.30
  -2   2  -6    5.10    0.50
   2  -2   6    3.70   21.80
   2  -2   6    3.90    1.70
   2  -2   6    4.10    2.00
   2  -2   6   -7.80    8.20
  -3   2  -6   -1.80    1.30
   3  -2   6    2.90    1.50
   3  -2   6   -1.20   13.50
   3  -2   6    4.10    2.00
   3  -2   6    1.60   17.60
  -4   2  -6   84.89    5.50
  -4   2  -6   84.19    4.10
  -4   2  -6   79.39    5.70
  -4   2  -6   84.39    5.90
   4  -2   6   69.59    5.90
   4  -2   6   72.69    5.50
   4  -2   6   84.89    5.60
  -5   2  -6   24.30    1.90
  -5   2  -6   29.80    3.40
  -5   2  -6   30.60    3.70
  -5   2  -6   23.10    3.70
  -5   2  -6   26.40    2.00
   5  -2   6   31.90    3.90
   5  -2   6   22.70    3.40
   5  -2   6   22.80    3.10
  -6   2  -6    0.90    2.70
  -6   2  -6   -2.60    2.30
  -6   2  -6   -0.70    1.20
  -6   2  -6    3.50    2.20
  -6   2  -6   -0.60    1.20
   6  -2   6    0.50    1.70
   6  -2   6   -1.20    2.50
   6  -2   6    1.30    2.20
  -7   2  -6    6.10    3.10
  -7   2  -6    3.70    3.30
  -7   2  -6    7.80    2.40
   7  -2   6    6.60    3.20
   7  -2   6    4.60    3.40
   7  -2   6    8.70    3.10
  -8   2  -6   66.49    6.60
  -8   2  -6   56.89    6.90
   8  -2   6   67.89    6.40
   8  -2   6   57.19    6.20
   8   1  -6    3.90    2.70
   8   1  -6    2.70    3.50
  -8  -1   6   -1.00    3.40
  -8  -1   6    7.10    3.80
   7   1  -6   83.49    6.60
   7   1  -6   86.79    6.10
  -7  -1   6   81.59    5.30
  -7  -1   6   84.99    7.70
  -7  -1   6   88.29    7.60
   6   1  -6    8.00    2.10
   6   1  -6    9.30    1.10
   6   1  -6    8.50    3.10
  -6  -1   6    9.40    1.60
  -6  -1   6   14.80    2.90
  -6  -1   6    8.60    2.70
   5   1  -6   46.80    4.30
   5   1  -6   41.30    4.60
   5   1  -6   44.90    2.50
  -5  -1   6   47.10    3.10
  -5  -1   6   43.60    4.70
  -5  -1   6   45.80    4.50
   4   1  -6   18.60    2.90
   4   1  -6   19.50    1.80
   4   1  -6   19.30    2.60
  -4  -1   6   24.50    3.10
  -4  -1   6   12.40    2.70
  -4  -1   6   17.10    1.50
   3   1  -6   40.30    3.50
   3   1  -6   44.20    3.00
   3   1  -6   40.40    3.80
   3   1  -6   37.10    2.50
   3   1  -6   42.50    3.40
  -3  -1   6   41.50    3.70
  -3  -1   6   36.90    3.70
  -3  -1   6   41.90    2.20
  -3  -1   6   42.70    3.20
  -3  -1   6   64.69   14.80
   2   1  -6   79.49    4.70
   2   1  -6   71.99    4.40
   2   1  -6   79.19    4.80
   2   1  -6   78.79    5.30
   2   1  -6   89.29    5.10
   2   1  -6   74.39    4.90
  -2  -1   6   81.09    5.00
  -2  -1   6   76.39    4.60
  -2  -1   6   72.19    5.00
  -2  -1   6  109.79   17.70
  -2  -1   6   75.19    5.30
   1   1  -6   23.10    1.30
   1   1  -6   25.20    2.60
   1   1  -6   22.90    2.10
   1   1  -6   23.60    2.40
   1   1  -6   26.20    2.80
   1   1  -6   24.30    2.30
   1   1  -6   23.70    2.20
  -1  -1   6   20.80    2.60
  -1  -1   6   23.50    2.10
  -1  -1   6    9.70   18.40
  -1  -1   6   23.70    2.80
  -1  -1   6   30.80   12.90
  -1  -1   6   26.40    1.90
   0   1  -6    8.30   10.50
   0   1  -6    7.00    1.70
   0   1  -6    7.30    1.60
   0   1  -6    5.80    1.70
   0   1  -6    5.30    1.00
   0   1  -6    4.10    1.10
   0  -1   6   -7.80   20.80
   0  -1   6    6.40    0.40
   0  -1   6   -2.00   10.20
   0  -1   6    6.30    1.70
   0  -1   6    7.50    2.00
  -1   1  -6  432.86   22.60
  -1   1  -6  457.35   22.20
  -1   1  -6  448.16   21.50
  -1   1  -6  474.75   21.60
  -1   1  -6  449.86   22.20
  -1   1  -6  420.96   22.20
  -1   1  -6  491.65   36.70
  -1   1  -6  460.95   22.20
  -1   1  -6  430.76   22.30
   1  -1   6  367.66   55.39
   1  -1   6  343.77   34.30
   1  -1   6  423.46   22.30
   1  -1   6  443.06   22.60
  -2   1  -6   45.30    4.10
  -2   1  -6   38.40    2.10
  -2   1  -6   45.20    3.20
  -2   1  -6   49.99    4.20
  -2   1  -6   39.30    2.10
  -2   1  -6   44.00    4.10
   2  -1   6   45.80    4.10
   2  -1   6   48.50    4.40
   2  -1   6   29.80   13.20
   2  -1   6   48.70   29.20
  -3   1  -6   35.60    1.80
  -3   1  -6   33.70    1.80
  -3   1  -6   36.70    4.00
   3  -1   6   32.90    3.40
   3  -1   6   39.60    3.90
   3  -1   6   34.50    3.90
  -4   1  -6   67.79    5.20
  -4   1  -6   63.79    3.60
  -4   1  -6   70.09    3.60
  -4   1  -6   64.59    5.20
   4  -1   6   74.59    5.00
   4  -1   6   76.49    5.20
   4  -1   6   56.19    5.60
  -5   1  -6    1.80    2.20
  -5   1  -6   -0.40    2.70
  -5   1  -6    0.60    1.00
  -5   1  -6   -0.30    0.90
   5  -1   6    0.70    1.70
   5  -1   6    1.20    2.50
   5  -1   6    1.60    2.30
  -6   1  -6   10.70    2.70
  -6   1  -6   11.60    1.90
  -6   1  -6   17.20    4.10
   6  -1   6   13.90    3.00
   6  -1   6   19.00    3.50
   6  -1   6   13.60    3.20
  -7   1  -6   14.80    4.50
  -7   1  -6   22.50    3.70
  -7   1  -6   11.50    3.20
   7  -1   6   36.60    5.20
   7  -1   6   32.60    4.20
   7  -1   6   30.60    4.20
  -8   1  -6   29.10    4.70
  -8   1  -6   23.30    4.70
   8  -1   6   36.70    4.80
   8  -1   6   29.60    5.40
   8  -1   6   23.00    4.20
   9   0  -6   16.20    3.70
  -9   0   6   16.80    4.50
  -9   0   6   13.20    4.10
   8   0  -6    9.60    3.60
   8   0  -6   15.10    3.30
  -8   0   6    9.70    4.10
  -8   0   6   14.10    3.40
   7   0  -6   79.89    6.90
   7   0  -6   93.69    6.60
  -7   0   6   87.09    5.40
  -7   0   6   76.89    6.40
  -7   0   6   89.09    7.40
   6   0  -6   57.09    4.70
   6   0  -6   75.99    5.90
  -6   0   6   64.09    5.80
  -6   0   6   61.39    4.10
  -6   0   6   66.99    6.20
   5   0  -6   39.00    4.10
   5   0  -6   39.80    2.80
   5   0  -6   46.30    4.00
  -5   0   6   43.10    2.90
  -5   0   6   42.10    4.60
  -5   0   6   35.50    4.10
   4   0  -6   86.29    6.00
   4   0  -6   89.79    5.80
   4   0  -6   90.79    5.30
  -4   0   6   88.89    5.00
  -4   0   6   93.19    5.90
  -4   0   6   90.59    6.40
  -4   0   6  146.99   18.70
   3   0  -6   37.40    3.80
   3   0  -6   35.10    3.70
   3   0  -6   36.60    2.30
   3   0  -6   35.30    3.00
   3   0  -6   33.60    3.20
  -3   0   6   42.90    4.00
  -3   0   6   40.70    2.40
  -3   0   6   43.10    3.60
  -3   0   6   42.80   12.40
  -3   0   6   35.50    3.00
   2   0  -6   54.69    3.70
   2   0  -6   53.79    3.90
   2   0  -6   54.29    3.20
   2   0  -6   54.49    3.00
   2   0  -6   56.89    4.10
   2   0  -6   57.89    3.90
   2   0  -6   54.79    4.10
  -2   0   6   54.19    3.80
  -2   0   6   54.29    3.90
  -2   0   6   52.49    3.50
  -2   0   6   55.19   14.00
   1   0  -6  145.59    7.40
   1   0  -6  138.69    8.10
   1   0  -6  133.09    7.60
   1   0  -6  156.48    8.00
   1   0  -6  133.59    7.70
   1   0  -6  155.78    8.10
   1   0  -6  147.79    8.20
  -1   0   6  134.29    8.50
  -1   0   6  133.19   20.70
  -1   0   6  139.99    8.00
  -1   0   6  157.68    7.60
  -1   0   6  154.08    7.60
   0   0  -6  155.78   20.20
   0   0  -6  144.29    7.70
   0   0  -6  128.69    7.60
   0   0  -6  141.69    7.70
   0   0  -6  129.89    8.50
   0   0  -6  156.78    8.00
   0   0  -6  143.59    7.40
   0   0  -6  136.29    7.20
   0   0   6  103.89   38.30
   0   0   6  138.99    7.80
   0   0   6  135.89    7.60
   0   0   6  117.99   20.80
   0   0   6  137.69    8.20
  -1   0  -6    7.60    1.70
  -1   0  -6    9.10    2.50
  -1   0  -6   11.30    1.70
  -1   0  -6    9.70   10.10
  -1   0  -6    8.80    1.00
  -1   0  -6   11.10    1.90
  -1   0  -6    8.20    1.90
   1   0   6   -1.50   17.70
   1   0   6    8.20    2.40
   1   0   6    8.40    2.00
  -2   0  -6   85.79    6.30
  -2   0  -6   85.79    5.50
  -2   0  -6   89.09    4.70
  -2   0  -6   88.39    4.70
  -2   0  -6   99.29    5.40
   2   0   6  101.29   39.60
   2   0   6   91.19    6.00
   2   0   6   80.69    6.20
   2   0   6   92.79    5.70
  -3   0  -6   17.60    1.50
  -3   0  -6   21.50    3.10
  -3   0  -6   20.50    1.60
   3   0   6   18.90    3.30
   3   0   6   18.50    2.80
   3   0   6   17.70    2.80
  -4   0  -6   33.50    2.40
  -4   0  -6   32.50    2.40
  -4   0  -6   25.20    3.90
  -4   0  -6   31.40    3.90
   4   0   6   37.40    4.10
   4   0   6   44.30    4.70
   4   0   6   36.80    3.80
  -5   0  -6   44.40    3.10
  -5   0  -6   41.40    5.20
  -5   0  -6   41.60    3.20
  -5   0  -6   38.10    4.50
   5   0   6   42.80    4.60
   5   0   6   47.10    5.20
   5   0   6   49.10    4.50
  -6   0  -6   82.79    6.30
  -6   0  -6   76.69    7.60
  -6   0  -6   80.69    5.20
   6   0   6   89.09    6.60
   6   0   6   72.09    7.10
   6   0   6   66.89    5.80
  -7   0  -6   24.50    4.30
  -7   0  -6   26.20    5.10
   7   0   6   30.80    4.60
   7   0   6   29.10    4.10
   7   0   6   23.80    4.70
  -8   0  -6    9.00    3.90
   8   0   6    7.40    3.40
   8   0   6    6.10    4.00
   8   0   6   10.30    3.40
   9  -1  -6   37.30    4.80
  -9   1   6   26.30    4.60
  -9   1   6   32.90    5.80
   8  -1  -6  100.39    7.40
  -8   1   6   98.49    6.40
  -8   1   6  100.69    8.70
  -8   1   6  102.49    8.10
   7  -1  -6   29.40    3.70
   7  -1  -6   23.10    3.10
   7  -1  -6   26.80    4.30
  -7   1   6   30.30    5.00
  -7   1   6   27.50    2.90
  -7   1   6   24.80    4.10
   6  -1  -6   42.80    3.00
   6  -1  -6   40.70    4.20
   6  -1  -6   46.30    4.50
   6  -1  -6   39.40    4.60
  -6   1   6   44.80   13.00
  -6   1   6   48.60    4.70
  -6   1   6   37.60    3.30
  -6   1   6   48.80    4.90
   5  -1  -6  129.99    8.10
   5  -1  -6  144.09    8.20
   5  -1  -6  122.69    7.80
  -5   1   6  154.48   18.10
  -5   1   6  120.99    8.10
  -5   1   6  131.29    7.10
  -5   1   6  123.49    8.10
   4  -1  -6   74.39    5.30
   4  -1  -6   66.29    4.20
   4  -1  -6   72.89    5.50
   4  -1  -6   74.49    4.80
  -4   1   6   74.49    4.30
  -4   1   6   71.99   14.40
  -4   1   6   79.89    5.30
  -4   1   6   74.09    5.70
   3  -1  -6   16.30    2.30
   3  -1  -6   22.30    2.70
   3  -1  -6   19.20    1.80
   3  -1  -6   25.40    3.40
  -3   1   6   19.70    1.90
  -3   1   6   20.20    2.80
  -3   1   6   19.70    2.20
  -3   1   6   17.90    2.40
  -3   1   6   21.10   11.30
   2  -1  -6  106.19    6.40
   2  -1  -6   99.39    6.80
   2  -1  -6  102.09    6.10
   2  -1  -6  105.89    5.90
   2  -1  -6  106.99    6.10
   2  -1  -6  105.69    5.50
   2  -1  -6  145.99   16.70
  -2   1   6   97.39    5.60
  -2   1   6   91.59   17.00
  -2   1   6   91.69    6.10
  -2   1   6   99.79    5.90
  -2   1   6  101.09    5.70
   1  -1  -6   29.00    2.70
   1  -1  -6   24.30    2.10
   1  -1  -6   29.50    2.70
   1  -1  -6   31.40   12.20
   1  -1  -6   31.70    3.20
   1  -1  -6   40.20    4.10
   1  -1  -6   27.40    2.50
  -1   1   6   30.00    2.60
  -1   1   6   21.40   12.10
  -1   1   6   28.80    2.70
  -1   1   6   27.70    2.20
  -1   1   6   29.40    2.20
  -1   1   6   15.90   23.10
  -1   1   6   20.10    3.20
   0  -1  -6    5.70    2.40
   0  -1  -6    1.40    1.20
   0  -1  -6    2.80    1.20
   0  -1  -6    7.90   11.70
   0  -1  -6    3.20    1.10
   0  -1  -6    2.80    1.00
   0  -1  -6   -1.60    1.00
   0   1   6    2.40    0.60
   0   1   6   -0.70   16.20
   0   1   6    6.70    2.00
   0   1   6    3.70    1.30
   0   1   6    3.30    1.50
   0   1   6    5.00    0.70
  -1  -1  -6  126.79    6.20
  -1  -1  -6  102.39    6.60
  -1  -1  -6  117.59    6.30
  -1  -1  -6  119.59    7.60
  -1  -1  -6  117.49    6.20
  -1  -1  -6  113.99    6.50
   1   1   6  118.79   38.60
   1   1   6  110.09    6.90
   1   1   6   94.89    7.30
  -2  -1  -6   25.80    2.10
  -2  -1  -6   23.80    2.10
  -2  -1  -6   27.40    3.00
  -2  -1  -6   26.10    2.20
  -2  -1  -6   26.90    3.80
   2   1   6   25.60    3.80
   2   1   6   32.50    3.20
   2   1   6   50.39   29.30
   2   1   6   34.30    3.40
  -3  -1  -6  123.09    6.30
  -3  -1  -6  116.69    7.80
  -3  -1  -6  107.69    6.20
  -3  -1  -6  116.59    6.50
   3   1   6  117.69    8.00
   3   1   6  119.39    7.60
   3   1   6  105.59    7.00
  -4  -1  -6   53.59    3.90
  -4  -1  -6   64.09    5.30
  -4  -1  -6   62.49    6.10
  -4  -1  -6   54.89    3.80
   4   1   6   57.49    5.10
   4   1   6   58.99    5.60
   4   1   6   68.19    6.20
  -5  -1  -6   37.40    4.60
  -5  -1  -6   39.40    3.50
  -5  -1  -6   39.30    5.40
   5   1   6   45.00    4.90
   5   1   6   49.00    4.80
  -6  -1  -6   15.00    3.70
  -6  -1  -6    8.60    2.40
  -6  -1  -6    2.90    3.00
   6   1   6    6.40    3.60
   6   1   6    9.00    3.20
  -7  -1  -6    9.00    4.50
   7   1   6   14.50    3.90
   7   1   6    7.80    4.00
   9  -2  -6   -0.90    2.60
  -9   2   6    0.80    3.90
  -9   2   6    1.00    2.30
  -9   2   6   -2.10    3.20
   8  -2  -6   92.89    7.10
  -8   2   6  112.39    8.10
  -8   2   6   91.89    8.60
  -8   2   6   94.09    6.30
   7  -2  -6   80.99    6.00
   7  -2  -6   98.49    6.70
  -7   2   6   89.79    7.70
  -7   2   6   82.79   14.90
  -7   2   6   96.39    7.20
   6  -2  -6    4.80    2.40
   6  -2  -6    3.90    2.70
   6  -2  -6    5.60    2.30
  -6   2   6    5.90    1.90
  -6   2   6    0.90    2.90
  -6   2   6    2.00    8.90
  -6   2   6    8.80    2.80
   5  -2  -6   36.20    4.30
   5  -2  -6   53.89    3.70
   5  -2  -6   54.59    4.60
   5  -2  -6   45.50    4.30
  -5   2   6   55.49    4.90
  -5   2   6   49.60    5.10
  -5   2   6   51.99    3.70
  -5   2   6   47.20   11.70
   4  -2  -6   77.59    5.10
   4  -2  -6   66.29    5.40
   4  -2  -6   67.29    5.10
   4  -2  -6   74.09    4.40
  -4   2   6   75.79    5.30
  -4   2   6   69.39   14.20
  -4   2   6   80.59    4.70
  -4   2   6   75.59    5.90
   3  -2  -6   40.30    3.40
   3  -2  -6   45.80    3.50
   3  -2  -6   39.50    4.30
   3  -2  -6   43.60    2.80
  -3   2   6   43.70    3.50
  -3   2   6   41.80    3.20
  -3   2   6   43.60    3.30
  -3   2   6   26.90   11.20
  -3   2   6   40.70    2.60
  -3   2   6   43.30    3.90
   2  -2  -6  370.46   19.30
   2  -2  -6  378.16   19.60
   2  -2  -6  386.76   19.60
   2  -2  -6  374.86   20.50
   2  -2  -6  489.95   32.10
  -2   2   6  372.26   19.40
  -2   2   6  365.96   19.60
  -2   2   6  417.76   19.40
   1  -2  -6   56.19    5.00
   1  -2  -6   66.49    3.80
   1  -2  -6   65.09   15.70
   1  -2  -6   59.09    4.00
   1  -2  -6   57.89    3.70
   1  -2  -6   54.59    3.70
   1  -2  -6   61.49    3.80
  -1   2   6   58.79    3.70
  -1   2   6   47.90   29.30
  -1   2   6   55.69    3.60
  -1   2   6   57.89    4.10
  -1   2   6   56.59    3.80
   0  -2  -6   51.19    3.50
   0  -2  -6   55.79    3.80
   0  -2  -6   50.79    5.10
   0  -2  -6   54.79    3.50
   0  -2  -6   52.79    3.60
   0  -2  -6   52.39   19.00
   0  -2  -6   53.19    3.40
   0   2   6   57.39    3.20
   0   2   6   58.29    3.30
   0   2   6   53.69    5.20
   0   2   6   46.00   29.20
   0   2   6   56.19    4.10
  -1  -2  -6  105.09    6.00
  -1  -2  -6  110.49    7.40
  -1  -2  -6   94.99    5.80
  -1  -2  -6  101.19    5.50
  -1  -2  -6  103.69    5.80
   1   2   6  107.99    6.60
   1   2   6  116.99   39.90
   1   2   6  108.69    7.10
  -2  -2  -6  124.49    6.70
  -2  -2  -6  116.69    6.70
  -2  -2  -6  130.29    8.40
  -2  -2  -6  114.99    6.30
   2   2   6  126.39    7.20
   2   2   6  116.79    7.40
   2   2   6  118.29    8.20
  -3  -2  -6   20.60    2.00
  -3  -2  -6   20.30    2.30
  -3  -2  -6   22.30    3.80
   3   2   6   17.50    2.90
   3   2   6   24.50    3.70
   3   2   6   21.30    3.80
  -4  -2  -6  109.49    8.10
  -4  -2  -6  100.59    6.60
  -4  -2  -6  120.59    8.30
   4   2   6  123.59    8.30
   4   2   6  109.39    7.50
   4   2   6  132.79    8.30
  -5  -2  -6   -0.20    3.50
  -5  -2  -6    2.20    2.00
  -5  -2  -6    7.20    3.40
   5   2   6    1.20    3.00
   5   2   6    3.80    2.40
   5   2   6    4.60    2.80
  -6  -2  -6   45.80    5.90
  -6  -2  -6   47.30    6.50
  -6  -2  -6   49.99    4.60
   6   2   6   46.80    5.40
   6   2   6   50.69    6.20
  -7  -2  -6    0.10    4.30
   7   2   6   -2.40    2.10
   7   2   6    3.00    3.80
   9  -3  -6    2.50    2.70
  -9   3   6    6.20    4.30
  -9   3   6    7.80    2.70
  -9   3   6    8.40    3.80
   8  -3  -6   35.40    4.50
  -8   3   6   37.40    5.10
  -8   3   6   36.10    5.70
  -8   3   6   43.40    4.20
   7  -3  -6   48.20    4.20
   7  -3  -6   51.79    5.00
  -7   3   6   40.80    4.60
  -7   3   6   44.00    4.20
  -7   3   6   45.90    5.80
   6  -3  -6   60.99    5.30
   6  -3  -6   76.59    5.70
  -6   3   6   65.89    6.60
  -6   3   6   63.59    4.80
  -6   3   6   78.29    5.90
   5  -3  -6   21.80    3.30
   5  -3  -6   21.50    3.00
   5  -3  -6   21.50    3.10
  -5   3   6   22.00    2.60
  -5   3   6   16.90    3.20
  -5   3   6   15.70    2.80
   4  -3  -6  162.58    9.00
   4  -3  -6  158.58    8.50
   4  -3  -6  146.39    9.50
   4  -3  -6  146.39    8.80
  -4   3   6  151.88    7.80
  -4   3   6  167.98    8.70
  -4   3   6  157.18    9.00
   3  -3  -6   35.10    3.30
   3  -3  -6   31.00    2.90
   3  -3  -6   41.10    4.60
   3  -3  -6   35.40    3.20
   3  -3  -6   56.09   12.40
  -3   3   6   34.30    3.30
  -3   3   6   33.10    3.10
  -3   3   6   35.00    3.50
  -3   3   6   33.90    2.60
   2  -3  -6  302.97   15.50
   2  -3  -6  308.07   15.20
   2  -3  -6  305.27   15.40
   2  -3  -6  278.17   15.60
   2  -3  -6  340.87   28.50
   2  -3  -6  285.97   16.60
  -2   3   6  298.87   15.60
  -2   3   6  288.77   15.40
  -2   3   6  303.07   15.50
  -2   3   6  327.37   15.50
   1  -3  -6   37.20    3.30
   1  -3  -6   35.90   15.10
   1  -3  -6   38.00    3.30
   1  -3  -6   43.90    4.80
   1  -3  -6   42.80    2.70
   1  -3  -6   37.70    2.70
  -1   3   6   40.60    3.00
  -1   3   6   36.50    2.70
  -1   3   6   33.30    2.60
  -1   3   6   36.80    3.20
  -1   3   6   31.10   27.70
   0  -3  -6   80.29    6.10
   0  -3  -6   79.19    5.10
   0  -3  -6   84.19    4.80
   0  -3  -6   84.49    4.30
   0   3   6   71.89    4.60
   0   3   6   82.49    5.50
   0   3   6   79.69    6.10
   0   3   6   85.99    4.70
   0   3   6  110.19   38.50
  -1  -3  -6   35.60    4.40
  -1  -3  -6   42.80    3.30
   1   3   6   41.20    4.80
   1   3   6   41.60    3.20
   1   3   6   45.20   31.20
   1   3   6   36.50    2.50
   1   3   6   43.30    4.20
   1   3   6   39.10    2.50
  -2  -3  -6  287.67   15.20
  -2  -3  -6  290.47   16.80
   2   3   6  291.47   16.70
   2   3   6  287.47   15.50
   2   3   6  320.67   16.30
  -3  -3  -6  119.09    6.70
  -3  -3  -6  132.09    9.10
  -3  -3  -6  164.68    8.20
   3   3   6  159.38    8.40
   3   3   6  145.99    9.60
   3   3   6  147.69    9.20
  -4  -3  -6   49.90    4.40
  -4  -3  -6   58.39    6.20
  -4  -3  -6   54.89    6.20
   4   3   6   45.50    5.20
   4   3   6   50.99    5.80
   4   3   6   53.09    4.90
  -5  -3  -6   14.60    2.90
  -5  -3  -6   17.10    4.50
  -5  -3  -6    6.40    4.20
   5   3   6   10.90    3.80
   5   3   6    8.10    3.80
   5   3   6   14.40    3.30
  -6  -3  -6   19.60    4.50
  -6  -3  -6   20.70    5.40
   6   3   6   14.40    3.90
   6   3   6   20.50    4.00
   9  -4  -6   30.50    4.40
  -9   4   6   23.70    4.70
  -9   4   6   28.70    3.80
  -9   4   6   32.50    5.90
   8  -4  -6    8.80    3.00
  -8   4   6   10.40    2.80
  -8   4   6    8.10    4.10
  -8   4   6    5.10    3.20
   7  -4  -6   17.50    3.00
   7  -4  -6   16.90    3.00
  -7   4   6   22.60    4.10
  -7   4   6   19.40    3.00
  -7   4   6   15.20    3.60
   6  -4  -6   31.20    4.00
   6  -4  -6   31.70    3.80
  -6   4   6   26.70    4.20
  -6   4   6   19.20    3.60
  -6   4   6   25.80    3.20
   5  -4  -6   74.99    6.00
   5  -4  -6   68.19    5.30
  -5   4   6   66.99    5.20
  -5   4   6   68.39    3.70
  -5   4   6   69.69    5.50
   4  -4  -6   89.89    5.70
   4  -4  -6   91.39    6.70
  -4   4   6   85.39    5.00
  -4   4   6   86.99    5.80
   3  -4  -6  103.49    7.70
   3  -4  -6  107.19    5.80
   3  -4  -6  111.09    6.70
   3  -4  -6  139.39   18.30
  -3   4   6  112.19    6.80
  -3   4   6  120.19    6.80
  -3   4   6  102.99    6.60
   2  -4  -6   45.10   14.50
   2  -4  -6   44.70    4.90
   2  -4  -6   49.20    3.80
   2  -4  -6   48.60    2.80
  -2   4   6   41.20    3.30
  -2   4   6   45.90    3.80
  -2   4   6   23.20   26.40
  -2   4   6   49.90    3.50
  -2   4   6   47.50    3.80
   1  -4  -6    8.50    2.90
   1  -4  -6    8.80    1.90
  -1   4   6    9.10    2.20
  -1   4   6    9.30   24.50
  -1   4   6    9.10    1.20
  -1   4   6    6.40    1.70
  -1   4   6    8.10    1.60
   0  -4  -6  218.08   12.70
   0  -4  -6  206.88   11.10
   0   4   6  225.58   48.80
   0   4   6  201.98   11.50
   0   4   6  188.78   12.30
   0   4   6  196.78   10.60
   0   4   6  205.28   10.70
  -1  -4  -6   93.99    6.00
  -1  -4  -6   84.09    7.30
   1   4   6   90.99    6.60
   1   4   6   91.69    5.60
   1   4   6   90.49    7.00
  -2  -4  -6   50.99    4.30
  -2  -4  -6   62.49    6.70
   2   4   6   53.69    3.30
   2   4   6   52.99    5.60
   2   4   6   65.09    5.60
   2   4   6   52.79    4.20
  -3  -4  -6   29.70    5.10
  -3  -4  -6   34.80    3.80
   3   4   6   31.20    4.40
   3   4   6   40.80    4.10
   3   4   6   36.40    4.50
  -4  -4  -6   26.90    5.20
  -4  -4  -6   29.90    5.40
  -4  -4  -6   27.40    3.50
   4   4   6   19.70    4.40
   4   4   6   25.10    4.70
   4   4   6   26.30    3.70
  -5  -4  -6   24.60    3.50
  -5  -4  -6   28.90    5.20
  -5  -4  -6   26.10    5.60
   5   4   6   19.80    4.60
   5   4   6   20.90    4.70
   5   4   6   21.30    3.90
   9  -5  -6   15.80    4.10
  -9   5   6   15.80    5.10
  -9   5   6   14.10    4.20
  -9   5   6   17.60    3.90
   8  -5  -6    3.30    2.80
  -8   5   6   -2.40    3.80
  -8   5   6    0.70    2.80
  -8   5   6    1.30    2.60
   7  -5  -6    2.30    2.80
   7  -5  -6   -1.00    2.10
  -7   5   6    4.20    2.40
  -7   5   6    3.80    3.90
  -7   5   6   -0.40    2.30
   6  -5  -6    2.20    2.30
   6  -5  -6    3.60    2.90
  -6   5   6    1.90    2.50
  -6   5   6   -0.20    2.20
   5  -5  -6   19.70    3.20
   5  -5  -6   15.70    3.40
  -5   5   6   18.00    3.00
   4  -5  -6   70.59   13.40
   4  -5  -6   41.80    5.20
   4  -5  -6   54.19    4.70
  -4   5   6   43.20    4.40
  -4   5   6   49.70    4.60
   3  -5  -6   16.70    2.90
   3  -5  -6   28.60   13.40
   3  -5  -6   19.20    3.90
  -3   5   6   23.10    3.20
  -3   5   6   16.40   26.40
  -3   5   6   18.70    2.70
  -3   5   6   16.30    2.40
   2  -5  -6   17.00    2.80
   2  -5  -6   14.20    3.30
  -2   5   6   15.80   25.20
  -2   5   6   16.30    2.50
  -2   5   6   17.60    1.90
   1  -5  -6    3.00    1.90
   1  -5  -6    3.40    2.50
  -1   5   6    4.60    1.60
  -1   5   6    1.80    1.80
  -1   5   6    6.90   23.80
   0  -5  -6   24.60    3.00
   0  -5  -6   21.80    4.50
   0   5   6   13.90   26.50
   0   5   6   14.50    2.20
   0   5   6   19.40    2.40
   0   5   6   17.00    3.20
   0   5   6   19.80    3.80
  -1  -5  -6   98.39    7.60
  -1  -5  -6   96.49    6.30
   1   5   6   93.59    6.60
   1   5   6   93.69    5.60
   1   5   6   76.89    7.70
   1   5   6   88.19    5.50
  -2  -5  -6  100.19    6.90
  -2  -5  -6  108.39    8.80
   2   5   6  104.59    7.90
   2   5   6   95.39    8.10
   2   5   6   96.09    6.30
   2   5   6  101.19    5.80
  -3  -5  -6   22.60    3.70
  -3  -5  -6   19.70    4.20
   3   5   6   20.30    3.10
   3   5   6   23.50    4.00
   3   5   6   27.10    4.80
  -4  -5  -6    8.00    2.80
  -4  -5  -6    7.90    4.30
  -4  -5  -6    3.80    4.40
   4   5   6    7.80    2.90
   4   5   6    5.80    3.70
   4   5   6   14.20    4.30
  -9   6   6    3.60    4.80
   8  -6  -6    9.00    3.30
  -8   6   6    7.80    3.00
  -8   6   6   11.80    4.70
  -8   6   6    6.80    3.50
   7  -6  -6    9.60    3.10
   7  -6  -6    9.10    3.10
  -7   6   6    6.30    3.20
  -7   6   6    8.60    2.80
   6  -6  -6    3.90    2.70
   6  -6  -6    4.60    3.00
  -6   6   6   -0.10    2.40
   5  -6  -6   -0.50    2.20
   5  -6  -6    2.30    2.80
  -5   6   6    1.70    2.20
  -5   6   6   -1.70    2.50
   4  -6  -6   54.59    4.40
   4  -6  -6   52.79    6.00
  -4   6   6   17.50   30.90
  -4   6   6   49.99    4.70
  -4   6   6   50.99    5.00
   3  -6  -6   -0.70    3.00
   3  -6  -6   -4.50   12.90
   3  -6  -6   -2.40    2.00
  -3   6   6   -1.00    1.90
  -3   6   6   -3.60   23.90
   2  -6  -6    9.50    3.90
   2  -6  -6   11.50    2.70
  -2   6   6   15.00    2.60
  -2   6   6   13.20   27.90
   1  -6  -6   88.49    6.30
   1  -6  -6   89.09    7.40
  -1   6   6  111.29   40.60
  -1   6   6   85.19    5.80
   0  -6  -6   48.90    4.60
   0  -6  -6   39.90    5.90
   0   6   6   34.60    5.50
   0   6   6   49.20    4.10
  -1  -6  -6   39.00    6.20
  -1  -6  -6   49.90    4.80
   1   6   6   46.70    3.60
   1   6   6   49.50    5.60
   1   6   6   48.70    6.20
  -2  -6  -6    2.30    4.20
  -2  -6  -6    5.50    2.60
   2   6   6    2.80    1.60
   2   6   6    1.20    3.50
   2   6   6   -0.10    3.20
   2   6   6    7.30    2.10
  -3  -6  -6   11.50    3.30
  -3  -6  -6    6.00    4.50
   3   6   6    6.20    3.90
   3   6   6    8.00    2.60
   3   6   6    8.00    4.10
   8  -7  -6   11.10    3.50
  -8   7   6    2.00    3.20
   7  -7  -6   11.10    3.30
   7  -7  -6    8.20    3.20
  -7   7   6   11.10    3.50
   6  -7  -6    6.00    3.40
   6  -7  -6    9.90    3.30
  -6   7   6    7.10    3.20
  -6   7   6   10.50    3.20
   5  -7  -6    7.10    3.60
   5  -7  -6    4.00    2.70
  -5   7   6   11.10   33.30
  -5   7   6    4.80    2.80
  -5   7   6    5.60    3.10
   4  -7  -6   62.19    6.70
   4  -7  -6   53.39    5.30
  -4   7   6   49.20    5.40
  -4   7   6   62.79    5.50
  -4   7   6   33.30   33.10
   3  -7  -6   50.19    4.90
   3  -7  -6   42.50    5.90
  -3   7   6   31.40    3.90
  -3   7   6   26.10   29.20
   2  -7  -6   22.40    3.60
   2  -7  -6   33.20    5.60
  -2   7   6   23.70    3.30
  -2   7   6   12.80   29.30
   1  -7  -6   26.10    3.90
   1  -7  -6   23.10    4.60
  -1   7   6   22.70    3.10
  -1   7   6   17.10    4.80
   0  -7  -6   14.00    4.00
   0  -7  -6   10.60    3.00
   0   7   6   12.00    2.60
   0   7   6    7.00    3.30
  -1  -7  -6   30.20    6.00
  -1  -7  -6   41.20    4.60
   1   7   6   41.60    5.90
   1   7   6   27.80    5.10
   1   7   6   31.70    3.30
  -2  -7  -6   15.80    5.30
  -2  -7  -6   13.60    3.50
   2   7   6   18.90    4.70
   2   7   6   17.50    4.70
   7  -8  -6    5.80    3.20
   7  -8  -6    4.00    3.60
  -7   8   6    4.60    2.50
  -7   8   6    3.90    3.40
   6  -8  -6   32.40    4.70
   6  -8  -6   25.60    5.40
  -6   8   6   31.40    4.40
  -6   8   6   31.00    4.70
   5  -8  -6   62.59    7.30
   5  -8  -6   71.79    6.30
  -5   8   6   68.29    6.10
  -5   8   6   51.69    6.10
   4  -8  -6   11.20    4.40
   4  -8  -6    4.90    2.90
  -4   8   6   10.70    3.00
   3  -8  -6  101.29    9.10
   3  -8  -6   92.19    7.00
  -3   8   6  104.79    7.20
   2  -8  -6   11.90    3.50
   2  -8  -6   13.70    4.80
  -2   8   6   17.00    3.30
   1  -8  -6    7.70    4.80
   1  -8  -6   15.30    3.70
  -1   8   6   15.10    2.90
  -1   8   6   13.00    4.70
   0  -8  -6   -5.50    3.90
   0  -8  -6    2.80    2.90
   0   8   6    2.60    4.00
   0   8   6   -0.60    2.40
  -1  -8  -6   10.10    3.60
  -1  -8  -6   11.50    4.60
   1   8   6   14.30    2.70
   1   8   6   11.00    4.80
   1   8   6    6.10    4.20
   6  -9  -6    9.20    4.50
   6  -9  -6   10.00    3.70
  -6   9   6   16.50    4.40
  -6   9   6   11.10    3.60
   5  -9  -6   41.20    6.50
   5  -9  -6   41.80    5.00
  -5   9   6   42.50    5.20
  -5   9   6   40.90    5.70
   4  -9  -6   12.80    3.80
   4  -9  -6   11.10    4.80
  -4   9   6   10.40    3.20
   3  -9  -6   61.69    7.90
   3  -9  -6   55.09    6.00
  -3   9   6   51.59    5.60
   2  -9  -6   -2.20    4.20
   2  -9  -6   -1.40    3.10
  -2   9   6    1.00    2.40
   1  -9  -6    9.00    3.10
   1  -9  -6   11.60    4.60
  -1   9   6    9.60    3.10
  -1  11  -7   95.79    7.80
  -1  11  -7  106.99    8.50
   1 -11   7   78.59    8.00
   1 -11   7  104.09    8.10
  -2  11  -7   50.99    5.40
  -2  11  -7   41.80    4.70
  -2  11  -7   37.60    5.80
   2 -11   7   37.20    5.60
   2 -11   7   33.60    4.60
  -3  11  -7   19.30    4.40
  -3  11  -7   20.10    3.80
  -3  11  -7   11.00    3.70
   3 -11   7   20.10    5.00
   3 -11   7   21.70   25.60
   3 -11   7    7.30    3.00
  -4  11  -7   14.80    3.80
  -4  11  -7   10.90    4.10
  -4  11  -7   12.30    3.40
   4 -11   7   12.50    4.80
   4 -11   7    2.60   25.40
  -5  11  -7   35.40    4.80
  -5  11  -7   35.80    5.50
  -5  11  -7   34.40    4.70
   5 -11   7   34.00   29.80
   5 -11   7   41.00    5.20
   5 -11   7   32.90    6.10
   1  10  -7   58.19    6.50
   1  10  -7   54.19    5.90
  -1 -10   7   49.00    5.80
   0  10  -7   30.30    4.40
   0  10  -7   27.70    4.90
   0 -10   7   26.90    4.50
   0 -10   7   25.20    4.20
  -1  10  -7   85.89    7.30
  -1  10  -7   84.09    6.70
   1 -10   7   72.39    7.20
  -2  10  -7   42.80    5.50
  -2  10  -7   30.40    4.00
  -2  10  -7   48.70    4.90
   2 -10   7   30.00    4.00
   2 -10   7   21.50    4.60
  -3  10  -7    7.20    2.80
  -3  10  -7   10.60    3.80
  -3  10  -7   12.70    3.10
   3 -10   7    1.50   23.20
   3 -10   7    2.40    2.20
   3 -10   7    1.70    3.70
  -4  10  -7   14.50    3.70
  -4  10  -7   16.30    3.20
  -4  10  -7   14.80    3.10
   4 -10   7   12.20    4.20
   4 -10   7   25.50   24.80
  -5  10  -7   15.90    3.30
  -5  10  -7   15.50    4.50
  -5  10  -7   15.40    3.60
   5 -10   7   14.00    3.60
   5 -10   7   22.10    5.00
   5 -10   7   19.80   23.90
  -6  10  -7    9.10    2.80
  -6  10  -7   10.30    3.70
  -6  10  -7    9.50    3.20
   6 -10   7    8.20    3.60
   6 -10   7    6.60   23.70
   6 -10   7   12.00    4.60
  -7  10  -7   40.00    6.40
  -7  10  -7   37.20    4.90
   7 -10   7   43.00    6.40
   7 -10   7   37.10    5.30
   7 -10   7   22.80   26.80
   2   9  -7   26.50    4.70
   2   9  -7   29.60    4.10
  -2  -9   7   19.30    3.90
  -2  -9   7   35.60    4.80
   1   9  -7   65.59    6.00
   1   9  -7   57.39    6.30
  -1  -9   7   57.99    5.80
  -1  -9   7   55.29    5.80
   0   9  -7   24.50    4.50
   0   9  -7   19.10    3.60
   0  -9   7   19.30    4.10
   0  -9   7   24.60    4.00
  -1   9  -7  124.59    8.20
  -1   9  -7  127.19    9.10
   1  -9   7  132.69    8.90
   1  -9   7   88.49   35.40
  -2   9  -7   37.50    4.00
  -2   9  -7   43.10    5.10
  -2   9  -7   44.30    4.60
   2  -9   7   40.40   24.60
   2  -9   7   39.30    5.20
   2  -9   7   46.30   25.30
  -3   9  -7   12.60    2.60
  -3   9  -7   12.00    2.80
  -3   9  -7   12.40    3.70
   3  -9   7    5.30    1.80
   3  -9   7    2.50   20.50
   3  -9   7    6.00    3.60
  -4   9  -7   37.00    4.00
  -4   9  -7   39.40    4.30
  -4   9  -7   36.80    5.40
   4  -9   7   38.80    5.50
   4  -9   7   26.30   23.00
   4  -9   7   39.10    4.50
  -5   9  -7   36.20    3.90
  -5   9  -7   40.60    5.60
  -5   9  -7   32.50    4.10
   5  -9   7   30.70    5.40
   5  -9   7   57.59   26.00
   5  -9   7   34.00    4.50
  -6   9  -7   34.20    5.60
  -6   9  -7   37.20    4.50
  -6   9  -7   43.80    4.50
   6  -9   7   30.20    5.50
   6  -9   7   46.60    5.20
   6  -9   7   40.40   25.10
  -7   9  -7   42.80    4.90
   7  -9   7   44.70    5.50
   7  -9   7   25.60   27.00
   7  -9   7   43.80    6.20
   4   8  -7    7.60    4.00
  -4  -8   7   18.80    4.70
   3   8  -7   62.39    6.60
   3   8  -7   60.39    6.00
  -3  -8   7   47.20    5.90
   2   8  -7   27.00    4.60
   2   8  -7   27.10    3.70
  -2  -8   7   24.60    3.60
  -2  -8   7   27.80    4.20
   1   8  -7   84.19    6.70
   1   8  -7   83.09    6.10
  -1  -8   7   33.40   29.40
  -1  -8   7   67.69    6.10
  -1  -8   7   65.19    6.00
   0   8  -7   10.40    2.70
   0   8  -7   13.30    3.40
   0  -8   7    3.90   21.70
   0  -8   7   10.90    2.70
   0  -8   7   11.40    3.10
  -1   8  -7   37.90    4.00
  -1   8  -7   33.80    3.40
  -1   8  -7   35.30    4.70
   1  -8   7   38.90    3.90
   1  -8   7   21.90   22.50
   1  -8   7   33.10    4.50
  -2   8  -7  141.19    8.30
  -2   8  -7  144.19    9.60
  -2   8  -7  134.79    8.60
   2  -8   7  165.38   39.90
   2  -8   7  144.29    8.20
   2  -8   7  153.78    9.60
   2  -8   7  160.18   30.00
  -3   8  -7   74.99    5.30
  -3   8  -7   81.99    6.40
  -3   8  -7   82.09    5.70
   3  -8   7   81.89   26.00
   3  -8   7   72.19    6.80
  -4   8  -7  145.89    8.00
  -4   8  -7  128.79    7.80
  -4   8  -7  131.49    9.00
   4  -8   7  159.88   31.40
   4  -8   7  123.49    9.20
   4  -8   7  116.79    8.40
  -5   8  -7   48.40    6.00
  -5   8  -7   50.89    4.40
  -5   8  -7   44.10    4.40
   5  -8   7   46.40    4.90
   5  -8   7   44.10    5.20
   5  -8   7   44.90   23.40
  -6   8  -7   76.79    6.20
  -6   8  -7   82.89    5.90
   6  -8   7   69.89   27.10
   6  -8   7   95.29    8.30
   6  -8   7   88.89    7.10
  -7   8  -7   17.30    3.70
   7  -8   7   32.60   26.80
   7  -8   7   23.60    4.30
   7  -8   7   21.80    4.40
  -8   8  -7   27.90    4.50
   8  -8   7   31.20    5.60
   8  -8   7   31.00    5.10
  -5  -7   7   55.89    6.60
   4   7  -7   26.30    4.80
   4   7  -7   24.50    4.10
  -4  -7   7   29.80    4.80
   3   7  -7   55.79    5.90
   3   7  -7   58.49    5.70
  -3  -7   7   57.89    5.00
  -3  -7   7   68.09    6.30
   2   7  -7   22.30    3.60
   2   7  -7   25.20    3.90
  -2  -7   7   20.90    3.70
  -2  -7   7   20.90    3.30
   1   7  -7   50.79    5.60
   1   7  -7   56.99    4.50
  -1  -7   7   54.69    4.90
  -1  -7   7   58.19    5.10
   0   7  -7  107.59    7.90
   0   7  -7  124.19    7.20
   0   7  -7  118.69    7.20
   0  -7   7  104.59    6.30
   0  -7   7  107.69    7.10
   0  -7   7   52.89   32.20
   0  -7   7  112.69    7.40
  -1   7  -7  157.48    9.10
  -1   7  -7  143.69    8.80
  -1   7  -7  174.98    8.70
  -1   7  -7  158.08   10.00
   1  -7   7  106.39   38.20
   1  -7   7  159.48    9.80
   1  -7   7  174.18   29.80
   1  -7   7  156.38    8.70
   1  -7   7  157.68    8.60
   1  -7   7  163.18    8.90
  -2   7  -7  257.07   14.80
  -2   7  -7  263.07   15.20
  -2   7  -7  273.97   13.90
  -2   7  -7  268.97   14.10
   2  -7   7  270.87   13.60
   2  -7   7  328.37   37.20
   2  -7   7  290.97   49.99
   2  -7   7  266.07   14.80
   2  -7   7  258.37   13.50
   2  -7   7  248.18   13.90
  -3   7  -7   22.50    2.60
  -3   7  -7   24.70    2.70
  -3   7  -7   24.70    3.60
   3  -7   7   19.50   28.50
   3  -7   7   30.00    4.30
   3  -7   7   16.90   18.10
  -4   7  -7   35.90    2.90
  -4   7  -7   41.30    3.60
  -4   7  -7   49.90    3.80
  -4   7  -7   42.50    5.10
   4  -7   7   47.40    5.20
   4  -7   7   45.20    4.70
   4  -7   7   39.00   21.40
  -5   7  -7   62.19    6.50
  -5   7  -7   73.49    5.30
  -5   7  -7   75.49    4.90
   5  -7   7   71.99    6.20
   5  -7   7   65.09    6.70
   5  -7   7   72.19   25.80
  -6   7  -7   56.79    5.20
  -6   7  -7   57.39    4.70
  -6   7  -7   57.29    4.50
   6  -7   7   55.39    6.30
   6  -7   7   48.60   25.40
   6  -7   7   60.09    6.00
  -7   7  -7    7.00    2.80
  -7   7  -7    8.80    3.10
   7  -7   7    6.50    3.40
   7  -7   7   13.80    4.10
  -8   7  -7   39.30    4.90
  -8   7  -7   43.00    5.30
   8  -7   7   59.19    6.40
   8  -7   7   58.89    6.50
   5   6  -7   88.99    7.10
   5   6  -7   82.19    7.10
  -5  -6   7   89.59    7.10
   4   6  -7   44.80    5.70
   4   6  -7   55.09    5.40
  -4  -6   7   48.10    4.40
  -4  -6   7   52.49    5.60
   3   6  -7   65.09    6.40
   3   6  -7   74.79    5.70
  -3  -6   7   60.59    4.80
  -3  -6   7   64.99    4.60
  -3  -6   7   70.29    6.10
   2   6  -7  125.09    8.00
   2   6  -7  117.89    8.60
  -2  -6   7  144.19    8.30
  -2  -6   7  119.19    7.60
   1   6  -7  165.78    9.30
   1   6  -7  170.78   10.10
  -1  -6   7  154.28    9.40
  -1  -6   7  155.88    9.20
  -1  -6   7  150.88    8.20
   0   6  -7   50.69    3.70
   0   6  -7   55.49    4.60
   0   6  -7   49.50    4.00
   0  -6   7   51.19    3.80
   0  -6   7   47.80    3.30
   0  -6   7   30.90   27.80
   0  -6   7   47.80    4.80
   0  -6   7   51.59    3.90
  -1   6  -7   19.20    2.50
  -1   6  -7   17.90    3.40
  -1   6  -7   22.30    2.10
  -1   6  -7   15.70    2.30
   1  -6   7   10.40   25.30
   1  -6   7   18.50    2.00
   1  -6   7   18.20    2.10
   1  -6   7   14.00   13.60
   1  -6   7   21.20    3.30
   1  -6   7   16.20    2.10
  -2   6  -7  323.17   14.20
  -2   6  -7  273.37   15.40
  -2   6  -7  281.27   14.30
  -2   6  -7  284.27   15.30
   2  -6   7  299.67   15.30
   2  -6   7  228.18   13.50
   2  -6   7  282.47   48.80
   2  -6   7  267.07   13.50
   2  -6   7  351.86   35.80
   2  -6   7  258.67   14.10
  -3   6  -7  127.09    6.70
  -3   6  -7  130.29    7.20
  -3   6  -7  124.19    8.50
  -3   6  -7  130.39    7.30
   3  -6   7  118.89    8.10
   3  -6   7  136.29   25.50
   3  -6   7  141.49   43.20
  -4   6  -7  115.89    8.20
  -4   6  -7  114.49    7.10
  -4   6  -7  120.99    6.80
  -4   6  -7  120.39    6.80
  -4   6  -7  115.99    6.80
   4  -6   7  123.99    7.90
   4  -6   7  133.19   28.80
   4  -6   7  122.09    7.90
  -5   6  -7    9.30    2.00
  -5   6  -7   12.00    1.80
  -5   6  -7    9.70    2.40
  -5   6  -7   -0.20    2.10
   5  -6   7    3.50   14.80
   5  -6   7   11.00    3.40
   5  -6   7    6.10    2.90
  -6   6  -7   70.69    5.60
  -6   6  -7   67.79    5.20
   6  -6   7   75.09    6.80
   6  -6   7   67.29    6.30
   6  -6   7   60.69   26.30
  -7   6  -7   38.60    4.50
  -7   6  -7   37.70    4.30
   7  -6   7   34.10    4.90
   7  -6   7   34.90    5.20
  -8   6  -7   77.29    7.00
  -8   6  -7   90.39    7.10
   8  -6   7   72.29    7.20
   8  -6   7   72.09    7.30
   6   5  -7    4.20    3.60
   6   5  -7    5.70    2.40
  -6  -5   7    0.10    3.10
  -6  -5   7    4.50    3.60
   5   5  -7    6.40    2.90
   5   5  -7    8.40    2.90
  -5  -5   7    5.70    2.80
  -5  -5   7    3.80    3.20
   4   5  -7   65.49    5.90
   4   5  -7   70.49    6.80
  -4  -5   7   79.09    6.40
  -4  -5   7   68.89    5.30
   3   5  -7   80.29    5.60
   3   5  -7   95.19    6.20
   3   5  -7   77.29    6.60
  -3  -5   7   85.19    5.30
  -3  -5   7   75.99    5.30
  -3  -5   7   75.49    6.10
   2   5  -7   49.20    3.50
   2   5  -7   43.20    4.90
   2   5  -7   46.10    4.20
  -2  -5   7   46.30    4.00
  -2  -5   7   44.50    4.30
  -2  -5   7   48.20    2.70
   1   5  -7   -0.10    1.00
   1   5  -7    0.40    1.40
   1   5  -7    0.80    1.80
  -1  -5   7    0.40    1.30
  -1  -5   7   -2.10    1.80
  -1  -5   7    1.10    0.70
  -1  -5   7    2.70    1.80
   0   5  -7  388.76   20.40
   0   5  -7  366.66   20.20
   0   5  -7  396.46   19.70
   0   5  -7  402.96   19.60
   0   5  -7  440.96   21.40
   0  -5   7  413.96   20.80
   0  -5   7  391.26   20.10
   0  -5   7  405.66   20.20
   0  -5   7  413.86   19.70
  -1   5  -7   11.30    1.90
  -1   5  -7   13.00    2.50
  -1   5  -7   14.50    1.60
  -1   5  -7   12.80    1.20
  -1   5  -7   11.40    1.10
  -1   5  -7   12.00    2.10
   1  -5   7    5.50   23.80
   1  -5   7   13.10   15.30
   1  -5   7    9.50    1.40
   1  -5   7    9.60    2.70
  -2   5  -7  390.66   21.30
  -2   5  -7  366.36   19.80
  -2   5  -7  402.56   20.20
  -2   5  -7  419.86   20.10
  -2   5  -7  410.06   20.10
  -2   5  -7  386.76   21.20
   2  -5   7  475.85   40.70
   2  -5   7  422.26   21.10
   2  -5   7  392.56   57.89
  -3   5  -7    4.30    1.60
  -3   5  -7    4.80    1.40
  -3   5  -7    3.20    1.20
  -3   5  -7    2.70    1.20
  -3   5  -7    3.70    2.40
   3  -5   7    6.10    2.50
   3  -5   7    2.80   12.50
   3  -5   7    1.10   23.90
  -4   5  -7   88.49    5.10
  -4   5  -7   89.99    5.70
  -4   5  -7   91.19    5.10
  -4   5  -7   94.89    5.80
  -4   5  -7   87.09    6.70
   4  -5   7   81.69   24.90
   4  -5   7   96.39    6.80
   4  -5   7   81.59    6.30
  -5   5  -7   -5.60    1.90
  -5   5  -7   12.00    2.60
  -5   5  -7    6.50    1.30
   5  -5   7    7.40    2.50
   5  -5   7    3.20   14.80
   5  -5   7    8.40    2.40
  -6   5  -7  222.38   11.40
  -6   5  -7  200.48   12.20
  -6   5  -7  227.08   12.50
   6  -5   7  200.68   12.70
   6  -5   7  244.58   13.20
  -7   5  -7   41.20    4.80
  -7   5  -7   42.10    4.50
  -7   5  -7   37.20    4.60
   7  -5   7   32.40    4.80
   7  -5   7   38.90    4.70
   7  -5   7   39.70    5.10
  -8   5  -7   17.30    4.20
  -8   5  -7   23.00    4.20
   8  -5   7   16.80    4.10
   8  -5   7   19.60    4.10
   8  -5   7   22.10    4.60
   7   4  -7   14.90    4.30
   7   4  -7   12.70    3.60
  -7  -4   7   18.50    4.00
  -7  -4   7   19.90    4.50
   6   4  -7    0.60    3.30
   6   4  -7    2.10    2.70
  -6  -4   7    1.40    3.20
  -6  -4   7    3.80    3.10
   5   4  -7    0.60    2.30
   5   4  -7    1.00    2.30
  -5  -4   7    3.70    3.00
  -5  -4   7    6.40    2.90
   4   4  -7   89.19    7.00
   4   4  -7   88.59    6.30
  -4  -4   7   80.39    6.20
  -4  -4   7   96.29    6.70
  -4  -4   7   80.59    4.50
   3   4  -7   57.39    4.50
   3   4  -7   52.49    5.30
   3   4  -7   54.39    4.20
  -3  -4   7   59.19    4.40
  -3  -4   7   62.99    4.80
  -3  -4   7   48.20    2.60
   2   4  -7  298.17   14.40
   2   4  -7  267.17   13.90
   2   4  -7  255.07   14.90
  -2  -4   7  252.67   14.10
  -2  -4   7  274.97   14.40
   1   4  -7   38.70    2.90
   1   4  -7   47.70    4.50
   1   4  -7   37.70    3.40
  -1  -4   7   36.30    3.30
  -1  -4   7   43.80    3.80
  -1  -4   7   39.30    3.10
  -1  -4   7   42.30   17.10
   0   4  -7  399.76   20.30
   0   4  -7  399.96   21.00
   0   4  -7  387.16   21.70
   0   4  -7  430.36   20.70
   0  -4   7  545.05   40.60
   0  -4   7  393.76   20.60
   0  -4   7  434.76   20.80
   0  -4   7  435.16   21.50
  -1   4  -7   51.69    3.20
  -1   4  -7   52.89    4.40
  -1   4  -7   42.00    3.00
  -1   4  -7   51.79    4.10
  -1   4  -7   50.89    3.30
  -1   4  -7   57.19    3.60
   1  -4   7   40.70   29.90
   1  -4   7   54.19   18.60
   1  -4   7   55.19    4.10
  -2   4  -7  175.08    9.40
  -2   4  -7  185.68    9.50
  -2   4  -7  181.58    9.60
  -2   4  -7  174.98   10.60
   2  -4   7  219.08   51.19
   2  -4   7  185.88   24.50
   2  -4   7  197.68   10.70
  -3   4  -7   27.50    2.10
  -3   4  -7   31.10    2.10
  -3   4  -7   32.00    3.20
  -3   4  -7   27.20    3.40
  -3   4  -7   23.90    2.80
   3  -4   7   23.20   29.70
   3  -4   7   37.30    3.80
   3  -4   7   40.80   19.00
  -4   4  -7  343.87   17.30
  -4   4  -7  342.27   17.40
  -4   4  -7  316.97   16.30
   4  -4   7  348.97   17.90
   4  -4   7  239.88   34.70
   4  -4   7  351.16   17.80
  -5   4  -7    8.40    2.80
  -5   4  -7   17.20    1.50
  -5   4  -7   15.90    1.60
  -5   4  -7   23.10    3.10
   5  -4   7   18.50    3.20
   5  -4   7   17.30    3.40
  -6   4  -7    2.60    2.50
  -6   4  -7    0.90    2.40
  -6   4  -7    2.70    1.50
  -6   4  -7    5.60    2.50
   6  -4   7    1.80    2.70
   6  -4   7    0.40    2.00
   6  -4   7    3.70    3.00
  -7   4  -7   27.80    4.20
  -7   4  -7   30.90    3.90
  -7   4  -7   25.30    4.40
   7  -4   7   28.90    4.60
   7  -4   7   37.50    4.90
   7  -4   7   28.70    4.40
  -8   4  -7   10.20    3.90
  -8   4  -7    3.70    3.20
   8  -4   7    9.50    3.70
   8  -4   7   11.70    3.90
   7   3  -7    7.40    3.00
   7   3  -7    6.30    3.60
  -7  -3   7    2.30    4.00
  -7  -3   7    5.70    3.60
   6   3  -7   40.80    4.40
   6   3  -7   50.49    5.70
  -6  -3   7   37.90    4.90
  -6  -3   7   40.00    5.20
   5   3  -7    5.00    2.40
   5   3  -7    6.80    3.10
  -5  -3   7    3.50    1.00
  -5  -3   7    1.00    2.80
  -5  -3   7    6.10    2.90
   4   3  -7   75.79    5.70
   4   3  -7   78.89    5.50
  -4  -3   7   71.79    3.70
  -4  -3   7   67.29    3.70
  -4  -3   7   79.59    5.60
  -4  -3   7   75.39    5.40
  -4  -3   7   71.79    4.20
   3   3  -7  205.08   11.70
   3   3  -7  190.28   10.90
  -3  -3   7  204.28   11.00
  -3  -3   7  188.08   10.30
  -3  -3   7  213.68   11.30
   2   3  -7  213.88   12.80
   2   3  -7  229.58   12.30
   2   3  -7  242.48   12.20
   2   3  -7  225.98   12.40
  -2  -3   7  230.08   12.10
  -2  -3   7  235.18   12.20
  -2  -3   7  248.38   12.50
   1   3  -7    5.50    2.20
   1   3  -7    4.70    1.50
   1   3  -7    7.60    2.00
   1   3  -7    3.40    1.40
  -1  -3   7    4.80    1.60
  -1  -3   7    3.10    1.70
  -1  -3   7    6.90    1.80
  -1  -3   7    7.10   13.60
  -1  -3   7    3.70    1.20
   0   3  -7  150.38    8.20
   0   3  -7  154.08    8.40
   0   3  -7  157.68    7.70
   0   3  -7  155.48    8.30
   0   3  -7  148.39    8.70
   0   3  -7  149.39    9.10
   0  -3   7  174.58    9.00
   0  -3   7  151.38    7.90
   0  -3   7  160.58    8.80
   0  -3   7  182.28   24.70
   0  -3   7  149.39    7.90
  -1   3  -7   70.19    5.20
  -1   3  -7   66.19    5.20
  -1   3  -7   75.29    4.20
  -1   3  -7   73.09    4.30
  -1   3  -7   73.39    4.20
   1  -3   7   75.39    5.10
   1  -3   7   52.99   28.30
   1  -3   7   74.29   20.10
   1  -3   7   82.59    5.20
  -2   3  -7   13.00    1.20
  -2   3  -7   15.10    1.80
  -2   3  -7   14.00    1.40
  -2   3  -7   15.20    2.40
   2  -3   7   15.50   21.60
   2  -3   7   -1.20   12.90
   2  -3   7   11.30    2.30
  -3   3  -7   60.79    4.20
  -3   3  -7   64.09    3.30
  -3   3  -7   66.39    3.40
  -3   3  -7   66.59    4.80
  -3   3  -7   64.09    5.00
   3  -3   7   59.89    5.10
   3  -3   7   46.30   19.90
   3  -3   7   75.19   35.90
  -4   3  -7   93.49    4.50
  -4   3  -7   92.99    4.50
  -4   3  -7   76.69    6.00
  -4   3  -7   85.69    5.90
   4  -3   7   79.39    6.30
   4  -3   7   91.99    6.40
  -5   3  -7  106.99    7.20
  -5   3  -7  106.19    7.10
  -5   3  -7   94.69    6.70
  -5   3  -7  103.29    5.30
  -5   3  -7  103.69    5.30
   5  -3   7   92.09    6.80
   5  -3   7   97.69    7.10
   5  -3   7  102.19    6.90
  -6   3  -7   43.70    5.10
  -6   3  -7   31.00    4.00
  -6   3  -7   38.00    4.40
   6  -3   7   32.00    4.30
   6  -3   7   40.50    4.90
  -7   3  -7   27.00    3.90
  -7   3  -7   33.10    5.10
  -7   3  -7   34.70    4.70
   7  -3   7   33.70    4.30
   7  -3   7   33.70    4.50
  -8   3  -7   -0.40    2.40
  -8   3  -7    1.20    3.60
   8  -3   7    2.70    3.10
   8  -3   7    5.40    3.50
   8   2  -7   24.30    4.40
   8   2  -7   26.40    4.30
  -8  -2   7   21.20    4.90
  -8  -2   7   16.40    4.50
   7   2  -7    5.20    3.40
   7   2  -7   -1.50    2.50
  -7  -2   7    4.40    3.30
  -7  -2   7    1.50    2.50
   6   2  -7   19.40    3.50
   6   2  -7   15.90    3.90
  -6  -2   7   22.20    4.00
  -6  -2   7   17.40    3.80
   5   2  -7    3.90    2.20
   5   2  -7    0.40    2.60
  -5  -2   7    5.50    2.70
  -5  -2   7    3.70    0.90
  -5  -2   7    0.10    2.40
   4   2  -7  294.57   16.50
   4   2  -7  321.47   17.00
  -4  -2   7  294.77   15.10
  -4  -2   7  314.67   16.80
  -4  -2   7  351.16   16.80
   3   2  -7   88.69    5.60
   3   2  -7   79.19    6.10
   3   2  -7   78.09    5.60
   3   2  -7   94.99    5.20
  -3  -2   7   79.79    5.50
  -3  -2   7  101.39   20.00
  -3  -2   7   86.19    6.00
  -3  -2   7   83.59    5.90
   2   2  -7  148.89    7.90
   2   2  -7  142.69    8.40
   2   2  -7  134.29    7.80
   2   2  -7  137.19    7.80
   2   2  -7  133.59    7.60
  -2  -2   7  169.18   22.80
  -2  -2   7  135.69    7.90
  -2  -2   7  136.99    8.00
  -2  -2   7  141.39    7.70
   1   2  -7   39.20    3.60
   1   2  -7   49.20    3.50
   1   2  -7   56.99    3.70
   1   2  -7   46.90    3.60
   1   2  -7   52.69    4.30
   1   2  -7   48.90    3.80
  -1  -2   7   20.70   26.80
  -1  -2   7   57.29   17.10
  -1  -2   7   51.99    3.20
  -1  -2   7   53.59    4.20
  -1  -2   7   54.29    3.40
   0   2  -7   22.60    2.90
   0   2  -7   22.50    2.10
   0   2  -7   23.40    2.30
   0   2  -7   22.40    1.60
   0   2  -7   23.40    2.50
   0   2  -7   22.90    2.60
   0  -2   7   27.80    3.10
   0  -2   7   23.60   14.40
   0  -2   7    9.10   23.20
  -1   2  -7    3.90    1.00
  -1   2  -7    4.20    1.60
  -1   2  -7    3.20    1.70
  -1   2  -7    3.00    1.70
  -1   2  -7    4.40    1.20
  -1   2  -7    4.80    1.00
   1  -2   7    3.90   12.90
   1  -2   7    5.00    2.10
   1  -2   7    5.60   18.10
  -2   2  -7   63.19    3.20
  -2   2  -7   53.39    3.10
  -2   2  -7   58.69    4.40
   2  -2   7   49.10   16.10
   2  -2   7   62.49   30.30
   2  -2   7   63.09    4.90
  -3   2  -7  152.48    9.60
   3  -2   7  223.18   45.00
   3  -2   7  184.68   10.50
  -4   2  -7   50.99    2.60
  -4   2  -7   53.59    5.10
  -4   2  -7   53.69    2.70
  -4   2  -7   52.69    4.10
  -4   2  -7   61.39    5.20
   4  -2   7   52.99    4.70
   4  -2   7   60.49    4.90
  -5   2  -7   41.00    4.40
  -5   2  -7   35.30    2.40
  -5   2  -7   45.60    4.50
  -5   2  -7   36.00    2.30
  -5   2  -7   36.60    4.40
   5  -2   7   35.60    4.70
   5  -2   7   41.80    4.40
   5  -2   7   41.50    4.20
  -6   2  -7   15.00    3.10
  -6   2  -7   12.40    3.30
  -6   2  -7   14.00    3.10
   6  -2   7   14.20    3.90
   6  -2   7   10.60    3.30
   6  -2   7   16.90    3.40
  -7   2  -7   48.90    5.50
  -7   2  -7   46.90    6.00
   7  -2   7   47.30    5.60
   7  -2   7   51.89    5.80
   7  -2   7   44.30    5.30
  -8   2  -7    4.00    3.50
  -8   2  -7    3.20    3.90
   8  -2   7    4.10    2.80
   8  -2   7    4.60    3.30
   8   1  -7   62.89    6.00
   8   1  -7   50.09    6.20
  -8  -1   7   46.60    6.00
  -8  -1   7   54.39    6.60
   7   1  -7   29.50    4.80
   7   1  -7   25.90    3.90
  -7  -1   7   20.90    4.40
  -7  -1   7   27.40    4.80
   6   1  -7  196.38   10.70
   6   1  -7  195.48   11.30
  -6  -1   7  167.58   11.00
  -6  -1   7  169.88   10.90
  -6  -1   7  162.48    9.10
   5   1  -7   82.49    6.50
   5   1  -7   75.79    5.50
   5   1  -7   78.59    4.50
  -5  -1   7   74.89    6.30
  -5  -1   7   93.49    6.40
   4   1  -7   75.29    6.00
   4   1  -7   79.49    4.90
   4   1  -7   76.89    5.50
   4   1  -7   79.69    4.10
  -4  -1   7   81.89    4.20
  -4  -1   7   90.69   18.30
  -4  -1   7   79.49    5.80
  -4  -1   7   89.79    6.10
   3   1  -7   77.49    4.10
   3   1  -7   69.89    4.60
   3   1  -7   68.99    5.40
   3   1  -7   73.09    5.00
  -3  -1   7   88.69   18.30
  -3  -1   7   69.39    4.70
  -3  -1   7   81.09    5.40
   2   1  -7   96.39    5.70
   2   1  -7   93.49    6.20
   2   1  -7   90.29    5.80
   2   1  -7   92.59    5.20
   2   1  -7  100.49    5.80
  -2  -1   7   88.19    5.60
  -2  -1   7  106.49   19.80
  -2  -1   7   85.49    5.40
  -2  -1   7   92.29    6.20
   1   1  -7   68.69    4.40
   1   1  -7   59.49    4.40
   1   1  -7   56.29    3.80
   1   1  -7   63.49    4.00
   1   1  -7   56.29    4.20
   1   1  -7   54.79    3.10
   1   1  -7   61.99    3.90
  -1  -1   7   59.89    3.60
  -1  -1   7   16.80   21.50
  -1  -1   7   60.99    4.60
  -1  -1   7   60.29    3.50
  -1  -1   7   68.49   17.80
  -1  -1   7   54.49    4.30
   0   1  -7    8.20    1.80
   0   1  -7    5.30    1.30
   0   1  -7    3.40    1.00
   0   1  -7    6.40    1.60
   0  -1   7    7.30    2.30
   0  -1   7   12.30   25.30
   0  -1   7    9.20   12.90
   0  -1   7    7.80    2.00
  -1   1  -7   38.10    2.40
  -1   1  -7   36.00    3.20
  -1   1  -7   32.70    2.20
  -1   1  -7   24.90    2.90
   1  -1   7   33.00    3.90
   1  -1   7   30.50   16.60
   1  -1   7   33.40   31.70
  -2   1  -7   59.49    5.30
  -2   1  -7   64.99    3.30
  -2   1  -7   63.79    4.40
   2  -1   7   62.39   31.70
   2  -1   7   56.89    5.10
   2  -1   7   53.19    4.70
  -3   1  -7  316.17   16.60
  -3   1  -7  363.76   18.70
  -3   1  -7  326.87   17.70
  -3   1  -7  342.77   16.60
   3  -1   7  346.87   18.30
   3  -1   7  343.37   18.40
   3  -1   7  455.15   61.99
  -4   1  -7   35.20    4.20
  -4   1  -7   38.00    2.20
  -4   1  -7   30.50    4.30
  -4   1  -7   36.60    2.30
   4  -1   7   36.80    4.40
   4  -1   7   46.10    4.40
   4  -1   7   44.00    4.80
  -5   1  -7   35.20    4.70
  -5   1  -7   45.10    3.00
  -5   1  -7   47.60    5.50
   5  -1   7   44.90    5.30
   5  -1   7   51.89    5.10
  -6   1  -7    0.00    3.40
  -6   1  -7   -8.00    2.20
   6  -1   7   -3.60    2.50
   6  -1   7    2.60    3.30
   6  -1   7   -0.10    2.60
  -7   1  -7   -0.80    2.80
  -7   1  -7   -1.40    3.60
  -7   1  -7   -5.50    2.60
   7  -1   7   -1.70    2.90
   7  -1   7   -0.60    3.50
   7  -1   7   -0.40    2.70
  -8   1  -7    1.80    3.30
  -8   1  -7   -1.30    3.30
   8  -1   7    6.00    4.20
   8  -1   7    1.60    2.80
   8  -1   7    1.60    3.60
   8   0  -7   92.99    7.30
   8   0  -7  101.69    8.10
  -8   0   7   85.49    8.30
  -8   0   7   92.29    7.40
   7   0  -7   78.09    6.50
   7   0  -7   71.69    7.10
  -7   0   7   89.79    7.20
  -7   0   7  101.79    7.90
   6   0  -7   79.79    6.10
   6   0  -7   84.49    6.20
  -6   0   7   76.79    4.70
  -6   0   7   86.39    6.60
  -6   0   7   74.19    6.90
   5   0  -7   44.50    4.30
   5   0  -7   42.50    3.20
   5   0  -7   40.40    4.60
  -5   0   7   47.40    4.60
  -5   0   7   40.80    2.80
  -5   0   7   41.50   14.90
  -5   0   7   45.90    4.90
   4   0  -7    4.10    1.60
   4   0  -7    2.60    2.30
   4   0  -7    3.20    1.80
  -4   0   7    3.30    1.00
  -4   0   7    2.30    2.50
  -4   0   7   -1.30    1.80
  -4   0   7    2.80   12.30
   3   0  -7  258.97   14.30
   3   0  -7  263.57   13.10
   3   0  -7  282.57   14.00
   3   0  -7  264.37   14.00
  -3   0   7  260.47   13.80
  -3   0   7  239.88   25.50
  -3   0   7  276.97   14.10
   2   0  -7  134.39    7.80
   2   0  -7  140.59    6.80
   2   0  -7  133.79    7.10
   2   0  -7  134.39    7.90
   2   0  -7  129.59    7.50
  -2   0   7  134.09    7.30
  -2   0   7  139.89    7.50
  -2   0   7  137.69   21.80
  -2   0   7  121.19    8.20
   1   0  -7  254.87   13.70
   1   0  -7  265.57   13.50
   1   0  -7  265.87   13.40
   1   0  -7  276.27   14.30
   1   0  -7  268.97   13.40
   1   0  -7  252.67   13.00
  -1   0   7  269.27   13.10
  -1   0   7  263.57   14.30
  -1   0   7  211.88   26.10
  -1   0   7  246.38   13.70
   0   0  -7  143.89    7.40
   0   0  -7  116.79    6.80
   0   0  -7  113.49    6.90
   0   0  -7  121.29    6.90
   0   0  -7  139.79    7.40
   0   0  -7  134.89    8.50
   0   0  -7  144.19    7.50
   0   0   7  129.99    8.00
   0   0   7  123.79    7.40
   0   0   7  134.89    7.40
   0   0   7   68.99   35.40
   0   0   7  115.89   22.70
  -1   0  -7   66.49    4.40
  -1   0  -7   70.49    5.40
  -1   0  -7   65.09    3.80
  -1   0  -7   71.29    4.00
   1   0   7   59.69    5.00
   1   0   7   66.39    4.90
   1   0   7   77.29   36.70
  -2   0  -7   84.79    4.70
  -2   0  -7   91.09    6.70
  -2   0  -7   84.79    5.40
  -2   0  -7   96.39    4.70
   2   0   7   80.69   37.50
   2   0   7   85.69    6.10
   2   0   7   74.19    6.40
  -3   0  -7  230.28   11.70
  -3   0  -7  223.38   11.70
  -3   0  -7  236.38   13.60
  -3   0  -7  250.47   12.50
   3   0   7  230.88   13.40
   3   0   7  244.18   13.00
   3   0   7  234.78   13.30
  -4   0  -7   23.20    2.00
  -4   0  -7   26.90    3.90
  -4   0  -7   28.70    4.00
  -4   0  -7   27.50    2.20
   4   0   7   25.90    4.20
   4   0   7   22.70    3.90
   4   0   7   20.60    3.30
  -5   0  -7   32.60    4.30
  -5   0  -7   36.00    3.00
  -5   0  -7   37.40    5.30
   5   0   7   35.50    4.50
   5   0   7   33.70    4.80
  -6   0  -7    6.10    3.20
  -6   0  -7    4.10    3.80
   6   0   7    5.80    3.60
   6   0   7    0.80    2.10
  -7   0  -7   19.80    5.10
   7   0   7   15.00    4.50
   7   0   7   15.10    3.90
   8  -1  -7   45.30    5.10
   8  -1  -7   37.00    4.80
  -8   1   7   41.70    5.50
  -8   1   7   30.20    5.50
   7  -1  -7  157.88   10.20
   7  -1  -7  146.49    9.60
   7  -1  -7  156.28    9.50
  -7   1   7  171.18   23.60
  -7   1   7  155.58   10.60
  -7   1   7  153.28   10.10
  -7   1   7  141.19    8.40
   6  -1  -7   10.20    3.20
   6  -1  -7    9.70    2.90
   6  -1  -7    6.20    2.50
  -6   1   7    7.40    1.60
  -6   1   7    7.90   12.60
  -6   1   7    8.40    2.90
  -6   1   7    6.30    2.70
   5  -1  -7   96.79    6.90
   5  -1  -7   95.69    7.00
   5  -1  -7  104.39    6.50
  -5   1   7  118.79   19.20
  -5   1   7   91.79    6.70
  -5   1   7   93.39    7.40
  -5   1   7  103.29    5.70
   4  -1  -7  190.88   11.50
   4  -1  -7  182.38   10.70
   4  -1  -7  197.18   11.10
   4  -1  -7  197.28   10.00
  -4   1   7  193.58   10.90
  -4   1   7  199.18   10.10
  -4   1   7  185.28   22.40
   3  -1  -7  502.45   24.60
   3  -1  -7  488.65   23.80
   3  -1  -7  445.16   22.80
   3  -1  -7  458.55   23.50
  -3   1   7  486.25   23.30
  -3   1   7  366.86   34.40
  -3   1   7  466.95   23.50
   2  -1  -7   20.20    2.30
   2  -1  -7   19.30    3.10
   2  -1  -7   15.70    2.40
   2  -1  -7   26.80   12.00
   2  -1  -7   15.50    1.60
  -2   1   7    5.70   26.00
  -2   1   7   14.00   13.20
  -2   1   7   15.00    1.90
  -2   1   7   14.10    2.40
   1  -1  -7  280.17   13.50
   1  -1  -7  352.26   29.10
   1  -1  -7  254.17   13.40
   1  -1  -7  261.37   13.40
   1  -1  -7  245.08   13.00
   1  -1  -7  261.97   13.30
   1  -1  -7  242.08   14.50
  -1   1   7  246.38   14.30
  -1   1   7  190.68   25.60
  -1   1   7  251.77   13.40
  -1   1   7  255.67   12.90
  -1   1   7  264.97   13.50
   0  -1  -7   77.39    4.70
   0  -1  -7   83.29    4.90
   0  -1  -7   82.89    4.90
   0  -1  -7   76.19    4.50
   0  -1  -7   74.59    6.10
   0  -1  -7   69.99    4.60
   0   1   7   81.69    5.20
   0   1   7   39.90   31.90
   0   1   7   75.59    4.80
   0   1   7   75.99    6.10
  -1  -1  -7   73.69    6.00
  -1  -1  -7   68.59    4.20
  -1  -1  -7   74.99    4.50
  -1  -1  -7   70.29    4.70
   1   1   7   65.99   35.00
   1   1   7   71.39    5.60
   1   1   7   70.39    5.20
  -2  -1  -7   94.19    5.30
  -2  -1  -7   94.49    5.40
  -2  -1  -7   92.89    5.60
  -2  -1  -7   92.79    7.20
   2   1   7   99.39    6.90
   2   1   7   97.19    6.40
   2   1   7  135.69   46.50
  -3  -1  -7   16.50    1.90
  -3  -1  -7   18.50    1.90
  -3  -1  -7   15.40    2.10
  -3  -1  -7   17.90    3.70
   3   1   7   15.90    2.80
   3   1   7   19.80    3.90
   3   1   7   20.70    3.20
  -4  -1  -7    7.30    1.80
  -4  -1  -7    7.80    1.70
  -4  -1  -7    6.40    1.50
  -4  -1  -7   11.70    3.30
   4   1   7    5.70    3.30
   4   1   7    3.10    2.90
   4   1   7    5.50    2.50
  -5  -1  -7   20.50    2.50
  -5  -1  -7   18.80    3.80
  -5  -1  -7   30.20    4.60
   5   1   7   22.20    4.30
   5   1   7   22.70    4.10
   5   1   7   14.50    3.40
  -6  -1  -7    6.60    3.10
  -6  -1  -7    0.90    3.00
   6   1   7    8.90    3.40
   6   1   7   10.10    4.00
  -7  -1  -7   42.60    6.00
   7   1   7   35.30    6.00
   7   1   7   36.10    5.10
   9  -2  -7  113.89    8.40
  -9   2   7   92.39    9.60
  -9   2   7  121.39    9.20
   8  -2  -7   15.50    3.40
  -8   2   7   13.90    3.80
  -8   2   7   14.50    4.00
  -8   2   7   18.30    2.80
   7  -2  -7  248.08   14.10
   7  -2  -7  243.38   13.70
   7  -2  -7  233.68   13.40
  -7   2   7  215.18   13.80
  -7   2   7  242.88   12.60
  -7   2   7  235.38   14.50
   6  -2  -7   63.09    5.10
   6  -2  -7   75.19    6.00
   6  -2  -7   61.89    6.00
  -6   2   7   64.79   14.90
  -6   2   7   57.99    6.10
  -6   2   7   66.29    5.90
  -6   2   7   73.79    4.60
   5  -2  -7   43.50    3.50
   5  -2  -7   49.00    4.50
   5  -2  -7   50.69    4.90
   5  -2  -7   49.50    5.10
  -5   2   7   44.70    3.70
  -5   2   7   44.90   13.50
  -5   2   7   42.70    4.40
  -5   2   7   52.09    5.50
   4  -2  -7   23.30    3.80
   4  -2  -7   30.10    3.30
   4  -2  -7   31.60    3.60
   4  -2  -7   29.60    2.50
  -4   2   7   28.00   12.90
  -4   2   7   25.00    2.60
  -4   2   7   27.10    3.20
   3  -2  -7  263.07   13.40
   3  -2  -7  264.47   14.30
   3  -2  -7  254.27   13.30
   3  -2  -7  247.98   12.80
  -3   2   7  247.78   13.10
  -3   2   7  257.87   13.30
  -3   2   7  237.48   12.60
  -3   2   7  220.58   24.00
   2  -2  -7   90.99    5.40
   2  -2  -7  130.49   20.60
   2  -2  -7   78.79    4.90
   2  -2  -7   85.79    6.20
   2  -2  -7   83.29    5.20
  -2   2   7   81.29    5.00
  -2   2   7   77.09    5.00
  -2   2   7   85.99    5.00
  -2   2   7   41.20   28.90
  -2   2   7   85.09    5.40
   1  -2  -7  126.69    6.60
   1  -2  -7  118.29    6.50
   1  -2  -7  110.59    8.00
   1  -2  -7  114.29    6.60
   1  -2  -7  124.89    6.60
  -1   2   7   68.09   37.00
  -1   2   7   99.29    7.90
  -1   2   7  117.29    6.40
  -1   2   7  106.59    6.60
  -1   2   7  124.89    7.00
   0  -2  -7   11.60    2.80
   0  -2  -7    8.50    1.90
   0  -2  -7   10.10    1.60
   0  -2  -7   11.10    1.90
   0  -2  -7    9.50    1.70
   0  -2  -7    8.70    2.10
   0   2   7   19.40   22.90
   0   2   7    7.90    1.00
   0   2   7   10.00    2.60
   0   2   7    8.20    2.30
   0   2   7    9.80    1.10
  -1  -2  -7   45.90    5.30
  -1  -2  -7   40.30    3.50
  -1  -2  -7   35.30    2.90
  -1  -2  -7   31.80    2.60
   1   2   7   41.20    4.10
   1   2   7   45.10    4.80
   1   2   7   39.20   31.60
  -2  -2  -7  250.17   13.50
  -2  -2  -7  253.97   15.50
  -2  -2  -7  266.47   13.80
   2   2   7  277.57   14.80
   2   2   7  289.67   14.50
   2   2   7  286.67   15.70
  -3  -2  -7   43.30    3.10
  -3  -2  -7   42.80    5.40
  -3  -2  -7   42.30    3.40
   3   2   7   43.10    5.00
   3   2   7   46.50    4.40
   3   2   7   42.20    5.30
  -4  -2  -7   37.50    3.20
  -4  -2  -7   35.90    5.10
  -4  -2  -7   42.90    3.60
   4   2   7   41.80    5.20
   4   2   7   36.30    5.20
   4   2   7   44.40    4.60
  -5  -2  -7   63.99    5.60
  -5  -2  -7   83.79    7.10
  -5  -2  -7   73.59    7.90
   5   2   7   74.49    6.60
   5   2   7   78.59    7.70
   5   2   7   78.79    7.50
  -6  -2  -7   14.70    3.90
  -6  -2  -7   18.60    5.00
   6   2   7    9.30    3.50
   6   2   7    9.50    4.20
   9  -3  -7  124.79    8.50
  -9   3   7  120.19   10.30
  -9   3   7  122.49    9.40
   8  -3  -7   39.60    4.70
  -8   3   7   25.70    3.30
  -8   3   7   24.50    5.30
  -8   3   7   27.30    4.50
   7  -3  -7  117.09    7.50
   7  -3  -7   89.79    7.00
  -7   3   7  100.79    7.70
  -7   3   7   98.59    6.40
  -7   3   7   95.39    8.40
   6  -3  -7   16.00    3.30
   6  -3  -7   14.20    3.10
  -6   3   7   17.70    3.70
  -6   3   7   17.60    2.80
  -6   3   7   11.90    3.10
   5  -3  -7   16.30    2.90
   5  -3  -7   16.90    3.60
   5  -3  -7   13.00    2.90
  -5   3   7   16.20    2.60
  -5   3   7   15.00    3.00
   4  -3  -7   18.90    2.40
   4  -3  -7   13.90    2.60
   4  -3  -7   16.50    2.70
   4  -3  -7   19.80    3.70
  -4   3   7   19.40    2.60
  -4   3   7   16.40    2.80
   3  -3  -7  144.09    8.40
   3  -3  -7  136.69    9.80
   3  -3  -7  153.08    8.80
   3  -3  -7  224.58   21.90
   3  -3  -7  154.38    8.90
  -3   3   7  162.18    8.30
  -3   3   7  150.08    8.80
  -3   3   7  157.38    9.00
   2  -3  -7   76.89    6.60
   2  -3  -7   85.59    5.10
   2  -3  -7  116.29   21.20
   2  -3  -7   80.59    5.30
   2  -3  -7   73.09    5.30
   2  -3  -7   85.39    4.80
  -2   3   7   32.60   32.20
  -2   3   7   80.19    5.20
  -2   3   7   84.39    5.20
  -2   3   7   82.39    5.20
  -2   3   7   78.29    5.00
   1  -3  -7   55.69    3.50
   1  -3  -7   58.09    4.00
   1  -3  -7   54.79    5.80
   1  -3  -7   51.69    3.50
  -1   3   7   43.80    5.30
  -1   3   7   49.00   33.80
  -1   3   7   58.59    4.20
  -1   3   7   57.09    3.60
  -1   3   7   47.80    3.70
  -1   3   7   56.49    3.60
   0  -3  -7   86.99    7.10
   0  -3  -7   85.09    5.30
   0  -3  -7   89.99    5.20
   0  -3  -7   82.19    4.60
   0   3   7   87.89   38.70
   0   3   7   75.19    7.00
   0   3   7   92.49    6.00
  -1  -3  -7   60.99    6.40
  -1  -3  -7   57.29    4.20
   1   3   7   56.09    3.00
   1   3   7   59.59    5.10
   1   3   7   61.19    6.30
   1   3   7   87.79   39.30
  -2  -3  -7  125.79    9.00
  -2  -3  -7  111.89    6.90
   2   3   7  103.29    8.10
   2   3   7  110.59    7.20
   2   3   7  132.09    8.20
  -3  -3  -7   25.60    4.90
  -3  -3  -7   35.50    3.40
   3   3   7   41.50    4.30
   3   3   7   32.00    4.60
   3   3   7   37.60    5.20
  -4  -3  -7   33.00    5.50
  -4  -3  -7   34.30    3.70
   4   3   7   37.40    5.10
   4   3   7   26.90    3.90
   4   3   7   31.60    5.20
  -5  -3  -7   29.20    5.60
  -5  -3  -7   27.50    5.10
   5   3   7   25.40    4.30
   5   3   7   23.10    4.30
   5   3   7   21.10    4.80
  -9   4   7   49.70    7.30
   8  -4  -7   45.70    5.00
  -8   4   7   46.10    4.50
  -8   4   7   41.90    6.30
  -8   4   7   45.50    5.50
   7  -4  -7   57.49    5.50
   7  -4  -7   45.50    5.10
  -7   4   7   41.60    6.20
  -7   4   7   49.00    5.40
  -7   4   7   42.80    4.20
   6  -4  -7   43.00    4.30
   6  -4  -7   26.50    4.30
  -6   4   7   31.50    4.40
  -6   4   7   30.30    3.50
   5  -4  -7   53.59    5.70
   5  -4  -7   51.99    4.80
  -5   4   7   40.50    4.20
  -5   4   7   44.40    4.70
   4  -4  -7   34.80    3.70
   4  -4  -7   28.10    4.30
  -4   4   7   25.20    2.30
  -4   4   7   25.20    3.40
   3  -4  -7   35.60   14.00
   3  -4  -7   29.10    2.20
   3  -4  -7   23.50    4.30
   3  -4  -7   27.70    3.30
  -3   4   7   28.00    3.10
  -3   4   7   23.70    2.70
  -3   4   7   11.00   29.20
  -3   4   7   31.60    3.30
   2  -4  -7  203.68   12.70
   2  -4  -7  213.18   11.40
   2  -4  -7  197.48   10.40
  -2   4   7  209.78   11.30
  -2   4   7  109.19   42.30
  -2   4   7  221.08   11.30
  -2   4   7  215.08   10.90
   1  -4  -7   44.00    3.80
   1  -4  -7   31.70    5.00
  -1   4   7   42.90    3.10
  -1   4   7   34.60    3.70
  -1   4   7   39.70    3.20
  -1   4   7   34.10    5.10
  -1   4   7   36.50   33.10
   0  -4  -7   13.00    2.50
   0  -4  -7   14.10    3.50
   0   4   7   17.00    3.00
   0   4   7   18.30   29.20
   0   4   7    9.40    3.80
  -1  -4  -7   12.00    2.50
  -1  -4  -7   16.90    4.20
   1   4   7   10.70    1.30
   1   4   7   10.80    3.30
   1   4   7   16.00    3.20
  -2  -4  -7    8.80    2.30
  -2  -4  -7    3.20    3.60
   2   4   7    7.40    2.40
   2   4   7    2.60    3.60
   2   4   7    3.80    3.10
  -3  -4  -7   68.89    5.50
  -3  -4  -7   64.29    7.50
   3   4   7   78.59    6.40
   3   4   7   75.39    7.50
   3   4   7   72.99    5.50
  -4  -4  -7   17.80    4.90
  -4  -4  -7   15.10    2.90
   4   4   7   16.70    3.60
   4   4   7   18.90    4.50
   4   4   7   23.30    4.70
  -5  -4  -7    8.70    4.40
  -5  -4  -7    6.00    3.90
   5   4   7    8.00    3.60
   5   4   7    0.20    3.70
   5   4   7    3.30    4.00
   8  -5  -7   21.00    3.60
  -8   5   7   17.50    5.20
  -8   5   7   12.60    3.80
  -8   5   7   16.50    3.20
   7  -5  -7   19.50    3.40
   7  -5  -7   15.40    3.40
  -7   5   7   12.50    3.10
  -7   5   7   14.60    3.60
   6  -5  -7   18.30    3.80
   6  -5  -7   13.40    3.30
  -6   5   7   17.20    3.50
  -6   5   7   11.10    3.00
   5  -5  -7   32.40    4.90
   5  -5  -7   24.80    3.70
  -5   5   7   30.20    3.80
   4  -5  -7   69.09    5.10
   4  -5  -7   67.29    6.70
  -4   5   7   62.79    5.40
  -4   5   7   67.59    4.40
  -4   5   7   71.49    5.30
  -4   5   7   17.70   30.60
   3  -5  -7  153.78   24.10
   3  -5  -7  115.09    8.80
   3  -5  -7  109.69    7.20
  -3   5   7  116.99    7.20
  -3   5   7  133.89    7.50
  -3   5   7   53.29   38.30
   2  -5  -7    8.40    3.00
   2  -5  -7   10.10    2.40
  -2   5   7   13.00    2.80
  -2   5   7   10.70   28.40
  -2   5   7   12.60    2.50
   1  -5  -7   13.70    3.50
   1  -5  -7   12.30    2.60
  -1   5   7    8.80    2.60
  -1   5   7   10.00    2.10
  -1   5   7    6.60    2.30
  -1   5   7    2.90    3.50
  -1   5   7   -3.60   26.60
   0  -5  -7    3.00    2.40
   0  -5  -7    0.40    3.30
   0   5   7    4.50    2.80
   0   5   7    5.30    1.80
   0   5   7   -0.20   30.80
   0   5   7    3.90    3.70
  -1  -5  -7  105.59    6.80
  -1  -5  -7   91.99    8.00
   1   5   7  105.29    7.70
   1   5   7   97.29    5.80
   1   5   7  107.59    8.10
  -2  -5  -7   18.10    3.40
  -2  -5  -7   17.60    4.90
   2   5   7   23.90    4.30
   2   5   7   20.40    4.90
   2   5   7   20.20    2.90
  -3  -5  -7    9.60    3.80
  -3  -5  -7   18.20    3.50
   3   5   7   14.90    2.80
   3   5   7    8.10    3.10
   3   5   7   19.90    4.70
  -4  -5  -7    9.60    3.40
  -4  -5  -7    8.60    4.80
  -4  -5  -7    1.30    4.60
   4   5   7   13.70    3.40
   4   5   7   11.00    4.40
   4   5   7   14.60    4.50
   8  -6  -7   52.59    5.70
  -8   6   7   47.60    5.50
  -8   6   7   40.00    4.90
   7  -6  -7   33.70    4.90
   7  -6  -7   48.40    5.20
  -7   6   7   31.00    4.50
   6  -6  -7   41.00    5.70
   6  -6  -7   42.30    4.60
  -6   6   7   41.50    4.90
  -6   6   7   37.20    4.50
   5  -6  -7    8.10    3.50
   5  -6  -7    8.40    2.60
  -5   6   7    5.70   31.60
  -5   6   7    4.80    2.70
  -5   6   7    5.60    2.90
   4  -6  -7   14.30    3.20
   4  -6  -7    6.90    3.60
  -4   6   7   15.80    3.30
  -4   6   7   12.40    2.80
  -4   6   7    2.50   29.30
   3  -6  -7  122.79    9.80
   3  -6  -7  135.39    8.50
  -3   6   7   87.29   43.30
  -3   6   7  141.29    8.30
   2  -6  -7   23.50    3.60
   2  -6  -7   23.70    5.00
  -2   6   7   23.60    3.50
  -2   6   7   22.70   30.10
  -2   6   7   31.30    3.50
   1  -6  -7    5.80    2.50
   1  -6  -7    8.40    4.20
  -1   6   7    2.50    2.10
  -1   6   7    3.70    2.80
  -1   6   7    4.80    3.90
  -1   6   7    8.30   27.00
   0  -6  -7    9.30    4.40
   0  -6  -7   13.40    3.10
   0   6   7   13.70    3.60
   0   6   7    7.90    4.20
   0   6   7    7.30    1.80
  -1  -6  -7    8.90    2.80
  -1  -6  -7    8.30    3.60
   1   6   7    4.40    3.40
   1   6   7    6.80    2.00
   1   6   7    6.60    4.20
  -2  -6  -7   -1.70    4.00
  -2  -6  -7    2.70    2.80
   2   6   7    7.10    4.10
   2   6   7    0.50    3.40
  -3  -6  -7   -0.60    4.60
  -3  -6  -7   -0.70    3.10
   3   6   7    2.60    4.00
   3   6   7    3.10    4.00
   7  -7  -7    7.70    3.90
   7  -7  -7    8.70    3.50
  -7   7   7    3.40    3.00
  -7   7   7    2.00    2.90
   6  -7  -7   22.10    4.10
   6  -7  -7   27.10    5.50
  -6   7   7   30.00    4.50
  -6   7   7   24.50    4.00
  -6   7   7    9.80   39.30
   5  -7  -7   46.40    6.10
   5  -7  -7   54.99    5.50
  -5   7   7   49.80    5.30
  -5   7   7   50.29    5.20
  -5   7   7   21.70   37.40
   4  -7  -7   24.20    3.90
   4  -7  -7   14.00    4.60
  -4   7   7   20.20   36.10
  -4   7   7   23.10    3.50
   3  -7  -7   20.20    5.10
   3  -7  -7   26.60    4.00
  -3   7   7   20.50   33.00
  -3   7   7   21.20    3.40
   2  -7  -7   23.10    3.80
   2  -7  -7   19.60    5.30
  -2   7   7   25.40    3.40
  -2   7   7   41.60   34.60
   1  -7  -7    0.50    2.70
   1  -7  -7    3.80    3.10
  -1   7   7    3.90    3.10
  -1   7   7    4.60    2.40
  -1   7   7    2.30    3.20
   0  -7  -7   25.00    5.90
   0  -7  -7   21.20    3.80
   0   7   7   18.30    4.20
   0   7   7   13.40    4.80
   0   7   7   23.50    2.90
  -1  -7  -7    4.20    4.90
  -1  -7  -7   14.90    3.80
   1   7   7   20.80    4.20
   1   7   7   16.30    4.90
   6  -8  -7   16.30    5.00
   6  -8  -7   15.00    3.90
  -6   8   7   12.20    3.60
  -6   8   7   20.90    4.30
   5  -8  -7   46.50    5.70
   5  -8  -7   44.70    6.70
  -5   8   7   49.30    5.80
  -5   8   7   61.19    5.80
   4  -8  -7   15.90    4.90
   4  -8  -7   17.70    3.80
  -4   8   7   17.70    3.50
   3  -8  -7   39.60    6.60
   3  -8  -7   37.80    4.90
  -3   8   7   41.70    4.40
   2  -8  -7    1.30    2.30
   2  -8  -7   -1.50    3.90
  -2   8   7    2.80    2.60
   1  -8  -7   56.69    7.70
   1  -8  -7   57.69    6.00
  -1   8   7   42.80    6.90
  -1   8   7   48.90    6.10
  -1   8   7   50.59    4.80
   0  -8  -7    2.20    4.70
   0  -8  -7   -3.00    2.80
   0   8   7   -5.10    3.40
  -3  11  -8   15.80    3.70
  -3  11  -8   13.50    4.40
  -3  11  -8    7.60    4.00
   3 -11   8   11.10   26.80
  -4  11  -8   33.70    4.70
   4 -11   8   29.80   28.30
   0  10  -8   29.00    5.20
   0  10  -8   23.10    4.30
   0 -10   8   19.20    4.30
   0 -10   8   25.30    4.50
  -1  10  -8   22.90    3.90
  -1  10  -8   24.00    4.80
   1 -10   8   18.10    4.70
   1 -10   8   13.60    3.20
  -2  10  -8   38.70    4.20
  -2  10  -8   42.90    5.00
  -2  10  -8   54.39    6.50
   2 -10   8   35.50    5.30
   2 -10   8   33.20   26.20
   2 -10   8   44.60    4.20
  -3  10  -8   16.10    4.20
  -3  10  -8    9.20    3.10
  -3  10  -8   14.60    3.10
   3 -10   8   13.30    4.40
   3 -10   8    8.20   24.30
  -4  10  -8   76.19    7.80
  -4  10  -8   63.99    5.90
  -4  10  -8   72.39    5.60
   4 -10   8   58.29    7.00
   4 -10   8   71.79   31.80
  -5  10  -8   20.60    3.60
  -5  10  -8   24.70    3.80
  -5  10  -8   20.70    5.00
   5 -10   8   31.70   27.10
   5 -10   8   19.20    4.00
   5 -10   8   26.30    5.30
  -6  10  -8   69.99    6.50
  -6  10  -8   71.39    8.10
   6 -10   8   71.49    8.00
   6 -10   8   62.79   31.00
   6 -10   8   77.59    7.10
   2   9  -8   15.70    3.80
   2   9  -8   10.90    4.20
  -2  -9   8   18.90    4.20
   1   9  -8   -1.60    2.40
   1   9  -8   -1.30    3.10
  -1  -9   8   -1.90    3.10
  -1  -9   8   -2.00    2.60
   0   9  -8   65.49    6.70
   0   9  -8   57.29    5.30
   0  -9   8   43.50    5.30
   0  -9   8   54.49    5.40
  -1   9  -8   30.40    3.90
  -1   9  -8   28.20    4.80
   1  -9   8   26.00    4.50
   1  -9   8   25.50   28.50
   1  -9   8   45.60   26.50
   1  -9   8   21.30    3.40
  -2   9  -8  129.79    8.60
  -2   9  -8  116.09    7.60
  -2   9  -8  114.89    7.20
   2  -9   8  110.29    7.00
   2  -9   8  105.79    8.50
   2  -9   8  122.19   37.50
  -3   9  -8   23.40    3.20
  -3   9  -8   35.90    5.30
  -3   9  -8   19.40    3.10
   3  -9   8   13.60   23.30
   3  -9   8   25.60    4.70
  -4   9  -8   32.30    4.70
  -4   9  -8   14.10    3.00
  -4   9  -8   30.90    3.50
   4  -9   8   21.50    4.10
   4  -9   8   10.50   23.30
  -5   9  -8   10.10    2.70
  -5   9  -8   14.30    4.40
  -5   9  -8   10.60    3.10
   5  -9   8   11.00    3.80
   5  -9   8   17.50    3.30
   5  -9   8   -0.90   22.60
  -6   9  -8   45.20    4.90
  -6   9  -8   57.39    6.90
   6  -9   8   36.10   26.40
   6  -9   8   46.50    6.40
   6  -9   8   52.79    5.90
  -7   9  -8   18.50    3.90
  -7   9  -8   15.00    4.90
   7  -9   8   24.50    4.20
   7  -9   8   28.40   28.20
   7  -9   8   16.10    5.30
   3   8  -8    0.50    3.60
   3   8  -8   -3.10    2.60
  -3  -8   8   -0.40    3.00
   2   8  -8   59.49    5.80
   2   8  -8   60.09    6.60
  -2  -8   8   55.79    5.80
   1   8  -8   14.20    3.80
   1   8  -8   11.00    3.00
  -1  -8   8    8.70    3.00
  -1  -8   8    2.10   28.00
  -1  -8   8   12.50    3.20
   0   8  -8   74.39    5.70
   0   8  -8   75.29    6.30
   0  -8   8   32.00   30.10
   0  -8   8   75.89    6.30
  -1   8  -8  104.99    8.00
  -1   8  -8  101.69    6.70
  -1   8  -8   97.89    6.10
   1  -8   8   74.19   34.50
   1  -8   8  106.79   29.30
   1  -8   8   95.49    7.50
  -2   8  -8  163.88   10.90
  -2   8  -8  163.08    9.60
   2  -8   8  206.48   35.80
   2  -8   8  158.28    8.80
   2  -8   8  160.48   44.40
   2  -8   8  171.28   10.70
  -3   8  -8    4.60    3.30
  -3   8  -8    2.30    1.80
  -3   8  -8    2.40    2.10
   3  -8   8   -4.60   22.70
   3  -8   8   -4.80   19.80
   3  -8   8    1.20    3.20
  -4   8  -8   11.60    2.40
  -4   8  -8   17.80    2.70
  -4   8  -8   21.60    4.30
   4  -8   8    8.10    4.00
   4  -8   8    5.90   21.30
  -5   8  -8   23.30    3.50
  -5   8  -8   34.40    5.00
  -5   8  -8   29.20    3.30
   5  -8   8   27.80    5.00
   5  -8   8   31.80    4.40
   5  -8   8   23.90   24.30
  -6   8  -8   37.30    5.20
  -6   8  -8   37.20    4.30
   6  -8   8   37.10    4.70
   6  -8   8   37.40   25.50
   6  -8   8   33.40    5.60
  -7   8  -8   44.40    5.10
   7  -8   8   40.20    5.60
   7  -8   8   47.30    6.50
   7  -8   8   27.70   26.70
   4   7  -8  103.39    8.70
   4   7  -8   99.99    7.80
   3   7  -8   29.10    4.20
   3   7  -8   33.90    5.30
  -3  -7   8   25.70    4.40
   2   7  -8  145.39    9.50
   2   7  -8  143.49    9.10
  -2  -7   8  134.49    8.70
  -2  -7   8  139.69    9.10
   1   7  -8   56.69    6.10
   1   7  -8   62.69    5.00
  -1  -7   8   50.69    4.90
  -1  -7   8   10.70   33.80
   0   7  -8  148.89    9.50
   0   7  -8  136.59    8.30
   0  -7   8  131.39    8.70
   0  -7   8  135.19    8.10
   0  -7   8   72.59   38.60
  -1   7  -8   29.20    4.40
  -1   7  -8   31.50    3.40
  -1   7  -8   33.20    2.80
   1  -7   8   35.60   32.40
   1  -7   8   31.70    4.00
   1  -7   8   41.20   23.00
   1  -7   8   26.70    2.90
  -2   7  -8   35.40    3.50
  -2   7  -8   35.50    4.40
  -2   7  -8   37.70    3.20
   2  -7   8   42.50    4.60
   2  -7   8   33.10    2.20
   2  -7   8   46.70   22.60
   2  -7   8   38.80   34.30
   2  -7   8   35.30    3.30
  -3   7  -8    9.20    3.10
  -3   7  -8    8.70    2.00
  -3   7  -8    9.60    2.10
   3  -7   8   17.20   21.30
   3  -7   8   18.70   32.50
   3  -7   8   -2.30    3.10
  -4   7  -8    1.30    2.10
  -4   7  -8    9.70    2.00
  -4   7  -8    8.30    3.30
  -4   7  -8    9.40    2.10
   4  -7   8    3.40    3.30
   4  -7   8    3.40   20.80
  -5   7  -8   51.99    5.70
  -5   7  -8   42.30    4.10
  -5   7  -8   58.99    4.10
  -5   7  -8   52.89    4.70
   5  -7   8   63.49    6.50
   5  -7   8   69.29   28.30
   5  -7   8   72.19    6.30
  -6   7  -8   36.50    4.10
   6  -7   8   26.20    5.00
   6  -7   8   32.30    4.90
   6  -7   8   28.30   25.00
  -7   7  -8   58.29    5.80
   7  -7   8   58.19    6.70
   7  -7   8   71.89    6.90
  -8   7  -8    8.40    3.40
  -8   7  -8    6.90    4.10
   8  -7   8    6.80    4.00
   8  -7   8    5.60    4.00
   5   6  -8   11.00    3.40
   5   6  -8    3.60    3.70
  -5  -6   8    1.60    3.40
   4   6  -8  113.09    8.10
   4   6  -8  109.19    8.30
  -4  -6   8  117.09    8.40
   3   6  -8   39.20    4.50
   3   6  -8   46.50    5.40
  -3  -6   8   36.50    3.70
  -3  -6   8   34.50    4.40
   2   6  -8   71.09    5.50
   2   6  -8   64.29    6.40
  -2  -6   8   70.29    5.40
  -2  -6   8   67.79    5.60
   1   6  -8   10.70    3.30
   1   6  -8   13.00    2.60
  -1  -6   8    6.80   30.60
  -1  -6   8    7.80    2.50
  -1  -6   8    4.50    2.40
   0   6  -8   21.30    3.80
   0   6  -8   14.30    2.60
   0  -6   8   15.60    2.10
   0  -6   8   26.90   19.40
   0  -6   8   16.00    2.50
   0  -6   8    9.00   32.70
   0  -6   8   12.00    3.00
  -1   6  -8   47.10    4.00
  -1   6  -8   49.99    3.40
  -1   6  -8   61.39    5.70
  -1   6  -8   52.49    4.60
   1  -6   8   42.00   35.50
   1  -6   8   67.69    5.60
   1  -6   8   62.99   23.20
  -2   6  -8   47.90    2.60
  -2   6  -8   52.99    3.50
  -2   6  -8   56.49    3.70
  -2   6  -8   56.89    5.30
  -2   6  -8   43.00    2.60
   2  -6   8   51.99   19.40
   2  -6   8   55.29    5.40
   2  -6   8   48.30   33.50
  -3   6  -8   56.09    3.80
  -3   6  -8   52.39    5.70
  -3   6  -8   42.30    3.50
  -3   6  -8   49.80    3.40
   3  -6   8   50.69   34.10
   3  -6   8   41.40    5.00
   3  -6   8   40.90   21.70
  -4   6  -8    7.20    1.90
  -4   6  -8    5.00    1.50
  -4   6  -8    6.80    2.50
  -4   6  -8    9.60    2.10
  -4   6  -8    5.20    3.10
   4  -6   8   -0.90    2.90
   4  -6   8   -3.40   18.20
  -5   6  -8  219.28   11.10
  -5   6  -8  209.38   11.80
  -5   6  -8  210.88   12.70
  -5   6  -8  208.18   11.60
   5  -6   8  224.68   13.00
   5  -6   8  197.28   12.40
   5  -6   8  180.78   36.10
  -6   6  -8   23.10    3.60
  -6   6  -8   10.00    3.20
   6  -6   8   24.40    4.50
   6  -6   8   25.40    3.80
  -7   6  -8   81.39    7.10
  -7   6  -8   95.49    7.20
   7  -6   8   93.29    8.30
   7  -6   8   77.79    7.30
  -8   6  -8   29.70    4.60
  -8   6  -8   27.00    4.60
   8  -6   8   26.60    4.90
   8  -6   8   28.80    4.90
   6   5  -8   27.80    4.50
   6   5  -8   27.60    5.20
  -6  -5   8   27.50    5.10
   5   5  -8   30.50    4.30
   5   5  -8   25.70    4.80
  -5  -5   8   27.80    3.90
  -5  -5   8   23.70    4.50
   4   5  -8   74.69    6.60
   4   5  -8   90.29    6.60
  -4  -5   8   85.69    6.80
   3   5  -8   40.10    5.20
   3   5  -8   42.80    4.40
  -3  -5   8   34.50    4.30
   2   5  -8   20.70    3.00
   2   5  -8   17.20    2.30
   2   5  -8   17.80    3.70
  -2  -5   8   21.20    2.80
   1   5  -8   18.30    2.00
   1   5  -8   21.10    2.80
   1   5  -8   20.50    3.70
  -1  -5   8   19.20    2.80
  -1  -5   8   21.20    3.00
  -1  -5   8   22.90    2.50
  -1  -5   8   28.90   18.30
  -1  -5   8    2.90   27.90
   0   5  -8   61.19    4.20
   0   5  -8   56.79    3.50
   0   5  -8   65.19    5.90
   0  -5   8   59.39    4.00
   0  -5   8   55.89    3.70
   0  -5   8   30.50   32.40
   0  -5   8   78.69   22.00
   0  -5   8   59.19    5.20
  -1   5  -8  202.18   12.00
  -1   5  -8  211.68   11.00
  -1   5  -8  231.48   11.50
  -1   5  -8  212.18   11.00
  -1   5  -8  225.18   12.70
   1  -5   8  264.87   30.30
   1  -5   8  221.28   12.20
   1  -5   8  162.98   49.40
  -2   5  -8   94.29    5.80
  -2   5  -8  110.39    6.00
  -2   5  -8  106.19    6.00
  -2   5  -8  101.59    5.90
  -2   5  -8  108.99    7.40
   2  -5   8  105.49    7.00
   2  -5   8  106.79   25.80
   2  -5   8   72.29   36.90
  -3   5  -8  445.86   23.20
  -3   5  -8  434.16   21.70
  -3   5  -8  443.66   21.70
  -3   5  -8  418.16   22.00
  -3   5  -8  421.66   22.00
   3  -5   8  445.66   44.70
   3  -5   8  434.76   23.10
   3  -5   8  517.05   66.79
  -4   5  -8   87.79    6.70
  -4   5  -8   90.19    5.50
  -4   5  -8   83.09    5.60
  -4   5  -8   78.39    4.60
  -4   5  -8   79.19    4.60
   4  -5   8   80.19    6.60
   4  -5   8   55.99   24.70
  -5   5  -8  114.09    6.30
  -5   5  -8  114.29    7.50
  -5   5  -8  114.39    7.40
  -5   5  -8  115.39    8.20
   5  -5   8  100.99   30.50
   5  -5   8  111.69    8.00
   5  -5   8  117.89    8.40
  -6   5  -8    9.40    3.10
  -6   5  -8    4.50    2.70
   6  -5   8    8.50    2.90
   6  -5   8    6.80    3.30
  -7   5  -8   50.59    5.50
  -7   5  -8   55.79    5.70
  -7   5  -8   58.79    5.90
   7  -5   8   53.99    6.00
   7  -5   8   54.49    6.00
  -8   5  -8   47.20    5.90
  -8   5  -8   46.20    5.60
   8  -5   8   50.69    6.00
   6   4  -8    7.00    3.70
   6   4  -8   11.80    3.30
  -6  -4   8    6.10    3.70
  -6  -4   8    7.10    3.00
   5   4  -8    6.00    3.50
   5   4  -8    7.60    2.80
  -5  -4   8   10.20    3.50
  -5  -4   8    7.50    2.90
   4   4  -8  100.39    7.90
   4   4  -8  102.59    7.20
  -4  -4   8  103.09    6.80
  -4  -4   8  109.09    7.50
   3   4  -8    5.10    1.80
   3   4  -8    6.50    3.00
   3   4  -8    4.40    2.20
  -3  -4   8    5.60    2.20
  -3  -4   8    4.70    2.50
   2   4  -8   38.10    3.80
   2   4  -8   35.10    4.50
  -2  -4   8   37.30    3.70
  -2  -4   8   42.40    3.80
  -2  -4   8   45.80   19.40
   1   4  -8  270.57   13.90
   1   4  -8  253.77   15.00
   1   4  -8  265.97   14.30
  -1  -4   8  266.67   14.10
  -1  -4   8  360.86   35.40
  -1  -4   8  278.87   14.60
  -1  -4   8  266.97   13.90
   0   4  -8  114.99    7.40
   0   4  -8  114.29    6.00
   0   4  -8  104.39    6.20
   0   4  -8  105.99    5.20
   0  -4   8  112.39    7.00
   0  -4   8  101.09    5.70
   0  -4   8   49.40   30.80
   0  -4   8  100.09    5.60
   0  -4   8  106.99   24.00
  -1   4  -8  177.58    9.30
  -1   4  -8  190.18    9.80
  -1   4  -8  161.38    9.60
  -1   4  -8  180.68    9.60
  -1   4  -8  200.18   10.90
   1  -4   8  156.98   49.80
   1  -4   8  205.58   10.80
   1  -4   8  204.38   26.50
  -2   4  -8  114.69    6.30
  -2   4  -8  110.29    6.40
  -2   4  -8  134.59    6.60
  -2   4  -8  106.99    7.60
   2  -4   8  130.49   46.60
   2  -4   8  115.09    7.70
   2  -4   8  131.59   27.10
  -3   4  -8  141.09    7.60
  -3   4  -8  146.09    8.60
  -3   4  -8  154.28    7.60
  -3   4  -8  143.39    8.20
  -3   4  -8  145.29    9.20
   3  -4   8  162.28   31.30
   3  -4   8  194.18   54.49
   3  -4   8  145.19    9.30
  -4   4  -8   51.09    3.10
  -4   4  -8   58.29    4.60
  -4   4  -8   50.29    4.20
  -4   4  -8   56.69    3.10
  -4   4  -8   60.59    5.60
   4  -4   8   59.69    5.70
   4  -4   8   41.40   23.80
  -5   4  -8   27.10    3.60
  -5   4  -8   15.80    3.20
   5  -4   8   31.70    4.30
   5  -4   8   26.10    4.00
  -6   4  -8   29.60    4.10
  -6   4  -8   28.50    4.30
  -6   4  -8   30.90    4.40
   6  -4   8   27.90    4.50
   6  -4   8   31.00    4.30
  -7   4  -8  105.79    7.90
  -7   4  -8   98.29    8.00
  -7   4  -8   97.79    7.60
   7  -4   8   95.99    8.10
   7  -4   8  107.09    8.10
  -8   4  -8   69.89    7.10
  -8   4  -8   75.89    7.70
   8  -4   8   77.89    7.40
   8  -4   8   83.69    7.80
   7   3  -8   25.30    3.90
   7   3  -8   30.40    5.30
  -7  -3   8   36.50    5.40
  -7  -3   8   29.80    5.00
   6   3  -8   21.50    4.50
   6   3  -8   20.20    3.60
  -6  -3   8   22.40    4.10
  -6  -3   8   23.20    4.30
   5   3  -8    6.50    2.70
   5   3  -8    2.70    2.40
  -5  -3   8    2.80    2.90
  -5  -3   8    8.00    3.30
   4   3  -8  216.18   12.10
   4   3  -8  216.08   12.80
  -4  -3   8  204.48   11.10
  -4  -3   8  220.38   12.30
   3   3  -8   69.49    6.10
   3   3  -8   75.09    5.40
  -3  -3   8   93.89   22.50
  -3  -3   8   73.49    5.50
  -3  -3   8   75.59    4.80
   2   3  -8   42.70    4.70
   2   3  -8   41.10    4.10
   2   3  -8   45.60    3.90
   2   3  -8   35.20    3.40
  -2  -3   8   40.20    3.70
  -2  -3   8   32.90   17.00
  -2  -3   8   43.50    3.80
  -2  -3   8   41.70    3.50
   1   3  -8  330.17   16.00
   1   3  -8  335.87   16.80
   1   3  -8  278.97   16.00
   1   3  -8  286.47   15.70
  -1  -3   8  314.77   15.50
  -1  -3   8  305.97   16.10
  -1  -3   8  345.87   34.40
  -1  -3   8  296.67   15.60
   0   3  -8  100.49    6.80
   0   3  -8  101.09    6.20
   0   3  -8  108.79    5.30
   0   3  -8  104.59    6.20
   0   3  -8  109.89    6.10
   0  -3   8  120.49    7.00
   0  -3   8   49.60   36.00
   0  -3   8  114.19   24.20
  -1   3  -8   86.59    5.10
  -1   3  -8   81.69    5.10
  -1   3  -8  101.19    5.40
  -1   3  -8   86.89    6.30
   1  -3   8  107.39    6.50
   1  -3   8   74.59   39.60
   1  -3   8  102.09    6.50
   1  -3   8  110.69   24.50
  -2   3  -8  215.88   11.10
  -2   3  -8  223.58   11.20
  -2   3  -8  229.68   11.60
  -2   3  -8  210.28   12.40
   2  -3   8  224.98   12.60
   2  -3   8  174.98   31.30
   2  -3   8  240.68   12.80
   2  -3   8  218.58   47.00
  -3   3  -8  250.57   11.80
  -3   3  -8  224.88   13.20
  -3   3  -8  224.28   11.70
  -3   3  -8  250.27   12.70
   3  -3   8  227.68   13.30
   3  -3   8  256.37   38.30
   3  -3   8  313.17   59.39
  -4   3  -8   24.40    3.60
  -4   3  -8   24.90    3.70
  -4   3  -8   31.20    1.60
  -4   3  -8   29.70    3.50
  -4   3  -8   35.60    4.60
  -5   3  -8   53.89    5.70
  -5   3  -8   48.70    4.90
  -5   3  -8   53.29    5.40
  -6   3  -8   29.50    4.10
  -6   3  -8   27.50    4.50
  -6   3  -8   36.40    4.60
   6  -3   8   32.10    4.60
   6  -3   8   28.40    4.60
  -7   3  -8   30.40    5.10
  -7   3  -8   36.40    5.40
  -7   3  -8   37.20    4.90
   7  -3   8   46.80    5.40
   7  -3   8   48.00    5.40
  -8   3  -8   62.09    7.30
  -8   3  -8   67.69    6.50
   8  -3   8   64.79    7.10
   8  -3   8   55.19    6.60
   7   2  -8   49.60    6.20
   7   2  -8   59.39    5.90
  -7  -2   8   56.59    6.40
  -7  -2   8   73.29    6.90
   6   2  -8   20.80    3.20
   6   2  -8   12.10    3.30
  -6  -2   8   20.30    4.10
  -6  -2   8   10.60    3.60
   5   2  -8   24.70    3.70
   5   2  -8   18.60    3.50
  -5  -2   8   20.10    3.60
  -5  -2   8   24.70    4.00
   4   2  -8   79.39    4.80
   4   2  -8   96.69    6.10
   4   2  -8   86.69    6.70
   4   2  -8   83.49    5.30
  -4  -2   8   92.59   21.20
  -4  -2   8   93.69    6.30
  -4  -2   8   89.69    6.80
  -4  -2   8   78.89    5.60
   3   2  -8  278.97   14.60
   3   2  -8  267.97   15.20
   3   2  -8  241.28   13.90
   3   2  -8  292.67   14.40
  -3  -2   8  278.07   14.60
  -3  -2   8  265.77   14.60
  -3  -2   8  367.36   33.60
   2   2  -8  166.48   10.20
   2   2  -8  179.28    9.70
   2   2  -8  162.08    9.20
   2   2  -8  173.78    9.50
  -2  -2   8  181.58    9.30
  -2  -2   8  170.58    9.40
  -2  -2   8  167.18    9.70
  -2  -2   8  171.18   25.50
   1   2  -8  175.58    9.90
   1   2  -8  161.08    9.10
   1   2  -8  186.38    9.10
   1   2  -8  162.68    9.30
  -1  -2   8  157.08    8.60
  -1  -2   8  176.58    9.70
  -1  -2   8  156.28    8.70
  -1  -2   8  166.38   23.00
   0   2  -8  154.98    9.30
   0   2  -8  159.78    9.30
   0   2  -8  173.58    9.10
   0   2  -8  170.78    9.80
   0   2  -8  181.98    8.50
   0   2  -8  171.48    9.00
   0  -2   8  177.68    9.90
   0  -2   8   92.89   42.20
   0  -2   8  152.88   27.10
  -1   2  -8   94.49    6.10
  -1   2  -8   87.89    5.00
  -1   2  -8   98.69    5.20
  -1   2  -8   85.89    5.10
   1  -2   8   93.19    6.50
   1  -2   8   64.19   20.70
   1  -2   8   41.50   34.30
  -2   2  -8   89.09    5.90
  -2   2  -8   88.29    4.80
  -2   2  -8   87.39    4.60
   2  -2   8   84.69    6.50
   2  -2   8  110.29   42.10
   2  -2   8   70.69   20.70
  -3   2  -8  105.19    5.00
  -3   2  -8   83.39    6.20
  -3   2  -8   90.59    7.40
  -3   2  -8   99.19    4.90
   3  -2   8   97.49    7.00
   3  -2   8  138.49   49.60
  -4   2  -8   51.09    4.40
  -4   2  -8   39.30    4.10
  -4   2  -8   37.40    2.00
  -4   2  -8   39.90    4.70
  -4   2  -8   41.40    2.00
  -4   2  -8   39.40    4.80
  -5   2  -8   29.30    4.20
  -5   2  -8   30.50    4.50
  -5   2  -8   29.90    4.00
   5  -2   8   22.90    4.10
  -6   2  -8   50.59    5.30
  -6   2  -8   39.50    5.10
  -6   2  -8   47.10    5.30
   6  -2   8   49.20    5.60
  -7   2  -8   30.50    4.60
  -7   2  -8   28.20    5.10
   7  -2   8   27.50    4.20
   7  -2   8   28.00    4.90
   8   1  -8   21.50    4.30
   8   1  -8   31.70    4.60
  -8  -1   8   33.30    5.40
  -8  -1   8   33.50    5.70
   7   1  -8   33.30    5.30
   7   1  -8   40.90    4.60
  -7  -1   8   41.50    5.30
  -7  -1   8   45.10    5.70
   6   1  -8   46.60    5.30
   6   1  -8   42.70    4.80
  -6  -1   8   61.79    5.80
  -6  -1   8   43.60    5.50
  -6  -1   8   43.70   20.30
   5   1  -8   11.70    2.40
   5   1  -8    6.80    2.60
  -5  -1   8   15.00   14.90
  -5  -1   8   12.10    2.90
  -5  -1   8   12.90    3.50
   4   1  -8  121.79    7.60
   4   1  -8  115.19    7.00
   4   1  -8  118.19    7.80
  -4  -1   8  124.99    8.10
  -4  -1   8  120.99    7.70
  -4  -1   8  127.59   23.90
   3   1  -8  447.06   23.90
   3   1  -8  486.65   23.50
   3   1  -8  473.75   23.40
   3   1  -8  484.55   22.60
  -3  -1   8  499.05   39.80
  -3  -1   8  395.06   23.50
  -3  -1   8  444.96   23.20
  -3  -1   8  461.05   23.40
   2   1  -8  325.07   16.00
   2   1  -8  297.27   15.60
   2   1  -8  302.37   16.40
  -2  -1   8  315.57   15.80
  -2  -1   8  316.77   32.10
  -2  -1   8  291.87   16.50
  -2  -1   8  312.97   15.70
   1   1  -8   83.39    4.30
   1   1  -8   83.29    5.00
   1   1  -8   92.59    5.80
   1   1  -8   84.39    5.10
  -1  -1   8   27.80   25.90
  -1  -1   8   82.99    4.60
  -1  -1   8   75.89    6.00
  -1  -1   8   78.39   20.30
   0   1  -8  130.99    7.00
   0   1  -8  123.89    7.10
   0   1  -8  128.49    7.40
   0   1  -8  132.09    7.70
   0  -1   8  122.59   23.40
   0  -1   8   87.79   37.00
   0  -1   8  128.39    8.20
  -1   1  -8   52.89    4.90
  -1   1  -8   43.40    3.90
  -1   1  -8   52.09    3.20
  -1   1  -8   57.09    3.50
   1  -1   8   55.79   21.10
   1  -1   8   56.39    5.00
   1  -1   8   45.70   29.80
  -2   1  -8  399.86   19.70
  -2   1  -8  373.06   18.70
  -2   1  -8  387.26   18.70
  -2   1  -8  381.96   20.80
   2  -1   8  436.16   63.69
   2  -1   8  341.57   19.90
   2  -1   8  377.66   20.40
  -3   1  -8  190.28   10.40
  -3   1  -8  183.48   11.40
  -3   1  -8  178.08    9.10
  -3   1  -8  185.48    9.10
   3  -1   8  266.67   65.29
   3  -1   8  167.08   10.70
   3  -1   8  183.88   11.40
  -4   1  -8   52.99    5.70
  -4   1  -8   57.79    5.80
  -4   1  -8   45.00    4.30
  -4   1  -8   48.90    2.90
   4  -1   8   52.49    5.00
   4  -1   8   47.60    5.60
   4  -1   8   47.60    5.50
  -5   1  -8   39.50    5.30
  -5   1  -8   39.00    3.90
  -5   1  -8   16.30    4.30
   5  -1   8   35.60    4.20
   5  -1   8   34.70    5.00
  -6   1  -8   12.20    3.80
  -6   1  -8   19.20    4.60
   6  -1   8   24.00    4.70
   6  -1   8   21.10    4.20
  -7   1  -8   22.90    4.40
  -7   1  -8   16.50    4.90
   7  -1   8   21.30    5.00
   7  -1   8   14.30    4.00
   8   0  -8   32.50    4.80
   8   0  -8   31.80    4.80
  -8   0   8   32.50    5.70
  -8   0   8   38.30    5.50
   7   0  -8   71.89    6.20
   7   0  -8   53.89    6.30
  -7   0   8   63.89   19.90
  -7   0   8   59.99    6.70
  -7   0   8   59.69    6.40
   6   0  -8   90.19    6.70
   6   0  -8   81.19    7.10
  -6   0   8   94.69    7.60
  -6   0   8   96.89    7.20
   5   0  -8  140.39    9.00
   5   0  -8  146.19    8.50
  -5   0   8  131.09    7.00
  -5   0   8  128.39   23.20
  -5   0   8  129.39    9.10
  -5   0   8  127.49    8.50
   4   0  -8  307.17   17.90
   4   0  -8  345.57   17.60
   4   0  -8  348.07   17.40
  -4   0   8  321.97   17.60
  -4   0   8  347.27   32.40
   3   0  -8   83.89    6.00
   3   0  -8   83.19    4.30
   3   0  -8   84.39    5.40
  -3   0   8   82.59    5.20
  -3   0   8   71.69   18.80
  -3   0   8   73.59    5.30
   2   0  -8  621.94   30.00
   2   0  -8  607.24   29.60
   2   0  -8  595.44   28.80
  -2   0   8  587.24   30.40
  -2   0   8  597.64   29.20
  -2   0   8  499.25   43.60
   1   0  -8   63.49    4.50
   1   0  -8   64.99    3.60
   1   0  -8   59.69    4.20
   1   0  -8   60.79    5.70
   1   0  -8   60.29    4.00
  -1   0   8   34.20   16.90
  -1   0   8   63.99    3.50
  -1   0   8   56.49    3.50
  -1   0   8   32.30   35.10
  -1   0   8   51.49    5.30
   0   0  -8  131.99    8.80
   0   0  -8  128.49    7.20
   0   0  -8  116.99    7.30
   0   0  -8  131.29    6.90
   0   0  -8  128.89    6.90
   0   0  -8  123.79    7.40
   0   0   8   95.09   43.70
   0   0   8  120.59    7.50
   0   0   8  133.29    8.50
   0   0   8  129.59    7.40
   0   0   8  102.89   24.00
  -1   0  -8   79.09    5.50
  -1   0  -8   93.99    7.10
  -1   0  -8   87.99    5.00
  -1   0  -8   95.59    5.20
   1   0   8   86.19    6.10
   1   0   8   83.49    6.80
   1   0   8   76.29   39.50
  -2   0  -8  120.39    6.40
  -2   0  -8  126.29    7.20
  -2   0  -8  121.09    8.60
   2   0   8  119.39    8.50
   2   0   8  138.89   49.00
   2   0   8  111.59    7.80
  -3   0  -8   46.30    3.70
  -3   0  -8   34.90    2.60
  -3   0  -8   35.70    5.00
  -3   0  -8   41.40    2.70
   3   0   8   38.50    4.80
   3   0   8   42.40    4.90
  -4   0  -8   89.39    7.20
  -4   0  -8   85.09    5.00
   4   0   8   81.59    7.20
   4   0   8   98.79    7.20
   4   0   8   91.79    6.70
  -5   0  -8   21.40    4.40
  -5   0  -8   14.70    2.60
  -5   0  -8   24.70    4.70
   5   0   8   16.30    4.10
   5   0   8   20.20    3.70
  -6   0  -8   19.50    4.30
  -6   0  -8   19.50    4.40
   6   0   8   20.80    4.70
   6   0   8   20.50    4.10
  -7   0  -8   28.70    5.90
   7   0   8   26.10    5.60
   7   0   8   25.90    4.70
   8  -1  -8   89.49    7.50
   8  -1  -8   97.29    8.30
  -8   1   8  109.69    8.50
  -8   1   8   97.49    8.10
   7  -1  -8   71.29    5.80
   7  -1  -8   81.19    6.30
   7  -1  -8   61.69    6.60
  -7   1   8   70.99    7.40
  -7   1   8   80.29    7.10
   6  -1  -8  140.29    9.40
   6  -1  -8  140.99    9.30
   6  -1  -8  152.88    9.90
  -6   1   8  175.68   25.30
  -6   1   8  138.39   10.20
  -6   1   8  163.68    9.80
   5  -1  -8   27.10    4.20
   5  -1  -8   26.30    3.80
   5  -1  -8   41.70    4.10
   5  -1  -8   30.50    3.50
  -5   1   8   22.00    3.50
  -5   1   8   17.90   13.80
  -5   1   8   28.50    2.50
   4  -1  -8  244.48   13.80
   4  -1  -8  256.07   13.60
   4  -1  -8  249.18   12.60
   4  -1  -8  255.47   14.60
  -4   1   8  236.78   26.20
  -4   1   8  245.08   13.50
   3  -1  -8   74.89    5.80
   3  -1  -8   62.59    5.10
   3  -1  -8   69.39    4.10
   3  -1  -8   70.79    4.90
  -3   1   8   74.79    4.80
  -3   1   8   68.19    4.70
  -3   1   8   47.90   16.20
   2  -1  -8  287.87   14.70
   2  -1  -8  304.17   14.50
   2  -1  -8  266.77   13.80
   2  -1  -8  273.17   15.60
  -2   1   8  279.77   15.60
  -2   1   8  189.88   27.30
  -2   1   8  276.67   14.10
   1  -1  -8   35.90    4.60
   1  -1  -8   34.10    3.10
   1  -1  -8   37.10    3.50
   1  -1  -8   34.30    3.40
   1  -1  -8   34.40    2.80
  -1   1   8   35.70    4.20
  -1   1   8   36.30    3.40
  -1   1   8   31.80    2.50
  -1   1   8   39.50    3.30
  -1   1   8   10.00   30.10
   0  -1  -8   40.90    3.60
   0  -1  -8   34.90    4.40
   0  -1  -8   35.40    2.90
   0  -1  -8   30.40    3.10
   0  -1  -8   40.00    3.20
   0   1   8   28.60   33.10
   0   1   8   29.00    4.50
   0   1   8   39.50    3.70
  -1  -1  -8   82.79    5.00
  -1  -1  -8   86.69    5.20
  -1  -1  -8   84.39    5.00
  -1  -1  -8   83.19    6.60
   1   1   8   87.59   43.40
   1   1   8   84.69    6.50
   1   1   8   75.59    5.90
  -2  -1  -8  102.99    6.10
  -2  -1  -8  107.09    5.90
  -2  -1  -8  107.69    8.10
   2   1   8   95.19    7.90
   2   1   8  153.38   50.69
   2   1   8   97.19    7.20
  -3  -1  -8  248.78   12.50
  -3  -1  -8  223.88   12.20
  -3  -1  -8  232.08   12.20
  -3  -1  -8  241.58   14.40
   3   1   8  230.38   13.20
   3   1   8  246.68   14.40
   3   1   8  243.28   13.90
  -4  -1  -8   58.29    6.30
  -4  -1  -8   62.19    4.50
  -4  -1  -8   50.09    4.00
   4   1   8   68.29    7.00
   4   1   8   71.89    5.80
   4   1   8   66.89    5.90
  -5  -1  -8   12.00    4.50
  -5  -1  -8   14.90    3.90
   5   1   8   13.30    4.20
   5   1   8   17.50    4.30
   5   1   8   18.00    3.70
  -6  -1  -8   10.50    3.90
  -6  -1  -8    2.10    4.30
   6   1   8    4.60    3.80
   6   1   8    8.00    3.40
   8  -2  -8  111.19    7.60
  -8   2   8   90.79    8.90
  -8   2   8   72.09    7.50
   7  -2  -8   16.30    3.30
   7  -2  -8   13.90    3.10
   7  -2  -8   19.90    3.20
  -7   2   8   20.50    4.80
  -7   2   8   18.10    3.80
   6  -2  -8   66.19    6.20
   6  -2  -8   63.09    5.70
   6  -2  -8   59.69    6.20
  -6   2   8   43.60   16.30
  -6   2   8   61.19    5.80
  -6   2   8   78.99    7.30
   5  -2  -8   56.89    5.10
   5  -2  -8   60.99    6.10
   5  -2  -8   56.19    5.40
  -5   2   8   49.80   15.60
  -5   2   8   62.19    5.40
  -5   2   8   57.79    4.10
   4  -2  -8   20.40    3.10
   4  -2  -8   16.50    2.90
   4  -2  -8   14.10    2.00
   4  -2  -8   15.10    3.50
  -4   2   8   12.80    2.70
  -4   2   8   14.70   13.90
   3  -2  -8  199.88   11.20
   3  -2  -8  209.48   12.50
   3  -2  -8  205.38   10.60
   3  -2  -8  193.08   11.30
  -3   2   8  206.08   11.30
   2  -2  -8  102.99    6.20
   2  -2  -8   98.19    6.00
   2  -2  -8   99.09    5.70
   2  -2  -8  100.49    6.10
   2  -2  -8  109.89    7.70
  -2   2   8   93.19    5.70
  -2   2   8   96.99    6.20
  -2   2   8   63.99   34.70
  -2   2   8   94.69    5.80
  -2   2   8   99.39    5.90
   1  -2  -8   69.69    4.50
   1  -2  -8   73.49    4.60
   1  -2  -8   69.69    4.50
   1  -2  -8   68.59    4.50
   1  -2  -8   65.79    6.60
  -1   2   8   63.49    5.70
  -1   2   8   66.79    4.10
  -1   2   8   76.69    5.10
  -1   2   8   64.69    4.00
  -1   2   8   62.59    4.60
  -1   2   8   36.60   35.30
   0  -2  -8  178.98   10.10
   0  -2  -8  187.48   11.70
   0  -2  -8  191.58   10.10
   0  -2  -8  192.58   10.00
   0   2   8  176.88   11.80
   0   2   8  175.48   52.69
   0   2   8  191.58   10.70
  -1  -2  -8  280.67   13.90
  -1  -2  -8  256.67   15.50
  -1  -2  -8  257.47   13.60
   1   2   8  282.47   60.09
   1   2   8  271.87   15.50
   1   2   8  263.87   14.70
  -2  -2  -8   31.30    5.10
  -2  -2  -8   31.50    2.60
  -2  -2  -8   29.20    2.80
   2   2   8   22.80    3.50
   2   2   8   33.60    4.90
  -3  -2  -8  205.58   13.90
  -3  -2  -8  234.08   12.00
   3   2   8  244.18   13.70
   3   2   8  226.58   12.80
   3   2   8  212.88   13.90
  -4  -2  -8   48.20    6.20
   4   2   8   39.60    6.00
   4   2   8   49.70    5.10
   4   2   8   53.29    5.70
  -5  -2  -8    7.30    4.40
  -5  -2  -8   14.60    4.00
   5   2   8    3.70    3.20
   5   2   8    4.50    2.90
   5   2   8    2.10    2.80
  -6  -2  -8    1.00    4.50
   8  -3  -8   63.59    6.20
  -8   3   8   59.79    6.50
  -8   3   8   60.59    7.00
   7  -3  -8   21.00    3.60
   7  -3  -8   26.00    3.60
  -7   3   8   23.90    4.20
  -7   3   8   21.30    2.90
  -7   3   8   33.10    5.50
   6  -3  -8   27.80    4.30
   6  -3  -8   33.30    4.10
   6  -3  -8   31.40    4.30
  -6   3   8   25.30    3.80
  -6   3   8   27.00    3.10
   5  -3  -8   41.60    4.50
   5  -3  -8   37.90    5.20
   5  -3  -8   45.90    4.70
  -5   3   8   41.10    4.50
  -5   3   8   43.60    3.80
   4  -3  -8   25.90    4.10
   4  -3  -8   26.20    3.30
   4  -3  -8   24.80    3.10
   3  -3  -8  258.47   15.70
   3  -3  -8  270.87   14.50
   3  -3  -8  287.37   14.40
  -3   3   8  268.17   14.30
  -3   3   8  260.07   13.80
   2  -3  -8  189.78   11.60
   2  -3  -8  191.08    9.70
   2  -3  -8  171.68    9.40
   2  -3  -8  163.18    9.80
  -2   3   8   88.79   43.60
  -2   3   8  177.98    9.80
  -2   3   8  178.08    9.50
  -2   3   8  175.48    9.60
   1  -3  -8  247.28   12.80
   1  -3  -8  246.48   12.40
   1  -3  -8  234.98   12.30
   1  -3  -8  236.68   14.50
  -1   3   8  231.08   12.40
  -1   3   8  206.88   57.09
  -1   3   8  237.28   13.00
  -1   3   8  246.58   12.30
  -1   3   8  218.78   14.30
   0  -3  -8  122.79    8.50
   0  -3  -8  111.19    6.60
   0  -3  -8  115.09    6.90
   0   3   8  123.79    8.90
   0   3   8  120.19    7.50
   0   3   8  125.69   48.50
   0   3   8  102.19    5.80
  -1  -3  -8  108.39    6.80
  -1  -3  -8  111.69    5.70
  -1  -3  -8  112.99    8.90
   1   3   8  117.99    8.90
   1   3   8  110.89    7.70
   1   3   8  116.19   42.60
  -2  -3  -8   11.00    3.50
  -2  -3  -8   10.10    2.20
   2   3   8    8.40    3.80
   2   3   8    6.30    3.10
  -3  -3  -8   65.99    7.40
  -3  -3  -8   65.09    5.00
   3   3   8   61.19    5.50
   3   3   8   73.49    6.60
   3   3   8   67.89    6.80
  -4  -3  -8    5.70    3.90
   4   3   8    5.60    3.70
   4   3   8    4.50    2.80
   4   3   8    3.80    3.80
  -5  -3  -8    9.10    4.90
  -5  -3  -8   11.20    4.70
   5   3   8    7.20    4.20
   5   3   8   13.00    3.60
   5   3   8    8.40    4.40
   8  -4  -8   70.29    6.60
  -8   4   8   52.39    6.10
  -8   4   8   65.39    7.30
   7  -4  -8   47.60    5.00
   7  -4  -8   42.50    5.00
  -7   4   8   51.69    4.50
  -7   4   8   45.10    5.00
   6  -4  -8   32.60    4.90
   6  -4  -8   37.30    4.60
  -6   4   8   45.90    5.00
  -6   4   8   36.60    3.90
   5  -4  -8   45.50    4.80
   5  -4  -8   50.09    5.90
  -5   4   8   39.00    4.10
   4  -4  -8   13.10    2.50
   4  -4  -8   11.60    3.60
  -4   4   8   10.40    2.80
  -4   4   8   12.40   34.60
  -4   4   8   12.50    1.70
   3  -4  -8   76.69    5.60
   3  -4  -8   75.19    7.00
  -3   4   8   38.70   37.60
  -3   4   8   76.59    4.90
  -3   4   8   76.09    5.50
   2  -4  -8  112.09    7.20
   2  -4  -8  120.39    8.50
  -2   4   8  112.99    7.00
  -2   4   8  105.19    6.70
  -2   4   8   80.49   43.00
  -2   4   8  125.59    7.00
   1  -4  -8    3.60    2.80
   1  -4  -8    6.10    2.20
  -1   4   8    6.50    1.70
  -1   4   8    9.40    2.90
  -1   4   8    5.60   29.50
  -1   4   8    6.00    3.80
   0  -4  -8    6.30    3.80
   0  -4  -8    6.30    2.10
   0   4   8    2.00    1.00
   0   4   8    4.20   30.80
   0   4   8   -7.00    3.30
   0   4   8    5.50    2.60
  -1  -4  -8   49.60    6.60
  -1  -4  -8   47.00    4.30
   1   4   8   48.90    5.30
   1   4   8   42.40    5.60
  -2  -4  -8   41.90    4.20
  -2  -4  -8   46.10    6.60
   2   4   8   44.90    5.10
   2   4   8   50.89    6.30
  -3  -4  -8   98.39    7.00
  -3  -4  -8  101.49    9.30
   3   4   8  102.29    9.00
   3   4   8  110.19    8.00
   3   4   8  103.79    7.20
  -4  -4  -8   66.29    8.10
   4   4   8   60.89    6.20
   4   4   8   77.79    7.80
   4   4   8   79.49    8.10
   8  -5  -8    7.40    2.90
  -8   5   8   10.00    3.90
  -8   5   8    9.00    4.30
   7  -5  -8   69.59    6.20
   7  -5  -8   57.49    6.50
  -7   5   8   57.09    5.40
  -7   5   8   67.19    6.40
   6  -5  -8   22.20    3.90
   6  -5  -8   25.20    4.90
  -6   5   8   27.20    3.80
   5  -5  -8   41.20    5.60
   5  -5  -8   38.70    4.50
  -5   5   8    2.90   32.80
  -5   5   8   33.20    4.40
  -5   5   8   31.00    4.00
   4  -5  -8    2.30    3.20
   4  -5  -8    2.10    2.30
  -4   5   8    0.50    1.50
  -4   5   8   -6.10   31.70
  -4   5   8    2.20    2.20
   3  -5  -8   58.09    5.30
   3  -5  -8   49.40    6.50
  -3   5   8   49.00   38.40
  -3   5   8   62.49    4.60
  -3   5   8   65.59    4.80
   2  -5  -8   50.59    6.60
   2  -5  -8   58.99    5.20
  -2   5   8   65.69    4.70
  -2   5   8   62.89   40.40
  -2   5   8   59.39    5.20
   1  -5  -8   47.60    6.60
   1  -5  -8   57.69    4.90
  -1   5   8   53.49    5.10
  -1   5   8   50.19    3.90
  -1   5   8   36.10   34.70
  -1   5   8   47.50    6.50
   0  -5  -8   37.40    3.90
   0  -5  -8   27.30    5.40
   0   5   8   29.10    2.60
   0   5   8   35.30    4.50
   0   5   8   64.89   40.90
   0   5   8   23.40    5.20
  -1  -5  -8   96.99    6.70
  -1  -5  -8   75.49    8.70
   1   5   8   90.39    7.80
   1   5   8   83.39    7.30
  -2  -5  -8   67.39    5.70
  -2  -5  -8   64.39    8.20
   2   5   8   79.79    7.50
   2   5   8   83.19    8.40
  -3  -5  -8   14.60    3.20
  -3  -5  -8   14.70    5.40
   3   5   8   16.60    3.90
   3   5   8   15.60    4.80
   7  -6  -8   56.09    6.70
   7  -6  -8   60.89    6.10
  -7   6   8   44.20    5.40
   6  -6  -8   17.50    4.70
   6  -6  -8   22.60    4.00
  -6   6   8   12.90    3.40
  -6   6   8   25.00    4.20
   5  -6  -8   67.09    5.50
   5  -6  -8   49.40    6.50
  -5   6   8   72.29    5.80
  -5   6   8   74.59    6.30
  -5   6   8   20.90   36.70
   4  -6  -8   14.70    3.30
   4  -6  -8   11.20    4.20
  -4   6   8    3.40   32.90
  -4   6   8   14.50    3.30
  -4   6   8   10.80    2.50
   3  -6  -8   48.70    4.90
   3  -6  -8   51.59    6.30
  -3   6   8   42.50    4.40
  -3   6   8   13.80   35.90
   2  -6  -8   69.19    8.20
   2  -6  -8   96.49    6.70
  -2   6   8   80.09   44.30
  -2   6   8   94.19    6.90
  -2   6   8   88.09    6.00
  -2   6   8   69.09    7.80
   1  -6  -8   41.70    4.60
   1  -6  -8   35.80    6.00
  -1   6   8   39.20    4.90
  -1   6   8   38.80    6.20
  -1   6   8   50.79   38.90
  -1   6   8   40.90    3.80
   0  -6  -8   78.99    6.50
   0  -6  -8   64.69    8.00
   0   6   8   59.19    7.10
   0   6   8   68.49    6.90
  -1  -6  -8   15.50    3.50
  -1  -6  -8   16.00    5.30
   1   6   8   18.50    4.40
   1   6   8   12.90    4.90
  -2  -6  -8   33.60    6.60
  -2  -6  -8   35.50    4.90
   2   6   8   28.60    4.80
   2   6   8   35.40    6.30
   6  -7  -8    5.20    4.70
   6  -7  -8    6.90    2.80
  -6   7   8   -0.10   43.10
  -6   7   8    4.50    3.80
  -6   7   8    6.20    3.10
   5  -7  -8   30.90    4.70
   5  -7  -8   44.70    6.40
  -5   7   8   21.90   41.30
  -5   7   8   37.50    4.70
   4  -7  -8   10.50    4.40
   4  -7  -8   14.40    3.00
  -4   7   8   13.30   37.40
  -4   7   8    9.30    3.20
   3  -7  -8    3.20    4.10
   3  -7  -8    9.50    3.20
  -3   7   8   11.60    2.70
  -3   7   8    6.90    2.70
  -3   7   8   10.20   36.70
   2  -7  -8  105.99   10.20
   2  -7  -8  129.89    8.70
  -2   7   8  138.19   50.49
  -2   7   8  124.39    7.70
   1  -7  -8   58.09    5.80
   1  -7  -8   62.19    8.00
  -1   7   8   52.99    5.90
  -1   7   8   57.59    4.60
  -1   7   8   46.00    7.10
   0  -7  -8   47.80    5.30
   0  -7  -8   44.50    7.20
   0   7   8   41.70    5.60
   0   7   8   38.40    6.70
   4  -8  -8   53.89    7.70
   4  -8  -8   50.69    6.00
  -4   8   8   49.00    5.50
   3  -8  -8    7.90    5.00
   3  -8  -8    2.50    3.30
  -3   8   8   -3.30    3.00
  -3   8   8    5.20    3.00
  -1  10  -9   30.30    5.40
  -1  10  -9   22.30    3.90
   1 -10   9   26.40    4.90
   1 -10   9   28.20   29.70
  -2  10  -9    0.40    3.60
  -2  10  -9    7.10    3.00
   2 -10   9    1.90    3.80
   2 -10   9   14.40   26.40
  -3  10  -9   20.10    3.60
  -3  10  -9   12.10    4.40
   3 -10   9   23.00    5.10
   3 -10   9    6.50   26.30
  -4  10  -9   -2.30    2.30
  -4  10  -9   -0.80    3.80
  -4  10  -9    2.90    2.50
   4 -10   9    2.80    4.20
   4 -10   9   16.70   27.00
  -5  10  -9   19.10    5.10
  -5  10  -9   18.40    3.60
   5 -10   9   22.10    4.80
   5 -10   9   20.00   28.00
   1   9  -9   23.20    4.10
   1   9  -9   40.80    5.80
  -1  -9   9   27.40    4.30
  -1  -9   9   18.90    4.20
   0   9  -9   11.20    3.90
   0   9  -9    5.50    2.80
   0  -9   9    5.00    3.30
   0  -9   9  -10.50   23.80
   0  -9   9    6.10    2.70
  -1   9  -9  101.79    7.20
  -1   9  -9  109.99    8.70
   1  -9   9   94.79    8.90
   1  -9   9  103.49    8.10
   1  -9   9   82.49   30.40
   1  -9   9   97.29   59.89
  -2   9  -9   38.30    5.40
  -2   9  -9   45.00    4.60
   2  -9   9   43.90   27.50
   2  -9   9   48.30    5.90
   2  -9   9   39.50   31.20
  -3   9  -9   -1.60    2.40
  -3   9  -9    1.60    2.30
  -3   9  -9    1.20    2.20
   3  -9   9   -1.20    2.70
   3  -9   9   -1.40   23.70
  -4   9  -9    6.70    2.40
  -4   9  -9    5.80    3.80
  -4   9  -9    4.50    2.20
   4  -9   9    5.80    4.10
   4  -9   9   13.40   25.10
  -5   9  -9    7.10    2.60
  -5   9  -9    3.30    2.80
   5  -9   9  -14.20   24.00
   5  -9   9    0.60    4.10
  -6   9  -9   -1.20    3.60
  -6   9  -9   -1.10    3.00
   6  -9   9   -1.90    3.40
   6  -9   9    8.40   27.60
   6  -9   9    0.90    4.30
   3   8  -9   22.10    5.00
  -3  -8   9   13.50    3.80
   2   8  -9    0.70    3.40
   2   8  -9   11.00    3.20
  -2  -8   9    7.10    3.30
  -2  -8   9    1.60   31.80
  -2  -8   9    4.40    3.30
   1   8  -9   62.39    6.60
   1   8  -9   48.90    5.00
  -1  -8   9   44.10    5.20
  -1  -8   9   31.70   33.40
  -1  -8   9   36.10    4.30
   0   8  -9   47.80    6.00
   0   8  -9   40.00    4.40
   0  -8   9   31.50    3.70
   0  -8   9   22.60   30.30
   0  -8   9   52.79   22.90
   0  -8   9   44.10    5.10
  -1   8  -9   28.50    5.00
  -1   8  -9   33.90    3.90
   1  -8   9   24.20   31.30
   1  -8   9   44.50   25.70
   1  -8   9   36.70    5.00
  -2   8  -9    9.00    2.20
  -2   8  -9   15.10    2.80
  -2   8  -9   11.80    3.10
   2  -8   9    9.20    3.90
   2  -8   9    7.90   25.20
   2  -8   9    3.20   27.60
  -3   8  -9   11.50    2.30
  -3   8  -9   13.10    3.30
  -3   8  -9    9.20    2.30
   3  -8   9   12.20    4.10
   3  -8   9    8.80   27.10
   3  -8   9    6.10   23.90
  -4   8  -9   18.40    2.80
  -4   8  -9   17.30    4.40
  -4   8  -9   10.50    2.40
   4  -8   9   12.20   24.10
   4  -8   9   15.70    4.40
  -5   8  -9    7.80    3.90
  -5   8  -9    8.90    2.50
   5  -8   9    9.30    3.40
   5  -8   9   -2.10   24.80
  -6   8  -9   30.40    3.90
  -6   8  -9   27.60    5.40
   6  -8   9   24.30    5.20
   6  -8   9   32.70   28.30
   6  -8   9   27.00    4.80
  -7   8  -9   37.00    4.70
  -7   8  -9   32.90    5.90
   7  -8   9   31.70    5.90
   7  -8   9   34.50    5.50
   4   7  -9    8.20    3.40
   4   7  -9    1.40    3.80
  -4  -7   9    0.50    3.30
   3   7  -9   38.30    4.80
   3   7  -9   45.10    6.10
  -3  -7   9   45.20    5.40
   2   7  -9    3.20    2.50
   2   7  -9    2.70    3.30
  -2  -7   9   -0.60    2.90
  -2  -7   9   -3.10    2.40
  -2  -7   9  -11.40   31.30
   1   7  -9   22.20    3.40
   1   7  -9   21.60    4.40
  -1  -7   9   26.50    3.80
  -1  -7   9   19.40    3.40
  -1  -7   9   -1.70   32.40
  -1  -7   9   27.30   23.80
   0   7  -9   50.29    5.60
   0   7  -9   49.70    4.60
   0  -7   9   63.49   25.80
   0  -7   9   50.59    5.30
   0  -7   9   18.60   34.10
  -1   7  -9   27.30    4.70
  -1   7  -9   33.50    3.60
  -1   7  -9   25.80    2.50
   1  -7   9   22.40    4.00
   1  -7   9   19.80   33.30
   1  -7   9   30.20    2.40
   1  -7   9   23.50   18.50
  -2   7  -9   50.19    6.00
  -2   7  -9   51.79    4.10
  -2   7  -9   54.29    3.90
   2  -7   9   48.90    5.20
   2  -7   9   54.29   37.20
   2  -7   9   55.69   21.90
  -3   7  -9   28.80    3.10
  -3   7  -9   28.90    3.00
  -3   7  -9   37.90    5.10
   3  -7   9   51.89   38.20
   3  -7   9   28.50    4.80
   3  -7   9   38.40   24.80
  -4   7  -9   22.20    2.80
  -4   7  -9   26.00    4.60
  -4   7  -9   17.80    2.50
   4  -7   9   18.50    3.80
   4  -7   9   26.50   24.70
  -5   7  -9   14.60    3.60
  -5   7  -9   16.80    2.90
   5  -7   9   15.00    3.60
   5  -7   9   -3.70   23.90
  -6   7  -9   76.19    5.80
  -6   7  -9   61.49    6.70
   6  -7   9   54.19   29.80
   6  -7   9   65.59    6.80
   6  -7   9   68.49    7.30
  -7   7  -9    9.60    4.20
  -7   7  -9   16.90    3.90
   7  -7   9   11.90    4.50
   7  -7   9   13.70    4.10
   4   6  -9    5.90    3.00
   4   6  -9    5.00    3.00
  -4  -6   9    8.40    3.50
   3   6  -9   19.70    4.30
   3   6  -9   18.00    3.50
  -3  -6   9   23.90    4.10
   2   6  -9    6.40    2.80
   2   6  -9   10.40    2.70
  -2  -6   9    3.00    2.40
  -2  -6   9    6.40    2.80
   1   6  -9   21.60    3.10
   1   6  -9   21.10    4.00
  -1  -6   9   16.90    3.00
  -1  -6   9   21.40    3.70
  -1  -6   9   18.20   21.20
  -1  -6   9   19.90   34.70
   0   6  -9   66.39    6.50
   0   6  -9   58.89    4.50
   0  -6   9   78.89   22.40
   0  -6   9   19.60   33.60
   0  -6   9   66.49    5.80
   0  -6   9   53.39    3.90
  -1   6  -9   19.70    2.70
  -1   6  -9   26.10    3.90
  -1   6  -9   19.70    2.00
   1  -6   9   21.00    3.80
   1  -6   9   27.70   17.90
   1  -6   9    6.90   32.20
  -2   6  -9   19.20    3.80
  -2   6  -9   13.10    1.90
  -2   6  -9   15.30    2.20
  -2   6  -9   13.10    1.60
   2  -6   9   19.20    3.70
   2  -6   9   15.60   30.70
   2  -6   9   13.60   16.40
  -3   6  -9   30.30    4.50
  -3   6  -9   24.80    2.60
  -3   6  -9   30.60    2.90
   3  -6   9   26.30    4.40
   3  -6   9   57.09   39.60
   3  -6   9   15.30   22.20
  -4   6  -9   83.39    7.20
  -4   6  -9   79.79    5.10
  -4   6  -9   93.39    5.70
  -4   6  -9   76.79    5.50
   4  -6   9   95.89    7.50
   4  -6   9   98.49   30.90
  -5   6  -9   11.80    2.90
  -5   6  -9   11.40    2.60
  -5   6  -9   10.10    3.70
   5  -6   9   26.40   25.30
   5  -6   9   16.50    4.10
  -6   6  -9   43.30    5.10
  -6   6  -9   70.59    5.80
  -6   6  -9   60.19    6.60
   6  -6   9   65.69    6.60
   6  -6   9   73.49    7.10
  -7   6  -9   16.40    3.90
  -7   6  -9   13.50    3.60
   7  -6   9    8.30    4.00
   7  -6   9    8.90    3.90
   5   5  -9   -0.10    2.80
   5   5  -9   -3.30    3.40
  -5  -5   9   -4.10    3.40
   4   5  -9   15.40    3.00
   4   5  -9   20.30    3.90
  -4  -5   9   12.60    2.80
  -4  -5   9   15.50    3.90
   3   5  -9   16.20    3.10
   3   5  -9   13.30    3.80
  -3  -5   9   17.20    3.30
   2   5  -9   37.70    3.90
   2   5  -9   34.90    4.50
  -2  -5   9   29.00    3.60
  -2  -5   9   45.70   22.40
   1   5  -9    8.10    2.20
   1   5  -9   13.50    3.50
  -1  -5   9    9.10    2.20
  -1  -5   9   11.20   25.60
  -1  -5   9   14.10    2.90
  -1  -5   9    8.20   19.40
   0   5  -9   19.50    3.80
   0   5  -9   21.60    2.50
   0   5  -9   21.00    2.10
   0  -5   9   18.50    3.30
   0  -5   9   18.10   19.80
   0  -5   9   14.70   32.70
   0  -5   9   16.30    1.80
  -1   5  -9   24.10    2.70
  -1   5  -9   23.70    2.30
  -1   5  -9   26.40    2.10
  -1   5  -9   30.90    4.00
   1  -5   9   29.00    4.00
   1  -5   9   26.00   34.70
   1  -5   9   17.70   20.40
  -2   5  -9   72.09    4.50
  -2   5  -9   75.59    4.80
  -2   5  -9   64.79    4.40
  -2   5  -9   70.79    6.50
   2  -5   9   74.39   25.80
   2  -5   9   70.39    6.30
   2  -5   9   64.69   40.80
  -3   5  -9   33.20    4.20
  -3   5  -9   34.20    3.40
  -3   5  -9   26.00    2.30
  -3   5  -9   24.30    2.40
  -3   5  -9   26.40    2.90
   3  -5   9   45.60   24.10
   3  -5   9   28.80    4.30
   3  -5   9   37.00   37.10
  -4   5  -9  151.48    8.90
  -4   5  -9  167.98    9.30
  -4   5  -9  148.29   10.00
   4  -5   9  148.19   10.10
   4  -5   9  144.99   33.80
  -5   5  -9   31.20    4.70
  -5   5  -9   33.90    3.70
  -5   5  -9   26.60    3.60
   5  -5   9   32.30    4.80
   5  -5   9   34.30   26.40
  -6   5  -9   33.50    5.20
  -6   5  -9   20.10    4.10
  -6   5  -9   21.70    4.00
  -6   5  -9   22.30    3.70
   6  -5   9   24.20    4.10
   6  -5   9   24.50    4.00
  -7   5  -9   84.59    6.90
  -7   5  -9   62.69    6.50
   7  -5   9   77.49    7.20
   6   4  -9   -1.00    3.40
   6   4  -9    0.80    2.20
  -6  -4   9   -2.00    3.10
  -6  -4   9    0.80    3.30
   5   4  -9   -2.20    3.20
   5   4  -9    3.50    2.10
  -5  -4   9    4.00    3.00
  -5  -4   9    4.00    2.80
   4   4  -9   21.20    3.40
   4   4  -9   13.60    3.90
  -4  -4   9   17.50    3.40
   3   4  -9   15.40    2.90
   3   4  -9   18.40    3.90
  -3  -4   9   25.70   20.00
  -3  -4   9   16.70    3.00
   2   4  -9   54.59    5.70
   2   4  -9   57.59    4.60
   2   4  -9   53.79    4.30
  -2  -4   9   54.59    3.90
  -2  -4   9   51.59   22.70
  -2  -4   9   54.09    4.20
  -2  -4   9   54.59    4.50
   1   4  -9   20.80    3.70
   1   4  -9   20.80    2.80
  -1  -4   9   18.90    2.10
  -1  -4   9   22.80    2.90
  -1  -4   9   28.80    2.70
  -1  -4   9   18.50   15.30
  -1  -4   9   11.30   33.00
   0   4  -9    2.20    2.60
   0   4  -9   -0.40    1.40
   0   4  -9   -0.20    1.30
   0  -4   9   -0.70    1.80
   0  -4   9    0.60    2.20
   0  -4   9    1.40   16.20
   0  -4   9    4.40   30.90
  -1   4  -9  120.39    7.60
  -1   4  -9  111.69    6.40
  -1   4  -9   92.39    6.50
  -1   4  -9  128.29    6.10
   1  -4   9   74.89   37.80
   1  -4   9  116.79   25.10
   1  -4   9  117.89    7.70
  -2   4  -9  405.66   20.10
  -2   4  -9  380.46   20.00
  -2   4  -9  404.96   20.00
  -2   4  -9  404.36   21.40
   2  -4   9  366.16   42.60
   2  -4   9  433.66   21.50
   2  -4   9  382.26   68.49
  -3   4  -9   80.49    6.10
  -3   4  -9   81.49    4.60
  -3   4  -9   84.79    5.70
  -3   4  -9   77.19    4.50
  -3   4  -9   83.49    5.30
   3  -4   9   66.49   22.80
   3  -4   9  120.39   45.80
   3  -4   9   86.49    6.30
  -4   4  -9   36.50    4.30
  -4   4  -9   36.10    3.80
  -4   4  -9   34.30    4.20
   4  -4   9   40.90    4.90
   4  -4   9   21.50   24.30
  -5   4  -9   45.00    5.00
  -5   4  -9   38.60    5.00
  -5   4  -9   60.09    5.10
  -5   4  -9   62.69    6.60
  -6   4  -9   67.49    6.80
  -6   4  -9   82.89    7.30
  -6   4  -9   86.29    6.60
  -6   4  -9   81.19    6.70
  -7   4  -9   48.70    5.80
  -7   4  -9   48.60    5.70
   7  -4   9   57.89    6.00
   6   3  -9   38.40    4.70
   6   3  -9   31.20    4.70
  -6  -3   9   34.30    4.90
  -6  -3   9   36.70    5.10
   5   3  -9   29.70    4.40
   5   3  -9   38.00    4.40
  -5  -3   9   28.30    4.30
  -5  -3   9   41.70   21.40
  -5  -3   9   35.70    4.50
   4   3  -9   14.20    2.60
   4   3  -9   11.90    3.80
  -4  -3   9   13.30    3.10
  -4  -3   9   15.00    2.20
  -4  -3   9   16.90   18.40
   3   3  -9   17.20    2.90
   3   3  -9   21.40    3.90
  -3  -3   9   16.80   17.00
  -3  -3   9   17.10    2.40
  -3  -3   9   13.90    2.70
   2   3  -9   18.20    2.70
   2   3  -9   24.00    3.40
   2   3  -9   20.80    2.80
  -2  -3   9   25.00    3.10
  -2  -3   9   17.10    2.50
  -2  -3   9   27.10   19.00
  -2  -3   9   19.40    2.40
   1   3  -9   33.10    3.30
   1   3  -9   32.20    3.10
   1   3  -9   32.80    4.20
  -1  -3   9    8.60   33.20
  -1  -3   9   31.60    2.60
  -1  -3   9   34.40    3.70
  -1  -3   9   39.00   19.60
   0   3  -9  212.88   11.10
   0   3  -9  203.38   12.10
   0   3  -9  216.48   10.20
   0   3  -9  206.48   11.30
   0  -3   9  114.09   44.60
   0  -3   9  218.28   11.90
   0  -3   9  202.78   27.90
  -1   3  -9  161.98    7.90
  -1   3  -9  140.39    8.10
  -1   3  -9  146.09    8.00
  -1   3  -9  138.69    9.20
   1  -3   9  135.79   29.50
   1  -3   9  162.38    9.40
   1  -3   9  114.69   49.20
  -2   3  -9  128.69    8.20
  -2   3  -9  114.69    6.60
  -2   3  -9  130.79    6.90
  -2   3  -9  138.99    7.20
   2  -3   9  124.89    8.20
   2  -3   9  116.79   29.20
   2  -3   9  135.49   46.80
  -3   3  -9  178.88   10.80
  -3   3  -9  190.98    9.30
  -3   3  -9  188.28   10.10
  -3   3  -9  176.38    9.20
   3  -3   9  217.18   61.79
   3  -3   9  145.69   33.30
  -4   3  -9    8.50    2.70
  -4   3  -9   10.20    3.70
  -4   3  -9    8.00    2.30
  -4   3  -9    9.30    2.90
  -5   3  -9   15.70    3.20
  -5   3  -9   24.40    4.40
  -5   3  -9    7.80    2.80
  -5   3  -9   20.10    3.80
  -6   3  -9    0.30    3.20
  -6   3  -9    7.70    3.40
  -6   3  -9    1.20    2.70
  -6   3  -9    4.40    2.40
  -7   3  -9   27.90    5.00
  -7   3  -9   21.90    4.40
   7  -3   9   19.40    4.00
   7   2  -9   -2.60    2.70
   7   2  -9    2.10    3.60
  -7  -2   9   -3.60   18.60
  -7  -2   9    3.50    3.70
  -7  -2   9    1.20    3.50
   6   2  -9   16.60    4.30
   6   2  -9   25.10    3.90
  -6  -2   9   20.00    4.10
  -6  -2   9   24.30   18.80
  -6  -2   9   24.50    4.40
   5   2  -9   14.90    3.30
   5   2  -9   15.20    3.80
  -5  -2   9   18.10    3.90
  -5  -2   9   13.60    2.60
  -5  -2   9   16.50    3.50
  -5  -2   9   19.30   18.20
   4   2  -9    8.50    3.30
   4   2  -9    5.30    2.30
  -4  -2   9    5.90    3.00
  -4  -2   9    7.70   17.50
  -4  -2   9    7.40    2.20
   3   2  -9    0.90    2.70
   3   2  -9    4.30    2.10
   3   2  -9    3.70    1.50
  -3  -2   9   -1.30    1.80
  -3  -2   9    8.50   16.00
  -3  -2   9    4.40    2.30
   2   2  -9  202.48   11.20
   2   2  -9  200.88   11.80
   2   2  -9  201.58   10.90
  -2  -2   9  207.08   11.70
  -2  -2   9  205.08   10.90
  -2  -2   9  201.28   29.80
  -2  -2   9  205.38   10.80
   1   2  -9  128.99    8.00
   1   2  -9  120.39    7.20
   1   2  -9  131.59    7.10
  -1  -2   9  123.49   25.70
  -1  -2   9  109.59    6.30
  -1  -2   9  119.79    7.80
   0   2  -9   86.49    4.50
   0   2  -9   83.49    5.10
   0   2  -9   77.89    6.00
   0   2  -9   84.19    4.60
   0  -2   9   86.49    6.30
   0  -2   9   71.19   22.80
   0  -2   9   46.90   32.60
  -1   2  -9  181.18    9.30
  -1   2  -9  182.08    9.50
  -1   2  -9  170.18   10.30
  -1   2  -9  172.98    9.50
   1  -2   9  147.79   30.70
   1  -2   9  154.38   54.89
   1  -2   9  194.48   11.00
  -2   2  -9   58.59    3.50
  -2   2  -9   71.39    4.50
  -2   2  -9   62.09    3.80
  -2   2  -9   54.19    4.70
   2  -2   9   62.59    5.70
   2  -2   9   58.79   35.90
   2  -2   9   31.40   21.20
  -3   2  -9  204.18   10.00
  -3   2  -9  181.38   11.30
  -3   2  -9  199.48   11.10
  -3   2  -9  185.68   12.50
  -3   2  -9  205.18   10.20
   3  -2   9  215.78   12.60
   3  -2   9  260.57   66.69
  -4   2  -9   36.10    4.70
  -4   2  -9   38.40    3.90
  -4   2  -9   29.30    4.80
  -4   2  -9   23.20    3.50
  -5   2  -9   -1.80    2.70
  -5   2  -9    6.80    2.70
  -5   2  -9    5.70    3.50
  -5   2  -9    4.60    2.70
  -6   2  -9    6.70    2.80
  -6   2  -9    6.10    3.60
  -6   2  -9    9.70    4.00
  -6   2  -9    7.20    3.30
   6  -2   9    9.70    3.60
  -7   2  -9   54.29    6.40
  -7   2  -9   49.70    5.90
   7  -2   9   52.29    6.20
   7   1  -9    1.40    3.40
   7   1  -9    3.30    3.00
  -7  -1   9    0.90    3.70
  -7  -1   9    6.90    3.60
  -7  -1   9   12.40   19.10
   6   1  -9    0.90    2.50
   6   1  -9    5.70    3.40
  -6  -1   9    0.10   15.90
  -6  -1   9    5.10    3.60
  -6  -1   9    5.10    3.10
   5   1  -9    9.70    2.40
   5   1  -9    7.70    2.80
  -5  -1   9   13.40   19.30
  -5  -1   9   13.10    3.10
  -5  -1   9    9.70    3.50
   4   1  -9   24.00    3.60
   4   1  -9   27.80    3.30
  -4  -1   9   28.60    3.80
  -4  -1   9   21.50    3.50
  -4  -1   9   27.50   17.20
   3   1  -9  111.79    7.80
   3   1  -9  128.09    7.50
   3   1  -9  119.89    6.60
  -3  -1   9  118.69    8.20
  -3  -1   9  126.59   25.30
  -3  -1   9  127.49    7.50
  -3  -1   9  127.59    9.00
   2   1  -9  197.08   11.00
   2   1  -9  195.38   10.60
   2   1  -9  209.68   11.70
  -2  -1   9  198.68   11.80
  -2  -1   9  162.28   28.90
  -2  -1   9  212.28   10.70
   1   1  -9  304.37   15.50
   1   1  -9  302.57   14.70
   1   1  -9  310.97   16.20
   1   1  -9  283.77   15.40
  -1  -1   9  332.17   16.70
  -1  -1   9  253.87   33.10
  -1  -1   9  288.47   14.80
   0   1  -9   42.30    3.20
   0   1  -9   60.99    4.60
   0   1  -9   50.99    3.50
   0  -1   9   34.40   29.50
   0  -1   9   50.99   20.90
   0  -1   9   58.79    5.50
  -1   1  -9  247.58   13.00
  -1   1  -9  229.58   12.00
  -1   1  -9  260.87   12.30
  -1   1  -9  222.48   14.10
   1  -1   9  178.98   55.89
   1  -1   9  190.98   34.70
   1  -1   9  222.88   13.60
  -2   1  -9   52.79    3.40
  -2   1  -9   60.39    6.60
  -2   1  -9   51.69    4.80
  -2   1  -9   56.89    3.60
   2  -1   9   63.79   36.20
   2  -1   9   65.19    5.40
  -3   1  -9   49.40    3.00
  -3   1  -9   56.49    4.60
  -3   1  -9   50.79    6.10
   3  -1   9   51.89    5.80
   3  -1   9   81.49   45.20
   3  -1   9   47.50    5.20
  -4   1  -9   25.10    4.50
  -4   1  -9   27.80    3.50
   4  -1   9   24.50    4.50
   4  -1   9   21.60    4.30
  -5   1  -9   36.70    5.40
  -5   1  -9   39.40    5.70
  -5   1  -9   37.10    4.30
   5  -1   9   44.50    5.80
  -6   1  -9   37.60    4.40
  -6   1  -9   37.30    5.70
  -6   1  -9   34.80    5.50
   6  -1   9   41.90    5.90
   6  -1   9   32.80    5.00
   7   0  -9   19.50    4.30
   7   0  -9   22.40    3.60
   7   0  -9   16.80    3.90
  -7   0   9   16.60    4.80
  -7   0   9   24.80    4.50
   6   0  -9    3.70    2.20
   6   0  -9    1.90    2.40
   6   0  -9    4.10    3.20
  -6   0   9    7.90   16.20
  -6   0   9    1.50    3.40
  -6   0   9    1.80    2.90
   5   0  -9    9.30    2.70
   5   0  -9    6.10    3.20
  -5   0   9    2.20   13.80
  -5   0   9   10.70    2.90
   4   0  -9   46.60    4.50
   4   0  -9   47.50    5.20
  -4   0   9   42.70   18.20
  -4   0   9   64.59    5.20
   3   0  -9  439.16   21.10
   3   0  -9  414.76   23.50
   3   0  -9  441.56   22.80
   3   0  -9  454.55   22.40
  -3   0   9  416.76   23.00
  -3   0   9  420.26   21.90
  -3   0   9  446.66   22.10
  -3   0   9  414.36   40.70
   2   0  -9  108.09    5.60
   2   0  -9  111.09    6.60
   2   0  -9   96.49    8.10
   2   0  -9  116.59    7.20
  -2   0   9  113.39    7.90
  -2   0   9  110.19   24.60
  -2   0   9  105.79    6.10
  -2   0   9   45.20   32.80
   1   0  -9  108.29    6.40
   1   0  -9   91.79    5.20
   1   0  -9  100.79    7.30
   1   0  -9   96.79    5.80
  -1   0   9   46.90   34.30
  -1   0   9   86.59    7.20
  -1   0   9   89.69    4.90
  -1   0   9   79.99   22.50
   0   0  -9    2.40    3.00
   0   0  -9    6.30    1.60
   0   0  -9    6.10    1.50
   0   0  -9    5.80    1.90
   0   0   9    2.80    3.00
   0   0   9  -17.90   29.20
   0   0   9   11.50   17.80
  -1   0  -9   57.29    4.60
  -1   0  -9   72.09    4.30
  -1   0  -9   72.39    4.60
  -1   0  -9   63.19    6.70
   1   0   9   74.09    6.50
   1   0   9   67.49   37.70
   1   0   9   63.69    5.40
  -2   0  -9   68.39    4.60
  -2   0  -9   73.19    6.90
  -2   0  -9   82.89    4.60
  -2   0  -9   80.19    5.30
   2   0   9   61.99    6.10
   2   0   9   94.49   47.50
   2   0   9   88.19    7.20
  -3   0  -9  238.68   14.70
  -3   0  -9  237.48   12.20
  -3   0  -9  246.38   13.00
   3   0   9  231.88   13.90
   3   0   9  248.28   14.40
  -4   0  -9   54.89    6.50
  -4   0  -9   58.99    4.70
   4   0   9   54.39    6.20
   4   0   9   65.59    6.70
  -5   0  -9   14.70    4.00
  -5   0  -9   19.10    4.80
  -5   0  -9   17.20    3.20
   5   0   9   11.70    3.60
   5   0   9   12.20    3.50
  -6   0  -9   39.00    6.30
  -6   0  -9   31.20    5.30
   6   0   9   42.00    6.10
   6   0   9   44.80    5.60
  -8   1   9   16.10    5.20
   7  -1  -9    6.60    3.50
   7  -1  -9   10.80    3.30
   7  -1  -9    9.70    3.40
  -7   1   9    1.60    4.00
  -7   1   9    7.30    3.40
   6  -1  -9   33.10    4.30
   6  -1  -9   28.10    4.50
   6  -1  -9   29.20    5.00
  -6   1   9   12.30   15.60
  -6   1   9   33.00    4.40
   5  -1  -9   43.80    5.10
   5  -1  -9   55.99    5.10
   5  -1  -9   47.70    5.70
  -5   1   9   51.99    5.20
  -5   1   9   44.80   18.20
   4  -1  -9   49.00    4.90
   4  -1  -9   42.80    5.40
   4  -1  -9   37.50    4.00
  -4   1   9   45.20    4.40
  -4   1   9   36.80   18.90
   3  -1  -9  143.59    8.90
   3  -1  -9  171.38    8.80
   3  -1  -9  142.19    7.70
   3  -1  -9  163.08   10.00
  -3   1   9  124.59   24.80
  -3   1   9   64.39   45.20
  -3   1   9  138.39    9.70
  -3   1   9  138.09    8.10
   2  -1  -9    9.70    3.50
   2  -1  -9    6.60    2.10
   2  -1  -9    9.80    2.40
   2  -1  -9    8.60    1.50
  -2   1   9    8.40    3.50
  -2   1   9   12.80   15.70
  -2   1   9    8.30   34.10
  -2   1   9    6.10    1.60
  -2   1   9    7.90    1.70
   1  -1  -9  114.89    8.10
   1  -1  -9  104.09    6.60
   1  -1  -9  106.69    6.10
   1  -1  -9  107.29    6.50
  -1   1   9  103.79    5.50
  -1   1   9   69.69   38.50
  -1   1   9  104.59    6.80
  -1   1   9  115.99    8.20
  -1   1   9  106.59    5.60
   0  -1  -9    7.50    3.70
   0  -1  -9    6.40    1.70
   0  -1  -9    8.10    2.10
   0   1   9   -2.20   29.90
   0   1   9    7.10    2.40
   0   1   9    6.10    3.40
  -1  -1  -9   50.19    6.00
  -1  -1  -9   32.40    3.50
  -1  -1  -9   44.00    3.40
   1   1   9   43.10    5.70
   1   1   9   47.90    4.80
   1   1   9   28.60   29.20
  -2  -1  -9  105.19    8.70
  -2  -1  -9  115.49    6.50
  -2  -1  -9  105.69    6.60
   2   1   9  133.19   53.99
   2   1   9  126.19    8.20
   2   1   9  107.69    8.20
  -3  -1  -9  102.99    6.20
  -3  -1  -9   92.39    6.00
  -3  -1  -9  100.09    8.40
   3   1   9  101.29    7.80
   3   1   9   90.49    7.60
  -4  -1  -9   86.39    8.30
   4   1   9   58.89    6.70
   4   1   9   63.19    7.20
  -5  -1  -9   23.80    4.70
  -5  -1  -9   22.20    4.60
   5   1   9   17.90    4.10
   5   1   9   23.10    5.20
   5   1   9   21.80    4.10
  -8   2   9    3.80    3.60
   7  -2  -9   15.30    3.50
   7  -2  -9   18.00    4.00
   7  -2  -9   17.00    4.00
  -7   2   9   17.70    3.90
   6  -2  -9    4.10    2.90
   6  -2  -9   -0.50    1.90
   6  -2  -9   -3.10    2.90
  -6   2   9    1.60    2.70
   5  -2  -9    9.70    3.20
   5  -2  -9   10.30    2.60
   5  -2  -9   11.30    3.60
  -5   2   9   13.20    3.00
  -5   2   9   23.80   15.80
   4  -2  -9   33.40    5.20
   4  -2  -9   34.80    4.00
   4  -2  -9   33.20    4.10
  -4   2   9   44.10    4.10
   3  -2  -9  115.19    8.80
   3  -2  -9  122.59    7.40
   3  -2  -9  125.89    7.40
  -3   2   9   31.60   39.90
  -3   2   9  103.49    7.10
  -3   2   9  122.79    7.10
   2  -2  -9   11.50    3.70
   2  -2  -9    5.10    1.70
   2  -2  -9    8.20    2.10
   2  -2  -9    3.80    1.90
  -2   2   9    4.90    1.70
  -2   2   9    8.00    3.70
  -2   2   9    7.50    1.80
  -2   2   9    5.90    1.90
  -2   2   9  -11.50   31.40
   1  -2  -9   39.40    3.50
   1  -2  -9   34.40    5.20
  -1   2   9   34.20    5.20
  -1   2   9   32.70    3.40
  -1   2   9    4.50   26.30
  -1   2   9   39.00    3.80
  -1   2   9   33.30    2.30
   0  -2  -9   42.40    3.60
   0  -2  -9   44.90    6.00
   0  -2  -9   50.89    3.90
   0   2   9   52.29    4.80
   0   2   9   38.60    5.60
   0   2   9   31.90   38.90
  -1  -2  -9   48.80    3.80
  -1  -2  -9   51.49    6.30
  -1  -2  -9   37.80    3.40
   1   2   9   46.80    5.60
   1   2   9   56.69    5.20
   1   2   9   38.20   40.00
  -2  -2  -9  108.49    6.90
  -2  -2  -9  124.29    9.50
   2   2   9  178.38   57.69
   2   2   9  123.59    8.80
   2   2   9  108.39    8.30
  -3  -2  -9   58.29    7.20
   3   2   9   67.49    6.60
   3   2   9   78.29    7.50
  -4  -2  -9   75.69    8.20
   4   2   9   86.29    6.70
   4   2   9   85.19    8.20
   4   2   9   78.09    7.70
  -5  -2  -9   12.80    4.30
  -5  -2  -9   14.60    4.60
   5   2   9   11.10    3.90
   5   2   9   10.40    4.40
   5   2   9   13.00    3.60
   7  -3  -9   23.60    4.20
   7  -3  -9   29.20    4.50
  -7   3   9   31.70    4.50
   6  -3  -9    2.70    3.00
   6  -3  -9    6.20    2.90
   6  -3  -9    9.10    3.10
  -6   3   9    5.70    2.90
  -6   3   9    5.00    3.10
   5  -3  -9   23.80    3.60
   5  -3  -9   19.70    3.40
   5  -3  -9   24.40    4.50
  -5   3   9   23.70    3.60
   4  -3  -9   43.20    5.70
   4  -3  -9   38.70    4.10
   4  -3  -9   44.20    4.40
  -4   3   9    3.30   26.20
  -4   3   9   41.30    4.00
   3  -3  -9   92.09    6.10
   3  -3  -9   86.79    7.60
   3  -3  -9   85.49    5.90
  -3   3   9   82.99    5.60
  -3   3   9   30.20   40.60
   2  -3  -9   26.40    3.00
   2  -3  -9   26.20    3.40
   2  -3  -9   31.50    5.30
  -2   3   9   20.70    4.70
  -2   3   9   27.90    3.10
  -2   3   9   21.70   37.50
  -2   3   9   28.60    2.80
   1  -3  -9   81.69    5.80
   1  -3  -9   79.79    5.10
   1  -3  -9   88.59    7.80
  -1   3   9   85.69    6.00
  -1   3   9   78.39    8.00
  -1   3   9   58.49   43.00
   0  -3  -9   51.59    3.50
   0  -3  -9   51.59    4.40
   0  -3  -9   44.40    5.80
   0   3   9   47.70   41.80
   0   3   9   44.10    6.20
   0   3   9   55.19    5.10
  -1  -3  -9   25.80    3.20
  -1  -3  -9   23.50    5.00
   1   3   9   28.40    5.30
   1   3   9   23.00   29.90
   1   3   9   23.50    4.00
  -2  -3  -9   95.69    8.90
  -2  -3  -9   96.59    6.50
   2   3   9   92.49    7.70
   2   3   9  113.39    9.10
  -3  -3  -9   58.19    7.50
   3   3   9   66.49    6.90
   3   3   9   71.79    7.80
  -4  -3  -9   79.89    8.80
   4   3   9   97.49    7.70
   4   3   9   80.09    7.30
   4   3   9   84.89    8.80
   7  -4  -9   55.39    5.90
   7  -4  -9   46.50    6.10
  -7   4   9   53.19    5.80
   6  -4  -9   40.10    4.90
   6  -4  -9   37.60    5.90
  -6   4   9   38.40    4.10
   5  -4  -9   58.89    5.70
   5  -4  -9   57.19    6.60
  -5   4   9    6.20   37.60
  -5   4   9   65.39    5.50
   4  -4  -9   35.80    4.40
   4  -4  -9   45.70    5.90
  -4   4   9   37.30    4.10
  -4   4   9    1.80   37.40
   3  -4  -9   -2.40    3.10
   3  -4  -9   -0.80    2.00
  -3   4   9   -5.30   34.00
  -3   4   9    1.20    1.50
  -3   4   9   -0.20    2.00
   2  -4  -9   99.79    6.50
   2  -4  -9   97.69    7.80
  -2   4   9   96.59    6.30
  -2   4   9   55.99   42.10
  -2   4   9   72.89    8.10
   1  -4  -9   47.40    4.60
   1  -4  -9   55.39    6.60
  -1   4   9   52.99    5.00
  -1   4   9   56.29    3.60
  -1   4   9   44.50   38.10
  -1   4   9   47.60    6.00
   0  -4  -9   52.29    6.80
   0  -4  -9   55.49    4.70
   0   4   9   58.09   43.30
   0   4   9   54.89    6.60
   0   4   9   50.29    5.40
  -1  -4  -9   27.70    3.60
  -1  -4  -9   25.00    5.10
   1   4   9   27.70    4.30
   1   4   9   22.20    4.60
  -2  -4  -9   93.59    9.50
  -2  -4  -9   91.59    6.70
   2   4   9  100.19    8.00
   2   4   9   96.99    9.50
  -3  -4  -9   39.70    6.80
   3   4   9   40.40    6.50
   3   4   9   40.40    5.70
   7  -5  -9   49.70    5.70
   7  -5  -9   32.90    5.40
   6  -5  -9   24.80    4.70
   6  -5  -9   31.60    4.60
  -6   5   9   25.60    4.00
  -6   5   9   27.50    3.70
   5  -5  -9   17.00    3.60
   5  -5  -9   12.20    4.00
  -5   5   9   15.60    3.20
  -5   5   9  -10.00   32.70
   4  -5  -9   19.80    4.80
   4  -5  -9   25.20    3.80
  -4   5   9   20.20    3.10
  -4   5   9  -14.90   31.60
   3  -5  -9   69.39    5.90
   3  -5  -9   58.39    7.10
  -3   5   9   39.60   39.60
  -3   5   9   55.29    4.70
  -3   5   9   62.19    4.80
   2  -5  -9   88.49    6.40
   2  -5  -9   88.19    8.90
  -2   5   9   64.99    7.90
  -2   5   9   80.99    5.50
  -2   5   9   83.99    6.20
  -2   5   9   82.39   46.30
   1  -5  -9   38.30    5.80
   1  -5  -9   44.90    4.50
  -1   5   9   31.10    5.40
  -1   5   9   34.30    4.40
  -1   5   9   43.30   41.00
  -1   5   9   32.10    4.20
   0  -5  -9   66.39    8.10
   0  -5  -9   75.09    5.80
   0   5   9   98.09   51.59
   0   5   9   61.59    7.40
   0   5   9   81.09    6.70
  -1  -5  -9   11.00    2.90
  -1  -5  -9   10.90    4.10
   1   5   9   12.80    3.80
   1   5   9    9.90    4.00
  -2  -5  -9   22.50    4.00
  -2  -5  -9   22.70    5.80
   2   5   9   25.50    5.00
   2   5   9   29.00    6.10
   6  -6  -9   27.70    5.30
   6  -6  -9   38.30    4.70
  -6   6   9   33.00    4.40
  -6   6   9   12.70   43.90
   5  -6  -9    3.80    3.80
   5  -6  -9    5.70    3.00
  -5   6   9    7.30    3.10
  -5   6   9   -6.40   36.70
   4  -6  -9   96.59    7.30
   4  -6  -9   85.09    9.00
  -4   6   9   67.49   46.60
  -4   6   9  101.09    7.10
   3  -6  -9   15.10    4.80
   3  -6  -9   20.90    3.70
  -3   6   9   14.60    2.70
  -3   6   9    6.90   35.10
  -3   6   9   15.90    3.30
   2  -6  -9   75.29    6.10
   2  -6  -9   53.69    7.60
  -2   6   9   48.10    7.10
  -2   6   9   26.10   38.20
  -2   6   9   58.59    4.60
  -2   6   9   58.19    5.60
   1  -6  -9   19.30    4.80
   1  -6  -9   29.90    4.20
  -1   6   9   15.90   40.00
  -1   6   9   21.90    5.80
  -1   6   9   20.60    4.30
   0  -6  -9   45.20    5.00
   0  -6  -9   22.50    6.20
   0   6   9   29.70    6.20
   0   6   9   32.50    5.00
   4  -7  -9   56.29    5.70
   4  -7  -9   51.79    7.40
  -4   7   9   47.60    5.20
  -4   7   9   17.50   37.70
   3  -7  -9   25.70    4.30
   3  -7  -9   23.70    6.00
  -3   7   9   21.50    3.50
  -3   7   9   23.20   43.10
   2  -7  -9   49.70    5.70
   2  -7  -9   50.59    7.20
  -2   7   9   39.90    7.20
  -2   7   9   40.10   52.49
   0   9 -10    7.10    2.90
   0   9 -10    0.10    3.50
   0  -9  10    2.00    3.50
   0  -9  10   10.60   27.00
  -1   9 -10   46.40    4.70
  -1   9 -10   49.10    6.40
   1  -9  10   25.10   26.70
   1  -9  10   33.30    5.30
  -2   9 -10    4.50    2.40
  -2   9 -10    0.70    3.60
   2  -9  10    2.90    3.90
   2  -9  10    3.10   24.50
   2  -9  10   -3.60   30.80
  -3   9 -10   34.30    5.80
  -3   9 -10   26.00    3.60
   3  -9  10   24.70    5.20
   3  -9  10   37.60   36.90
   3  -9  10   38.60   29.40
  -4   9 -10   -1.10    3.50
   4  -9  10   -2.00   26.60
   4  -9  10    0.80    3.00
  -5   9 -10   11.20    4.50
  -5   9 -10    8.70    3.20
   5  -9  10   14.00    4.70
   5  -9  10    8.90   28.20
   2   8 -10   13.50    4.00
   2   8 -10   13.00    3.70
  -2  -8  10    3.40   48.80
  -2  -8  10   13.40    3.90
   1   8 -10   82.89    7.90
   1   8 -10   68.49    6.10
  -1  -8  10   71.99   30.40
  -1  -8  10   52.89    6.00
  -1  -8  10   17.90   39.80
   0   8 -10    5.70    2.80
   0   8 -10    5.50    3.70
   0  -8  10    7.00   25.00
   0  -8  10   -2.90   28.60
   0  -8  10    4.40    3.20
  -1   8 -10   72.49    5.70
  -1   8 -10   78.29    7.80
   1  -8  10   54.49   39.50
   1  -8  10   65.39    6.60
   1  -8  10   57.49   29.10
  -2   8 -10    4.90    2.40
  -2   8 -10   -0.20    3.30
   2  -8  10    6.00    3.00
   2  -8  10    4.60   35.30
   2  -8  10   -2.70   23.30
  -3   8 -10   16.20    4.40
  -3   8 -10   16.20    2.80
   3  -8  10   17.90   26.30
   3  -8  10   52.79   43.60
   3  -8  10   19.40    4.60
  -4   8 -10    1.20    2.70
  -4   8 -10    4.40    2.20
   4  -8  10    0.10    3.80
   4  -8  10   -2.40   25.00
  -5   8 -10   10.10    2.70
  -5   8 -10    5.10    4.10
   5  -8  10    9.20    4.50
   5  -8  10   -7.40   26.00
  -6   8 -10    3.30    3.90
  -6   8 -10    6.90    2.80
   6  -8  10   18.40   29.00
   6  -8  10    4.10    4.20
   3   7 -10   71.09    6.40
   3   7 -10   64.99    7.00
  -3  -7  10   56.99    5.90
   2   7 -10   25.90    3.90
   2   7 -10   28.00    5.00
  -2  -7  10   24.10    4.00
  -2  -7  10   16.10   24.30
  -2  -7  10   19.30    3.80
  -2  -7  10   -1.30   37.80
   1   7 -10   45.70    4.70
   1   7 -10   63.29    6.70
  -1  -7  10   20.80   38.90
  -1  -7  10   45.10    5.30
  -1  -7  10   49.90   26.40
   0   7 -10   -0.60    2.20
   0   7 -10   -0.50    1.90
   0  -7  10  -11.70   23.20
   0  -7  10   -1.60    2.80
   0  -7  10  -10.20   36.80
  -1   7 -10    9.40    2.60
  -1   7 -10   13.90    4.10
   1  -7  10   -1.10   21.90
   1  -7  10    8.00    3.40
   1  -7  10    6.50   35.60
  -2   7 -10   18.50    2.70
  -2   7 -10    9.90    3.70
   2  -7  10   17.60    4.20
   2  -7  10   19.30   19.40
   2  -7  10   -8.10   37.80
  -3   7 -10    4.10    1.80
  -3   7 -10    1.10    3.20
  -3   7 -10    6.90    1.90
   3  -7  10   -9.80   18.70
   3  -7  10    0.00    2.60
   3  -7  10    2.00   31.60
  -4   7 -10   18.60    2.70
  -4   7 -10   21.00    4.70
   4  -7  10   28.40   27.40
   4  -7  10   20.00    4.70
  -5   7 -10    0.00    2.60
  -5   7 -10    2.50    2.20
   5  -7  10   -4.50   25.00
   5  -7  10   -0.80    3.50
  -6   7 -10   -0.20    2.60
  -6   7 -10    5.60    2.70
   6  -7  10   -5.70   25.20
   6  -7  10    3.00    4.00
   4   6 -10    0.90    3.00
   4   6 -10    4.80    2.40
  -4  -6  10    3.70    3.60
   3   6 -10    0.30    3.40
   3   6 -10    3.60    2.70
  -3  -6  10   -1.40    2.50
  -3  -6  10    7.40   23.90
   2   6 -10   41.70    5.60
   2   6 -10   34.70    4.20
  -2  -6  10   12.00   40.80
  -2  -6  10   30.30    3.90
  -2  -6  10   25.50   24.10
   1   6 -10   19.70    3.00
   1   6 -10   16.70    3.60
  -1  -6  10   14.80    3.60
  -1  -6  10    2.30   36.20
  -1  -6  10   19.30   17.90
   0   6 -10   11.60    2.40
   0   6 -10   11.90    3.80
   0  -6  10    7.50   22.00
   0  -6  10    5.20    2.90
   0  -6  10    5.20   36.40
  -1   6 -10   12.20    3.70
  -1   6 -10    7.70    2.00
   1  -6  10    5.40    3.20
   1  -6  10    9.20   17.00
   1  -6  10    3.00   33.10
  -2   6 -10    8.10    1.90
  -2   6 -10    9.60    1.70
  -2   6 -10    6.20    3.10
   2  -6  10   15.70   37.20
   2  -6  10    7.00   17.40
   2  -6  10    8.30    2.90
  -3   6 -10    7.90    3.50
  -3   6 -10    4.10    2.00
   3  -6  10    8.00   23.40
   3  -6  10    8.70   34.20
   3  -6  10   11.90    3.70
  -4   6 -10   70.39    5.20
  -4   6 -10   84.69    7.80
   4  -6  10   65.69   31.00
   4  -6  10   79.39    7.40
  -5   6 -10    4.00    3.30
  -5   6 -10    6.70    2.60
   5  -6  10    5.40   25.90
   5  -6  10    5.40    3.90
  -6   6 -10    5.60    2.70
  -6   6 -10   -0.60    3.20
   6  -6  10   -1.70    3.50
   5   5 -10    1.60    3.10
   5   5 -10    6.80    3.30
  -5  -5  10    6.60    3.50
   4   5 -10   24.40    3.90
   4   5 -10   22.50    4.20
  -4  -5  10   11.10   22.30
  -4  -5  10   15.60    3.70
   3   5 -10    5.70    3.60
   3   5 -10    5.20    2.70
  -3  -5  10   -2.30   15.10
  -3  -5  10    5.70    2.90
   2   5 -10   -0.60    2.90
   2   5 -10    4.50    2.30
  -2  -5  10   -3.10   38.20
  -2  -5  10   -2.20    2.10
  -2  -5  10    5.00   19.40
   1   5 -10    4.20    2.30
   1   5 -10   11.60    3.00
  -1  -5  10    8.30   16.30
  -1  -5  10    2.20    1.60
  -1  -5  10   16.60   39.10
   0   5 -10    6.60    1.90
   0   5 -10    5.70    3.10
   0  -5  10    6.20    2.90
   0  -5  10    6.50   35.70
   0  -5  10    5.70   20.70
  -1   5 -10   25.10    4.30
  -1   5 -10   24.30    2.70
  -1   5 -10   22.00    2.40
   1  -5  10   23.30    4.00
   1  -5  10   28.70   23.20
   1  -5  10   -4.10   34.40
  -2   5 -10   48.60    3.60
  -2   5 -10   55.89    5.60
   2  -5  10   47.70    5.40
   2  -5  10   33.70   41.20
   2  -5  10   29.50   24.50
  -3   5 -10    2.40    3.00
  -3   5 -10    7.60    2.40
  -3   5 -10    3.60    1.80
   3  -5  10    3.20   35.60
   3  -5  10   10.90   22.70
   3  -5  10    5.20    3.20
  -4   5 -10   10.20    3.40
  -4   5 -10   -1.30    1.80
  -4   5 -10    5.60    2.40
   4  -5  10    4.90    2.80
   4  -5  10   -0.60   17.30
  -5   5 -10   39.30    4.20
  -5   5 -10   48.10    5.60
  -5   5 -10   32.60    4.30
   5  -5  10   40.30    5.10
  -6   5 -10   24.80    3.80
  -6   5 -10   16.90    4.10
  -6   5 -10    8.10    3.30
  -6   5 -10   18.40    4.30
   5   4 -10   19.20    4.80
   5   4 -10   23.50    4.00
  -5  -4  10   19.30    4.30
  -5  -4  10   19.00   22.30
   4   4 -10   18.00    4.40
   4   4 -10   20.80    3.50
  -4  -4  10   19.00    3.90
  -4  -4  10   28.90   22.30
   3   4 -10    5.00    2.80
   3   4 -10    6.30    2.50
  -3  -4  10   -2.20   14.30
  -3  -4  10    4.70    2.40
   2   4 -10    7.60    2.30
   2   4 -10    5.70    3.20
  -2  -4  10    9.50    2.30
  -2  -4  10   11.20    2.20
  -2  -4  10    9.60   37.60
  -2  -4  10   10.20   15.50
   1   4 -10   21.30    2.70
   1   4 -10   22.60    4.00
  -1  -4  10   25.50    3.10
  -1  -4  10   14.00    1.80
  -1  -4  10    7.70   36.20
  -1  -4  10   37.20   22.50
   0   4 -10   21.60    3.60
   0   4 -10   23.70    2.70
   0  -4  10   23.60   17.60
   0  -4  10    7.20   36.40
   0  -4  10   32.80    4.00
  -1   4 -10    2.30    2.90
  -1   4 -10   -3.00    2.70
  -1   4 -10    0.60    1.40
  -1   4 -10    1.60    1.00
   1  -4  10   -1.20   33.00
   1  -4  10    5.00   15.70
  -2   4 -10    6.90    1.40
  -2   4 -10    7.00    3.00
  -2   4 -10    6.40    1.70
   2  -4  10   -1.50   15.30
   2  -4  10   11.50   27.70
  -3   4 -10   56.69    5.80
  -3   4 -10   64.29    5.30
  -3   4 -10   62.29    4.40
   3  -4  10   61.39   28.20
   3  -4  10   57.59   38.60
  -4   4 -10    5.20    2.70
  -4   4 -10   -0.20    2.70
  -4   4 -10    4.10    2.00
   4  -4  10   18.10   25.30
  -5   4 -10   13.40    4.00
  -5   4 -10    1.80    2.60
  -5   4 -10   11.50    3.20
  -5   4 -10    6.10    2.70
  -6   4 -10    5.40    3.20
  -6   4 -10    5.80    3.90
  -6   4 -10    0.60    2.90
  -6   4 -10    3.70    3.50
   6   3 -10   72.89    6.70
   6   3 -10   65.09    7.20
  -6  -3  10   62.19    6.80
  -6  -3  10   38.30   26.40
  -6  -3  10   65.89    7.10
   5   3 -10   26.70    3.90
   5   3 -10   21.90    4.10
  -5  -3  10   25.40   21.40
  -5  -3  10   24.50    4.00
   4   3 -10   15.10    3.50
   4   3 -10   12.50    3.00
  -4  -3  10   16.40    3.50
  -4  -3  10   20.50   21.90
   3   3 -10    6.10    3.20
   3   3 -10    8.60    2.40
  -3  -3  10   10.50   20.00
  -3  -3  10    5.00    2.40
  -3  -3  10    7.80    2.20
   2   3 -10   26.60    3.20
   2   3 -10   22.00    4.10
  -2  -3  10   38.40   21.20
  -2  -3  10   24.50    2.80
  -2  -3  10   28.90    3.40
  -2  -3  10    2.90   35.80
   1   3 -10   40.50    4.90
   1   3 -10   47.80    4.10
  -1  -3  10   49.10   23.40
  -1  -3  10   43.50    2.80
  -1  -3  10   54.79    5.10
  -1  -3  10   28.20   40.10
   0   3 -10    5.30    1.70
   0   3 -10    2.60    2.70
   0  -3  10   -1.60    2.80
   0  -3  10    8.10   14.90
   0  -3  10   -6.40   30.70
  -1   3 -10    7.50    1.60
  -1   3 -10    8.40    1.60
  -1   3 -10    9.70    2.90
   1  -3  10   12.60   35.90
   1  -3  10    7.90    2.90
   1  -3  10   -1.00   14.00
  -2   3 -10   48.30    3.30
  -2   3 -10   56.69    5.40
  -2   3 -10   51.19    3.90
   2  -3  10   64.79   43.80
   2  -3  10   57.69   22.30
   2  -3  10   49.50    5.50
  -3   3 -10   24.30    3.20
  -3   3 -10   28.00    3.80
   3  -3  10   41.10   25.30
   3  -3  10   43.90   43.90
  -4   3 -10    6.90    2.50
  -4   3 -10   -4.30    2.70
  -4   3 -10   -0.50    3.40
  -4   3 -10   -1.70    2.20
  -5   3 -10    2.50    2.40
  -5   3 -10   -9.00    3.00
  -5   3 -10    0.60    3.10
  -5   3 -10   -3.20    2.30
  -6   3 -10    0.40    3.30
  -6   3 -10    1.00    2.50
  -6   3 -10    1.80    2.90
  -6   3 -10    4.50    3.50
   6   2 -10   21.70    3.80
   6   2 -10   13.70    4.20
  -6  -2  10   24.40    4.60
  -6  -2  10    9.50   19.40
  -6  -2  10   21.70    4.20
   5   2 -10    6.10    3.60
   5   2 -10    6.60    2.90
  -5  -2  10   -5.80   20.00
  -5  -2  10    7.90    3.10
   4   2 -10   26.00    3.60
   4   2 -10   33.10    4.80
  -4  -2  10   26.10    3.60
  -4  -2  10   31.40    3.80
  -4  -2  10   28.30   20.60
   3   2 -10   36.60    4.80
   3   2 -10   39.60    4.00
  -3  -2  10   34.70   21.20
  -3  -2  10   32.20    3.50
  -3  -2  10   36.20    4.10
   2   2 -10   19.50    3.80
   2   2 -10   18.20    2.70
  -2  -2  10   11.30   17.80
  -2  -2  10   16.70    2.20
  -2  -2  10   21.00    3.70
  -2  -2  10   -2.60   37.20
   1   2 -10   17.30    2.30
   1   2 -10   16.30    3.30
  -1  -2  10    5.60   27.80
  -1  -2  10   16.30    3.50
  -1  -2  10   16.40   19.50
  -1  -2  10   14.40    1.10
   0   2 -10   18.10    2.30
   0   2 -10   16.00    1.60
   0   2 -10   16.90    3.30
   0  -2  10   18.70    3.60
   0  -2  10   15.30   30.20
   0  -2  10   23.10   21.10
  -1   2 -10    1.00    1.80
  -1   2 -10    3.80    2.30
  -1   2 -10    4.00    1.50
  -1   2 -10    2.80    1.30
   1  -2  10    4.80    3.00
   1  -2  10   19.10   21.60
   1  -2  10   -0.30   31.70
  -2   2 -10   48.50    4.10
  -2   2 -10   44.00    3.10
  -2   2 -10   57.59    6.50
  -2   2 -10   49.30    4.80
   2  -2  10   54.69    5.70
   2  -2  10   34.60   24.30
   2  -2  10   55.79   43.60
  -3   2 -10   93.89    8.10
  -3   2 -10  101.09    6.40
  -3   2 -10   75.29    6.20
   3  -2  10   98.29    7.90
   3  -2  10  114.59   52.79
  -4   2 -10    4.60    3.40
  -4   2 -10    3.60    3.70
  -4   2 -10   10.70    2.60
  -4   2 -10    6.40    2.70
  -5   2 -10   11.10    3.30
  -5   2 -10   12.50    4.00
  -5   2 -10   12.90    3.10
  -5   2 -10    8.50    3.60
  -6   2 -10    2.20    2.40
  -6   2 -10   -8.80    2.70
  -6   2 -10   -2.00    3.00
  -6   2 -10   -2.00    3.50
   6   1 -10   12.30    3.20
   6   1 -10    5.10    3.60
  -6  -1  10    6.20    3.30
  -6  -1  10    8.00   19.60
   5   1 -10    4.30    2.60
   5   1 -10    2.20    2.40
  -5  -1  10    4.80    2.80
  -5  -1  10   15.70   20.10
  -5  -1  10    4.00    2.70
   4   1 -10   32.40    4.70
   4   1 -10   38.10    4.10
  -4  -1  10   35.00    4.10
  -4  -1  10   18.80   21.40
  -4  -1  10   29.10    4.20
   3   1 -10   16.80    3.70
   3   1 -10   22.70    3.10
  -3  -1  10   20.90    4.10
  -3  -1  10   23.10    3.00
  -3  -1  10    9.00   37.30
  -3  -1  10   31.40   20.10
   2   1 -10   58.99    4.40
   2   1 -10   57.39    5.50
  -2  -1  10   46.00   21.60
  -2  -1  10   49.80    5.40
  -2  -1  10   26.30   39.80
   1   1 -10  132.29    8.30
   1   1 -10  130.99    7.50
  -1  -1  10   92.69   26.90
  -1  -1  10   62.99   44.90
  -1  -1  10  132.59    8.80
   0   1 -10   33.40    4.90
   0   1 -10   26.90    2.70
   0   1 -10   22.80    3.20
   0   1 -10   21.30    3.20
   0  -1  10   40.10   19.40
   0  -1  10   30.10    4.70
   0  -1  10   23.80   37.70
  -1   1 -10   59.19    4.80
  -1   1 -10   44.30    3.40
  -1   1 -10   48.40    6.40
   1  -1  10   45.80   44.20
   1  -1  10   35.40   24.40
   1  -1  10   56.59    5.90
  -2   1 -10   65.69    7.30
  -2   1 -10   51.59    5.00
  -2   1 -10   61.19    3.90
   2  -1  10   86.59   50.89
   2  -1  10   78.39    7.10
  -3   1 -10   16.40    2.90
  -3   1 -10   18.20    4.50
   3  -1  10   15.20    4.30
   3  -1  10   11.60   37.00
  -4   1 -10    6.00    3.70
  -4   1 -10    5.10    2.40
   4  -1  10    5.80    4.00
   4  -1  10    5.80    3.70
  -5   1 -10   -1.50    3.60
  -5   1 -10    3.20    3.20
  -5   1 -10    1.00    2.30
   5  -1  10    3.60    3.70
  -6   1 -10    9.40    4.40
  -6   1 -10    6.90    4.40
   6  -1  10    7.00    4.30
   7   0 -10    3.40    3.30
   7   0 -10    7.50    3.30
   7   0 -10    7.10    3.90
  -7   0  10   10.30    4.00
   6   0 -10   17.70    4.30
   6   0 -10   17.00    3.60
   6   0 -10   17.00    4.20
  -6   0  10   15.20   18.80
  -6   0  10   11.40    3.50
   5   0 -10   10.10    3.00
   5   0 -10   10.50    3.70
   5   0 -10    9.40    3.50
  -5   0  10   28.50   19.30
  -5   0  10    9.90    3.00
   4   0 -10   40.80    4.80
   4   0 -10   32.80    4.00
   4   0 -10   39.80    5.40
  -4   0  10   40.90   22.30
  -4   0  10   43.20    4.30
  -4   0  10   38.50    5.00
   3   0 -10  116.99    9.10
   3   0 -10  120.19    7.40
   3   0 -10  122.09    8.10
  -3   0  10  115.49   26.60
  -3   0  10  113.59    8.50
  -3   0  10  117.89    7.10
  -3   0  10   34.50   42.30
   2   0 -10   13.80    3.00
   2   0 -10   14.90    2.60
   2   0 -10   15.50    3.70
  -2   0  10   13.40    3.80
  -2   0  10   16.90   40.40
  -2   0  10    4.50   17.30
  -2   0  10   15.90    1.90
   1   0 -10    6.30    2.40
   1   0 -10    5.80    3.00
   1   0 -10    3.00    1.50
  -1   0  10   13.40   37.40
  -1   0  10  -10.60   16.20
  -1   0  10    5.10    3.40
   0   0 -10   52.89    4.90
   0   0 -10   63.59    7.00
   0   0 -10   58.39    4.20
   0   0  10   50.39   43.90
   0   0  10   52.89    6.00
  -1   0 -10   26.10    2.50
  -1   0 -10   18.20    4.50
  -1   0 -10   15.80    2.70
   1   0  10   10.70   37.40
   1   0  10   25.60    3.70
   1   0  10   18.90    3.70
  -2   0 -10  119.79    6.70
  -2   0 -10  113.69    7.30
  -2   0 -10  113.49    9.30
   2   0  10  138.79   57.89
   2   0  10  100.49    8.10
   2   0  10  121.59    9.10
  -3   0 -10   21.30    5.10
   3   0  10   19.40    4.70
   3   0  10   13.10    4.00
  -4   0 -10    9.60    4.20
   4   0  10    3.70    3.20
   4   0  10    9.30    3.80
  -5   0 -10    8.80    4.00
  -5   0 -10    7.10    4.40
   5   0  10    4.10    3.90
   7  -1 -10    8.80    3.60
   7  -1 -10    5.10    3.80
   7  -1 -10    3.70    3.60
  -7   1  10    3.50    3.20
   6  -1 -10    4.80    3.30
   6  -1 -10    0.10    2.70
   6  -1 -10    7.30    3.90
  -6   1  10    5.10    3.20
   5  -1 -10    3.60    2.60
   5  -1 -10    6.60    3.50
   5  -1 -10    6.40    3.00
  -5   1  10    9.20    2.80
  -5   1  10   13.30   18.10
   4  -1 -10   16.60    3.40
   4  -1 -10   14.70    4.30
   4  -1 -10   13.20    3.00
  -4   1  10   14.60    3.00
  -4   1  10   13.50   18.50
   3  -1 -10   28.40    3.70
   3  -1 -10   26.50    5.00
   3  -1 -10   33.20    4.00
  -3   1  10   26.30    4.80
  -3   1  10   16.80   19.50
  -3   1  10   19.80   40.80
   2  -1 -10  124.29    7.70
   2  -1 -10  114.89    9.30
   2  -1 -10  117.09    7.30
  -2   1  10   77.49   49.40
  -2   1  10  124.39    9.20
  -2   1  10  119.69    6.60
   1  -1 -10   19.30    4.50
   1  -1 -10   19.60    2.90
   1  -1 -10   20.00    2.70
  -1   1  10   14.60    4.30
  -1   1  10    6.90   37.80
   0  -1 -10   13.50    2.50
   0  -1 -10    9.50    2.10
   0  -1 -10    7.90    3.80
   0   1  10   12.50    2.90
   0   1  10   10.30    3.40
   0   1  10   -4.10   33.50
  -1  -1 -10   14.30    2.70
  -1  -1 -10   30.80    5.00
  -1  -1 -10   24.40    2.70
   1   1  10   23.50    4.80
   1   1  10   26.20   40.40
   1   1  10   28.70    4.40
  -2  -1 -10    7.10    2.00
  -2  -1 -10    5.50    3.20
   2   1  10    9.50    3.40
   2   1  10   10.80   38.00
   2   1  10    8.40    4.10
  -3  -1 -10   51.09    7.00
   3   1  10   56.69    6.40
   3   1  10   60.59    7.20
  -4  -1 -10    9.70    4.60
   4   1  10   12.20    3.80
   4   1  10    4.50    3.00
  -5  -1 -10   15.10    5.40
  -5  -1 -10    3.70    4.50
   7  -2 -10    7.80    2.80
   7  -2 -10    7.10    3.50
   7  -2 -10    8.90    3.60
  -7   2  10   11.80    3.60
   6  -2 -10    1.50    3.00
   6  -2 -10    6.70    3.60
   6  -2 -10   -1.10    2.70
  -6   2  10    4.90    2.90
   5  -2 -10   17.60    3.60
   5  -2 -10   24.60    3.70
   5  -2 -10   26.80    4.80
  -5   2  10   21.50    3.50
   4  -2 -10   16.60    4.20
   4  -2 -10    8.10    3.10
   4  -2 -10   14.50    3.10
  -4   2  10    0.00   39.60
   3  -2 -10   -0.40    3.30
   3  -2 -10    1.60    2.20
   3  -2 -10    3.00    2.60
  -3   2  10   21.70   41.20
  -3   2  10    0.10    3.40
  -3   2  10    0.80    1.60
   2  -2 -10    7.90    2.50
   2  -2 -10   10.90    2.70
   2  -2 -10    5.30    3.70
  -2   2  10   12.20    2.20
  -2   2  10    9.70    1.70
  -2   2  10    9.40    4.20
  -2   2  10    6.00   35.60
   1  -2 -10   -0.50    1.80
   1  -2 -10   -1.20    1.90
   1  -2 -10    1.60    3.40
  -1   2  10   -0.50    2.20
  -1   2  10    4.20    4.00
  -1   2  10    6.30   27.40
   0  -2 -10    6.10    2.10
   0  -2 -10    9.60    4.20
   0  -2 -10    8.00    2.10
   0   2  10    1.40    2.90
   0   2  10    5.10    3.20
   0   2  10   18.90   37.30
  -1  -2 -10   83.29    8.70
  -1  -2 -10   83.09    5.50
   1   2  10   77.89    7.20
   1   2  10   75.69   47.90
   1   2  10   79.29    6.60
  -2  -2 -10   24.00    5.50
   2   2  10   23.90    4.40
   2   2  10   12.00   30.60
   2   2  10   19.90    5.10
  -3  -2 -10   59.49    7.50
   3   2  10   61.19    7.30
   3   2  10   50.89    6.20
  -4  -2 -10   12.80    4.90
   4   2  10    8.20    4.10
   4   2  10   15.80    5.10
   7  -3 -10    2.70    3.40
   6  -3 -10    3.20    3.50
   6  -3 -10    1.10    2.60
   6  -3 -10    0.80    2.70
  -6   3  10    3.90    3.20
   5  -3 -10   19.70    3.60
   5  -3 -10   23.70    4.80
   5  -3 -10   29.80    4.10
  -5   3  10   -5.40   36.80
   4  -3 -10    5.00    3.70
   4  -3 -10    9.80    2.90
   4  -3 -10    6.60    2.60
  -4   3  10    5.30    2.50
  -4   3  10   -1.40   38.20
   3  -3 -10    7.40    2.50
   3  -3 -10    7.00    2.60
   3  -3 -10   16.40    4.00
  -3   3  10    8.10    2.00
  -3   3  10    4.70   37.30
  -3   3  10    6.00    4.10
   2  -3 -10    5.50    4.00
   2  -3 -10    4.30    2.10
   2  -3 -10    4.90    2.30
  -2   3  10    0.90    3.80
  -2   3  10    3.80   37.30
  -2   3  10    2.40    1.30
  -2   3  10    3.80    2.10
   1  -3 -10    9.70    2.50
   1  -3 -10    4.40    4.00
  -1   3  10   -1.50   37.40
  -1   3  10   13.00    4.60
  -1   3  10    6.00    2.40
   0  -3 -10   40.50    5.90
   0  -3 -10   34.60    3.70
   0   3  10   39.70    4.60
   0   3  10   56.99   45.60
   0   3  10   32.90    5.90
  -1  -3 -10   66.09    7.90
  -1  -3 -10   75.19    5.40
   1   3  10   65.79    6.50
   1   3  10   65.09    7.70
   1   3  10   77.09   48.00
  -2  -3 -10   30.30    5.90
   2   3  10   20.40    5.30
   2   3  10   28.80    4.80
  -3  -3 -10   24.40    5.80
   3   3  10   18.60    4.50
   3   3  10   15.30    5.10
   6  -4 -10   19.30    3.60
   6  -4 -10   17.10    4.70
   5  -4 -10    7.40    3.90
   5  -4 -10    7.70    3.20
  -5   4  10    4.30    2.60
  -5   4  10   -7.10   37.20
   4  -4 -10   33.40    4.30
   4  -4 -10   35.10    5.70
  -4   4  10   18.30   42.20
  -4   4  10   19.30    3.00
   3  -4 -10   22.90    3.60
   3  -4 -10   20.50    5.00
  -3   4  10   14.80    2.40
  -3   4  10   15.80   39.20
  -3   4  10    4.10    4.40
   2  -4 -10   44.00    6.10
   2  -4 -10   43.10    4.60
  -2   4  10   41.20    4.20
  -2   4  10   32.90    5.50
  -2   4  10   35.30   45.80
   1  -4 -10   50.79    6.60
   1  -4 -10   52.69    5.00
  -1   4  10   46.30    4.80
  -1   4  10   39.10   45.90
  -1   4  10   33.30    6.20
   0  -4 -10   19.80    3.20
   0  -4 -10   17.70    5.20
   0   4  10   27.00   40.80
   0   4  10   16.90    3.90
   0   4  10   22.50    5.60
  -1  -4 -10   12.00    3.10
  -1  -4 -10   11.60    5.00
   1   4  10   15.10    3.90
   1   4  10   15.30    5.20
  -2  -4 -10   -1.00    4.30
   2   4  10    1.80    3.40
   2   4  10    0.10    3.40
   5  -5 -10    4.10    3.00
   5  -5 -10    5.20    4.00
  -5   5  10    5.40    2.60
  -5   5  10   17.30   44.10
   4  -5 -10   10.00    3.60
   4  -5 -10    5.20    3.00
  -4   5  10    1.50   38.90
  -4   5  10    9.50    2.90
   3  -5 -10   38.40    6.40
   3  -5 -10   35.50    4.40
  -3   5  10    1.10   37.60
  -3   5  10   30.70    3.40
  -3   5  10   21.40    5.60
   2  -5 -10    3.70    3.20
   2  -5 -10   10.10    3.10
  -2   5  10    0.30    3.30
  -2   5  10    3.20    2.60
  -2   5  10   -3.50   36.80
   1  -5 -10   31.40    5.70
   1  -5 -10   32.30    4.30
  -1   5  10   29.40    4.30
  -1   5  10   28.40    5.90
  -1   5  10   32.70   41.70
   0  -5 -10    6.20    5.20
   0  -5 -10   -0.50    2.50
   0   5  10   11.60   39.10
   0   5  10    1.10    4.40
   0   5  10    2.50    3.40
   4  -6 -10   14.40    3.80
   4  -6 -10   14.70    4.40
  -4   6  10   12.80    3.30
  -4   6  10    2.70   41.80
   3  -6 -10   28.40    4.40
   3  -6 -10   25.50    6.00
  -3   6  10   17.70    5.10
  -3   6  10   27.10    4.90
  -3   6  10   30.40   43.40
   2  -6 -10   14.10    3.60
   2  -6 -10   14.50    4.70
  -2   6  10    5.70    5.10
  -2   6  10   21.00   41.70
   2  -9  11   75.89   33.90
   1   8 -11   14.10    4.70
  -1  -8  11    6.70   26.20
  -1  -8  11    5.10   41.70
   0   8 -11   82.79    8.30
   0   8 -11   85.99    6.30
   0  -8  11   63.09    6.70
   0  -8  11   36.80   45.50
  -1   8 -11    5.00    3.80
  -1   8 -11    2.20    2.20
   1  -8  11   -7.90   34.80
   1  -8  11   -1.30   25.00
   1  -8  11    4.10    3.60
  -2   8 -11   30.20    5.50
   2  -8  11   36.30   44.40
   2  -8  11   26.00    4.90
   2  -8  11   28.60   27.50
  -3   8 -11   20.10    4.20
   3  -8  11   25.50   41.10
   3  -8  11   26.50   27.80
   3  -8  11   21.70    4.60
  -4   8 -11   12.40    4.50
   4  -8  11   20.30   29.20
   4  -8  11   16.90    4.20
   2   7 -11   52.39    5.20
   2   7 -11   56.79    6.90
  -2  -7  11   37.20   28.90
  -2  -7  11    9.20   44.60
  -2  -7  11   39.90    4.90
   1   7 -11   15.00    3.80
   1   7 -11   27.50    3.80
  -1  -7  11   18.70   21.10
  -1  -7  11    4.60   41.80
  -1  -7  11   15.40    3.70
   0   7 -11   22.40    3.40
   0   7 -11   27.80    4.60
   0  -7  11   17.00    4.00
   0  -7  11    5.60   39.30
   0  -7  11   14.90   19.80
  -1   7 -11   26.00    3.30
  -1   7 -11   25.70    4.50
   1  -7  11    9.00   39.70
   1  -7  11   24.70    4.50
   1  -7  11   20.70   26.00
  -2   7 -11   50.09    5.90
   2  -7  11   49.30    5.90
   2  -7  11   34.20   27.90
   2  -7  11   54.09   45.50
  -3   7 -11   23.70    5.10
   3  -7  11   19.10    4.80
   3  -7  11   38.10   28.90
   3  -7  11   24.80   40.20
  -4   7 -11    8.10    3.20
   4  -7  11   14.60   26.80
   4  -7  11   19.30    4.60
  -5   7 -11   48.50    4.60
  -5   7 -11   45.50    6.20
   5  -7  11   37.60    6.20
   5  -7  11   34.50   30.60
   3   6 -11   -0.30    2.70
   3   6 -11    0.20    2.60
  -3  -6  11    2.10    2.90
  -3  -6  11   18.00   47.70
  -3  -6  11    9.40   24.60
   2   6 -11   26.20    3.90
   2   6 -11   35.30    5.10
  -2  -6  11    2.40   40.80
  -2  -6  11   22.70   26.20
  -2  -6  11   25.70    3.40
   1   6 -11   55.89    6.20
   1   6 -11   49.50    4.80
  -1  -6  11   44.60   27.30
  -1  -6  11   30.00   45.00
   0   6 -11    6.90    3.50
   0   6 -11    6.30    2.30
   0  -6  11  -15.10   36.40
   0  -6  11    7.60    3.30
   0  -6  11    8.80   23.30
  -1   6 -11    2.20    1.90
  -1   6 -11    6.60    3.60
   1  -6  11   -2.10   17.90
   1  -6  11   -4.50    3.00
   1  -6  11   -5.30   39.50
  -2   6 -11   25.80    4.60
   2  -6  11   14.90   24.60
   2  -6  11   15.90   39.30
   2  -6  11   16.00    4.20
  -3   6 -11   50.49    6.00
   3  -6  11   15.00   26.10
   3  -6  11   30.80   42.20
   3  -6  11   42.30    5.80
  -4   6 -11   19.20    3.10
  -4   6 -11   21.60    4.50
   4  -6  11   30.60    4.80
   4  -6  11   19.80   26.90
  -5   6 -11   77.59    7.80
  -5   6 -11   90.39    6.40
   5  -6  11  112.29   36.50
   5  -6  11   88.89    8.30
   4   5 -11   20.10    3.80
   4   5 -11   20.00    5.00
  -4  -5  11    3.70   23.40
  -4  -5  11   17.60    3.70
   3   5 -11   25.30    4.90
   3   5 -11   25.10    3.80
  -3  -5  11    9.60   23.40
  -3  -5  11   20.50    3.60
  -3  -5  11    7.40   44.10
   2   5 -11   38.90    4.20
   2   5 -11   28.80    5.00
  -2  -5  11   15.90   43.40
  -2  -5  11   31.50    3.40
  -2  -5  11   28.20   25.70
   1   5 -11   78.69    6.50
   1   5 -11   73.09    5.50
  -1  -5  11   44.10   46.80
  -1  -5  11   59.29   27.20
   0   5 -11    1.30    3.20
   0   5 -11    6.10    2.00
   0  -5  11   17.00   23.20
   0  -5  11  -11.80   35.70
  -1   5 -11    8.70    2.00
  -1   5 -11   10.50    3.70
   1  -5  11    2.80   39.50
   1  -5  11   18.70   24.20
  -2   5 -11   51.79    6.10
   2  -5  11   49.00   23.60
   2  -5  11   66.99   48.10
  -3   5 -11  123.69    9.10
  -3   5 -11  133.49    8.30
  -3   5 -11  129.79    7.50
   3  -5  11  126.99   52.89
   3  -5  11  103.59   30.90
  -4   5 -11   56.69    5.30
  -4   5 -11   52.89    5.90
  -4   5 -11   55.79    4.80
   4  -5  11   41.80   24.40
  -5   5 -11   52.29    5.20
  -5   5 -11   49.10    5.10
  -5   5 -11   41.30    6.40
  -5   5 -11   48.30    5.80
  -6   5 -11   17.50    3.50
  -6   5 -11    5.50    4.00
  -6   5 -11   18.70    4.70
   4   4 -11   47.80    5.10
   4   4 -11   44.10    6.10
  -4  -4  11   30.60   24.90
  -4  -4  11   39.40    4.70
   3   4 -11  114.89    8.80
   3   4 -11  118.19    7.60
  -3  -4  11   97.39   29.60
  -3  -4  11   27.50   48.40
   2   4 -11   10.40    3.80
   2   4 -11   13.90    2.80
  -2  -4  11   13.60   43.00
  -2  -4  11   10.20    2.60
  -2  -4  11   -3.60   20.90
  -2  -4  11    7.70    1.90
   1   4 -11   22.00    4.30
   1   4 -11   22.40    3.20
  -1  -4  11   21.80    3.30
  -1  -4  11    0.50   39.30
  -1  -4  11   20.90   22.70
   0   4 -11   56.19    4.60
   0   4 -11   67.69    6.40
   0  -4  11   66.99    5.90
   0  -4  11   59.69   27.50
   0  -4  11   32.40   36.90
  -1   4 -11   26.30    4.50
  -1   4 -11   26.20    2.80
   1  -4  11   22.30   23.60
   1  -4  11   21.90   41.20
  -2   4 -11   65.29    6.60
  -2   4 -11   68.99    4.50
   2  -4  11   48.00   27.80
   2  -4  11   64.29   49.60
  -3   4 -11  130.69    7.70
  -3   4 -11  126.29    9.00
   3  -4  11  150.88   61.99
   3  -4  11  116.89   35.90
  -4   4 -11    9.60    2.70
  -4   4 -11    7.60    3.20
  -4   4 -11   10.90    3.50
  -4   4 -11    6.00    4.30
  -5   4 -11   30.00    5.40
  -5   4 -11   28.20    4.40
  -5   4 -11   25.60    4.10
  -5   4 -11   34.50    4.90
  -6   4 -11   27.90    4.30
   5   3 -11   47.80    5.90
   5   3 -11   49.20    5.40
  -5  -3  11   30.30   27.30
  -5  -3  11   50.99    5.30
   4   3 -11   21.60    4.70
   4   3 -11   22.70    3.60
  -4  -3  11   35.60   23.80
  -4  -3  11   20.20    3.40
   3   3 -11   23.80    3.50
   3   3 -11   23.40    4.50
  -3  -3  11   22.70    3.00
  -3  -3  11   20.30    3.10
  -3  -3  11   32.20   23.30
  -3  -3  11  -23.60   37.90
   2   3 -11    7.40    3.40
   2   3 -11    3.40    2.10
  -2  -3  11    6.70    2.60
  -2  -3  11    5.30   39.40
  -2  -3  11   21.10   22.70
  -2  -3  11    1.40    1.40
   1   3 -11   45.10    5.40
   1   3 -11   37.90    3.90
  -1  -3  11   45.40    4.70
  -1  -3  11   18.50   32.80
  -1  -3  11   39.00   23.90
   0   3 -11   24.60    2.80
   0   3 -11   26.10    3.80
   0  -3  11   58.29   46.70
   0  -3  11   26.70    4.10
   0  -3  11   12.80   17.60
  -1   3 -11   71.89    6.00
  -1   3 -11   60.89    4.40
   1  -3  11   47.10   27.60
   1  -3  11   57.09   47.90
   1  -3  11   72.99    6.60
  -2   3 -11   97.79    7.20
  -2   3 -11   94.69    6.00
   2  -3  11   84.69   47.80
   2  -3  11   99.89    8.00
   2  -3  11   87.29   31.80
  -3   3 -11   47.10    5.30
  -3   3 -11   40.30    6.50
  -3   3 -11   48.40    4.20
   3  -3  11   92.29   52.69
  -4   3 -11   13.50    5.10
  -4   3 -11   18.10    3.40
  -4   3 -11   22.20    4.00
  -4   3 -11   22.90    3.30
  -5   3 -11    2.10    3.90
  -5   3 -11    0.00    2.50
  -5   3 -11    0.40    2.70
  -5   3 -11   -1.40    3.90
   5   2 -11    6.70    2.90
   5   2 -11   -0.60    2.60
  -5  -2  11    8.90   20.00
  -5  -2  11    7.60    3.10
   4   2 -11   12.10    4.00
   4   2 -11    7.90    2.80
  -4  -2  11    3.30   20.10
  -4  -2  11    9.50    2.90
  -4  -2  11    8.60    3.00
   3   2 -11   54.19    6.00
   3   2 -11   62.19    4.90
  -3  -2  11   73.09   25.90
  -3  -2  11   52.69    5.20
  -3  -2  11   14.70   42.10
   2   2 -11   19.20    4.00
   2   2 -11   32.60    3.60
  -2  -2  11   32.50    4.40
  -2  -2  11   -1.60   40.20
  -2  -2  11   33.60   23.40
   1   2 -11   24.50    3.10
   1   2 -11   30.10    4.30
  -1  -2  11   26.70   23.40
  -1  -2  11   24.80    4.30
  -1  -2  11    7.80   39.90
   0   2 -11  113.99    8.00
   0   2 -11  122.79    7.00
   0  -2  11  118.99    8.60
   0  -2  11   67.59   48.80
   0  -2  11  103.59   28.20
  -1   2 -11  116.29    6.50
  -1   2 -11  105.79    6.40
  -1   2 -11  110.09    9.50
  -1   2 -11  110.49    7.70
   1  -2  11  109.49   32.40
   1  -2  11  117.89    8.70
   1  -2  11   84.19   45.50
  -2   2 -11  102.29    7.40
  -2   2 -11  104.89    6.60
  -2   2 -11   98.39    9.60
   2  -2  11   89.49    8.10
   2  -2  11  107.49   49.50
  -3   2 -11   43.70    6.40
  -3   2 -11   36.90    4.00
  -3   2 -11   24.70    4.10
   3  -2  11   53.09   47.30
   3  -2  11   40.60    5.70
  -4   2 -11   19.30    3.60
  -4   2 -11   18.60    3.20
  -4   2 -11   19.20    4.30
  -4   2 -11   18.80    4.90
  -5   2 -11    7.10    2.70
  -5   2 -11    7.30    4.00
  -5   2 -11    2.30    3.90
  -5   2 -11   -0.70    2.80
   6   1 -11   30.30    4.60
   6   1 -11   22.70    4.90
  -6  -1  11   11.40   39.50
  -6  -1  11   24.10    4.60
   5   1 -11   25.00    4.70
   5   1 -11   31.70    4.10
  -5  -1  11   25.60    6.40
  -5  -1  11   11.70   22.60
  -5  -1  11   28.10    4.20
   4   1 -11   41.00    4.60
   4   1 -11   40.90    5.40
  -4  -1  11   36.70   21.60
  -4  -1  11   42.30    5.00
   3   1 -11   67.29    5.10
   3   1 -11   58.89    6.20
  -3  -1  11   57.99   24.40
  -3  -1  11   61.59    4.40
  -3  -1  11   -0.30   41.10
  -3  -1  11   58.49    6.20
   2   1 -11   79.29    7.90
   2   1 -11   70.19    5.00
   2   1 -11   60.09    6.00
  -2  -1  11   65.89    4.90
  -2  -1  11   30.20   44.00
  -2  -1  11   47.90   24.20
  -2  -1  11   63.59    6.50
   1   1 -11   67.99    6.00
   1   1 -11   63.59    4.70
   1   1 -11   73.09    7.80
  -1  -1  11    2.60   38.90
  -1  -1  11   42.40   21.00
  -1  -1  11   54.99    6.50
   0   1 -11   96.59    9.30
   0   1 -11   87.59    6.40
   0   1 -11   71.29    5.10
   0  -1  11   38.40   45.70
   0  -1  11   73.29   28.90
   0  -1  11   66.59    7.10
  -1   1 -11   70.89    7.80
  -1   1 -11   82.49    6.20
  -1   1 -11   76.19    5.00
   1  -1  11   87.19    7.60
   1  -1  11   44.30   38.90
  -2   1 -11    3.00    4.20
  -2   1 -11   -0.90    2.60
   2  -1  11    6.60    3.80
   2  -1  11   -3.90   26.80
  -3   1 -11   20.20    5.10
  -3   1 -11   16.50    3.30
   3  -1  11   19.90    4.90
   3  -1  11   20.70   43.40
  -4   1 -11   11.00    4.40
  -4   1 -11    6.20    2.80
   4  -1  11    9.70    4.40
  -5   1 -11    3.50    3.90
  -5   1 -11    4.80    4.30
   6   0 -11   36.50    6.00
   6   0 -11   40.40    5.50
   6   0 -11   34.20    4.80
  -6   0  11   42.00    5.30
   5   0 -11   18.80    4.20
   5   0 -11   18.50    4.70
   5   0 -11   20.20    3.80
  -5   0  11    6.60   21.40
  -5   0  11   15.40    4.00
  -5   0  11   17.30    3.50
   4   0 -11   64.49    7.60
   4   0 -11   50.49    5.60
   4   0 -11   65.19    5.40
  -4   0  11    1.20   43.50
  -4   0  11   51.69    6.30
  -4   0  11   50.09    4.50
  -4   0  11   39.10   21.80
   3   0 -11   13.20    2.70
   3   0 -11   14.10    3.50
   3   0 -11   11.70    4.30
  -3   0  11    7.40   19.20
  -3   0  11    3.60   38.60
  -3   0  11   15.50    4.10
   2   0 -11    3.50    2.30
   2   0 -11    9.70    4.40
   2   0 -11    6.30    2.90
  -2   0  11   10.00   42.20
  -2   0  11    6.80    3.80
  -2   0  11    4.70   19.70
   1   0 -11   28.90    3.90
   1   0 -11   46.00    6.50
   1   0 -11   36.90    3.60
  -1   0  11   33.40    5.30
  -1   0  11   12.90   31.50
  -1   0  11   26.60   22.20
   0   0 -11   36.20    4.10
   0   0 -11   47.30    3.90
   0   0 -11   44.30    6.40
   0   0  11   48.20   47.40
   0   0  11   49.30    6.10
  -1   0 -11   41.50    4.30
  -1   0 -11   48.10    6.80
   1   0  11   42.40   45.70
   1   0  11   52.19    6.00
  -2   0 -11   40.60    6.30
   2   0  11   41.10   44.20
   2   0  11   30.50    5.50
   2   0  11   23.90    4.40
  -3   0 -11    8.00    4.50
   3   0  11   11.20    4.30
   3   0  11   14.10    4.10
  -4   0 -11   33.30    6.10
   4   0  11   29.90    5.80
   4   0  11   24.80    5.10
   6  -1 -11   18.10    4.30
   6  -1 -11   23.50    5.60
   6  -1 -11   20.90    4.00
  -6   1  11   17.30    4.20
   5  -1 -11    7.10    3.90
   5  -1 -11    8.40    3.10
   5  -1 -11    6.40    3.40
  -5   1  11    8.50   17.60
  -5   1  11    7.30    2.70
  -5   1  11    3.30    3.80
   4  -1 -11   32.50    4.20
   4  -1 -11   34.50    4.60
   4  -1 -11   36.70    5.80
  -4   1  11   37.60    5.60
  -4   1  11   26.90   22.00
  -4   1  11   10.80   45.20
   3  -1 -11   16.40    3.50
   3  -1 -11   26.10    3.50
   3  -1 -11   31.20    5.60
  -3   1  11   10.90   18.80
  -3   1  11   18.00   44.50
  -3   1  11   20.30    2.40
  -3   1  11   19.00    4.80
   2  -1 -11   13.60    4.40
   2  -1 -11   20.40    3.60
   2  -1 -11   26.70    3.20
  -2   1  11   16.80    4.70
  -2   1  11   -1.40   30.50
   1  -1 -11    8.30    4.20
   1  -1 -11    6.30    2.20
   1  -1 -11    8.10    2.50
  -1   1  11    0.40    3.80
  -1   1  11   -8.20   36.70
   0  -1 -11   19.90    2.80
   0  -1 -11   16.80    4.30
   0  -1 -11   19.70    3.10
   0   1  11   18.20    3.40
   0   1  11   27.20    5.40
   0   1  11   19.20   41.10
  -1  -1 -11   12.30    2.90
  -1  -1 -11   20.80    5.30
   1   1  11   17.30    4.80
   1   1  11   14.80    3.70
   1   1  11    7.60   30.60
  -2  -1 -11    8.20    4.40
   2   1  11   11.10    4.50
   2   1  11   17.10   42.00
   2   1  11   12.90    3.80
  -3  -1 -11   15.30    5.00
   3   1  11   14.80    4.40
   3   1  11   22.00    5.30
   6  -2 -11   29.70    4.60
   6  -2 -11   33.40    5.80
   6  -2 -11   35.90    5.10
  -6   2  11   27.00    4.60
   5  -2 -11    6.40    3.00
   5  -2 -11    7.60    3.40
   5  -2 -11   10.40    4.30
  -5   2  11   -4.50   46.20
   4  -2 -11   55.99    5.30
   4  -2 -11   36.30    4.60
   4  -2 -11   48.00    6.60
  -4   2  11   51.59    6.70
  -4   2  11   11.90   42.50
  -4   2  11   41.60    4.10
   3  -2 -11   32.90    4.10
   3  -2 -11   47.30    6.60
   3  -2 -11   40.70    4.30
  -3   2  11    5.40   39.90
  -3   2  11   35.00    3.20
  -3   2  11   28.60    5.70
   2  -2 -11   13.50    3.00
   2  -2 -11   12.40    4.00
   2  -2 -11   14.80    3.00
  -2   2  11   11.20    4.60
  -2   2  11   22.10   41.70
   1  -2 -11   20.80    4.60
   1  -2 -11   24.10    3.20
   1  -2 -11   26.20    3.30
  -1   2  11   26.40   43.20
  -1   2  11   25.60    3.60
  -1   2  11   22.70    5.40
   0  -2 -11    9.00    2.50
   0  -2 -11    9.60    4.70
   0   2  11    9.60    4.50
   0   2  11   10.00   30.70
   0   2  11   11.20    3.50
  -1  -2 -11    5.90    4.40
   1   2  11   10.20    3.60
   1   2  11    7.30    3.60
   1   2  11    8.40   40.40
  -2  -2 -11   14.90    5.40
   2   2  11    9.90    4.60
   2   2  11   10.60    3.90
  -3  -2 -11   -2.30    4.20
   3   2  11    3.20    4.40
   3   2  11    0.70    3.60
   5  -3 -11   77.89    6.70
   5  -3 -11   77.39    8.40
   5  -3 -11   66.79    6.40
  -5   3  11   15.60   47.20
   4  -3 -11   15.60    4.30
   4  -3 -11   14.80    3.30
   4  -3 -11   14.20    3.20
  -4   3  11   -9.40   37.70
  -4   3  11    8.30    4.60
  -4   3  11   14.10    2.50
   3  -3 -11   21.90    3.40
   3  -3 -11   35.80    6.20
   3  -3 -11   28.70    3.90
  -3   3  11   27.90    5.70
  -3   3  11    2.60   40.50
   2  -3 -11    9.50    3.80
   2  -3 -11    2.80    2.40
  -2   3  11   11.00    4.00
  -2   3  11   -7.30   38.70
   1  -3 -11   11.20    3.90
   1  -3 -11    8.20    2.60
  -1   3  11    7.80    2.90
  -1   3  11  -16.10   36.20
  -1   3  11    3.60    4.40
   0  -3 -11    1.10    2.50
   0  -3 -11   -2.80    4.00
   0   3  11    1.40    2.90
   0   3  11    5.00    4.50
   0   3  11   -2.80   27.10
  -1  -3 -11   20.30    5.10
   1   3  11   17.70   42.50
   1   3  11   21.20    5.60
   1   3  11   20.90    4.30
  -2  -3 -11    5.30    4.90
   2   3  11    4.00    3.80
   5  -4 -11   35.50    6.30
   5  -4 -11   31.40    4.80
  -5   4  11   -4.80   46.60
   4  -4 -11   22.90    5.60
   4  -4 -11   19.30    3.70
  -4   4  11    6.00   43.60
  -4   4  11   18.30    3.10
  -4   4  11    9.30    5.10
   3  -4 -11   31.30    6.20
   3  -4 -11   43.00    4.90
  -3   4  11   24.50   46.80
  -3   4  11   38.10    6.60
   2  -4 -11    7.10    4.70
   2  -4 -11    8.00    2.90
  -2   4  11   -7.80   35.50
  -2   4  11    9.80    5.10
   1  -4 -11   12.30    5.10
   1  -4 -11   15.70    3.20
  -1   4  11   30.90   45.10
  -1   4  11   15.80    3.60
  -1   4  11   11.70    5.10
   0  -4 -11    2.80    3.60
   0  -4 -11    8.80    4.90
   0   4  11    5.30   41.50
   0   4  11    7.80    4.90
   0   4  11    1.20    3.30
   0   7 -12   11.90    3.10
   0   7 -12   17.90    4.20
   0  -7  12   16.80   46.00
   0  -7  12    8.80   19.50
  -1   7 -12   42.40    6.20
   1  -7  12   39.80    5.60
   1  -7  12   21.60   28.80
   1  -7  12   15.10   46.30
  -2   7 -12   47.70    6.40
   2  -7  12   45.20    6.00
   2  -7  12   25.70   27.80
   2  -7  12   45.20   47.50
  -3   7 -12   64.69    7.40
   3  -7  12   61.69   53.09
   3  -7  12   56.69    6.80
   3  -7  12   25.00   30.40
   2   6 -12   15.40    3.50
   2   6 -12   12.20    4.60
  -2  -6  12    1.90   34.70
  -2  -6  12    9.10   20.00
   1   6 -12   16.00    3.20
   1   6 -12   19.10    4.70
  -1  -6  12    8.50   25.60
  -1  -6  12    6.90   45.40
   0   6 -12   26.00    4.50
   0   6 -12   23.80    3.40
   0  -6  12   13.70   26.80
   0  -6  12    9.40   43.90
  -1   6 -12   31.70    5.30
   1  -6  12   31.30   45.90
   1  -6  12   22.50   22.20
  -2   6 -12   78.89    7.90
   2  -6  12   84.69   54.99
   2  -6  12   68.99   32.20
  -3   6 -12    8.30    3.10
   3  -6  12   -2.50   39.90
   3  -6  12  -10.20   25.30
  -4   6 -12    0.50    3.40
   4  -6  12   -2.80   21.10
   3   5 -12   23.70    3.80
   3   5 -12   16.90    4.80
  -3  -5  12    0.70   25.00
  -3  -5  12   11.40   49.40
   2   5 -12   48.30    5.10
   2   5 -12   58.39    6.50
  -2  -5  12   51.79   28.40
  -2  -5  12   18.00   46.80
   1   5 -12   18.00    3.20
   1   5 -12   21.30    4.10
  -1  -5  12   27.30   45.60
  -1  -5  12    2.30   24.20
   0   5 -12   38.90    5.40
   0   5 -12   25.20    3.20
   0  -5  12   29.40   39.40
   0  -5  12   54.89   29.30
  -1   5 -12   11.40    4.00
   1  -5  12    0.30   41.60
   1  -5  12   23.20   26.60
  -2   5 -12   43.20    5.60
   2  -5  12   36.20   29.30
   2  -5  12   43.00   47.60
  -3   5 -12   19.30    4.20
   3  -5  12   40.50   45.90
   3  -5  12    2.80   26.40
  -4   5 -12   58.19    6.50
   4  -5  12   44.50   32.90
   3   4 -12   15.50    3.40
   3   4 -12   10.30    4.30
  -3  -4  12    5.50   44.80
  -3  -4  12   23.50   25.70
   2   4 -12   46.40    4.50
   2   4 -12   41.50    5.80
  -2  -4  12   35.60   26.20
  -2  -4  12   18.40   37.30
   1   4 -12   20.90    3.20
   1   4 -12   16.90    4.30
  -1  -4  12   16.30   23.60
  -1  -4  12   18.20    3.40
  -1  -4  12    3.60   31.40
   0   4 -12   18.10    2.80
   0   4 -12   18.90    4.20
   0  -4  12   27.70    4.30
   0  -4  12   14.00   25.10
   0  -4  12   32.30   46.30
  -1   4 -12    5.50    3.30
   1  -4  12   -5.50   41.00
   1  -4  12    8.30   24.20
  -2   4 -12   73.29    7.00
   2  -4  12   60.39   45.60
   2  -4  12   44.10   29.90
  -3   4 -12   23.50    4.20
   3  -4  12   37.60   47.70
   3  -4  12   15.90   26.90
  -4   4 -12   21.00    4.10
  -4   4 -12   17.80    3.90
  -4   4 -12   24.10    5.80
   4   3 -12  107.39    7.70
   4   3 -12  117.29    9.20
  -4  -3  12  101.99    7.20
  -4  -3  12   18.90   52.39
  -4  -3  12   82.29   31.80
   3   3 -12    7.00    2.70
   3   3 -12    5.50    2.90
  -3  -3  12    7.10   22.90
  -3  -3  12    2.80   45.30
   2   3 -12   59.19    6.40
   2   3 -12   51.79    5.10
  -2  -3  12   63.49   28.90
  -2  -3  12   37.80   50.79
  -2  -3  12   60.29    5.80
   1   3 -12   18.60    2.80
   1   3 -12   17.40    4.00
  -1  -3  12   12.90   24.60
  -1  -3  12   26.80   46.30
  -1  -3  12   13.80    3.50
   0   3 -12   33.50    3.50
   0   3 -12   33.40    4.80
   0  -3  12   33.70   26.80
   0  -3  12   37.10    5.20
   0  -3  12   26.20   48.40
  -1   3 -12   61.19    6.00
   1  -3  12   39.70   40.00
   1  -3  12   54.69    6.20
   1  -3  12   35.90   27.40
  -2   3 -12   16.20    5.40
  -2   3 -12   29.30    4.50
   2  -3  12   24.90   44.30
   2  -3  12   20.80   26.60
   2  -3  12   22.00    4.70
  -3   3 -12   48.00    7.30
  -3   3 -12   54.39    5.80
   3  -3  12   60.79   45.80
  -4   3 -12   17.60    3.30
  -4   3 -12   18.80    4.30
  -4   3 -12   16.20    4.10
  -4   3 -12   19.80    5.50
   4   2 -12   93.99    6.70
   4   2 -12   73.09    7.50
  -4  -2  12   86.69   28.40
  -4  -2  12   33.00   41.70
   3   2 -12   72.99    5.60
   3   2 -12   55.29    6.40
  -3  -2  12   70.79   28.10
  -3  -2  12   61.99    6.10
  -3  -2  12    1.90   47.20
   2   2 -12   27.30    3.50
   2   2 -12   22.30    4.40
  -2  -2  12    7.70   22.20
  -2  -2  12   19.10    4.40
  -2  -2  12   19.60   36.80
   1   2 -12   64.29    4.80
   1   2 -12   55.89    6.10
  -1  -2  12   63.79    6.40
  -1  -2  12   33.50   39.40
  -1  -2  12   61.39   27.90
   0   2 -12   38.80    3.90
   0   2 -12   41.00    4.90
   0   2 -12   38.30    6.70
   0  -2  12   44.60    5.60
   0  -2  12   20.20   45.80
   0  -2  12    9.10   24.20
  -1   2 -12   19.70    3.90
  -1   2 -12   17.00    4.40
   1  -2  12   15.80    4.30
   1  -2  12   16.50   35.00
   1  -2  12   17.60   20.80
  -2   2 -12   23.90    3.80
  -2   2 -12   18.00    5.40
   2  -2  12   12.80   44.80
   2  -2  12   26.50    5.20
  -3   2 -12  118.69    7.60
  -3   2 -12   91.79    7.50
  -3   2 -12  103.59    9.70
   3  -2  12  124.79    9.60
   3  -2  12  122.49   57.29
  -4   2 -12    2.80    3.80
  -4   2 -12   -0.90    4.00
  -4   2 -12    2.10    2.60
  -4   2 -12    3.90    3.10
   5   1 -12   55.79    7.40
   5   1 -12   38.40    5.70
  -5  -1  12   48.40    5.20
  -5  -1  12   37.70   25.20
   4   1 -12   71.49    8.30
   4   1 -12   65.49    6.90
   4   1 -12   78.89    6.10
  -4  -1  12   60.49   28.50
  -4  -1  12   33.00   51.99
  -4  -1  12   60.49    6.60
   3   1 -12   80.19    6.20
   3   1 -12   87.69    9.20
   3   1 -12   70.99    6.90
  -3  -1  12   79.99    7.20
  -3  -1  12   52.19   25.60
  -3  -1  12   24.30   38.40
   2   1 -12    6.40    2.40
   2   1 -12   10.10    3.80
   2   1 -12   11.10    4.70
  -2  -1  12   -0.40   32.00
  -2  -1  12   10.40    3.90
  -2  -1  12    5.50   22.30
   1   1 -12   28.50    4.30
   1   1 -12   30.00    3.50
   1   1 -12   22.70    5.40
  -1  -1  12   31.20    5.10
  -1  -1  12   20.00   37.10
  -1  -1  12   54.39   27.20
   0   1 -12   -0.40    3.90
   0   1 -12    3.20    2.60
   0  -1  12   -6.50   21.20
   0  -1  12   -1.00   43.50
   0  -1  12    3.30    3.60
  -1   1 -12   62.29    7.80
  -1   1 -12   70.89    6.40
   1  -1  12   84.69    8.10
   1  -1  12   50.19   41.70
  -2   1 -12    7.20    4.60
  -2   1 -12    1.80    2.80
   2  -1  12    2.40   42.50
   2  -1  12    3.30    3.90
  -3   1 -12   90.79    8.50
   3  -1  12   93.09   51.09
   3  -1  12   90.69    8.90
   5   0 -12   29.90    5.10
   5   0 -12   32.60    4.60
   5   0 -12   27.60    5.60
  -5   0  12   25.60    4.00
  -5   0  12   31.20    5.10
  -5   0  12   -8.30   49.00
  -5   0  12   23.00   41.40
   4   0 -12   23.30    3.80
   4   0 -12   26.20    5.50
   4   0 -12   24.40    4.50
  -4   0  12   29.10    5.60
  -4   0  12   22.20   21.10
  -4   0  12    3.50   47.50
   3   0 -12   58.89    5.40
   3   0 -12   56.79    7.60
   3   0 -12   50.59    5.70
  -3   0  12   71.69   27.10
  -3   0  12   63.09    6.90
  -3   0  12   16.90   47.60
   2   0 -12   22.80    5.40
   2   0 -12   19.10    3.10
   2   0 -12   17.80    4.00
  -2   0  12   15.30    4.70
  -2   0  12    8.80   33.80
  -2   0  12   22.20   22.20
   1   0 -12   80.09    9.00
   1   0 -12   74.59    6.20
   1   0 -12   81.19    5.90
  -1   0  12   84.09    8.30
  -1   0  12   68.29   53.49
   0   0 -12   12.90    5.00
   0   0 -12    7.60    3.00
   0   0  12    2.40    3.90
   0   0  12    2.90   41.40
  -1   0 -12   81.39    6.30
  -1   0 -12   80.19    9.10
   1   0  12   73.59   53.69
   1   0  12   84.49    8.50
  -2   0 -12   11.90    4.30
   2   0  12   11.60    4.60
   2   0  12   13.50   44.30
  -3   0 -12   53.29    8.00
   3   0  12   62.99    7.90
  -5   1  12    8.80   50.59
   4  -1 -12    1.90    4.00
   4  -1 -12    4.50    3.60
   4  -1 -12    6.60    2.90
  -4   1  12    6.30    4.30
  -4   1  12   -4.30   44.30
   3  -1 -12  104.69    9.50
   3  -1 -12  108.39    8.00
   3  -1 -12   99.39    7.20
  -3   1  12   54.69   54.69
  -3   1  12  104.29    9.20
   2  -1 -12   29.90    3.90
   2  -1 -12   34.10    4.50
   2  -1 -12   36.40    6.30
  -2   1  12   -1.00   45.30
  -2   1  12   23.10    5.50
   1  -1 -12   18.10    5.20
   1  -1 -12   25.20    3.40
   1  -1 -12   21.90    3.80
  -1   1  12   38.10   48.00
  -1   1  12   21.60    5.20
   0  -1 -12   16.90    5.30
   0   1  12   23.60    5.40
   0   1  12   30.10   45.70
  -1  -1 -12   37.30    6.80
   1   1  12   40.60    6.30
   1   1  12   34.40    4.80
   1   1  12   36.60   49.90
  -2  -1 -12   31.80    6.40
   2   1  12   41.50   42.70
   2   1  12   28.50    6.00
   2   1  12   18.10    4.50
   4  -2 -12   46.00    5.10
   4  -2 -12   48.50    5.20
   4  -2 -12   55.39    7.30
  -4   2  12   21.10   48.40
  -4   2  12   38.90    6.60
   3  -2 -12   88.39    6.60
   3  -2 -12   86.79    9.10
  -3   2  12   89.39    9.10
  -3   2  12   28.70   39.40
   2  -2 -12   43.40    4.70
   2  -2 -12   43.10    6.70
  -2   2  12    5.50   44.70
  -2   2  12   44.70    7.10
   1  -2 -12   12.70    5.00
   1  -2 -12   14.50    3.20
  -1   2  12   21.20    5.60
  -1   2  12    2.20   44.10
   0  -2 -12   31.30    6.70
   0   2  12   28.00    4.20
   0   2  12   27.70   38.80
   0   2  12   26.20    5.80
  -1  -2 -12   37.40    7.00
   1   2  12   53.89    6.30
   1   2  12   42.30    6.40
   1   2  12   33.20   48.20
   3  -3 -12   57.09    7.50
   3  -3 -12   59.69    5.70
  -3   3  12   38.70    6.90
  -3   3  12   40.10   51.89
   2  -3 -12   33.50    4.20
   2  -3 -12   31.60    6.50
  -2   3  12   23.90    6.10
  -2   3  12   18.50   37.20
   1  -3 -12   15.50    4.00
   1  -3 -12   16.20    5.60
  -1   3  12    1.20   43.10
  -1   3  12   18.30    5.50
   1   5 -13    4.40    2.40
   1   5 -13    8.90    4.20
  -1  -5  13    8.90   47.90
  -1  -5  13    8.20   26.70
   0   5 -13    2.30    3.60
   0  -5  13   -7.50   42.40
   0  -5  13   -1.20   26.40
  -1   5 -13   37.20    5.50
   1  -5  13   45.70   52.19
   1  -5  13    5.10   21.00
  -2   5 -13    5.60    3.80
   2  -5  13    9.60   45.50
   2  -5  13    4.40   28.50
   2   4 -13   -0.40    2.70
   2   4 -13   -3.70    3.30
  -2  -4  13   -9.80   24.70
  -2  -4  13   24.60   53.49
   1   4 -13   20.40    4.60
   1   4 -13   15.60    3.30
  -1  -4  13    3.70   48.80
  -1  -4  13   28.40   23.20
   0   4 -13   17.30    3.80
   0  -4  13    4.00   44.80
   0  -4  13   17.00    3.70
   0  -4  13   -1.60   19.10
  -1   4 -13   29.40    4.90
   1  -4  13   -2.80   42.30
   1  -4  13   25.10   28.80
  -2   4 -13   12.70    4.30
   2  -4  13   18.30   29.20
   2  -4  13   10.30   47.50
   2   3 -13    6.20    2.80
   2   3 -13    0.40    3.40
  -2  -3  13   11.50   45.20
  -2  -3  13   -9.60   24.20
   1   3 -13   22.10    4.60
  -1  -3  13   28.70   40.30
  -1  -3  13   23.00    4.10
  -1  -3  13   13.30   26.30
   0   3 -13   10.60    3.80
   0  -3  13    9.50   35.20
   0  -3  13   11.60    3.90
   0  -3  13    3.90   26.30
  -1   3 -13   10.00    5.20
  -1   3 -13   15.90    3.80
   1  -3  13    2.70   26.60
   1  -3  13   17.80   38.90
   1  -3  13   18.70    5.10
  -2   3 -13   17.80    5.70
  -2   3 -13   25.80    4.70
   2  -3  13   15.40   23.30
   2  -3  13    5.10   45.60
   2  -3  13   15.70    4.70
   3   2 -13   12.20    3.20
   3   2 -13   16.20    4.50
  -3  -2  13    1.40   24.10
  -3  -2  13   17.30   41.10
   2   2 -13   11.10    4.00
   2   2 -13   16.80    3.10
   2   2 -13   14.10    5.40
  -2  -2  13    8.10   47.60
  -2  -2  13   15.50    4.40
  -2  -2  13   21.40   26.30
   1   2 -13    4.30    3.60
   1   2 -13    5.60    3.40
  -1  -2  13   -0.40    3.40
  -1  -2  13    3.70   24.40
  -1  -2  13   -4.00   43.80
   0   2 -13   17.40    3.90
   0   2 -13   11.40    4.30
   0  -2  13   15.00    4.60
   0  -2  13   11.90   46.20
   0  -2  13   13.30   25.80
  -1   2 -13    7.50    5.00
  -1   2 -13    4.20    3.50
   1  -2  13   13.70    4.40
   1  -2  13   10.80   34.30
  -2   2 -13  170.98   12.40
  -2   2 -13  165.38   10.60
   2  -2  13  135.79   61.59
   2  -2  13  161.78   12.00
   3   1 -13   33.90    4.20
   3   1 -13   27.60    6.30
   3   1 -13   18.20    4.50
  -3  -1  13    2.70   37.00
  -3  -1  13   26.20   26.00
  -3  -1  13   27.40    5.20
   2   1 -13   14.60    3.10
   2   1 -13   21.20    5.90
   2   1 -13   17.10    4.50
  -2  -1  13    6.30   48.20
  -2  -1  13   18.00   25.50
  -2  -1  13   14.00    4.50
   1   1 -13    3.40    3.10
   1   1 -13    5.30    4.60
  -1  -1  13   16.70   25.50
  -1  -1  13   17.50   49.99
  -1  -1  13   11.50    4.50
   0   1 -13   87.59    9.60
   0   1 -13   63.99    6.50
   0  -1  13   72.99    7.90
   0  -1  13   56.49   55.89
  -1   1 -13   41.60    7.40
  -1   1 -13   46.40    5.30
   1  -1  13   49.80   45.10
   1  -1  13   45.60    6.70
   3   0 -13   33.70    5.00
   3   0 -13   29.40    6.50
  -3   0  13   26.40   28.80
  -3   0  13    6.00   37.70
   2   0 -13   31.90    4.10
   2   0 -13   31.60    4.60
   2   0 -13   29.20    6.40
  -2   0  13   45.30    6.70
  -2   0  13   25.00   51.49
   1   0 -13   30.10    4.80
   1   0 -13   34.60    6.60
  -1   0  13   23.40   48.50
  -1   0  13   35.40    6.20
   0   0 -13   30.20    6.30
   0   0  13   32.00    6.10
   0   0  13   23.80   49.20
  -1   0 -13    7.50    4.80
   1   0  13   15.70   38.50
   2  -1 -13   14.90    5.50
  -2   1  13   10.50   38.20
   1  -1 -13    0.40    4.50
  -1   1  13   -4.40   33.70

_computing_structure_solution     'SHELXT 2014/4 (Sheldrick, 2014)'
;
_shelx_hkl_checksum              84343
loop_
_space_group_symop_operation_xyz
'x, y, z'
loop_
_atom_site_label
_atom_site_type_symbol
_atom_site_fract_x
_atom_site_fract_y
_atom_site_fract_z
_atom_site_U_iso_or_equiv
_atom_site_adp_type
_atom_site_occupancy
_atom_site_site_symmetry_order
_atom_site_calc_flag
_atom_site_refinement_flags_posn
_atom_site_refinement_flags_adp
_atom_site_refinement_flags_occupancy
_atom_site_disorder_assembly
_atom_site_disorder_group
P1 P 0.69874(8) 0.49686(8) 0.27357(7) 0.01853(16) Uani 1 1 d . . . . .
P2 P 0.67813(8) 0.47416(8) 0.51823(7) 0.01789(16) Uani 1 1 d . . . . .
N1 N 0.7871(3) 0.4676(3) 0.3948(2) 0.0214(5) Uani 1 1 d . . . . .
C1 C 0.5039(3) 0.5217(3) 0.3313(3) 0.0185(6) Uani 1 1 d . . . . .
C2 C 0.4947(3) 0.5129(3) 0.4598(3) 0.0174(6) Uani 1 1 d . . . . .
C3 C 0.3582(3) 0.5364(3) 0.5253(3) 0.0227(6) Uani 1 1 d . . . . .
H3 H 0.3516 0.5319 0.6129 0.027 Uiso 1 1 calc R U . . .
C4 C 0.2331(4) 0.5663(4) 0.4596(3) 0.0260(6) Uani 1 1 d . . . . .
H4 H 0.1402 0.5836 0.5030 0.031 Uiso 1 1 calc R U . . .
C5 C 0.2412(4) 0.5715(4) 0.3308(3) 0.0291(7) Uani 1 1 d . . . . .
H5 H 0.1520 0.5895 0.2869 0.035 Uiso 1 1 calc R U . . .
C6 C 0.3772(4) 0.5507(4) 0.2660(3) 0.0245(6) Uani 1 1 d . . . . .
H6 H 0.3838 0.5562 0.1786 0.029 Uiso 1 1 calc R U . . .
C7 C 0.8218(4) 0.6601(4) 0.2067(3) 0.0228(6) Uani 1 1 d . . . . .
C8 C 0.8150(4) 0.6016(4) 0.0805(3) 0.0290(7) Uani 1 1 d . . . . .
H8 H 0.8647 0.6664 0.0233 0.035 Uiso 1 1 calc R U . . .
C9 C 0.7270(4) 0.4326(4) 0.0360(3) 0.0289(7) Uani 1 1 d . . . . .
H9 H 0.7199 0.3815 -0.0513 0.035 Uiso 1 1 calc R U . . .
C10 C 0.6568(4) 0.3536(4) 0.1248(3) 0.0221(6) Uani 1 1 d . . . . .
C11 C 0.8973(4) 0.8237(4) 0.2778(3) 0.0264(7) Uani 1 1 d . . . . .
C12 C 0.9739(4) 0.8649(4) 0.4044(3) 0.0341(8) Uani 1 1 d . . . . .
H12 H 0.9731 0.7862 0.4467 0.041 Uiso 1 1 calc R U . . .
C13 C 1.0505(5) 1.0192(5) 0.4680(4) 0.0488(10) Uani 1 1 d . . . . .
H13 H 1.1040 1.0468 0.5535 0.059 Uiso 1 1 calc R U . . .
C14 C 1.0498(5) 1.1339(4) 0.4077(5) 0.0538(11) Uani 1 1 d . . . . .
H14 H 1.1014 1.2401 0.4524 0.065 Uiso 1 1 calc R U . . .
C15 C 0.9744(5) 1.0951(5) 0.2828(5) 0.0515(11) Uani 1 1 d . . . . .
H15 H 0.9756 1.1745 0.2413 0.062 Uiso 1 1 calc R U . . .
C16 C 0.8979(4) 0.9415(4) 0.2188(4) 0.0372(8) Uani 1 1 d . . . . .
H16 H 0.8446 0.9151 0.1333 0.045 Uiso 1 1 calc R U . . .
C17 C 0.5689(4) 0.1843(4) 0.1097(3) 0.0242(7) Uani 1 1 d . . . . .
C18 C 0.4387(4) 0.1208(4) 0.1855(3) 0.0334(7) Uani 1 1 d . . . . .
H18 H 0.4064 0.1881 0.2496 0.040 Uiso 1 1 calc R U . . .
C19 C 0.3554(5) -0.0383(4) 0.1693(4) 0.0409(9) Uani 1 1 d . . . . .
H19 H 0.2658 -0.0801 0.2214 0.049 Uiso 1 1 calc R U . . .
C20 C 0.4030(5) -0.1361(4) 0.0772(3) 0.0390(9) Uani 1 1 d . . . . .
H20 H 0.3470 -0.2457 0.0666 0.047 Uiso 1 1 calc R U . . .
C21 C 0.5308(5) -0.0762(4) 0.0006(4) 0.0387(8) Uani 1 1 d . . . . .
H21 H 0.5611 -0.1446 -0.0639 0.046 Uiso 1 1 calc R U . . .
C22 C 0.6159(4) 0.0834(4) 0.0166(3) 0.0313(7) Uani 1 1 d . . . . .
H22 H 0.7059 0.1243 -0.0355 0.038 Uiso 1 1 calc R U . . .
C23 C 0.8004(4) 0.6288(3) 0.6526(3) 0.0203(6) Uani 1 1 d . . . . .
C24 C 0.9332(4) 0.6124(4) 0.7228(3) 0.0255(6) Uani 1 1 d . . . . .
H24 H 0.9479 0.5160 0.7068 0.031 Uiso 1 1 calc R U . . .
C25 C 1.0445(4) 0.7383(4) 0.8164(3) 0.0312(7) Uani 1 1 d . . . . .
H25 H 1.1368 0.7283 0.8638 0.037 Uiso 1 1 calc R U . . .
C26 C 1.0216(4) 0.8781(4) 0.8410(3) 0.0328(7) Uani 1 1 d . . . . .
H26 H 1.0977 0.9636 0.9054 0.039 Uiso 1 1 calc R U . . .
C27 C 0.8885(4) 0.8935(4) 0.7722(3) 0.0343(8) Uani 1 1 d . . . . .
H27 H 0.8724 0.9894 0.7898 0.041 Uiso 1 1 calc R U . . .
C28 C 0.7786(4) 0.7699(4) 0.6778(3) 0.0296(7) Uani 1 1 d . . . . .
H28 H 0.6877 0.7812 0.6299 0.036 Uiso 1 1 calc R U . . .
C29 C 0.6104(4) 0.2937(3) 0.5675(3) 0.0213(6) Uani 1 1 d . . . . .
C30 C 0.6332(5) 0.1668(4) 0.4902(3) 0.0341(8) Uani 1 1 d . . . . .
H30 H 0.6883 0.1772 0.4136 0.041 Uiso 1 1 calc R U . . .
C31 C 0.5755(6) 0.0259(4) 0.5249(4) 0.0464(10) Uani 1 1 d . . . . .
H31 H 0.5903 -0.0611 0.4721 0.056 Uiso 1 1 calc R U . . .
C32 C 0.4959(5) 0.0110(4) 0.6367(4) 0.0415(9) Uani 1 1 d . . . . .
H32 H 0.4564 -0.0864 0.6602 0.050 Uiso 1 1 calc R U . . .
C33 C 0.4734(4) 0.1358(4) 0.7142(4) 0.0330(8) Uani 1 1 d . . . . .
H33 H 0.4189 0.1247 0.7909 0.040 Uiso 1 1 calc R U . . .
C34 C 0.5306(4) 0.2782(4) 0.6798(3) 0.0252(6) Uani 1 1 d . . . . .
H34 H 0.5152 0.3647 0.7329 0.030 Uiso 1 1 calc R U . . .
P3 P 0.14904(10) 0.36351(9) 0.89286(8) 0.02499(18) Uani 1 1 d . . . . .
F1 F 0.1229(2) 0.4944(2) 1.00068(19) 0.0394(5) Uani 1 1 d . . . . .
F2 F 0.2154(3) 0.4837(3) 0.8031(2) 0.0509(6) Uani 1 1 d . . . . .
F3 F 0.3471(3) 0.4177(3) 0.9523(2) 0.0537(6) Uani 1 1 d . . . . .
F4 F 0.0817(3) 0.2445(3) 0.9830(2) 0.0561(6) Uani 1 1 d . . . . .
F5 F -0.0487(2) 0.3103(3) 0.8315(2) 0.0449(5) Uani 1 1 d . . . . .
F6 F 0.1741(3) 0.2322(3) 0.7853(2) 0.0513(6) Uani 1 1 d . . . . .
loop_
_atom_site_aniso_label
_atom_site_aniso_U_11
_atom_site_aniso_U_22
_atom_site_aniso_U_33
_atom_site_aniso_U_23
_atom_site_aniso_U_13
_atom_site_aniso_U_12
P1 0.0166(3) 0.0219(4) 0.0170(4) 0.0041(3) 0.0033(3) 0.0076(3)
P2 0.0166(3) 0.0216(4) 0.0168(4) 0.0051(3) 0.0007(3) 0.0085(3)
N1 0.0175(11) 0.0270(13) 0.0209(13) 0.0048(11) 0.0024(9) 0.0103(10)
C1 0.0155(12) 0.0187(14) 0.0195(15) 0.0017(11) 0.0020(10) 0.0060(10)
C2 0.0150(12) 0.0162(14) 0.0194(15) 0.0036(11) 0.0006(10) 0.0046(10)
C3 0.0198(13) 0.0237(15) 0.0239(16) 0.0052(13) 0.0063(12) 0.0074(11)
C4 0.0193(13) 0.0302(16) 0.0333(18) 0.0099(14) 0.0072(12) 0.0132(12)
C5 0.0212(14) 0.0345(18) 0.0336(19) 0.0063(15) -0.0016(13) 0.0139(13)
C6 0.0252(14) 0.0306(16) 0.0200(15) 0.0091(13) 0.0005(12) 0.0115(12)
C7 0.0176(13) 0.0280(16) 0.0247(16) 0.0104(13) 0.0062(11) 0.0083(12)
C8 0.0301(16) 0.0346(18) 0.0246(17) 0.0127(14) 0.0108(13) 0.0116(14)
C9 0.0321(16) 0.0355(18) 0.0205(16) 0.0044(14) 0.0072(13) 0.0156(14)
C10 0.0195(13) 0.0259(15) 0.0204(16) 0.0021(12) 0.0034(11) 0.0100(12)
C11 0.0186(13) 0.0254(16) 0.0341(18) 0.0082(14) 0.0090(12) 0.0062(12)
C12 0.0305(16) 0.0280(18) 0.035(2) 0.0058(15) 0.0038(14) 0.0024(14)
C13 0.039(2) 0.042(2) 0.047(2) -0.0016(18) -0.0004(17) 0.0008(17)
C14 0.042(2) 0.0216(19) 0.081(3) 0.0005(19) 0.007(2) 0.0001(16)
C15 0.047(2) 0.030(2) 0.080(3) 0.020(2) 0.009(2) 0.0124(17)
C16 0.0345(18) 0.031(2) 0.047(2) 0.0135(17) 0.0045(16) 0.0119(14)
C17 0.0210(14) 0.0275(17) 0.0221(16) 0.0021(13) -0.0034(12) 0.0092(12)
C18 0.0287(16) 0.0339(18) 0.0324(19) 0.0056(15) 0.0067(14) 0.0072(14)
C19 0.0323(18) 0.037(2) 0.047(2) 0.0159(18) 0.0028(16) 0.0023(15)
C20 0.0407(19) 0.0244(17) 0.044(2) 0.0053(16) -0.0166(16) 0.0053(14)
C21 0.050(2) 0.0297(18) 0.037(2) -0.0008(16) -0.0048(17) 0.0205(16)
C22 0.0357(17) 0.0300(17) 0.0277(17) 0.0036(14) 0.0014(13) 0.0139(14)
C23 0.0220(14) 0.0231(14) 0.0150(14) 0.0049(12) 0.0022(11) 0.0075(11)
C24 0.0273(15) 0.0252(15) 0.0226(16) 0.0083(13) 0.0005(12) 0.0074(12)
C25 0.0306(16) 0.0357(18) 0.0229(17) 0.0091(14) -0.0062(13) 0.0071(14)
C26 0.0346(17) 0.0292(17) 0.0241(17) 0.0023(14) -0.0024(13) 0.0028(13)
C27 0.0372(18) 0.0263(17) 0.036(2) 0.0009(15) 0.0038(15) 0.0110(14)
C28 0.0303(16) 0.0289(18) 0.0303(19) 0.0029(14) -0.0013(14) 0.0143(14)
C29 0.0193(13) 0.0243(15) 0.0234(16) 0.0080(13) -0.0006(12) 0.0107(12)
C30 0.049(2) 0.0325(18) 0.0308(19) 0.0086(15) 0.0088(15) 0.0256(16)
C31 0.071(3) 0.031(2) 0.047(2) 0.0075(17) 0.006(2) 0.0316(19)
C32 0.045(2) 0.0293(19) 0.056(3) 0.0198(18) 0.0045(18) 0.0156(16)
C33 0.0297(16) 0.0361(19) 0.040(2) 0.0200(16) 0.0033(14) 0.0143(14)
C34 0.0278(15) 0.0275(16) 0.0263(17) 0.0105(13) 0.0057(13) 0.0149(13)
P3 0.0248(4) 0.0264(4) 0.0241(4) 0.0028(3) 0.0018(3) 0.0118(3)
F1 0.0377(11) 0.0322(11) 0.0398(12) -0.0072(9) 0.0095(9) 0.0121(9)
F2 0.0537(13) 0.0608(15) 0.0508(15) 0.0341(12) 0.0228(11) 0.0239(12)
F3 0.0331(11) 0.0807(17) 0.0442(13) -0.0030(12) -0.0075(9) 0.0281(11)
F4 0.0740(16) 0.0521(15) 0.0559(16) 0.0310(13) 0.0179(13) 0.0293(13)
F5 0.0269(9) 0.0607(14) 0.0384(12) 0.0001(10) -0.0022(8) 0.0132(9)
F6 0.0467(12) 0.0455(13) 0.0531(14) -0.0123(11) 0.0097(10) 0.0202(10)
loop_
_atom_type_symbol
_atom_type_description
_atom_type_scat_dispersion_real
_atom_type_scat_dispersion_imag
_atom_type_scat_source
C C 0.0033 0.0016 'International Tables Vol C Tables 4.2.6.8 and 6.1.1.4'
H H 0.0000 0.0000 'International Tables Vol C Tables 4.2.6.8 and 6.1.1.4'
F F 0.0171 0.0103 'International Tables Vol C Tables 4.2.6.8 and 6.1.1.4'
N N 0.0061 0.0033 'International Tables Vol C Tables 4.2.6.8 and 6.1.1.4'
P P 0.1023 0.0942 'International Tables Vol C Tables 4.2.6.8 and 6.1.1.4'
loop_
_geom_angle_atom_site_label_1
_geom_angle_atom_site_label_2
_geom_angle_atom_site_label_3
_geom_angle
_geom_angle_site_symmetry_1
_geom_angle_site_symmetry_3
_geom_angle_publ_flag
N1 P1 C10 116.91(13) . . ?
N1 P1 C1 103.10(12) . . ?
C10 P1 C1 114.03(13) . . ?
N1 P1 C7 119.33(13) . . ?
C10 P1 C7 94.84(14) . . ?
C1 P1 C7 108.95(13) . . ?
N1 P1 P2 33.75(8) . . ?
C10 P1 P2 132.46(10) . . ?
C1 P1 P2 69.35(9) . . ?
C7 P1 P2 130.35(11) . . ?
N1 P2 C29 110.60(13) . . ?
N1 P2 C23 113.14(13) . . ?
C29 P2 C23 108.50(14) . . ?
N1 P2 C2 102.64(12) . . ?
C29 P2 C2 112.91(12) . . ?
C23 P2 C2 109.03(13) . . ?
N1 P2 P1 33.42(8) . . ?
C29 P2 P1 124.01(10) . . ?
C23 P2 P1 123.93(10) . . ?
C2 P2 P1 69.22(9) . . ?
P1 N1 P2 112.83(13) . . ?
C6 C1 C2 121.0(3) . . ?
C6 C1 P1 128.2(2) . . ?
C2 C1 P1 110.72(19) . . ?
C3 C2 C1 120.1(3) . . ?
C3 C2 P2 129.2(2) . . ?
C1 C2 P2 110.7(2) . . ?
C4 C3 C2 118.4(3) . . ?
C4 C3 H3 120.8 . . ?
C2 C3 H3 120.8 . . ?
C3 C4 C5 121.1(3) . . ?
C3 C4 H4 119.5 . . ?
C5 C4 H4 119.5 . . ?
C6 C5 C4 120.8(3) . . ?
C6 C5 H5 119.6 . . ?
C4 C5 H5 119.6 . . ?
C5 C6 C1 118.6(3) . . ?
C5 C6 H6 120.7 . . ?
C1 C6 H6 120.7 . . ?
C8 C7 C11 128.6(3) . . ?
C8 C7 P1 106.0(2) . . ?
C11 C7 P1 125.3(2) . . ?
C7 C8 C9 116.4(3) . . ?
C7 C8 H8 121.8 . . ?
C9 C8 H8 121.8 . . ?
C10 C9 C8 116.5(3) . . ?
C10 C9 H9 121.7 . . ?
C8 C9 H9 121.7 . . ?
C9 C10 C17 128.6(3) . . ?
C9 C10 P1 106.2(2) . . ?
C17 C10 P1 125.3(2) . . ?
C16 C11 C12 118.7(3) . . ?
C16 C11 C7 120.4(3) . . ?
C12 C11 C7 120.9(3) . . ?
C13 C12 C11 120.2(4) . . ?
C13 C12 H12 119.9 . . ?
C11 C12 H12 119.9 . . ?
C12 C13 C14 120.2(4) . . ?
C12 C13 H13 119.9 . . ?
C14 C13 H13 119.9 . . ?
C13 C14 C15 120.4(4) . . ?
C13 C14 H14 119.8 . . ?
C15 C14 H14 119.8 . . ?
C16 C15 C14 119.8(4) . . ?
C16 C15 H15 120.1 . . ?
C14 C15 H15 120.1 . . ?
C15 C16 C11 120.8(4) . . ?
C15 C16 H16 119.6 . . ?
C11 C16 H16 119.6 . . ?
C18 C17 C22 118.6(3) . . ?
C18 C17 C10 121.6(3) . . ?
C22 C17 C10 119.8(3) . . ?
C19 C18 C17 121.2(3) . . ?
C19 C18 H18 119.4 . . ?
C17 C18 H18 119.4 . . ?
C20 C19 C18 119.6(3) . . ?
C20 C19 H19 120.2 . . ?
C18 C19 H19 120.2 . . ?
C21 C20 C19 120.4(3) . . ?
C21 C20 H20 119.8 . . ?
C19 C20 H20 119.8 . . ?
C20 C21 C22 120.5(3) . . ?
C20 C21 H21 119.8 . . ?
C22 C21 H21 119.8 . . ?
C21 C22 C17 119.8(3) . . ?
C21 C22 H22 120.1 . . ?
C17 C22 H22 120.1 . . ?
C24 C23 C28 119.8(3) . . ?
C24 C23 P2 118.5(2) . . ?
C28 C23 P2 121.2(2) . . ?
C23 C24 C25 119.5(3) . . ?
C23 C24 H24 120.3 . . ?
C25 C24 H24 120.3 . . ?
C26 C25 C24 120.3(3) . . ?
C26 C25 H25 119.9 . . ?
C24 C25 H25 119.9 . . ?
C27 C26 C25 120.2(3) . . ?
C27 C26 H26 119.9 . . ?
C25 C26 H26 119.9 . . ?
C26 C27 C28 120.1(3) . . ?
C26 C27 H27 120.0 . . ?
C28 C27 H27 120.0 . . ?
C27 C28 C23 120.2(3) . . ?
C27 C28 H28 119.9 . . ?
C23 C28 H28 119.9 . . ?
C34 C29 C30 119.9(3) . . ?
C34 C29 P2 120.7(2) . . ?
C30 C29 P2 119.4(2) . . ?
C31 C30 C29 119.8(3) . . ?
C31 C30 H30 120.1 . . ?
C29 C30 H30 120.1 . . ?
C30 C31 C32 120.1(3) . . ?
C30 C31 H31 120.0 . . ?
C32 C31 H31 120.0 . . ?
C33 C32 C31 120.6(3) . . ?
C33 C32 H32 119.7 . . ?
C31 C32 H32 119.7 . . ?
C32 C33 C34 119.8(3) . . ?
C32 C33 H33 120.1 . . ?
C34 C33 H33 120.1 . . ?
C33 C34 C29 119.8(3) . . ?
C33 C34 H34 120.1 . . ?
C29 C34 H34 120.1 . . ?
F4 P3 F3 91.22(14) . . ?
F4 P3 F6 90.45(14) . . ?
F3 P3 F6 90.09(12) . . ?
F4 P3 F1 89.33(13) . . ?
F3 P3 F1 90.15(11) . . ?
F6 P3 F1 179.69(13) . . ?
F4 P3 F2 179.45(14) . . ?
F3 P3 F2 89.04(13) . . ?
F6 P3 F2 90.03(13) . . ?
F1 P3 F2 90.18(12) . . ?
F4 P3 F5 89.56(13) . . ?
F3 P3 F5 179.18(15) . . ?
F6 P3 F5 89.67(12) . . ?
F1 P3 F5 90.10(11) . . ?
F2 P3 F5 90.18(13) . . ?
loop_
_geom_bond_atom_site_label_1
_geom_bond_atom_site_label_2
_geom_bond_distance
_geom_bond_site_symmetry_2
_geom_bond_publ_flag
P1 N1 1.600(2) . ?
P1 C10 1.801(3) . ?
P1 C1 1.807(3) . ?
P1 C7 1.808(3) . ?
P1 P2 2.6775(10) . ?
P2 N1 1.614(2) . ?
P2 C29 1.791(3) . ?
P2 C23 1.792(3) . ?
P2 C2 1.811(3) . ?
C1 C6 1.386(4) . ?
C1 C2 1.398(4) . ?
C2 C3 1.398(4) . ?
C3 C4 1.382(4) . ?
C3 H3 0.9500 . ?
C4 C5 1.393(5) . ?
C4 H4 0.9500 . ?
C5 C6 1.382(4) . ?
C5 H5 0.9500 . ?
C6 H6 0.9500 . ?
C7 C8 1.342(4) . ?
C7 C11 1.469(4) . ?
C8 C9 1.462(4) . ?
C8 H8 0.9500 . ?
C9 C10 1.341(4) . ?
C9 H9 0.9500 . ?
C10 C17 1.470(4) . ?
C11 C16 1.394(5) . ?
C11 C12 1.398(5) . ?
C12 C13 1.377(5) . ?
C12 H12 0.9500 . ?
C13 C14 1.379(6) . ?
C13 H13 0.9500 . ?
C14 C15 1.380(6) . ?
C14 H14 0.9500 . ?
C15 C16 1.373(5) . ?
C15 H15 0.9500 . ?
C16 H16 0.9500 . ?
C17 C18 1.387(4) . ?
C17 C22 1.399(4) . ?
C18 C19 1.380(5) . ?
C18 H18 0.9500 . ?
C19 C20 1.376(5) . ?
C19 H19 0.9500 . ?
C20 C21 1.373(5) . ?
C20 H20 0.9500 . ?
C21 C22 1.386(5) . ?
C21 H21 0.9500 . ?
C22 H22 0.9500 . ?
C23 C24 1.389(4) . ?
C23 C28 1.392(4) . ?
C24 C25 1.389(4) . ?
C24 H24 0.9500 . ?
C25 C26 1.384(5) . ?
C25 H25 0.9500 . ?
C26 C27 1.378(5) . ?
C26 H26 0.9500 . ?
C27 C28 1.380(5) . ?
C27 H27 0.9500 . ?
C28 H28 0.9500 . ?
C29 C34 1.389(4) . ?
C29 C30 1.391(4) . ?
C30 C31 1.378(5) . ?
C30 H30 0.9500 . ?
C31 C32 1.382(6) . ?
C31 H31 0.9500 . ?
C32 C33 1.375(5) . ?
C32 H32 0.9500 . ?
C33 C34 1.389(4) . ?
C33 H33 0.9500 . ?
C34 H34 0.9500 . ?
P3 F4 1.590(2) . ?
P3 F3 1.590(2) . ?
P3 F6 1.591(2) . ?
P3 F1 1.594(2) . ?
P3 F2 1.594(2) . ?
P3 F5 1.595(2) . ?
loop_
_geom_torsion_atom_site_label_1
_geom_torsion_atom_site_label_2
_geom_torsion_atom_site_label_3
_geom_torsion_atom_site_label_4
_geom_torsion
_geom_torsion_site_symmetry_1
_geom_torsion_site_symmetry_2
_geom_torsion_site_symmetry_3
_geom_torsion_site_symmetry_4
_geom_torsion_publ_flag
C10 P1 N1 P2 -127.09(15) . . . . ?
C1 P1 N1 P2 -1.16(17) . . . . ?
C7 P1 N1 P2 119.72(16) . . . . ?
C29 P2 N1 P1 121.01(15) . . . . ?
C23 P2 N1 P1 -117.03(16) . . . . ?
C2 P2 N1 P1 0.30(18) . . . . ?
N1 P1 C1 C6 179.9(3) . . . . ?
C10 P1 C1 C6 -52.4(3) . . . . ?
C7 P1 C1 C6 52.2(3) . . . . ?
P2 P1 C1 C6 179.2(3) . . . . ?
N1 P1 C1 C2 1.8(2) . . . . ?
C10 P1 C1 C2 129.6(2) . . . . ?
C7 P1 C1 C2 -125.9(2) . . . . ?
P2 P1 C1 C2 1.15(16) . . . . ?
C6 C1 C2 C3 -1.2(4) . . . . ?
P1 C1 C2 C3 177.0(2) . . . . ?
C6 C1 C2 P2 -179.9(2) . . . . ?
P1 C1 C2 P2 -1.7(2) . . . . ?
N1 P2 C2 C3 -177.6(3) . . . . ?
C29 P2 C2 C3 63.3(3) . . . . ?
C23 P2 C2 C3 -57.3(3) . . . . ?
P1 P2 C2 C3 -177.4(3) . . . . ?
N1 P2 C2 C1 1.0(2) . . . . ?
C29 P2 C2 C1 -118.1(2) . . . . ?
C23 P2 C2 C1 121.2(2) . . . . ?
P1 P2 C2 C1 1.15(16) . . . . ?
C1 C2 C3 C4 0.8(4) . . . . ?
P2 C2 C3 C4 179.2(2) . . . . ?
C2 C3 C4 C5 0.6(4) . . . . ?
C3 C4 C5 C6 -1.6(5) . . . . ?
C4 C5 C6 C1 1.2(5) . . . . ?
C2 C1 C6 C5 0.2(4) . . . . ?
P1 C1 C6 C5 -177.6(2) . . . . ?
N1 P1 C7 C8 128.3(2) . . . . ?
C10 P1 C7 C8 3.7(2) . . . . ?
C1 P1 C7 C8 -113.8(2) . . . . ?
P2 P1 C7 C8 167.61(17) . . . . ?
N1 P1 C7 C11 -56.8(3) . . . . ?
C10 P1 C7 C11 178.5(3) . . . . ?
C1 P1 C7 C11 61.1(3) . . . . ?
P2 P1 C7 C11 -17.5(3) . . . . ?
C11 C7 C8 C9 -178.5(3) . . . . ?
P1 C7 C8 C9 -3.9(3) . . . . ?
C7 C8 C9 C10 2.1(4) . . . . ?
C8 C9 C10 C17 -176.8(3) . . . . ?
C8 C9 C10 P1 0.9(3) . . . . ?
N1 P1 C10 C9 -129.0(2) . . . . ?
C1 P1 C10 C9 110.7(2) . . . . ?
C7 P1 C10 C9 -2.6(2) . . . . ?
P2 P1 C10 C9 -165.97(16) . . . . ?
N1 P1 C10 C17 48.7(3) . . . . ?
C1 P1 C10 C17 -71.6(3) . . . . ?
C7 P1 C10 C17 175.2(2) . . . . ?
P2 P1 C10 C17 11.8(3) . . . . ?
C8 C7 C11 C16 30.7(5) . . . . ?
P1 C7 C11 C16 -143.0(3) . . . . ?
C8 C7 C11 C12 -147.6(3) . . . . ?
P1 C7 C11 C12 38.7(4) . . . . ?
C16 C11 C12 C13 -1.0(5) . . . . ?
C7 C11 C12 C13 177.3(3) . . . . ?
C11 C12 C13 C14 0.9(6) . . . . ?
C12 C13 C14 C15 -0.8(6) . . . . ?
C13 C14 C15 C16 0.8(6) . . . . ?
C14 C15 C16 C11 -0.9(6) . . . . ?
C12 C11 C16 C15 1.0(5) . . . . ?
C7 C11 C16 C15 -177.3(3) . . . . ?
C9 C10 C17 C18 -150.8(3) . . . . ?
P1 C10 C17 C18 32.0(4) . . . . ?
C9 C10 C17 C22 29.0(5) . . . . ?
P1 C10 C17 C22 -148.3(2) . . . . ?
C22 C17 C18 C19 -0.6(5) . . . . ?
C10 C17 C18 C19 179.1(3) . . . . ?
C17 C18 C19 C20 0.6(5) . . . . ?
C18 C19 C20 C21 -0.9(5) . . . . ?
C19 C20 C21 C22 1.2(5) . . . . ?
C20 C21 C22 C17 -1.3(5) . . . . ?
C18 C17 C22 C21 1.0(4) . . . . ?
C10 C17 C22 C21 -178.8(3) . . . . ?
N1 P2 C23 C24 -74.8(3) . . . . ?
C29 P2 C23 C24 48.3(3) . . . . ?
C2 P2 C23 C24 171.7(2) . . . . ?
P1 P2 C23 C24 -111.1(2) . . . . ?
N1 P2 C23 C28 97.6(3) . . . . ?
C29 P2 C23 C28 -139.3(2) . . . . ?
C2 P2 C23 C28 -15.9(3) . . . . ?
P1 P2 C23 C28 61.3(3) . . . . ?
C28 C23 C24 C25 -0.8(4) . . . . ?
P2 C23 C24 C25 171.6(2) . . . . ?
C23 C24 C25 C26 1.0(5) . . . . ?
C24 C25 C26 C27 -0.3(5) . . . . ?
C25 C26 C27 C28 -0.5(5) . . . . ?
C26 C27 C28 C23 0.7(5) . . . . ?
C24 C23 C28 C27 0.0(5) . . . . ?
P2 C23 C28 C27 -172.3(3) . . . . ?
N1 P2 C29 C34 173.3(2) . . . . ?
C23 P2 C29 C34 48.6(3) . . . . ?
C2 P2 C29 C34 -72.3(3) . . . . ?
P1 P2 C29 C34 -152.0(2) . . . . ?
N1 P2 C29 C30 -8.8(3) . . . . ?
C23 P2 C29 C30 -133.4(2) . . . . ?
C2 P2 C29 C30 105.6(3) . . . . ?
P1 P2 C29 C30 25.9(3) . . . . ?
C34 C29 C30 C31 0.4(5) . . . . ?
P2 C29 C30 C31 -177.6(3) . . . . ?
C29 C30 C31 C32 -0.3(5) . . . . ?
C30 C31 C32 C33 0.0(6) . . . . ?
C31 C32 C33 C34 0.2(5) . . . . ?
C32 C33 C34 C29 -0.1(5) . . . . ?
C30 C29 C34 C33 -0.2(4) . . . . ?
P2 C29 C34 C33 177.7(2) . . . . ?
