#------------------------------------------------------------------------------
#$Date: 2022-03-11 00:55:03 +0200 (Fri, 11 Mar 2022) $
#$Revision: 273612 $
#$URL: file:///home/coder/svn-repositories/cod/cif/7/12/97/7129793.cif $
#------------------------------------------------------------------------------
#
# This file is available in the Crystallography Open Database (COD),
# http://www.crystallography.net/
#
# All data on this site have been placed in the public domain by the
# contributors.
#
data_7129793
loop_
_publ_author_name
'Li, Heng-Hui'
'Li, Shaoyu'
'Cheng, Jun Kee'
'Xiang, Shao-Hua'
'Tan, Bin'
_publ_section_title
;
 Direct Arylation of N-heterocycles enabled by photoredox catalysis
;
_journal_name_full               'Chemical Communications'
_journal_paper_doi               10.1039/D2CC01212J
_journal_year                    2022
_chemical_formula_moiety         'C12 H10 Br N O'
_chemical_formula_sum            'C12 H10 Br N O'
_chemical_formula_weight         264.12
_space_group_crystal_system      triclinic
_space_group_IT_number           2
_space_group_name_Hall           '-P 1'
_space_group_name_H-M_alt        'P -1'
_atom_sites_solution_hydrogens   geom
_atom_sites_solution_primary     dual
_audit_creation_date             2021-12-17
_audit_creation_method
;
Olex2 1.5
(compiled 2021.10.07 svn.r9718050b for OlexSys, GUI svn.r6410)
;
_audit_update_record
;
2022-02-24 deposited with the CCDC.	2022-03-10 downloaded from the CCDC.
;
_cell_angle_alpha                72.738(11)
_cell_angle_beta                 84.610(12)
_cell_angle_gamma                67.998(12)
_cell_formula_units_Z            2
_cell_length_a                   7.127(2)
_cell_length_b                   7.435(3)
_cell_length_c                   10.981(4)
_cell_measurement_reflns_used    2539
_cell_measurement_temperature    100
_cell_measurement_theta_max      28.30
_cell_measurement_theta_min      3.08
_cell_volume                     515.1(3)
_computing_cell_refinement       'SAINT V8.38A (Bruker, 2018)'
_computing_data_reduction        'SAINT V8.38A (Bruker, 2018)'
_computing_molecular_graphics    'Olex2 1.5 (Dolomanov et al., 2009)'
_computing_publication_material  'Olex2 1.5 (Dolomanov et al., 2009)'
_computing_structure_refinement  'XL  (Sheldrick, 2008)'
_computing_structure_solution    'SHELXT  (Sheldrick, 2015)'
_diffrn_ambient_temperature      100
_diffrn_detector                 'Bruker PHOTON 100 area detector'
_diffrn_detector_area_resol_mean 7.9
_diffrn_detector_type            'CMOS area detector'
_diffrn_measured_fraction_theta_full 0.997
_diffrn_measured_fraction_theta_max 0.994
_diffrn_measurement_device       'three-circle diffractometer'
_diffrn_measurement_device_type  'Bruker D8 VENTURE'
_diffrn_measurement_method       '\w and \f scans'
_diffrn_radiation_monochromator  'mirror optics'
_diffrn_radiation_probe          x-ray
_diffrn_radiation_type           MoK\a
_diffrn_radiation_wavelength     0.71073
_diffrn_reflns_av_R_equivalents  0.0637
_diffrn_reflns_av_unetI/netI     0.0590
_diffrn_reflns_Laue_measured_fraction_full 0.997
_diffrn_reflns_Laue_measured_fraction_max 0.994
_diffrn_reflns_limit_h_max       9
_diffrn_reflns_limit_h_min       -9
_diffrn_reflns_limit_k_max       9
_diffrn_reflns_limit_k_min       -9
_diffrn_reflns_limit_l_max       14
_diffrn_reflns_limit_l_min       -14
_diffrn_reflns_number            8229
_diffrn_reflns_point_group_measured_fraction_full 0.997
_diffrn_reflns_point_group_measured_fraction_max 0.994
_diffrn_reflns_theta_full        25.242
_diffrn_reflns_theta_max         28.375
_diffrn_reflns_theta_min         3.081
_diffrn_source                   'microfocus sealed X-ray tube'
_diffrn_source_current           1.0
_diffrn_source_power             0.05
_diffrn_source_type              'Incoatec I\ms'
_diffrn_source_voltage           50.0
_diffrn_standards_number         0
_exptl_absorpt_coefficient_mu    3.959
_exptl_absorpt_correction_T_max  0.7457
_exptl_absorpt_correction_T_min  0.3803
_exptl_absorpt_correction_type   multi-scan
_exptl_absorpt_process_details
;
SADABS-2016/2 (Bruker,2016/2) was used for absorption correction.
wR2(int) was 0.1387 before and 0.0768 after correction.
The Ratio of minimum to maximum transmission is 0.5100.
The \l/2 correction factor is Not present.
;
_exptl_crystal_colour            'light yellow'
_exptl_crystal_colour_modifier   light
_exptl_crystal_colour_primary    yellow
_exptl_crystal_density_diffrn    1.703
_exptl_crystal_description       block
_exptl_crystal_F_000             264
_exptl_crystal_size_max          0.38
_exptl_crystal_size_mid          0.14
_exptl_crystal_size_min          0.12
_refine_diff_density_max         0.844
_refine_diff_density_min         -0.734
_refine_diff_density_rms         0.112
_refine_ls_extinction_method     none
_refine_ls_goodness_of_fit_ref   1.061
_refine_ls_hydrogen_treatment    constr
_refine_ls_matrix_type           full
_refine_ls_number_parameters     138
_refine_ls_number_reflns         2560
_refine_ls_number_restraints     0
_refine_ls_restrained_S_all      1.061
_refine_ls_R_factor_all          0.0436
_refine_ls_R_factor_gt           0.0343
_refine_ls_shift/su_max          0.001
_refine_ls_shift/su_mean         0.000
_refine_ls_structure_factor_coef Fsqd
_refine_ls_weighting_details
'w=1/[\s^2^(Fo^2^)+(0.0348P)^2^+0.0750P] where P=(Fo^2^+2Fc^2^)/3'
_refine_ls_weighting_scheme      calc
_refine_ls_wR_factor_gt          0.0790
_refine_ls_wR_factor_ref         0.0828
_reflns_Friedel_coverage         0.000
_reflns_number_gt                2269
_reflns_number_total             2560
_reflns_threshold_expression     'I > 2\s(I)'
_cod_data_source_file            d2cc01212j2.cif
_cod_data_source_block           cxy1857_0m
_cod_database_code               7129793
_shelx_shelxl_version_number     2016/6
_shelx_space_group_comment
;
The symmetry employed for this shelxl refinement is uniquely defined
by the following loop, which should always be used as a source of
symmetry information in preference to the above space-group names.
They are only intended as comments.
;
_shelx_estimated_absorpt_t_max   0.648
_shelx_estimated_absorpt_t_min   0.315
_olex2_refinement_description
;
1. Fixed Uiso
 At 1.2 times of:
  All C(H) groups
 At 1.5 times of:
  All C(H,H,H) groups, All O(H) groups
2.a Aromatic/amide H refined with riding coordinates:
 C5(H5), C7(H7), C8(H8), C9(H9), C10(H10), C11(H11)
2.b Idealised Me refined as rotating group:
 C1(H1A,H1B,H1C)
2.c Idealised tetrahedral OH refined as rotating group:
 O1(H1)
;
_shelx_res_file
;
TITL cxy1857_0m_a.res in P-1
    cxy1857_0m.res
    created by SHELXL-2016/6 at 10:26:04 on 17-Dec-2021
CELL 0.71073 7.1272 7.435 10.9809 72.738 84.61 67.998
ZERR 2 0.0024 0.0025 0.0035 0.011 0.012 0.012
LATT 1
SFAC C H Br N O
UNIT 24 20 2 2 2

L.S. 4
PLAN  1 0 0
SIZE 0.38 0.12 0.14
TEMP -173.15
CONF
HTAB
BOND $H
fmap 2
acta
MORE -1
REM <olex2.extras>
REM <HklSrc "%.\\cxy1857_0m.hkl">
REM </olex2.extras>

WGHT    0.034800    0.075000
FVAR       0.54125
BR1   3    0.883945    0.317157    0.931857    11.00000    0.01672    0.02321 =
         0.01272   -0.00229   -0.00424   -0.00673
O1    5    0.184110    0.736476    0.553270    11.00000    0.01347    0.02449 =
         0.01600   -0.00010   -0.00379   -0.00987
AFIX 147
H1    2    0.214929    0.801890    0.483005    11.00000   -1.50000
AFIX   0
N1    4    0.411721    0.868382    0.385865    11.00000    0.01402    0.01519 =
         0.01441   -0.00413   -0.00292   -0.00755
C1    1    0.239379    1.087837    0.186026    11.00000    0.02344    0.02133 =
         0.01978    0.00157   -0.00815   -0.01200
AFIX 137
H1A   2    0.215692    0.992484    0.149699    11.00000   -1.50000
H1B   2    0.254630    1.200065    0.116937    11.00000   -1.50000
H1C   2    0.124210    1.140512    0.238280    11.00000   -1.50000
AFIX   0
C2    1    0.428846    0.981227    0.267515    11.00000    0.02025    0.01299 =
         0.01792   -0.00419   -0.00360   -0.00847
C3    1    0.575254    0.768046    0.465543    11.00000    0.01389    0.01266 =
         0.01520   -0.00638   -0.00193   -0.00589
C4    1    0.540528    0.651604    0.595064    11.00000    0.01167    0.01230 =
         0.01270   -0.00500   -0.00186   -0.00445
C5    1    0.699883    0.549242    0.686453    11.00000    0.01243    0.01402 =
         0.01516   -0.00597   -0.00130   -0.00452
AFIX  43
H5    2    0.831234    0.551129    0.663797    11.00000   -1.20000
AFIX   0
C6    1    0.666715    0.446470    0.808375    11.00000    0.01505    0.01444 =
         0.01535   -0.00449   -0.00359   -0.00436
C7    1    0.477769    0.436400    0.844338    11.00000    0.01942    0.01623 =
         0.01300   -0.00276    0.00116   -0.00664
AFIX  43
H7    2    0.457241    0.364162    0.928478    11.00000   -1.20000
AFIX   0
C8    1    0.762993    0.780925    0.427369    11.00000    0.01389    0.01942 =
         0.01487   -0.00577   -0.00218   -0.00734
AFIX  43
H8    2    0.876732    0.711399    0.484125    11.00000   -1.20000
AFIX   0
C9    1    0.781156    0.896640    0.305427    11.00000    0.01614    0.02117 =
         0.01883   -0.00709    0.00298   -0.01070
AFIX  43
H9    2    0.907917    0.907118    0.277578    11.00000   -1.20000
AFIX   0
C10   1    0.613463    0.996910    0.224401    11.00000    0.02242    0.01718 =
         0.01235   -0.00010   -0.00232   -0.01052
AFIX  43
H10   2    0.624315    1.075630    0.140215    11.00000   -1.20000
AFIX   0
C11   1    0.320488    0.533117    0.755744    11.00000    0.01445    0.01559 =
         0.01892   -0.00514    0.00249   -0.00780
AFIX  43
H11   2    0.191332    0.525634    0.779312    11.00000   -1.20000
AFIX   0
C12   1    0.347816    0.642060    0.631769    11.00000    0.01196    0.01636 =
         0.01724   -0.00664   -0.00315   -0.00567
HKLF 4




REM  cxy1857_0m_a.res in P-1
REM R1 =  0.0343 for    2269 Fo > 4sig(Fo)  and  0.0436 for all    2560 data
REM    138 parameters refined using      0 restraints

END

WGHT      0.0348      0.0749

REM Instructions for potential hydrogen bonds
HTAB O1 N1
EQIV $1 -x+1, -y+1, -z+1
HTAB C1 Br1_$1
EQIV $2 x+1, y, z
HTAB C8 O1_$2

REM Highest difference peak  0.844,  deepest hole -0.734,  1-sigma level  0.112
Q1    1   1.0193  0.2774  0.9397  11.00000  0.05    0.84
;
_shelx_res_checksum              65040
_shelx_hkl_file
;
  -1   0   0 94.8539 6.76682   2
   1   0   0 92.7996 6.83866   3
  -2   0   0 90.3338 6.88634   3
  -2   0   0 87.2060 6.65945   2
   2   0   0 91.0086 6.64403   2
   2   0   0 96.7362 8.97521   1
   2   0   0 89.7229 6.82990   3
  -3   0   0 294.424 22.7891   2
  -3   0   0 313.172 23.0681   3
   3   0   0 306.139 22.9713   3
   3   0   0 322.046 22.7717   2
   3   0   0 355.560 24.8680   1
  -4   0   0 433.954 33.4747   2
  -4   0   0 475.721 33.8710   3
   4   0   0 514.797 36.0491   1
   4   0   0 448.260 33.7339   3
  -5   0   0 124.317 10.1750   3
  -5   0   0 116.232 9.27659   2
  -6   0   0 32.2065 4.03829   2
  -6   0   0 41.9258 5.71794   3
  -6   0   0 35.8019 7.89131   1
  -7   0   0 23.8588 4.87046   3
   7   0   0 20.3177 3.26240   2
   8   0   0 35.8856 4.61905   2
  -8   1   0 -10.922 7.80334   3
  -7   1   0 54.5207 7.82649   3
  -6   1   0 7.73005 2.15678   2
  -6   1   0 9.11245 3.41829   3
  -5   1   0 967.056 75.9377   2
  -5   1   0 1101.04 76.3703   3
  -5   1   0 1127.34 78.2818   1
   4  -1   0 2.74739 5.91384   1
   4  -1   0 1.55361 1.79340   3
  -4   1   0 6.83813 4.72761   1
  -4   1   0 1.17202 1.06579   2
  -4   1   0 3.25942 1.94759   3
   3  -1   0 406.724 30.4246   3
   3  -1   0 427.332 31.9577   1
   3  -1   0 453.283 30.3258   2
  -3   1   0 380.735 30.2869   2
  -3   1   0 403.270 30.4914   3
  -3   1   0 469.472 31.8002   1
   2  -1   0 744.581 46.3731   2
   2  -1   0 670.634 47.2647   1
   2  -1   0 635.385 46.3839   3
  -2   1   0 590.736 46.3260   2
  -2   1   0 621.639 46.4012   3
  -2   1   0 641.500 47.1996   1
   1  -1   0 600.117 39.7757   2
   1  -1   0 526.046 39.7552   3
   1  -1   0 578.941 39.7690   4
  -1   1   0 513.203 39.7536   3
  -1   1   0 527.690 39.7674   2
  -1   1   0 610.115 39.7814   4
   0  -1   0 250.203 18.6970   1
   0  -1   0 243.341 18.2863   4
   0   1   0 251.415 18.6573   1
   0   1   0 280.892 18.2631   2
  -1  -1   0 148.541 10.8616   4
  -1  -1   0 159.154 11.5303   1
  -1  -1   0 144.892 10.8253   2
  -1  -1   0 157.654 11.0134   3
   1   1   0 160.219 11.4198   1
   1   1   0 143.836 10.8229   2
  -2  -1   0 712.598 51.2861   1
  -2  -1   0 721.481 50.6005   3
   2   1   0 625.718 50.3125   2
   2   1   0 751.877 51.2938   1
   2   1   0 734.129 50.5704   3
  -3  -1   0 569.382 39.6038   1
  -3  -1   0 535.456 38.3486   3
   3   1   0 493.063 37.9271   2
   3   1   0 525.279 38.2635   3
   3   1   0 495.064 37.9756   2
   3   1   0 585.329 39.4910   1
  -4  -1   0 239.170 17.9864   3
  -4  -1   0 269.497 20.3681   1
   4   1   0 226.043 17.8500   3
   4   1   0 225.463 17.4285   2
   4   1   0 234.941 17.3829   2
   4   1   0 264.018 19.8475   1
  -5  -1   0 0.40021 2.23669   3
  -5  -1   0 -0.5192 6.09770   1
   5   1   0 6.04570 5.44147   1
   5   1   0 -0.0176 0.88875   2
  -6  -1   0 399.902 29.2053   3
  -6  -1   0 389.774 32.7891   1
   6   1   0 399.774 32.2068   1
   6   1   0 374.469 28.1733   2
  -7  -1   0 121.703 10.4521   3
   7   1   0 99.3459 8.35748   2
   7   1   0 79.2504 20.2891   1
  -9  -1   0 25.2947 7.34116   3
   9   1   0 23.4580 3.57601   2
  -7   2   0 130.161 11.4062   3
  -7   2   0 108.426 10.2325   2
  -6   2   0 0.28923 3.10269   3
  -6   2   0 -1.1775 1.83498   2
  -5   2   0 21.7201 3.48338   3
  -5   2   0 14.0563 2.41473   2
   4  -2   0 304.026 21.4504   3
  -4   2   0 278.872 21.2770   2
   3  -2   0 443.351 31.3085   3
   3  -2   0 453.851 31.3171   4
  -3   2   0 453.476 31.2674   4
  -3   2   0 427.191 31.3489   3
  -3   2   0 396.156 31.2422   2
   2  -2   0 459.841 32.8888   4
   2  -2   0 458.714 32.8322   3
   2  -2   0 521.621 32.8824   2
  -2   2   0 421.257 32.8206   3
  -2   2   0 418.297 33.0527   2
  -2   2   0 476.025 32.8893   4
   1  -2   0 1.48184 1.11499   4
   1  -2   0 0.21787 0.49997   2
  -1   2   0 -0.1450 0.62895   2
  -1   2   0 0.21516 1.03351   4
   0  -2   0 118.244 10.3660   1
   0  -2   0 127.304 9.11069   4
   0   2   0 127.844 9.09232   4
   0   2   0 119.512 10.1148   1
  -1  -2   0 2962.12 201.139   1
   1   2   0 2724.96 200.408   3
   1   2   0 2912.05 201.026   1
   1   2   0 2707.72 200.353   4
  -2  -2   0 855.887 59.4248   1
  -2  -2   0 830.518 58.5167   3
  -2  -2   0 722.872 58.1841   2
   2   2   0 862.399 59.2987   1
   2   2   0 888.613 58.5045   3
   2   2   0 763.725 58.1812   2
  -3  -2   0 365.315 28.3328   2
  -3  -2   0 418.161 28.8925   3
  -3  -2   0 405.409 30.2958   1
   3   2   0 399.118 28.7583   3
   3   2   0 425.655 30.0007   1
   3   2   0 376.923 28.3373   2
  -4  -2   0 13.9965 5.24342   1
  -4  -2   0 9.59477 2.21862   3
   4   2   0 14.3078 4.38831   1
   4   2   0 9.99175 1.57169   2
   4   2   0 8.97810 1.36026   2
  -5  -2   0 309.477 24.7602   1
  -5  -2   0 281.792 21.8170   3
   5   2   0 306.695 24.2508   1
   5   2   0 273.436 20.9315   2
  -6  -2   0 136.051 16.7769   1
  -6  -2   0 136.461 11.7295   3
   6   2   0 134.359 10.1425   2
   6   2   0 133.166 15.6367   1
  -7  -2   0 57.4717 7.84553   3
  -7  -2   0 51.8483 11.7623   1
   7   2   0 55.8801 4.97553   2
   7   2   0 50.5707 11.4724   1
   8   2   0 3.13301 1.83946   2
  -9  -2   0 75.8955 12.3424   3
   9   2   0 82.0772 7.34052   2
  -7   3   0 2.67665 3.28225   2
  -6   3   0 46.6179 6.32710   3
  -6   3   0 41.5241 5.44100   2
  -5   3   0 106.669 8.77904   3
  -5   3   0 90.3365 8.28747   2
   4  -3   0 373.149 26.1351   4
   4  -3   0 362.288 25.8824   3
  -4   3   0 356.808 26.0297   3
  -4   3   0 325.499 25.8455   2
   3  -3   0 202.876 14.3671   4
   3  -3   0 197.876 13.9712   3
  -3   3   0 167.679 13.9907   2
  -3   3   0 185.559 13.9678   3
   2  -3   0 580.346 39.9345   4
  -2   3   0 532.204 39.9032   4
  -2   3   0 557.372 39.8862   2
   1  -3   0 442.396 32.7948   1
  -1   3   0 414.033 30.6897   4
   0  -3   0 521.402 38.9616   1
   0  -3   0 530.508 37.6127   4
   0   3   0 504.943 38.8812   1
   0   3   0 485.517 37.5638   4
   0   3   0 583.904 37.5211   2
  -1  -3   0 57.1088 4.79633   3
  -1  -3   0 64.7791 4.60773   2
  -1  -3   0 52.2373 7.40629   1
  -1  -3   0 62.9836 5.06506   4
   1   3   0 56.7009 4.79980   3
   1   3   0 57.9431 6.39701   1
   1   3   0 69.0262 4.56509   2
   1   3   0 55.1070 4.92463   4
  -2  -3   0 104.276 7.52341   2
  -2  -3   0 101.736 8.05544   3
  -2  -3   0 106.735 10.4061   1
  -2  -3   0 108.591 7.92897   4
   2   3   0 103.125 9.41256   1
   2   3   0 108.670 7.48898   2
   2   3   0 98.8533 8.00454   3
   2   3   0 96.1231 7.78886   4
  -3  -3   0 159.075 11.5196   4
  -3  -3   0 166.093 14.7367   1
  -3  -3   0 137.298 11.2279   2
  -3  -3   0 167.142 12.0657   3
  -3  -3   0 159.204 11.4791   4
   3   3   0 151.062 11.8531   3
   3   3   0 159.616 11.2332   2
   3   3   0 151.703 13.5076   1
  -4  -3   0 446.842 31.0514   3
  -4  -3   0 446.777 33.2985   1
  -4  -3   0 372.480 30.2565   2
   4   3   0 437.660 32.7700   1
  -5  -3   0 163.013 16.7701   1
  -5  -3   0 159.850 12.8282   3
   5   3   0 153.543 15.7248   1
   5   3   0 157.061 11.5875   2
  -6  -3   0 4.88997 3.04818   3
  -6  -3   0 4.72183 8.27276   1
   6   3   0 1.74930 7.03879   1
  -7  -3   0 29.9869 11.0163   1
  -7  -3   0 38.2222 7.19565   3
   7   3   0 34.6264 3.60931   2
   7   3   0 41.9237 10.6354   1
  -8  -3   0 201.846 17.9173   3
   8   3   0 195.992 14.8725   2
   9   3   0 36.6815 4.56749   2
  -6   4   0 105.670 10.1269   2
   5  -4   0 43.6485 8.13522   4
  -5   4   0 32.4085 5.11859   2
  -5   4   0 40.2014 6.12157   3
   4  -4   0 0.20632 3.51700   4
  -4   4   0 1.02780 1.98798   2
   3  -4   0 169.268 12.7946   4
  -3   4   0 147.007 12.0843   2
   2  -4   0 411.892 28.3282   4
  -2   4   0 364.471 28.0907   2
   1  -4   0 194.999 19.1334   1
   1  -4   0 212.747 15.3480   4
  -1   4   0 201.714 15.0121   2
   0  -4   0 7.42791 5.76525   1
   0  -4   0 4.32858 1.93913   4
   0  -4   0 5.58601 1.05815   2
   0   4   0 -0.9704 4.60648   1
  -1  -4   0 152.433 11.4125   3
  -1  -4   0 163.514 14.7930   1
  -1  -4   0 164.291 11.7576   4
   1   4   0 148.020 11.4630   3
   1   4   0 145.478 11.7197   4
   1   4   0 166.780 11.8763   2
   1   4   0 148.503 13.5905   1
  -2  -4   0 306.020 23.8475   2
  -2  -4   0 335.594 24.1925   3
  -2  -4   0 341.801 26.7512   1
  -2  -4   0 351.904 24.1548   4
   2   4   0 366.798 23.7981   2
   2   4   0 303.282 24.0302   4
   2   4   0 331.112 25.6763   1
   2   4   0 327.693 24.1335   3
  -3  -4   0 395.958 30.2658   1
  -3  -4   0 343.789 27.0130   2
   3   4   0 367.299 27.5529   3
   3   4   0 375.533 29.1586   1
   3   4   0 411.483 27.0024   2
  -4  -4   0 6.32088 2.46800   3
  -4  -4   0 11.9965 6.97238   1
   4   4   0 5.41582 5.04626   1
  -5  -4   0 16.9189 7.98198   1
  -5  -4   0 8.69304 3.21560   3
   5   4   0 13.9377 6.54371   1
   5   4   0 12.5831 1.74626   2
  -6  -4   0 207.167 22.1388   1
  -6  -4   0 202.116 16.7568   3
   6   4   0 208.801 15.1569   2
   6   4   0 213.916 21.0143   1
  -7  -4   0 118.960 11.5842   3
  -7  -4   0 109.817 20.2414   1
   7   4   0 113.332 8.73360   2
   7   4   0 103.649 18.5863   1
  -8  -4   0 54.1473 9.36026   3
   8   4   0 45.0580 4.57749   2
  -9  -4   0 13.6888 7.72008   3
   5  -5   0 40.3780 6.66123   4
  -5   5   0 42.4749 6.49231   2
   4  -5   0 93.7922 10.4700   4
  -4   5   0 89.3002 8.28627   2
   3  -5   0 187.272 14.5986   4
  -3   5   0 164.460 13.5796   2
   2  -5   0 57.5900 6.76076   4
  -2   5   0 44.3573 4.87178   2
   1  -5   0 71.5839 6.97397   4
  -1   5   0 58.2259 5.56012   2
   0  -5   0 211.031 15.4969   4
   0  -5   0 203.765 19.8158   1
   0   5   0 201.556 14.9382   2
   0   5   0 190.078 20.0077   1
  -1  -5   0 566.045 42.7304   1
  -1  -5   0 550.767 39.8535   4
   1   5   0 576.187 39.5297   2
   1   5   0 515.379 41.6832   1
  -2  -5   0 7.76307 2.16837   3
  -2  -5   0 8.89834 2.45218   4
   2   5   0 11.8255 1.75831   2
   2   5   0 10.2975 2.20786   3
  -3  -5   0 5.25306 7.73245   1
  -3  -5   0 3.46863 2.24376   4
  -3  -5   0 2.53247 2.19419   3
   3   5   0 4.02950 2.41795   3
   3   5   0 4.65996 0.97131   2
   3   5   0 7.73050 5.33616   1
  -4  -5   0 101.687 15.5977   1
  -4  -5   0 94.4272 8.39681   3
  -4  -5   0 88.7817 8.08076   4
   4   5   0 100.487 6.96705   2
   4   5   0 72.9749 12.0453   1
  -5  -5   0 178.100 14.6986   3
  -5  -5   0 167.510 21.1076   1
   5   5   0 186.350 13.2273   2
   5   5   0 187.464 18.6440   1
  -6  -5   0 88.3748 14.9035   1
  -6  -5   0 94.9235 9.94538   3
   6   5   0 87.7353 15.8293   1
   6   5   0 99.6358 7.35555   2
  -7  -5   0 72.8399 9.50637   3
  -7  -5   0 84.7194 16.1424   1
   7   5   0 65.8364 5.60225   2
   7   5   0 60.3478 14.2114   1
  -8  -5   0 49.3343 7.77429   3
   8   5   0 38.5599 4.13736   2
  -9  -5   0 109.885 14.1054   3
   9   5   0 97.9197 8.18012   2
   4  -6   0 106.363 12.0148   4
  -4   6   0 94.6457 9.52767   2
   3  -6   0 16.1794 4.86334   4
  -3   6   0 13.7413 3.15870   2
   2  -6   0 106.624 10.2071   4
  -2   6   0 82.9226 7.91887   2
   1  -6   0 156.815 12.6019   4
  -1   6   0 137.838 11.3898   2
   0  -6   0 86.3612 16.8342   1
   0  -6   0 93.6057 8.68291   4
   0   6   0 84.7228 17.7798   1
   0   6   0 81.6811 7.05579   2
  -1  -6   0 -6.4264 9.55308   1
  -1  -6   0 4.42531 2.96874   4
   1   6   0 5.38681 9.11292   1
   1   6   0 1.21091 1.36429   2
  -2  -6   0 3.23259 2.93035   4
  -2  -6   0 2.35004 2.02258   3
  -2  -6   0 -3.3482 9.90031   1
   2   6   0 -4.0434 2.18620   3
   2   6   0 6.07707 8.47958   1
   2   6   0 0.54151 1.32653   2
  -3  -6   0 152.708 12.5423   4
  -3  -6   0 156.789 20.1622   1
  -3  -6   0 160.051 12.0825   3
   3   6   0 131.374 12.0891   3
   3   6   0 165.487 11.2885   2
  -4  -6   0 287.314 21.2959   3
  -4  -6   0 275.102 27.5542   1
  -4  -6   0 269.247 21.1051   4
   4   6   0 273.006 25.3189   1
   4   6   0 292.738 20.2350   2
  -5  -6   0 61.6782 13.9902   1
  -5  -6   0 38.3476 6.87319   3
  -5  -6   0 44.2379 6.34798   4
   5   6   0 53.3154 4.09342   2
   5   6   0 41.6526 10.9617   1
  -6  -6   0 9.93546 4.05092   3
  -6  -6   0 -4.6826 12.8778   1
  -6  -6   0 7.04597 3.16469   4
   6   6   0 8.81639 1.57031   2
   6   6   0 2.61985 11.6709   1
  -7  -6   0 93.6032 19.4754   1
  -7  -6   0 129.775 12.9666   3
   7   6   0 91.3795 20.0636   1
   7   6   0 131.277 9.36955   2
  -8  -6   0 103.237 12.6970   3
   8   6   0 80.1600 6.97347   2
  -9  -6   0 71.6865 13.5276   3
   9   6   0 37.9906 4.39633   2
   3  -7   0 53.8879 10.3607   4
  -3   7   0 29.0795 5.12585   2
   2  -7   0 50.2334 8.99772   4
  -2   7   0 33.5179 5.25934   2
  -1   7   0 62.2895 6.06625   2
   0  -7   0 8.75932 4.09875   4
   0   7   0 7.51237 2.20974   2
  -1  -7   0 54.3672 17.2822   1
  -1  -7   0 93.3892 9.74124   4
   1   7   0 91.6130 7.27155   2
  -2  -7   0 159.260 13.1822   4
   2   7   0 153.284 11.4218   2
   2   7   0 120.520 21.6190   1
  -3  -7   0 88.7450 16.6255   1
  -3  -7   0 74.8945 8.47102   4
  -3  -7   0 73.5388 6.92896   3
   3   7   0 68.9100 5.93496   2
   3   7   0 72.4793 15.6159   1
  -4  -7   0 8.65531 3.24023   3
  -4  -7   0 9.69070 3.87498   4
  -4  -7   0 7.02829 14.1350   1
   4   7   0 7.72589 1.63655   2
   4   7   0 10.3465 11.7547   1
  -5  -7   0 37.0941 6.64762   3
  -5  -7   0 21.2903 4.55843   4
  -5  -7   0 24.7782 15.7885   1
   5   7   0 31.5711 3.09372   2
   5   7   0 9.45060 11.4400   1
  -6  -7   0 58.5893 18.5866   1
  -6  -7   0 78.1263 9.72923   3
   6   7   0 77.3253 6.18234   2
  -7  -7   0 42.3446 7.24479   4
  -7  -7   0 75.6794 26.2507   1
   7   7   0 58.7112 4.85243   2
  -8  -7   0 46.1203 9.09279   3
   8   7   0 39.1863 4.20648   2
   1  -8   0 83.7192 11.7321   4
  -1   8   0 63.7036 6.97788   2
   0   8   0 24.4711 4.18383   2
  -1  -8   0 46.2746 9.02319   4
   1   8   0 40.3626 4.60074   2
  -2  -8   0 3.98108 4.56010   4
   2   8   0 1.86711 1.89201   2
  -3  -8   0 0.21149 3.19324   3
   3   8   0 2.57806 1.78410   2
  -4  -8   0 8.61696 3.42124   3
  -4  -8   0 3.03586 4.70965   4
   4   8   0 2.17439 1.71275   2
   4   8   0 -15.044 14.7872   1
  -5  -8   0 384.148 48.9376   1
  -5  -8   0 543.061 36.8306   3
  -5  -8   0 442.484 36.6020   4
   5   8   0 546.733 35.4831   2
  -6  -8   0 2.31517 4.80109   3
  -6  -8   0 -1.3429 4.34750   4
  -6  -8   0 -8.5225 29.1624   1
   6   8   0 0.27380 15.7428   1
  -7  -8   0 0.38184 4.49442   4
  -7  -8   0 4.37385 5.79693   3
   7   8   0 6.26473 1.91089   2
  -1  -9   0 7.97769 6.26609   4
   1   9   0 1.55220 2.47173   2
  -2  -9   0 42.5376 8.18375   4
   2   9   0 48.6009 5.00683   2
  -3  -9   0 41.6607 7.51244   4
  -4  -9   0 27.5995 6.64699   4
   4   9   0 37.5067 4.19807   2
  -5  -9   0 0.62286 5.52932   4
   5   9   0 3.89394 2.09461   2
  -6  -9   0 17.8961 6.18910   3
  -6  -9   0 7.10355 5.70240   4
   5   9  -1 44.4879 4.26482   2
  -5  -9   1 28.0049 7.24910   4
   4   9  -1 44.8768 4.44099   2
  -4  -9   1 33.0491 7.55097   4
   3   9  -1 36.5402 4.65087   2
  -3  -9   1 27.2275 7.43904   4
   2   9  -1 23.1634 3.73758   2
  -2  -9   1 12.5546 6.36062   4
   7   8  -1 -0.1665 1.85414   2
  -7  -8   1 4.60489 4.23832   4
  -7  -8   1 5.61920 6.25522   3
   6   8  -1 27.7272 3.51900   2
  -6  -8   1 35.2361 6.30298   3
  -6  -8   1 19.0696 5.34657   4
   5   8  -1 92.3760 7.61008   2
  -5  -8   1 102.204 10.6944   3
   4   8  -1 51.2368 5.02888   2
  -4  -8   1 65.4100 7.52104   3
   3   8  -1 -1.4901 1.61620   2
  -3  -8   1 -0.1486 4.61166   4
   2   8  -1 38.5760 4.08758   2
  -2  -8   1 30.5586 6.01644   4
   1   8  -1 71.2189 6.67524   2
  -1  -8   1 88.6193 10.8915   4
   0   8  -1 148.457 12.2678   2
   0  -8   1 170.782 15.3566   4
  -1   8  -1 46.9028 5.72796   2
   1  -8   1 55.8541 11.1012   4
   8   7  -1 22.5527 2.80199   2
  -8  -7   1 26.0253 7.92826   3
   7   7  -1 78.6245 25.8329   1
   7   7  -1 73.8843 6.14549   2
  -7  -7   1 74.0115 10.8344   3
   6   7  -1 51.6298 18.0427   1
   6   7  -1 77.5389 5.82917   2
  -6  -7   1 69.7955 9.79957   3
  -6  -7   1 62.9297 8.64659   4
   5   7  -1 76.3852 5.68201   2
   5   7  -1 43.9033 15.8601   1
  -5  -7   1 71.9281 8.46722   3
  -5  -7   1 58.8877 8.58869   4
   4   7  -1 61.5572 14.6106   1
   4   7  -1 89.5159 6.67761   2
  -4  -7   1 74.6678 9.28813   4
  -4  -7   1 91.4450 8.66033   3
   3   7  -1 139.212 11.0773   2
  -3  -7   1 148.476 13.0878   4
  -3  -7   1 158.121 12.0570   3
   2   7  -1 75.4903 6.46439   2
   2   7  -1 74.6095 12.2261   1
  -2  -7   1 62.9218 17.1053   1
  -2  -7   1 84.6615 7.60579   3
  -2  -7   1 84.7312 9.28612   4
   1   7  -1 37.8361 4.16015   2
  -1  -7   1 44.3972 7.49556   4
  -1  -7   1 44.9218 16.4934   1
   0   7  -1 0.44139 1.93065   2
   0  -7   1 3.66879 4.26251   4
  -1   7  -1 143.006 12.3831   2
   1  -7   1 178.895 14.3484   4
  -2   7  -1 58.5514 6.64950   2
   2  -7   1 72.9991 10.1297   4
  -3   7  -1 11.0845 3.58510   2
   3  -7   1 14.3535 6.12118   4
   8   6  -1 92.8380 7.64452   2
  -8  -6   1 106.494 13.1240   3
   7   6  -1 32.0699 18.4880   1
   7   6  -1 22.6097 2.84509   2
  -7  -6   1 30.0603 16.9165   1
  -7  -6   1 20.7116 7.16653   3
   6   6  -1 14.0057 2.15983   2
   6   6  -1 18.5822 13.8738   1
  -6  -6   1 7.77079 3.35773   4
  -6  -6   1 10.5640 4.26841   3
  -6  -6   1 6.82078 14.1672   1
   5   6  -1 6.47902 1.27667   2
   5   6  -1 16.6715 11.8388   1
  -5  -6   1 2.68531 3.33665   4
  -5  -6   1 16.7238 12.4704   1
  -5  -6   1 4.97059 3.79139   3
   4   6  -1 639.470 54.2210   1
   4   6  -1 782.236 50.0806   2
  -4  -6   1 664.546 50.6755   4
  -4  -6   1 692.213 55.7662   1
  -4  -6   1 720.270 51.0587   3
   3   6  -1 106.542 16.1846   1
   3   6  -1 96.7623 7.40865   2
  -3  -6   1 96.2827 17.9369   1
  -3  -6   1 101.479 8.66637   3
  -3  -6   1 91.2849 9.12239   4
   2   6  -1 0.89171 1.29769   2
   2   6  -1 -0.8235 7.21112   1
  -2  -6   1 2.77099 3.01601   4
  -2  -6   1 5.58865 9.82003   1
  -2  -6   1 4.35494 2.70762   3
   1   6  -1 94.2210 17.4540   1
   1   6  -1 84.6738 7.12552   2
  -1  -6   1 99.2390 8.80325   4
  -1  -6   1 83.8313 16.4058   1
   0   6  -1 188.394 14.8468   2
   0  -6   1 212.090 15.9134   4
  -1   6  -1 117.361 10.1759   2
   1  -6   1 145.602 11.7214   4
  -2   6  -1 2.45889 2.19123   2
   2  -6   1 3.47941 3.96704   4
  -3   6  -1 61.8479 6.52575   2
   3  -6   1 63.6757 9.46187   4
  -4   6  -1 14.0341 4.11401   2
   4  -6   1 8.37190 5.49420   4
  -9  -5   1 209.707 19.8458   3
   8   5  -1 11.5450 1.97415   2
  -8  -5   1 20.2857 6.60801   3
   7   5  -1 73.1162 5.93917   2
   7   5  -1 71.4945 16.6463   1
  -7  -5   1 73.8186 9.73800   3
  -7  -5   1 77.6054 16.3710   1
   6   5  -1 199.046 14.2457   2
  -6  -5   1 172.464 24.5145   1
  -6  -5   1 198.793 16.3334   3
   5   5  -1 197.826 13.4026   2
  -5  -5   1 151.689 23.5223   1
  -5  -5   1 187.107 15.1304   3
  -5  -5   1 177.206 14.1677   4
   4   5  -1 76.8042 5.49395   2
   4   5  -1 85.6836 14.8310   1
  -4  -5   1 75.1059 7.38255   3
  -4  -5   1 59.0762 6.99068   4
  -4  -5   1 76.2673 13.9520   1
   3   5  -1 37.0720 6.98176   1
   3   5  -1 23.8200 4.14209   3
   3   5  -1 33.0749 2.67604   2
  -3  -5   1 36.6591 4.79728   4
  -3  -5   1 22.9249 2.76155   2
  -3  -5   1 43.8306 9.53964   1
  -3  -5   1 29.7047 4.49101   3
   2   5  -1 502.122 41.0682   1
   2   5  -1 583.937 38.9706   2
   2   5  -1 492.338 39.2560   3
  -2  -5   1 549.920 42.4902   1
  -2  -5   1 588.182 39.4752   3
  -2  -5   1 554.461 39.4380   4
   1   5  -1 129.288 11.1063   3
   1   5  -1 120.500 14.0455   1
   1   5  -1 144.253 10.4178   2
  -1  -5   1 152.883 10.7483   3
  -1  -5   1 143.061 15.7749   1
  -1  -5   1 142.461 11.2393   4
   0   5  -1 104.414 8.41829   2
   0  -5   1 119.880 14.6240   1
   0  -5   1 112.655 9.35260   4
  -1   5  -1 12.1997 2.08321   2
   1  -5   1 12.8984 3.15936   4
  -2   5  -1 105.053 8.96508   2
   2  -5   1 121.277 10.2069   4
  -3   5  -1 144.027 12.0404   2
   3  -5   1 163.118 13.1656   4
  -4   5  -1 23.1400 3.56129   2
   4  -5   1 38.5527 7.84515   4
  -5   5  -1 8.12297 3.92195   2
   5  -5   1 10.6815 5.30405   4
  -9  -4   1 1.54935 7.37311   3
   8   4  -1 58.9091 5.26518   2
  -8  -4   1 62.1854 10.0220   3
   7   4  -1 180.486 24.0994   1
   7   4  -1 202.075 14.4941   2
  -7  -4   1 190.315 25.2251   1
  -7  -4   1 198.791 16.7396   3
   6   4  -1 121.049 9.25760   2
   6   4  -1 106.821 17.0475   1
  -6  -4   1 146.254 19.4300   1
  -6  -4   1 128.992 11.4734   3
   5   4  -1 11.2827 6.79598   1
  -5  -4   1 8.61126 8.28555   1
   4   4  -1 185.689 17.1565   1
  -4  -4   1 183.123 18.7719   1
  -4  -4   1 156.444 13.2371   2
  -4  -4   1 185.296 13.7035   4
  -4  -4   1 198.286 14.4567   3
  -4  -4   1 196.002 13.8218   4
   3   4  -1 532.750 39.2664   3
   3   4  -1 549.027 40.9965   1
   3   4  -1 586.387 38.7274   2
  -3  -4   1 477.117 38.7328   2
  -3  -4   1 558.737 41.8805   1
  -3  -4   1 510.956 39.0465   4
  -3  -4   1 575.218 39.4440   3
  -3  -4   1 566.285 39.0820   4
   2   4  -1 653.802 49.9382   1
   2   4  -1 744.119 48.3255   2
   2   4  -1 658.696 48.6304   3
  -2  -4   1 684.697 49.1255   4
  -2  -4   1 681.719 48.6196   4
  -2  -4   1 713.229 48.7887   3
  -2  -4   1 624.995 48.3512   2
  -2  -4   1 669.778 50.6290   1
   1   4  -1 92.3708 9.33193   1
   1   4  -1 84.7923 7.51110   3
   1   4  -1 94.1204 6.96730   2
  -1  -4   1 92.8346 7.61126   4
  -1  -4   1 95.9027 11.3697   1
  -1  -4   1 96.4289 7.39901   3
   0   4  -1 101.151 7.64176   2
   0  -4   1 100.878 8.24422   4
  -1   4  -1 329.990 24.3573   2
   1  -4   1 344.202 24.6131   4
  -2   4  -1 154.972 12.4011   2
   2  -4   1 175.957 12.9364   4
  -3   4  -1 29.6168 3.92915   2
   3  -4   1 41.5333 5.80839   4
  -4   4  -1 11.5254 2.93906   3
  -4   4  -1 11.7753 2.72272   2
   4  -4   1 12.6201 3.70914   4
  -5   4  -1 74.7689 7.16524   2
   5  -4   1 73.6585 9.32795   4
  -6   4  -1 125.096 11.3380   2
   9   3  -1 52.8534 5.28901   2
  -9  -3   1 55.2668 10.0640   3
   8   3  -1 77.4943 6.77156   2
  -8  -3   1 91.4857 10.3900   3
   7   3  -1 140.858 11.0948   2
   7   3  -1 146.121 20.1543   1
  -7  -3   1 151.354 21.1755   1
  -7  -3   1 157.296 13.4707   3
   6   3  -1 190.855 19.3983   1
   6   3  -1 172.893 13.0188   2
  -6  -3   1 177.948 14.6967   3
  -6  -3   1 173.000 20.1072   1
   5   3  -1 304.261 25.4731   1
   5   3  -1 293.910 21.7620   2
  -5  -3   1 311.577 26.3417   1
  -5  -3   1 305.705 22.8779   3
   4   3  -1 446.871 32.3542   2
   4   3  -1 492.702 35.1203   1
  -4  -3   1 468.499 35.4446   1
  -4  -3   1 469.634 33.1934   3
  -4  -3   1 401.244 32.3452   2
   3   3  -1 119.865 8.57132   2
   3   3  -1 119.946 11.5486   1
   3   3  -1 129.695 9.49799   3
  -3  -3   1 107.058 8.57818   2
  -3  -3   1 118.036 9.04084   4
  -3  -3   1 121.396 8.95098   4
  -3  -3   1 114.002 12.6847   1
   2   3  -1 72.3035 7.89985   1
   2   3  -1 81.1567 6.42074   3
   2   3  -1 82.1724 5.68175   2
  -2  -3   1 78.4905 6.29303   4
  -2  -3   1 70.7845 5.69135   2
  -2  -3   1 77.5726 6.14327   4
  -2  -3   1 72.6439 9.34256   1
  -2  -3   1 82.9877 6.53626   3
   1   3  -1 440.656 36.8035   1
   1   3  -1 577.101 35.8477   2
   1   3  -1 519.423 36.0348   3
  -1  -3   1 519.070 35.8664   2
  -1  -3   1 468.699 37.3153   1
  -1  -3   1 473.126 36.0077   4
  -1  -3   1 517.301 36.0450   3
   0   3  -1 513.607 39.7072   4
   0   3  -1 579.125 39.6133   2
   0  -3   1 573.598 39.6015   3
  -1   3  -1 342.478 27.0027   4
  -1   3  -1 363.528 26.9083   2
   1  -3   1 418.566 26.8678   2
   1  -3   1 375.191 27.0481   4
  -2   3  -1 164.193 13.1386   4
  -2   3  -1 160.228 12.6383   2
   2  -3   1 189.161 12.9607   4
  -3   3  -1 28.0444 3.56038   3
  -3   3  -1 18.1178 2.88388   2
   3  -3   1 26.4600 4.32876   4
   3  -3   1 19.7532 3.07370   3
  -4   3  -1 189.627 15.5422   3
  -4   3  -1 168.376 13.6127   2
   4  -3   1 185.479 14.0086   4
   4  -3   1 177.562 13.7285   3
  -5   3  -1 114.667 9.94541   2
  -5   3  -1 131.806 10.3496   3
  -6   3  -1 20.3870 3.92140   3
  -6   3  -1 10.7288 2.90552   2
  -7   3  -1 9.75955 3.35941   2
   9   2  -1 30.0389 4.42759   2
  -9  -2   1 33.8330 7.64486   3
   8   2  -1 4.84710 1.90447   2
  -8  -2   1 7.55991 5.51883   3
   7   2  -1 92.9971 17.0860   1
   7   2  -1 91.3055 7.53452   2
  -7  -2   1 101.198 9.96480   3
  -7  -2   1 99.7804 18.3096   1
   6   2  -1 370.169 30.0882   1
   6   2  -1 329.590 25.4458   2
  -6  -2   1 367.248 30.5772   1
  -6  -2   1 355.678 26.6734   3
   5   2  -1 244.298 21.3468   1
   5   2  -1 229.986 17.4140   2
  -5  -2   1 238.403 18.4409   3
  -5  -2   1 259.564 22.0306   1
   4   2  -1 24.4443 2.23935   2
   4   2  -1 32.5108 6.23666   1
   4   2  -1 21.7709 2.27506   2
  -4  -2   1 23.1429 3.70031   3
  -4  -2   1 32.8292 6.74531   1
   3   2  -1 1004.99 70.5122   3
   3   2  -1 1047.45 71.8669   1
   3   2  -1 864.197 70.0482   2
  -3  -2   1 1013.43 70.6119   3
  -3  -2   1 1010.39 71.9017   1
   2   2  -1 602.592 43.5129   1
   2   2  -1 651.447 42.6328   3
   2   2  -1 539.036 42.2262   2
  -2  -2   1 518.831 42.2355   2
  -2  -2   1 610.518 42.6557   3
  -2  -2   1 627.434 42.4033   4
  -2  -2   1 619.247 43.7260   1
   1   2  -1 406.225 30.8749   1
   1   2  -1 459.291 30.3089   3
   1   2  -1 443.258 30.1172   2
  -1  -2   1 401.056 30.2180   4
  -1  -2   1 405.735 30.0844   2
  -1  -2   1 444.357 30.3244   3
  -1  -2   1 420.524 30.2489   4
  -1  -2   1 403.409 31.0561   1
   0   2  -1 0.54190 0.51625   2
   0   2  -1 -2.0029 2.61604   3
   0  -2   1 1.57456 0.49996   2
   0  -2   1 2.98515 0.97746   3
   0  -2   1 1.39745 0.93450   4
  -1   2  -1 51.7903 4.26269   4
  -1   2  -1 47.6314 3.94190   2
   1  -2   1 49.0807 3.93042   3
   1  -2   1 53.6834 4.29586   4
  -2   2  -1 337.446 25.1115   3
  -2   2  -1 322.415 25.0857   2
  -2   2  -1 355.560 25.1218   4
   2  -2   1 357.342 25.1379   4
   2  -2   1 327.712 25.0676   3
   2  -2   1 395.052 25.1146   2
  -3   2  -1 324.032 24.9119   2
  -3   2  -1 342.982 25.0103   3
   3  -2   1 339.411 24.9503   3
   3  -2   1 372.877 24.9774   4
  -4   2  -1 125.007 9.51917   3
  -4   2  -1 107.792 9.01334   2
   4  -2   1 116.701 9.23826   3
  -5   2  -1 4.31041 2.50793   3
  -5   2  -1 0.84525 1.65113   2
  -6   2  -1 144.595 11.4723   3
  -6   2  -1 118.083 10.5345   2
  -7   2  -1 148.561 13.6610   2
  -7   2  -1 192.849 14.7046   3
   9   1  -1 16.4619 3.05529   2
  -9  -1   1 13.8206 6.38711   3
   8   1  -1 152.514 11.8314   2
   7   1  -1 178.063 13.3662   2
   7   1  -1 176.209 21.2386   1
  -7  -1   1 169.947 21.7461   1
  -7  -1   1 182.336 15.0901   3
   6   1  -1 39.2726 8.56813   1
   6   1  -1 39.3673 3.78541   2
  -6  -1   1 51.3619 9.88887   1
  -6  -1   1 41.7463 5.88969   3
   5   1  -1 131.670 13.8955   1
   5   1  -1 114.324 9.12440   2
  -5  -1   1 117.515 10.2322   3
  -5  -1   1 148.965 14.9798   1
   4   1  -1 253.029 18.6698   3
   4   1  -1 265.923 20.6165   1
   4   1  -1 228.385 17.9228   2
   4   1  -1 225.430 18.0068   2
  -4  -1   1 276.416 21.2235   1
  -4  -1   1 255.576 18.5971   3
   3   1  -1 998.238 80.4190   2
   3   1  -1 1042.96 80.4612   2
   3   1  -1 1144.39 80.7963   3
   3   1  -1 1246.10 82.1911   1
  -3  -1   1 1160.64 80.8929   3
  -3  -1   1 1215.47 82.1797   1
   2   1  -1 34.0704 3.03766   3
   2   1  -1 28.2739 4.28796   1
   2   1  -1 27.2176 2.16736   2
   2   1  -1 26.1218 2.21010   2
  -2  -1   1 31.4958 5.00811   1
  -2  -1   1 28.6494 2.97426   3
   1   1  -1 4.54024 1.02001   3
   1   1  -1 4.39693 1.59247   1
   1   1  -1 3.32083 0.64475   4
   1   1  -1 3.23307 0.35201   2
  -1  -1   1 2.96483 0.35904   2
  -1  -1   1 3.88710 0.66023   4
  -1  -1   1 4.34036 1.94220   1
  -1  -1   1 4.45715 0.98088   3
   0   1  -1 650.409 52.4258   2
   0   1  -1 773.668 52.6830   3
   0  -1   1 688.378 52.5124   4
   0  -1   1 845.099 52.5973   3
  -1   1  -1 564.684 41.4088   2
  -1   1  -1 605.513 41.4736   3
   1  -1   1 615.883 41.4151   2
   1  -1   1 553.964 41.5018   3
   1  -1   1 570.657 41.3936   4
  -2   1  -1 494.657 36.9385   3
  -2   1  -1 480.847 36.8756   2
   2  -1   1 512.084 36.9446   3
   2  -1   1 579.486 36.9168   2
  -3   1  -1 12.1273 1.86406   2
  -3   1  -1 12.0798 2.09878   3
   3  -1   1 13.4902 2.37797   3
   3  -1   1 15.2060 1.89981   2
  -4   1  -1 188.469 13.4802   3
  -4   1  -1 164.906 13.0388   2
   4  -1   1 174.390 13.2892   3
  -5   1  -1 57.6415 5.34486   2
  -5   1  -1 63.6508 6.45794   3
  -6   1  -1 345.538 27.6105   2
  -6   1  -1 410.679 28.3816   3
  -7   1  -1 25.6049 4.75215   3
  -7   1  -1 22.6037 3.62111   2
   8  -1   1 5.51934 2.86620   2
   8   0  -1 150.046 11.8341   2
  -7   0   1 5.29634 3.98307   3
   6   0  -1 160.697 18.4813   1
  -6   0   1 195.961 20.4078   1
  -6   0   1 162.565 12.9659   2
  -6   0   1 173.104 14.0030   3
   5   0  -1 443.710 34.6483   1
  -5   0   1 441.365 32.4357   3
  -5   0   1 413.659 31.8655   2
  -5   0   1 476.256 35.4640   1
   4   0  -1 250.984 18.3446   2
   4   0  -1 263.352 20.8451   1
   4   0  -1 239.558 18.7530   3
  -4   0   1 241.404 18.4009   2
  -4   0   1 286.804 21.7729   1
  -4   0   1 250.416 18.8651   3
   3   0  -1 3.41529 0.76557   2
   3   0  -1 5.15270 1.55247   3
   3   0  -1 5.21909 3.02921   1
  -3   0   1 3.46138 0.89615   2
  -3   0   1 7.21853 4.26760   1
  -3   0   1 4.08862 1.67287   3
   2   0  -1 301.701 20.7172   3
   2   0  -1 291.995 21.5813   1
   2   0  -1 289.256 20.4885   2
  -2   0   1 255.629 20.4852   2
  -2   0   1 279.147 20.7268   3
  -2   0   1 305.202 21.8326   1
   1   0  -1 1311.18 100.047   4
   1   0  -1 1425.47 100.225   3
   1   0  -1 1504.48 100.654   1
  -1   0   1 1484.56 100.663   1
  -1   0   1 1309.09 100.146   3
  -1   0   1 1434.08 100.054   4
  -1   0  -1 478.825 35.5993   2
  -1   0  -1 514.510 35.6761   3
   1   0   1 498.701 35.7357   3
   1   0   1 510.840 35.6052   2
  -2   0  -1 6.16486 1.25595   3
  -2   0  -1 4.96830 0.84104   2
   2   0   1 6.45072 1.21685   3
   2   0   1 4.62603 0.79891   2
  -3   0  -1 369.014 26.5224   2
  -3   0  -1 365.395 26.7210   3
   3   0   1 352.328 26.6529   3
   3   0   1 388.742 26.4975   2
  -4   0  -1 408.114 30.4796   2
  -4   0  -1 420.614 30.7909   3
   4   0   1 395.407 30.6750   3
   4   0   1 477.039 32.7460   1
  -5   0  -1 400.013 30.4122   2
  -5   0  -1 440.929 30.9375   3
  -6   0  -1 68.3882 11.2140   1
  -6   0  -1 61.0373 7.29256   3
  -7   0  -1 76.9403 8.80646   3
   7   0   1 71.0422 6.32136   2
   8   0   1 121.231 9.92612   2
  -8   1   1 31.6863 9.25164   3
  -7   1   1 163.806 14.1211   3
  -7   1   1 164.247 13.0470   2
   6  -1  -1 151.746 21.5291   1
  -6   1   1 152.351 12.0685   2
  -6   1   1 130.675 19.1739   1
  -6   1   1 171.815 13.1072   3
   5  -1  -1 50.9385 11.2359   1
  -5   1   1 41.4223 4.54697   2
  -5   1   1 60.0834 5.88014   3
   4  -1  -1 74.6500 14.0557   1
   4  -1  -1 65.2842 5.68321   3
  -4   1   1 51.9839 4.96944   2
  -4   1   1 63.6851 5.80155   3
   3  -1  -1 329.722 23.1954   3
   3  -1  -1 355.168 23.0017   2
  -3   1   1 281.620 23.0180   2
  -3   1   1 310.578 23.2463   3
   2  -1  -1 709.631 51.4874   1
   2  -1  -1 774.555 50.2819   2
   2  -1  -1 773.198 50.4073   3
   2  -1  -1 674.176 50.2760   4
  -2   1   1 621.223 50.2542   2
  -2   1   1 678.946 50.3846   3
  -2   1   1 713.675 50.2522   4
   1  -1  -1 417.100 28.4542   2
   1  -1  -1 384.192 28.5136   4
   1  -1  -1 430.826 29.5571   1
   1  -1  -1 421.442 28.5556   3
  -1   1   1 383.053 28.4914   4
  -1   1   1 374.591 28.4935   3
  -1   1   1 420.879 29.8341   1
  -1   1   1 371.540 28.4602   2
   0  -1  -1 0.74518 0.60561   4
   0  -1  -1 1.30102 2.14728   1
   0   1   1 0.94050 0.46917   3
   0   1   1 1.34625 0.32113   2
   0   1   1 -1.5423 1.50987   1
  -1  -1  -1 519.177 32.3881   1
  -1  -1  -1 409.986 31.7537   2
  -1  -1  -1 445.766 31.8865   3
   1   1   1 432.811 31.7573   2
   1   1   1 431.597 31.9414   3
  -2  -1  -1 789.284 54.3592   3
  -2  -1  -1 703.981 54.1078   2
   2   1   1 793.212 54.3462   3
   2   1   1 782.135 55.9330   1
   2   1   1 743.109 54.1200   2
  -3  -1  -1 448.584 31.4013   3
   3   1   1 419.568 31.0077   2
   3   1   1 434.910 33.4703   1
   3   1   1 444.939 31.3351   3
   3   1   1 424.452 31.0742   2
  -4  -1  -1 111.716 8.84727   3
   4   1   1 119.269 12.2983   1
   4   1   1 101.564 8.66328   3
   4   1   1 107.119 8.21448   2
   4   1   1 112.075 8.14148   2
  -5  -1  -1 43.3526 5.13393   3
   5   1   1 42.3155 3.78656   2
   5   1   1 55.5991 10.0700   1
  -6  -1  -1 371.191 26.4650   3
  -6  -1  -1 318.050 28.2314   1
   6   1   1 375.838 30.7978   1
   6   1   1 340.520 25.3971   2
  -7  -1  -1 204.968 20.8152   1
  -7  -1  -1 229.198 17.8619   3
   7   1   1 218.334 16.2667   2
   7   1   1 216.184 24.9626   1
   8   1   1 28.5583 3.96611   2
  -9  -1  -1 10.9850 6.62947   3
   9   1   1 11.3696 3.01478   2
  -7   2   1 64.1725 8.15631   3
  -7   2   1 50.2332 6.41928   2
  -6   2   1 17.7750 3.08709   2
  -6   2   1 25.8527 4.29300   3
   5  -2  -1 282.753 27.2519   1
  -5   2   1 310.694 21.7707   3
  -5   2   1 273.793 21.2910   2
  -5   2   1 286.133 26.1826   1
   4  -2  -1 251.815 17.7361   3
   4  -2  -1 236.086 22.1361   1
  -4   2   1 215.230 17.3721   2
  -4   2   1 246.936 21.3245   1
   3  -2  -1 250.168 17.5586   4
   3  -2  -1 260.408 17.4591   3
   3  -2  -1 245.897 21.1043   1
  -3   2   1 221.215 17.2479   2
  -3   2   1 215.870 17.3143   4
  -3   2   1 231.381 17.4490   3
   2  -2  -1 7.97010 1.27791   2
   2  -2  -1 4.65448 1.73616   4
   2  -2  -1 11.1288 6.23858   1
   1  -2  -1 209.193 18.7838   1
   1  -2  -1 254.675 15.9658   2
   1  -2  -1 206.697 16.0888   4
  -1   2   1 224.148 16.0112   2
  -1   2   1 212.210 16.0624   4
   0  -2  -1 24.3704 2.44817   4
   0  -2  -1 26.6844 1.93128   2
   0  -2  -1 21.9603 4.59412   1
   0   2   1 21.6069 1.99222   2
   0   2   1 17.9250 3.79220   1
   0   2   1 21.3028 2.33925   4
  -1  -2  -1 1652.45 138.907   3
  -1  -2  -1 2007.79 138.901   4
  -1  -2  -1 2169.72 139.777   1
   1   2   1 2124.30 139.663   1
   1   2   1 1769.16 138.928   3
   1   2   1 2032.88 138.897   4
  -2  -2  -1 324.581 23.4498   1
  -2  -2  -1 307.317 22.4283   3
  -2  -2  -1 284.827 22.1300   2
   2   2   1 315.218 22.4125   3
   2   2   1 304.474 22.1343   2
   2   2   1 330.858 23.1863   1
  -3  -2  -1 2.81056 3.94805   1
  -3  -2  -1 1.29226 0.50875   2
  -3  -2  -1 1.26965 1.52050   3
   3   2   1 0.69610 0.54280   2
   3   2   1 -0.0148 2.84810   1
   3   2   1 0.82338 1.23852   3
  -4  -2  -1 396.588 29.0990   1
  -4  -2  -1 379.465 27.2088   3
   4   2   1 366.024 26.6062   2
   4   2   1 396.592 28.5715   1
   4   2   1 332.287 26.6577   2
   4   2   1 365.604 27.2934   3
  -5  -2  -1 590.786 44.7198   1
  -5  -2  -1 594.458 42.7568   3
   5   2   1 553.016 41.9860   2
   5   2   1 615.691 44.4621   1
  -6  -2  -1 195.464 19.8952   1
  -6  -2  -1 199.551 15.5146   3
   6   2   1 186.248 14.2620   2
   6   2   1 194.634 18.6901   1
  -7  -2  -1 6.57670 3.97875   3
  -7  -2  -1 -2.8679 11.7277   1
   7   2   1 -0.3948 1.33892   2
   7   2   1 -2.9609 9.20703   1
   8   2   1 185.604 14.1160   2
  -9  -2  -1 32.2754 8.02014   3
   9   2   1 29.6817 4.57373   2
  -7   3   1 21.2104 4.73879   2
  -6   3   1 238.256 17.0501   3
  -6   3   1 193.199 16.6158   2
   5  -3  -1 11.9137 12.1472   1
  -5   3   1 9.52768 3.14681   3
  -5   3   1 7.45047 2.43489   2
   4  -3  -1 194.047 15.0989   4
   4  -3  -1 215.856 14.7651   3
  -4   3   1 173.334 14.4314   2
  -4   3   1 185.080 14.8176   3
   3  -3  -1 4.53881 2.00497   3
   3  -3  -1 5.69545 2.53721   4
   3  -3  -1 11.4043 11.1724   1
   3  -3  -1 -2.2326 9.32709   1
  -3   3   1 1.99936 1.41713   2
  -3   3   1 3.71590 1.82938   3
   2  -3  -1 292.739 20.6060   4
   2  -3  -1 298.841 26.6579   1
   2  -3  -1 303.929 25.7573   1
  -2   3   1 278.686 20.4106   2
  -2   3   1 249.841 20.5087   4
   1  -3  -1 398.328 29.9455   4
   1  -3  -1 418.683 32.2613   1
  -1   3   1 385.128 29.3322   4
  -1   3   1 431.848 29.3023   2
   0  -3  -1 430.311 31.7772   4
   0  -3  -1 436.268 33.6185   1
   0   3   1 433.490 33.4306   1
   0   3   1 415.939 31.7565   4
   0   3   1 498.832 31.7092   2
  -1  -3  -1 18.3361 2.11140   3
  -1  -3  -1 24.6570 2.93091   4
  -1  -3  -1 22.9390 2.02510   2
   1   3   1 25.4187 1.96052   2
   1   3   1 22.2522 2.68124   4
   1   3   1 24.9104 4.86916   1
   1   3   1 21.6344 2.38773   3
  -2  -3  -1 56.7884 5.03978   3
  -2  -3  -1 60.2858 4.54509   2
  -2  -3  -1 60.7397 8.08338   1
   2   3   1 57.8951 5.04493   3
   2   3   1 65.6269 4.50987   2
   2   3   1 61.6056 4.89878   4
   2   3   1 61.9500 6.72922   1
  -3  -3  -1 836.092 67.4521   2
  -3  -3  -1 957.744 67.9264   3
  -3  -3  -1 1010.15 69.4084   1
   3   3   1 953.685 67.8558   3
   3   3   1 941.555 67.4597   2
   3   3   1 1005.77 69.0138   1
  -4  -3  -1 204.486 18.7903   1
  -4  -3  -1 185.734 15.2546   2
  -4  -3  -1 220.736 16.0684   3
   4   3   1 227.939 17.9441   1
   4   3   1 222.682 15.3000   2
  -5  -3  -1 125.529 10.3086   3
  -5  -3  -1 115.703 14.0640   1
   5   3   1 124.445 13.1504   1
   5   3   1 117.447 8.98523   2
  -6  -3  -1 57.9139 10.1349   1
  -6  -3  -1 52.4150 6.89017   3
   6   3   1 50.0888 9.14562   1
   6   3   1 53.6477 4.53834   2
  -7  -3  -1 219.903 23.8755   1
  -7  -3  -1 228.459 18.2015   3
   7   3   1 214.937 22.5787   1
   7   3   1 224.322 16.4767   2
   8   3   1 174.807 13.2798   2
  -9  -3  -1 9.20060 6.32308   3
   9   3   1 5.48785 2.22171   2
  -6   4   1 69.3970 8.01044   2
   5  -4  -1 -4.0500 4.28038   4
  -5   4   1 -3.8906 3.56764   3
  -5   4   1 -0.9360 2.84649   2
   4  -4  -1 52.0562 7.62929   4
  -4   4   1 44.6713 5.17754   2
   3  -4  -1 201.805 15.1771   4
  -3   4   1 182.178 14.4617   2
   2  -4  -1 225.255 17.1627   4
   2  -4  -1 245.485 23.6653   1
  -2   4   1 220.228 16.7599   2
   1  -4  -1 51.0480 5.27073   4
  -1   4   1 45.1547 4.23114   2
   0  -4  -1 9.71522 1.53923   2
   0  -4  -1 7.61146 1.94512   4
   0  -4  -1 8.97864 6.49853   1
   0   4   1 4.05681 5.35949   1
   0   4   1 6.92922 1.42772   2
  -1  -4  -1 266.061 18.3359   4
  -1  -4  -1 268.982 21.1530   1
  -1  -4  -1 232.223 17.9840   3
   1   4   1 246.446 18.0344   3
   1   4   1 271.319 20.2241   1
   1   4   1 226.311 18.2271   4
  -2  -4  -1 482.607 35.3005   3
  -2  -4  -1 459.440 35.0947   2
  -2  -4  -1 507.620 35.7153   4
  -2  -4  -1 493.116 37.6246   1
   2   4   1 518.093 35.3375   3
   2   4   1 473.151 35.2189   4
   2   4   1 509.190 36.9227   1
  -3  -4  -1 565.071 44.2347   2
  -3  -4  -1 607.208 44.9680   3
  -3  -4  -1 666.001 44.4647   4
  -3  -4  -1 654.824 47.0269   1
   3   4   1 591.799 44.3479   4
   3   4   1 638.478 44.2053   2
   3   4   1 612.773 44.6534   3
   3   4   1 638.230 46.1301   1
  -4  -4  -1 92.8759 7.85985   3
  -4  -4  -1 76.4204 12.9511   1
   4   4   1 90.4276 6.68742   2
   4   4   1 89.0639 10.6051   1
  -5  -4  -1 189.505 20.0103   1
  -5  -4  -1 201.091 15.5899   3
   5   4   1 190.624 18.3286   1
   5   4   1 200.914 14.3497   2
  -6  -4  -1 301.946 22.4334   3
  -6  -4  -1 256.864 26.5774   1
   6   4   1 292.433 20.9652   2
   6   4   1 296.927 25.5985   1
  -7  -4  -1 90.5535 9.62513   3
  -7  -4  -1 78.6285 13.6104   1
   7   4   1 78.0787 13.4306   1
   7   4   1 78.7324 6.58057   2
  -8  -4  -1 6.16843 5.02692   3
   8   4   1 3.22701 1.72413   2
  -9  -4  -1 35.9475 8.56072   3
   9   4   1 36.2491 4.50599   2
   5  -5  -1 74.9066 10.8516   4
  -5   5   1 67.0313 7.83676   2
   4  -5  -1 73.1438 9.67770   4
  -4   5   1 74.1398 9.20281   2
   3  -5  -1 27.7786 4.71223   4
  -3   5   1 24.9867 4.20782   2
   2  -5  -1 111.812 9.61523   4
  -2   5   1 92.7117 8.28166   2
   1  -5  -1 263.824 25.2912   1
   1  -5  -1 261.712 19.7403   4
   0  -5  -1 278.461 24.7639   1
   0  -5  -1 273.374 20.0995   4
   0   5   1 267.829 19.6804   2
   0   5   1 261.489 24.2729   1
  -1  -5  -1 268.959 20.8811   4
   1   5   1 296.757 20.4631   2
  -2  -5  -1 44.3774 9.18788   1
  -2  -5  -1 30.4703 3.89332   3
  -2  -5  -1 43.2426 4.93845   4
   2   5   1 36.8634 6.98710   1
   2   5   1 40.7819 3.28058   2
   2   5   1 40.0025 4.21563   3
  -3  -5  -1 89.4799 8.02321   3
  -3  -5  -1 88.4926 7.83497   4
  -3  -5  -1 86.1204 14.3979   1
   3   5   1 90.4669 11.2179   1
   3   5   1 92.5413 6.76363   2
   3   5   1 93.0342 7.77308   3
  -4  -5  -1 339.477 24.5620   3
  -4  -5  -1 336.815 24.1417   4
  -4  -5  -1 301.476 28.9313   1
   4   5   1 308.466 26.9120   1
   4   5   1 349.957 23.7031   2
  -5  -5  -1 216.038 17.1677   3
  -5  -5  -1 200.476 22.7852   1
   5   5   1 228.929 15.8619   2
   5   5   1 217.102 20.5647   1
  -6  -5  -1 114.366 11.0379   3
  -6  -5  -1 123.635 18.4207   1
   6   5   1 117.864 8.78106   2
   6   5   1 107.921 16.5002   1
  -7  -5  -1 156.795 14.2282   3
  -7  -5  -1 133.087 22.6047   1
   7   5   1 136.073 21.0457   1
   7   5   1 152.963 11.2702   2
  -8  -5  -1 51.8644 9.72779   3
   8   5   1 42.3476 4.35083   2
  -9  -5  -1 54.3974 9.89588   3
   9   5   1 51.0155 5.18194   2
  -4   6   1 5.30020 3.42809   2
   3  -6  -1 19.4906 5.23043   4
  -3   6   1 20.8358 3.54806   2
   2  -6  -1 92.1052 9.33495   4
   2  -6  -1 8.98576 33.0712   1
  -2   6   1 68.0450 6.92864   2
   1  -6  -1 188.614 14.6256   4
  -1   6   1 166.747 13.4890   2
   0  -6  -1 63.7591 7.07236   4
   0  -6  -1 62.9905 12.3282   1
   0   6   1 52.6083 5.13708   2
   0   6   1 47.8280 11.8455   1
  -1  -6  -1 12.9929 10.3196   1
  -1  -6  -1 9.88866 3.14496   4
   1   6   1 7.16322 1.77446   2
   1   6   1 8.79701 9.56312   1
  -2  -6  -1 376.782 28.1088   3
  -2  -6  -1 446.927 33.8630   1
  -2  -6  -1 385.875 28.5676   4
   2   6   1 382.310 31.7516   1
   2   6   1 413.811 27.9729   2
   2   6   1 348.198 28.0845   3
  -3  -6  -1 261.689 26.2457   1
  -3  -6  -1 243.649 18.9088   3
  -3  -6  -1 252.365 19.1985   4
   3   6   1 239.295 18.9802   3
   3   6   1 253.179 22.9314   1
   3   6   1 277.980 18.3943   2
  -4  -6  -1 108.239 9.67174   3
  -4  -6  -1 106.814 9.71655   4
  -4  -6  -1 111.397 18.6295   1
   4   6   1 98.3570 14.5035   1
   4   6   1 121.873 8.36074   2
  -5  -6  -1 3.39582 3.29264   3
  -5  -6  -1 3.96021 2.86188   4
   5   6   1 4.04014 1.19535   2
  -6  -6  -1 66.3081 7.50728   4
  -6  -6  -1 90.6607 9.45893   3
   6   6   1 78.4909 6.12055   2
  -7  -6  -1 165.956 15.1305   3
   7   6   1 160.332 12.1374   2
  -8  -6  -1 60.8347 10.8440   3
   8   6   1 41.6319 4.37678   2
  -9  -6  -1 0.62993 6.86689   3
   9   6   1 -0.3791 1.86899   2
   3  -7  -1 74.3005 11.3872   4
  -3   7   1 63.1404 7.93205   2
   2  -7  -1 40.8828 6.47389   4
  -2   7   1 42.6575 5.43037   2
   1  -7  -1 11.3156 4.75478   4
  -1   7   1 6.10160 2.50623   2
   0  -7  -1 72.6230 8.57562   4
   0  -7  -1 72.1925 15.5998   1
   0   7   1 55.6336 14.1407   1
   0   7   1 52.6641 5.55585   2
  -1  -7  -1 78.6182 8.50755   4
   1   7   1 62.6325 14.7621   1
   1   7   1 63.8826 5.92381   2
  -2  -7  -1 297.118 29.7180   1
  -2  -7  -1 275.710 21.0572   4
   2   7   1 247.280 30.0607   1
   2   7   1 271.436 19.9129   2
  -3  -7  -1 17.3389 14.0014   1
  -3  -7  -1 6.82487 3.69144   4
  -3  -7  -1 7.77033 2.46700   3
   3   7   1 4.23198 1.51195   2
   3   7   1 -1.7473 9.36603   1
   3   7   1 8.80552 3.10046   3
  -4  -7  -1 33.9176 5.75382   3
  -4  -7  -1 34.1546 6.85151   4
  -4  -7  -1 40.8147 14.4394   1
   4   7   1 16.2898 13.7970   1
   4   7   1 44.2007 3.69104   2
  -5  -7  -1 100.497 10.7626   4
  -5  -7  -1 116.425 10.9712   3
  -5  -7  -1 106.281 19.0889   1
   5   7   1 128.729 8.84689   2
  -6  -7  -1 117.971 20.2552   1
  -6  -7  -1 102.386 10.6086   4
  -6  -7  -1 126.428 12.0138   3
   6   7   1 86.3968 19.1992   1
   6   7   1 125.488 8.89609   2
   7   7   1 43.1786 4.26327   2
  -8  -7  -1 8.72543 6.78235   3
   2  -8  -1 1.06201 6.40361   4
  -2   8   1 1.16568 2.87616   2
   1  -8  -1 66.1168 10.6597   4
  -1   8   1 51.7896 6.12212   2
   0  -8  -1 99.8976 11.1347   4
   0   8   1 73.0036 7.28641   2
  -1  -8  -1 46.6307 8.56062   4
   1   8   1 26.1755 3.99307   2
   2   8   1 -3.4167 1.84132   2
  -3  -8  -1 53.3158 8.98668   4
  -3  -8  -1 69.6819 7.38891   3
   3   8   1 53.9228 5.21591   2
   3   8   1 28.9981 13.0242   1
  -4  -8  -1 255.383 19.3847   3
  -4  -8  -1 221.221 20.0748   4
   4   8   1 278.164 18.5537   2
  -5  -8  -1 4.15392 4.46281   4
  -5  -8  -1 -0.9448 3.68942   3
   5   8   1 -5.8432 14.8443   1
   5   8   1 4.54993 1.77759   2
  -6  -8  -1 17.3044 4.99706   4
  -6  -8  -1 20.6816 5.39959   3
   6   8   1 -9.6056 17.8588   1
   6   8   1 23.3494 3.19942   2
  -7  -8  -1 7.35347 5.86929   3
  -7  -8  -1 6.73742 4.28486   4
   7   8   1 12.5131 2.23692   2
  -1  -9  -1 11.1938 6.52811   4
   1   9   1 15.1809 2.99193   2
  -2  -9  -1 23.0619 6.88533   4
   2   9   1 36.5925 4.39643   2
  -3  -9  -1 68.0455 11.4516   4
   3   9   1 70.5021 6.47443   2
  -4  -9  -1 29.5727 6.53899   4
  -5  -9  -1 29.8403 6.47487   4
  -6  -9  -1 28.9740 6.17614   3
  -6  -9  -1 17.0689 5.80769   4
   6   9   1 28.8838 3.85741   2
  -6  -8   2 93.2427 11.2381   4
   5   8  -2 7.54474 1.65851   2
  -5  -8   2 1.95219 5.07800   4
  -5  -8   2 9.94071 4.88861   3
   4   8  -2 7.99967 1.76332   2
  -4  -8   2 7.77970 4.21042   3
  -4  -8   2 4.72754 5.33283   4
   3   8  -2 12.4064 2.02514   2
  -3  -8   2 8.79121 5.54903   4
   2   8  -2 44.3035 4.54984   2
  -2  -8   2 47.6370 9.80149   4
   1   8  -2 74.6611 6.61864   2
  -1  -8   2 80.7010 11.2655   4
   0   8  -2 5.30517 2.27275   2
   0  -8   2 8.48178 6.29468   4
   7   7  -2 23.8836 26.3314   1
   7   7  -2 93.7233 6.43470   2
  -7  -7   2 61.6520 9.06268   4
  -7  -7   2 70.5829 11.8324   3
  -7  -7   2 86.8379 35.4066   1
   6   7  -2 9.24445 14.5065   1
  -6  -7   2 15.9311 4.51714   4
  -6  -7   2 23.1475 5.56984   3
  -6  -7   2 7.61461 18.5347   1
   5   7  -2 -7.2638 11.5102   1
   5   7  -2 2.76906 1.33552   2
  -5  -7   2 2.93522 4.26607   3
  -5  -7   2 13.9987 16.7062   1
  -5  -7   2 1.46283 4.16424   4
   4   7  -2 82.3210 17.3216   1
   4   7  -2 98.6447 7.80135   2
  -4  -7   2 109.849 10.1709   3
  -4  -7   2 137.760 25.5502   1
  -4  -7   2 98.3796 10.7144   4
   3   7  -2 103.800 8.08485   2
   3   7  -2 90.0828 16.8080   1
  -3  -7   2 109.233 18.9534   1
  -3  -7   2 110.767 10.9460   4
   2   7  -2 85.4567 7.50841   2
  -2  -7   2 95.3579 10.2389   4
  -2  -7   2 109.492 9.17992   3
   1   7  -2 1.43262 1.64371   2
  -1  -7   2 3.75958 4.42090   4
   0   7  -2 153.149 12.4794   2
   0  -7   2 178.464 15.8145   4
  -1   7  -2 -1.8176 2.21317   2
   1  -7   2 3.23605 4.71689   4
  -2   7  -2 96.6731 9.09155   2
   2  -7   2 116.505 12.3519   4
   8   6  -2 55.6495 5.02636   2
  -8  -6   2 69.0276 11.8499   3
   7   6  -2 25.9510 22.1196   1
  -7  -6   2 10.3308 17.7625   1
  -7  -6   2 -0.1187 5.04533   3
   6   6  -2 35.8052 13.9528   1
   6   6  -2 37.1490 3.32588   2
  -6  -6   2 45.3188 15.6865   1
  -6  -6   2 26.5364 4.65273   4
  -6  -6   2 40.1872 8.24772   3
   5   6  -2 682.141 45.0540   2
  -5  -6   2 579.951 52.3248   1
  -5  -6   2 584.112 45.8066   4
  -5  -6   2 665.608 46.5939   3
   4   6  -2 20.4008 8.86034   1
   4   6  -2 12.8456 2.06880   2
  -4  -6   2 8.30172 3.67247   3
  -4  -6   2 5.54221 12.0948   1
  -4  -6   2 12.2983 3.73975   4
   3   6  -2 30.6293 8.91980   1
   3   6  -2 29.7502 3.20292   2
  -3  -6   2 37.0588 6.21440   4
  -3  -6   2 48.0424 11.9644   1
  -3  -6   2 38.8932 5.42039   3
   2   6  -2 0.63536 1.23757   2
   2   6  -2 -0.1226 10.1834   1
  -2  -6   2 2.78256 3.32083   4
  -2  -6   2 4.10559 2.80980   3
  -2  -6   2 2.41648 10.4306   1
   1   6  -2 87.3478 7.46618   2
   1   6  -2 88.5687 13.6086   1
  -1  -6   2 96.8330 9.34956   4
  -1  -6   2 107.299 8.49963   3
   0   6  -2 117.023 9.61056   2
   0  -6   2 133.429 11.2101   4
  -1   6  -2 171.114 14.2853   2
   1  -6   2 211.016 15.6691   4
  -2   6  -2 17.3532 2.96286   2
   2  -6   2 16.7738 4.53850   4
  -3   6  -2 52.3578 5.99101   2
   3  -6   2 65.6227 10.7318   4
  -4   6  -2 114.522 10.1888   2
   4  -6   2 105.519 12.5085   4
  -9  -5   2 6.27070 7.78562   3
   8   5  -2 25.7290 3.20108   2
  -8  -5   2 35.9453 7.24805   3
   7   5  -2 62.8501 5.11878   2
   7   5  -2 46.4136 17.2554   1
  -7  -5   2 50.8489 16.1880   1
  -7  -5   2 66.7202 9.88410   3
   6   5  -2 105.189 19.6414   1
   6   5  -2 110.988 7.99764   2
  -6  -5   2 107.278 20.2010   1
  -6  -5   2 97.0662 10.9647   3
   5   5  -2 70.7593 4.99159   2
   5   5  -2 61.1923 11.5709   1
  -5  -5   2 53.1826 5.55445   2
  -5  -5   2 66.4948 7.90272   3
  -5  -5   2 78.5224 13.2069   1
  -5  -5   2 61.8987 6.71781   4
   4   5  -2 18.1219 1.78980   2
   4   5  -2 17.1339 7.91364   1
  -4  -5   2 24.9915 5.01486   3
  -4  -5   2 10.6475 1.69443   2
  -4  -5   2 12.8923 3.19595   4
  -4  -5   2 30.3589 9.70890   1
   3   5  -2 155.473 15.9732   1
   3   5  -2 154.360 11.3219   2
  -3  -5   2 155.685 12.1365   4
  -3  -5   2 147.656 17.9482   1
  -3  -5   2 167.783 12.3865   3
  -3  -5   2 132.678 11.0736   2
   2   5  -2 338.659 27.6667   1
   2   5  -2 369.830 24.8189   2
   2   5  -2 308.127 25.3854   3
  -2  -5   2 360.134 25.4725   4
  -2  -5   2 350.789 29.1481   1
   1   5  -2 138.685 16.2257   1
   1   5  -2 161.565 12.4594   2
   1   5  -2 177.420 13.4508   3
  -1  -5   2 182.581 13.1120   3
  -1  -5   2 168.563 13.3424   4
  -1  -5   2 187.138 18.1369   1
   0   5  -2 11.3394 1.85743   2
   0  -5   2 13.1295 3.03334   4
  -1   5  -2 108.592 9.06200   2
   1  -5   2 127.110 10.2283   4
  -2   5  -2 80.6120 7.12108   2
   2  -5   2 89.1986 8.67206   4
  -3   5  -2 122.809 10.5410   2
   3  -5   2 143.036 11.8755   4
  -4   5  -2 39.0480 5.27660   2
   4  -5   2 43.3862 8.15753   4
  -5   5  -2 11.2463 4.08350   2
   5  -5   2 19.7798 5.71989   4
   9   4  -2 40.8840 4.38488   2
   8   4  -2 99.6233 8.39077   2
  -8  -4   2 128.284 12.7610   3
   7   4  -2 155.485 23.1034   1
   7   4  -2 143.810 10.8846   2
  -7  -4   2 153.804 13.6077   3
  -7  -4   2 113.123 27.6885   1
   6   4  -2 9.53498 9.52233   1
   6   4  -2 4.53978 1.08777   2
  -6  -4   2 0.79602 3.57881   3
  -6  -4   2 -1.2603 10.1096   1
   5   4  -2 67.0874 6.13578   2
   5   4  -2 88.0022 6.06279   2
   5   4  -2 80.4740 13.3862   1
  -5  -4   2 99.6798 15.1524   1
  -5  -4   2 84.0826 8.39158   3
   4   4  -2 298.168 20.0163   2
   4   4  -2 280.495 23.8365   1
  -4  -4   2 287.081 24.9079   1
  -4  -4   2 284.976 21.1664   3
  -4  -4   2 289.150 20.6109   4
  -4  -4   2 241.891 20.0186   2
   3   4  -2 210.238 13.7538   2
   3   4  -2 196.878 17.1825   1
  -3  -4   2 192.946 14.4412   4
  -3  -4   2 191.292 18.5755   1
  -3  -4   2 165.159 13.7426   2
  -3  -4   2 194.031 14.7226   3
   2   4  -2 10.5595 2.64014   3
   2   4  -2 13.3905 4.51124   1
  -2  -4   2 11.6990 1.65148   2
  -2  -4   2 18.5408 6.32353   1
  -2  -4   2 17.3925 2.89390   3
  -2  -4   2 10.9394 2.34035   4
   1   4  -2 29.1578 2.82860   2
   1   4  -2 27.8159 3.88205   3
  -1  -4   2 33.4483 2.81888   2
  -1  -4   2 25.0178 3.99076   4
  -1  -4   2 32.2886 4.05486   3
   0   4  -2 198.459 14.8634   2
   0  -4   2 214.580 15.0870   3
   0  -4   2 199.402 15.3148   4
  -1   4  -2 356.580 26.9095   2
   1  -4   2 389.986 27.2528   4
  -2   4  -2 203.994 16.2989   2
   2  -4   2 238.002 16.7596   4
  -3   4  -2 7.20106 1.93500   2
   3  -4   2 9.34104 2.99794   4
  -4   4  -2 203.594 17.3559   2
   4  -4   2 258.185 17.9850   4
  -5   4  -2 88.0811 8.29881   2
   5  -4   2 96.6042 9.96738   4
  -6   4  -2 47.9070 6.31668   2
  -9  -3   2 84.9849 13.3988   3
   8   3  -2 24.9829 3.23341   2
  -8  -3   2 26.7047 6.19483   3
   7   3  -2 42.0264 3.91828   2
   7   3  -2 31.4561 12.7028   1
  -7  -3   2 41.6687 13.3893   1
  -7  -3   2 49.1154 7.78743   3
   6   3  -2 80.6953 6.47529   2
   6   3  -2 100.028 15.4460   1
  -6  -3   2 86.1485 16.6710   1
  -6  -3   2 86.0460 8.83546   3
   5   3  -2 210.075 14.6884   2
   5   3  -2 214.844 19.6317   1
   5   3  -2 176.846 14.7107   2
  -5  -3   2 206.689 16.0662   3
  -5  -3   2 223.379 20.7268   1
   4   3  -2 160.004 15.5537   1
   4   3  -2 157.595 11.4968   2
  -4  -3   2 161.612 12.6589   3
  -4  -3   2 141.634 16.1423   1
  -4  -3   2 166.899 11.9533   4
   3   3  -2 24.3326 1.87124   2
   3   3  -2 21.4146 5.43571   1
   3   3  -2 24.6398 3.89792   3
  -3  -3   2 23.0839 3.67737   3
  -3  -3   2 26.1053 6.30035   1
  -3  -3   2 19.5650 3.09264   4
  -3  -3   2 20.7528 1.88009   2
   2   3  -2 26.8114 2.02819   2
   2   3  -2 24.8243 3.80136   3
   2   3  -2 26.9998 4.86825   1
  -2  -3   2 24.3272 2.91105   4
  -2  -3   2 40.3015 7.72961   1
  -2  -3   2 23.1006 3.66749   3
  -2  -3   2 21.2043 1.98142   2
   1   3  -2 1386.40 95.0483   2
   1   3  -2 1268.83 96.0012   1
   1   3  -2 1539.73 95.4648   3
  -1  -3   2 1320.28 96.3744   1
  -1  -3   2 1230.24 95.0556   2
  -1  -3   2 1266.27 95.2918   4
  -1  -3   2 1363.21 95.3227   3
  -1  -3   2 1338.88 95.2869   4
   0   3  -2 363.821 26.1393   2
   0  -3   2 347.500 26.3897   4
   0  -3   2 390.480 26.3445   3
   0  -3   2 359.005 26.3564   4
  -1   3  -2 118.410 9.01714   2
   1  -3   2 119.804 9.09998   3
   1  -3   2 115.738 9.36794   4
   1  -3   2 130.929 9.54255   3
  -2   3  -2 149.203 11.7948   2
   2  -3   2 156.527 11.7915   3
   2  -3   2 171.006 12.1598   4
  -3   3  -2 287.929 22.7091   2
  -3   3  -2 326.393 22.9177   3
   3  -3   2 302.459 22.7003   3
   3  -3   2 330.528 22.8918   4
  -4   3  -2 182.217 14.8038   2
  -4   3  -2 210.726 15.0333   3
   4  -3   2 208.999 15.1650   4
   4  -3   2 185.988 14.8755   3
  -5   3  -2 54.9200 5.78762   2
  -5   3  -2 64.7525 6.53513   3
  -6   3  -2 7.88527 3.48694   3
  -7   3  -2 95.2733 9.67484   2
   9   2  -2 3.29104 2.04193   2
  -9  -2   2 9.65544 8.07857   3
   8   2  -2 35.8960 4.18782   2
  -8  -2   2 40.6140 8.04955   3
   7   2  -2 88.7230 14.9304   1
   7   2  -2 99.3028 7.79315   2
  -7  -2   2 104.477 10.3868   3
  -7  -2   2 96.6398 19.2382   1
   6   2  -2 224.250 21.5697   1
   6   2  -2 202.635 15.1976   2
  -6  -2   2 194.903 22.0501   1
  -6  -2   2 212.491 16.7568   3
   5   2  -2 17.2225 7.23512   1
   5   2  -2 23.4415 2.26875   2
   5   2  -2 18.9188 2.17194   2
  -5  -2   2 24.2990 7.88843   1
  -5  -2   2 21.1397 3.70691   3
   4   2  -2 0.77403 0.65333   2
   4   2  -2 1.11202 0.73428   2
   4   2  -2 -7.7249 4.99553   1
  -4  -2   2 -2.7877 5.38585   1
  -4  -2   2 -0.8759 1.90291   3
   3   2  -2 589.954 41.4110   4
   3   2  -2 489.841 41.1892   2
   3   2  -2 578.097 41.7069   3
   3   2  -2 516.109 41.1558   2
   3   2  -2 604.305 43.3547   1
  -3  -2   2 609.356 43.5404   1
  -3  -2   2 618.925 42.0773   3
  -3  -2   2 637.190 41.4015   4
   2   2  -2 442.714 32.6947   1
   2   2  -2 410.202 31.1067   2
   2   2  -2 484.614 31.6238   3
   2   2  -2 449.362 31.4202   4
  -2  -2   2 456.681 31.6697   3
  -2  -2   2 369.217 31.1158   2
  -2  -2   2 435.338 32.8299   1
  -2  -2   2 461.034 31.4021   4
   1   2  -2 403.382 29.7573   4
   1   2  -2 394.189 30.4243   1
   1   2  -2 475.875 29.5135   2
  -1  -2   2 377.133 29.5013   2
  -1  -2   2 409.183 29.7385   4
  -1  -2   2 429.683 29.8592   3
   0   2  -2 -2.7627 1.83999   3
   0   2  -2 0.24714 0.53043   2
   0  -2   2 0.54502 1.21431   4
   0  -2   2 0.88101 0.87405   4
   0  -2   2 1.65120 0.47859   2
   0  -2   2 3.49270 1.45955   3
  -1   2  -2 352.064 26.8989   2
   1  -2   2 359.567 26.9861   4
   1  -2   2 402.102 26.8894   2
   1  -2   2 387.360 27.0688   3
   1  -2   2 378.932 27.0469   4
  -2   2  -2 712.916 55.1592   2
  -2   2  -2 777.814 55.2995   3
   2  -2   2 845.906 55.1894   2
   2  -2   2 793.605 55.2455   4
   2  -2   2 760.617 55.1710   4
   2  -2   2 751.765 55.2411   3
  -3   2  -2 257.212 18.5867   3
  -3   2  -2 232.513 18.3484   2
   3  -2   2 272.073 18.4327   4
   3  -2   2 244.661 18.4655   3
  -4   2  -2 4.83007 2.15209   3
   4  -2   2 4.32198 1.99241   3
  -5   2  -2 107.941 8.68607   3
  -5   2  -2 83.9874 7.83065   2
  -6   2  -2 159.604 14.5765   2
  -6   2  -2 217.856 15.4179   3
  -7   2  -2 135.292 11.8660   3
  -7   2  -2 109.873 10.4376   2
   9   1  -2 37.0827 5.08286   2
  -9  -1   2 51.1247 9.46039   3
   8   1  -2 157.781 12.2237   2
  -8  -1   2 160.863 14.8590   3
   7   1  -2 7.83204 11.4471   1
   7   1  -2 21.9657 2.88655   2
  -7  -1   2 18.7325 4.52232   3
  -7  -1   2 23.6454 11.6974   1
   6   1  -2 0.20541 1.12002   2
   6   1  -2 -7.2630 7.86439   1
  -6  -1   2 -2.3832 2.96910   3
  -6  -1   2 3.54081 8.27184   1
   5   1  -2 161.947 12.5811   2
   5   1  -2 177.596 17.3087   1
  -5  -1   2 168.638 13.6927   3
  -5  -1   2 195.764 18.2828   1
   4   1  -2 381.170 28.5184   2
   4   1  -2 405.494 31.2197   1
   4   1  -2 380.379 28.5432   2
  -4  -1   2 395.719 29.2192   3
  -4  -1   2 442.579 31.7937   1
   3   1  -2 219.437 17.2288   2
   3   1  -2 214.832 17.1953   2
   3   1  -2 256.667 17.8168   3
   3   1  -2 253.562 19.5427   1
  -3  -1   2 245.757 17.9829   3
  -3  -1   2 264.849 20.0810   1
   2   1  -2 216.176 14.9557   3
   2   1  -2 199.994 14.6767   4
   2   1  -2 175.052 14.4371   2
   2   1  -2 211.413 16.1418   1
  -2  -1   2 212.385 14.6653   4
  -2  -1   2 203.377 14.9836   3
  -2  -1   2 204.553 16.4364   1
   1   1  -2 82.3226 5.72730   3
   1   1  -2 66.3513 5.39312   4
   1   1  -2 62.1055 6.26604   1
  -1  -1   2 75.6286 5.66179   3
  -1  -1   2 65.1618 6.75200   1
  -1  -1   2 71.9180 5.40490   4
   0   1  -2 1139.53 85.4753   4
   0   1  -2 1256.59 85.7973   3
   0   1  -2 1054.20 85.3375   2
   0  -1   2 1193.62 85.4781   4
   0  -1   2 1375.72 85.7053   3
  -1   1  -2 946.333 75.0819   2
  -1   1  -2 1124.47 75.3175   3
   1  -1   2 1117.71 75.2908   3
   1  -1   2 1048.83 75.0914   2
   1  -1   2 1049.92 75.1414   4
  -2   1  -2 1093.09 78.0078   3
  -2   1  -2 1023.33 77.8920   2
   2  -1   2 1157.08 77.8859   4
   2  -1   2 1032.20 77.8000   4
   2  -1   2 1172.67 77.9218   2
   2  -1   2 1094.18 78.0291   3
  -3   1  -2 610.399 44.7587   2
  -3   1  -2 636.068 44.9178   3
   3  -1   2 630.634 44.9092   3
  -4   1  -2 429.707 32.5324   2
  -4   1  -2 480.930 32.7985   3
   4  -1   2 443.165 32.7239   3
  -5   1  -2 126.824  9.9999   3
  -5   1  -2 109.297 9.22262   2
  -6   1  -2 52.9479 5.58261   2
  -6   1  -2 63.3924 7.00931   3
  -7   1  -2 9.46662 4.27954   3
  -8   1  -2 25.7034 7.48618   3
   8  -1   2 33.4783 4.67512   2
   8   0  -2 0.97564 1.85688   2
  -8   0   2 3.44859 5.88854   3
  -7   0   2 22.2481 4.74964   3
   6   0  -2 80.6513 14.6577   1
  -6   0   2 85.4456 7.49798   2
  -6   0   2 109.530 16.8725   1
  -6   0   2 95.3330 8.90822   3
   5   0  -2 281.216 23.8179   1
  -5   0   2 323.481 24.9860   1
  -5   0   2 262.170 20.8361   3
  -5   0   2 257.445 20.1464   2
   4   0  -2 45.9642 3.55763   2
   4   0  -2 41.9401 7.03020   1
  -4   0   2 37.8873 4.65940   3
  -4   0   2 38.9257 3.65819   2
  -4   0   2 49.4152 8.25283   1
   3   0  -2 357.467 24.4062   2
   3   0  -2 339.727 26.2183   1
   3   0  -2 346.608 24.8131   3
  -3   0   2 325.674 24.8472   3
  -3   0   2 368.800 26.8570   1
  -3   0   2 311.196 24.4226   2
   2   0  -2 1598.80 114.729   4
   2   0  -2 1626.38 114.670   2
   2   0  -2 1636.23 115.894   1
   2   0  -2 1740.19 114.947   3
  -2   0   2 1645.64 114.727   4
  -2   0   2 1555.99 114.950   3
  -2   0   2 1376.39 114.666   2
  -2   0   2 1759.41 116.047   1
   1   0  -2 3029.70 224.695   1
   1   0  -2 3257.40 224.166   3
  -1   0   2 3193.76 224.757   1
   0   0  -2 18.7611 2.84662   3
   0   0  -2 24.2049 1.97399   4
   0   0  -2 20.1538 1.61106   2
   0   0   2 23.6520 2.72910   3
   0   0   2 20.4964 1.60616   2
   0   0   2 25.1463 1.96152   4
  -1   0  -2 22.9717 2.26131   3
  -1   0  -2 19.7627 1.88156   4
   1   0   2 18.2503 1.62683   2
   1   0   2 18.1348 1.71371   2
   1   0   2 24.8456 2.23781   3
   1   0   2 22.6654 1.89493   4
  -2   0  -2 612.067 42.9381   3
  -2   0  -2 557.425 42.7826   2
   2   0   2 622.628 42.9765   3
   2   0   2 609.005 42.7954   2
  -3   0  -2 536.301 38.4954   3
   3   0   2 521.122 38.4737   3
   3   0   2 547.579 38.2889   2
  -4   0  -2 357.283 25.4910   3
  -4   0  -2 329.609 25.1659   2
   4   0   2 356.687 25.6036   3
  -5   0  -2 7.50151 2.67405   3
  -5   0  -2 8.68221 1.84991   2
  -6   0  -2 2.69605 3.08596   3
   6   0   2 0.90260 1.35569   2
  -7   0  -2 218.667 17.1784   3
   7   0   2 199.589 15.6568   2
  -8   0  -2 147.995 19.3244   3
   8   0   2 156.917 12.2032   2
  -8   1   2 13.4610 3.36169   2
  -7   1   2 139.086 11.8892   3
  -7   1   2 118.356 10.5352   2
   6  -1  -2 245.028 25.3492   1
  -6   1   2 248.938 19.6319   2
  -6   1   2 281.035 20.5239   3
  -6   1   2 293.332 29.6868   1
   5  -1  -2 0.79104 6.80216   1
  -5   1   2 6.30080 9.01787   1
  -5   1   2 2.24742 2.67160   3
  -5   1   2 0.41295 1.39218   2
   4  -1  -2 215.465 15.5760   3
   4  -1  -2 197.566 17.9860   1
  -4   1   2 235.401 20.2912   1
  -4   1   2 186.134 14.9749   2
  -4   1   2 200.526 15.4586   3
   3  -1  -2 409.399 27.8940   3
   3  -1  -2 386.985 29.5339   1
   3  -1  -2 353.801 27.6649   4
   3  -1  -2 418.515 27.5598   2
  -3   1   2 360.460 27.8714   3
  -3   1   2 394.405 30.2991   1
  -3   1   2 369.764 27.6120   4
   2  -1  -2 777.676 51.5881   3
   2  -1  -2 781.687 51.3809   2
   2  -1  -2 687.868 52.7223   1
   2  -1  -2 671.443 51.4595   4
  -2   1   2 745.715 53.1188   1
  -2   1   2 740.727 51.4809   4
  -2   1   2 651.261 51.5431   3
   1  -1  -2 148.742 10.2105   3
   1  -1  -2 124.447 10.1692   4
   1  -1  -2 135.096 11.5257   1
   1  -1  -2 159.885 9.95929   2
  -1   1   2 141.895 10.1880   4
  -1   1   2 128.222 10.1700   3
  -1   1   2 121.949 11.9898   1
  -1   1   2 140.441 9.98411   2
   0  -1  -2 161.041 14.4299   1
   0  -1  -2 171.874 12.7313   4
   0  -1  -2 187.601 12.5633   2
   0   1   2 172.947 12.5560   2
   0   1   2 178.194 12.7229   4
   0   1   2 180.082 12.9175   3
  -1  -1  -2 815.743 59.9668   3
  -1  -1  -2 927.036 59.8572   4
   1   1   2 836.558 59.9975   3
   1   1   2 914.487 59.8565   4
   1   1   2 719.430 59.7739   2
  -2  -1  -2 753.102 58.4705   2
  -2  -1  -2 843.017 58.7293   3
   2   1   2 862.551 58.7616   3
   2   1   2 765.320 58.4786   2
   2   1   2 894.708 59.1522   1
  -3  -1  -2 502.724 35.7755   3
   3   1   2 500.851 35.4215   2
   3   1   2 476.219 35.4787   2
   3   1   2 484.704 35.7332   3
   3   1   2 517.853 36.5572   1
  -4  -1  -2 39.6631 4.29181   3
  -4  -1  -2 37.4920 6.53206   1
   4   1   2 39.4892 3.31113   2
   4   1   2 38.2613 4.42859   3
  -5  -1  -2 1171.50 86.1900   3
   5   1   2 1283.39 87.8317   1
   5   1   2 1157.86 85.6471   2
  -6  -1  -2 2.61813 5.88898   1
  -6  -1  -2 7.05407 3.26614   3
   6   1   2 7.42182 1.64491   2
  -7  -1  -2 108.267 10.9135   3
   7   1   2 119.463 19.1980   1
   7   1   2 111.610 8.87420   2
   8   1   2 5.01600 2.20761   2
  -9  -1  -2 19.1648 6.42721   3
   9   1   2 14.4383 2.82593   2
  -7   2   2 22.5031 3.86671   2
  -7   2   2 25.9657 4.91038   3
  -6   2   2 13.7705 2.71097   2
  -6   2   2 14.8116 3.74884   3
  -5   2   2 93.6594 8.10070   3
  -5   2   2 82.1567 7.28358   2
   4  -2  -2 397.638 30.8723   1
   4  -2  -2 410.754 27.5182   3
   4  -2  -2 369.615 27.4223   4
  -4   2   2 356.492 27.1933   2
  -4   2   2 365.994 27.5606   3
  -4   2   2 340.365 37.5313   1
   3  -2  -2 193.800 14.4524   4
   3  -2  -2 199.112 17.4225   1
  -3   2   2 178.736 13.9190   2
  -3   2   2 172.096 14.0689   4
  -3   2   2 199.272 14.2524   3
  -3   2   2 207.655 19.6307   1
   2  -2  -2 17.8942 3.58751   4
   2  -2  -2 20.3486 2.93643   3
   2  -2  -2 19.3529 1.73278   2
   2  -2  -2 16.8019 5.11175   1
  -2   2   2 11.3408 1.97139   2
  -2   2   2 12.8386 2.12053   4
  -2   2   2 14.9055 2.07077   3
   1  -2  -2 112.792 12.1701   1
   1  -2  -2 116.305 12.9865   1
   1  -2  -2 128.825 9.06339   3
   1  -2  -2 118.607 9.08896   4
  -1   2   2 112.436 8.93660   4
  -1   2   2 111.277 8.77085   3
  -1   2   2 130.928 8.80270   2
   0  -2  -2 9999.99 695.563   1
   0   2   2 9592.80 695.557   1
  -1  -2  -2 605.766 39.8659   4
  -1  -2  -2 514.276 39.7185   2
  -1  -2  -2 513.992 39.8547   3
  -1  -2  -2 642.829 41.0751   1
   1   2   2 523.663 39.8623   3
   1   2   2 624.851 40.8493   1
   1   2   2 544.867 39.7954   4
   1   2   2 512.173 39.6960   2
  -2  -2  -2 26.8287 2.25651   2
  -2  -2  -2 26.4164 5.05015   1
  -2  -2  -2 30.5251 2.91778   3
   2   2   2 32.1541 4.21362   1
   2   2   2 30.4618 2.29536   2
   2   2   2 27.6072 2.81713   3
  -3  -2  -2 198.760 14.9462   3
  -3  -2  -2 207.082 16.7688   1
  -3  -2  -2 184.293 14.4326   2
   3   2   2 209.965 14.4787   2
   3   2   2 208.394 15.8633   1
   3   2   2 198.529 14.8679   3
  -4  -2  -2 363.486 26.6492   3
   4   2   2 368.394 26.1206   2
   4   2   2 319.368 26.1739   2
   4   2   2 416.028 29.0635   1
  -5  -2  -2 161.975 12.8015   3
   5   2   2 157.533 11.8538   2
   5   2   2 164.544 17.1278   1
  -6  -2  -2 65.8537 7.29921   3
   6   2   2 63.2550 5.43624   2
   6   2   2 71.1243 12.0344   1
  -7  -2  -2 25.3673 8.01273   1
   7   2   2 17.2109 10.9383   1
   7   2   2 21.5834 3.16060   2
  -9  -2  -2 199.343 18.3774   3
   9   2   2 189.127 14.9865   2
  -7   3   2 20.5359 4.45251   2
  -6   3   2 28.4719 4.82574   2
  -6   3   2 28.7282 4.55172   3
   5  -3  -2 642.289 47.3864   4
  -5   3   2 706.943 47.4369   3
  -5   3   2 613.526 47.2393   2
   4  -3  -2 15.0953 13.3728   1
   4  -3  -2 8.12008 3.33323   3
   4  -3  -2 5.52957 3.36680   4
  -4   3   2 5.32318 1.94917   2
  -4   3   2 10.4530 3.45257   3
   3  -3  -2 225.719 25.3422   1
   3  -3  -2 213.638 16.4550   4
   3  -3  -2 233.614 16.1909   3
  -3   3   2 213.143 16.0438   3
  -3   3   2 201.068 15.9646   2
   2  -3  -2 331.999 22.8553   4
   2  -3  -2 314.180 27.5701   1
   2  -3  -2 321.850 28.5654   1
  -2   3   2 323.089 22.5932   2
  -2   3   2 321.053 22.4389   3
  -2   3   2 262.757 22.6291   4
   1  -3  -2 394.544 32.8955   1
  -1   3   2 418.324 29.3077   2
   0  -3  -2 218.558 15.8894   4
   0  -3  -2 238.690 19.1815   1
   0   3   2 188.295 15.7294   4
   0   3   2 233.297 15.6393   2
   0   3   2 207.737 18.2665   1
  -1  -3  -2 128.573 8.09815   2
  -1  -3  -2 97.0428 8.13951   3
  -1  -3  -2 113.193 11.2710   1
  -1  -3  -2 113.846 8.44894   4
   1   3   2 101.079 8.26751   4
   1   3   2 121.795 8.01179   2
   1   3   2 113.394 10.1820   1
   1   3   2 94.7907 8.12657   3
  -2  -3  -2 459.918 34.5223   2
  -2  -3  -2 524.429 34.6747   4
  -2  -3  -2 489.795 36.2794   1
  -2  -3  -2 458.506 34.7554   3
   2   3   2 516.474 35.9493   1
   2   3   2 461.598 34.7554   3
   2   3   2 488.473 34.5986   4
   2   3   2 480.618 34.4906   2
  -3  -3  -2 481.164 35.6099   1
  -3  -3  -2 411.149 33.4621   2
  -3  -3  -2 467.255 33.9355   3
   3   3   2 499.708 35.0371   1
   3   3   2 519.062 33.5457   2
   3   3   2 443.148 33.8621   3
  -4  -3  -2 178.928 16.6491   1
  -4  -3  -2 172.256 13.5652   3
   4   3   2 180.449 15.2165   1
   4   3   2 178.662 12.8874   2
  -5  -3  -2 1.80548 6.11771   1
  -5  -3  -2 -2.2671 2.23316   3
   5   3   2 1.45210 0.94697   2
   5   3   2 -4.9214 4.89156   1
  -6  -3  -2 379.534 28.1562   3
  -6  -3  -2 364.323 31.1493   1
   6   3   2 386.185 27.0425   2
   6   3   2 361.383 30.2622   1
  -7  -3  -2 72.5520 8.97407   3
  -7  -3  -2 73.5690 12.8431   1
   7   3   2 78.1319 12.4498   1
   7   3   2 74.0419 6.22237   2
  -8  -3  -2 57.2451 9.69291   3
   8   3   2 33.2204 4.27870   2
  -9  -3  -2 45.5851 8.32683   3
   9   3   2 32.0712 4.77249   2
  -6   4   2 4.30685 3.65144   2
   5  -4  -2 16.1533 4.91857   4
  -5   4   2 22.3733 3.44037   3
   4  -4  -2 222.895 17.5443   4
   4  -4  -2 197.706 31.1656   1
  -4   4   2 203.454 16.6467   2
  -4   4   2 235.586 16.4901   3
   3  -4  -2 197.572 32.1457   1
   3  -4  -2 308.218 29.7245   1
   3  -4  -2 270.526 19.4494   4
  -3   4   2 234.383 18.8011   2
   2  -4  -2 253.623 24.8902   1
   2  -4  -2 166.407 29.1974   1
   2  -4  -2 228.144 16.7368   4
  -2   4   2 209.066 16.1751   2
   1  -4  -2 6.93137 2.42542   4
   1  -4  -2 12.7462 8.79123   1
  -1   4   2 5.09934 1.51693   2
   0  -4  -2 164.196 12.5174   4
   0  -4  -2 171.417 17.5848   1
   0   4   2 154.061 16.1956   1
   0   4   2 166.915 12.1135   2
  -1  -4  -2 1342.63 88.8023   1
  -1  -4  -2 1247.90 86.5460   4
  -1  -4  -2 1148.04 86.3584   3
   1   4   2 1260.95 88.3463   1
   1   4   2 1094.55 86.4758   4
   1   4   2 1209.83 86.3896   3
  -2  -4  -2 200.559 17.9077   1
  -2  -4  -2 183.971 14.4053   3
  -2  -4  -2 185.180 14.1764   2
   2   4   2 197.226 14.4490   3
   2   4   2 202.709 16.6178   1
   2   4   2 217.047 14.0960   2
   2   4   2 185.841 14.4137   4
  -3  -4  -2 120.397 10.6512   3
  -3  -4  -2 142.991 14.4751   1
  -3  -4  -2 117.467 9.65852   2
  -3  -4  -2 144.456 10.2842   4
   3   4   2 122.756 9.97561   4
   3   4   2 127.936 10.2557   3
   3   4   2 141.558 12.5599   1
   3   4   2 148.624 9.64835   2
  -4  -4  -2 4.92942 6.33631   1
  -4  -4  -2 2.22485 1.86667   3
   4   4   2 -5.5988 4.49405   1
  -5  -4  -2 228.521 17.7567   3
  -5  -4  -2 199.783 21.3755   1
   5   4   2 239.354 20.2290   1
   5   4   2 243.867 16.7502   2
  -6  -4  -2 159.566 18.7389   1
  -6  -4  -2 163.490 13.7998   3
   6   4   2 174.700 17.5930   1
   6   4   2 162.906 12.2151   2
  -7  -4  -2 65.9071 12.6629   1
  -7  -4  -2 76.5010 9.17577   3
   7   4   2 78.9784 12.8699   1
   7   4   2 71.4713 6.06179   2
  -8  -4  -2 5.67949 4.71607   3
  -9  -4  -2 132.100 16.4317   3
   9   4   2 122.903 10.1498   2
   5  -5  -2 48.3770 10.4526   4
  -5   5   2 69.6750 7.40721   2
   4  -5  -2 197.942 16.8715   4
   3  -5  -2 -22.324 21.4630   1
   2  -5  -2 247.764 18.8983   4
   2  -5  -2 274.041 27.3978   1
  -2   5   2 226.911 18.1359   2
   1  -5  -2 190.864 21.1581   1
   1  -5  -2 164.829 13.1997   4
  -1   5   2 155.390 12.4245   2
   0  -5  -2 229.712 22.0088   1
   0  -5  -2 219.261 16.0773   4
   0   5   2 171.978 20.7137   1
   0   5   2 212.882 15.4825   2
  -1  -5  -2 71.2428 13.7835   1
  -1  -5  -2 58.2420 6.00542   4
   1   5   2 57.2095 10.6235   1
   1   5   2 51.9282 4.56242   2
  -2  -5  -2 34.1352 4.57236   4
  -2  -5  -2 31.1156 8.97410   1
  -2  -5  -2 25.2628 3.37663   3
   2   5   2 29.3820 6.66332   1
   2   5   2 29.2020 3.70514   3
   2   5   2 29.6267 2.63396   2
  -3  -5  -2 91.2087 8.10121   4
  -3  -5  -2 94.3265 14.4180   1
   3   5   2 78.2045 11.3694   1
   3   5   2 100.520 6.99969   2
   3   5   2 94.6208 7.95742   3
  -4  -5  -2 365.262 26.1208   4
  -4  -5  -2 362.028 30.4383   1
  -4  -5  -2 362.423 26.4574   3
   4   5   2 302.743 25.9508   4
   4   5   2 377.984 28.8535   1
   4   5   2 387.423 25.7344   2
  -5  -5  -2 109.946 9.93430   3
  -5  -5  -2 104.996 16.7319   1
   5   5   2 114.399 8.36671   2
   5   5   2 109.478 13.8264   1
  -6  -5  -2 1.55898 9.57138   1
  -6  -5  -2 5.11249 3.54334   3
   6   5   2 5.35631 8.34168   1
   6   5   2 4.56398 1.33860   2
  -7  -5  -2 25.5342 12.4873   1
  -7  -5  -2 51.9272 8.63184   3
   7   5   2 52.2609 4.57430   2
   7   5   2 57.8979 12.5515   1
  -8  -5  -2 191.076 16.8515   3
   8   5   2 169.152 13.3640   2
  -9  -5  -2 53.8337 9.71008   3
   9   5   2 34.3643 4.49894   2
  -4   6   2 -1.7052 3.42853   2
   3  -6  -2 78.4192 10.0753   4
  -3   6   2 65.8060 7.12250   2
   2  -6  -2 117.743 34.3912   1
   2  -6  -2 136.494 25.3984   1
   2  -6  -2 171.604 13.9267   4
  -2   6   2 148.093 12.2138   2
   1  -6  -2 77.2160 16.5784   1
   1  -6  -2 103.100 9.34593   4
  -1   6   2 73.8169 7.24511   2
   0  -6  -2 13.7424 11.4996   1
   0  -6  -2 3.26597 3.26719   4
   0   6   2 0.03026 1.64928   2
   0   6   2 -3.4986 14.3412   1
  -1  -6  -2 60.9092 12.6681   1
  -1  -6  -2 63.2748 6.91815   4
   1   6   2 46.3015 4.74743   2
   1   6   2 64.4421 11.6800   1
  -2  -6  -2 215.572 23.6897   1
  -2  -6  -2 218.094 16.4045   3
  -2  -6  -2 224.431 17.1415   4
   2   6   2 220.020 16.4977   3
   2   6   2 209.530 21.3311   1
   2   6   2 238.109 16.2205   2
  -3  -6  -2 196.776 15.7238   4
  -3  -6  -2 192.634 15.2658   3
   3   6   2 210.805 14.7315   2
   3   6   2 209.381 15.4825   3
  -4  -6  -2 7.91651 3.05063   4
  -4  -6  -2 14.7399 10.7478   1
  -4  -6  -2 5.02469 2.54950   3
   4   6   2 5.36391 7.43340   1
   4   6   2 6.45169 1.22605   2
  -5  -6  -2 -3.1753 10.8149   1
  -5  -6  -2 6.40196 3.14307   3
   5   6   2 -3.8406 7.91292   1
  -6  -6  -2 153.128 13.4436   3
  -6  -6  -2 130.561 22.5780   1
   6   6   2 115.995 19.5890   1
   6   6   2 161.307 11.2012   2
  -7  -6  -2 69.6774 16.7398   1
  -7  -6  -2 98.6966 10.8741   3
   7   6   2 95.2987 7.35814   2
   7   6   2 81.2944 17.8665   1
  -8  -6  -2 46.4753 8.08732   3
   8   6   2 46.3361 4.68284   2
  -9  -6  -2 -4.1540 6.76050   3
   9   6   2 -0.5870 1.86555   2
   3  -7  -2 79.9665 11.7974   4
  -3   7   2 76.9082 8.43067   2
   2  -7  -2 18.8247 5.76098   4
  -2   7   2 10.7045 3.05824   2
  -1   7   2 11.8486 2.81044   2
   0  -7  -2 101.769 10.1946   4
   0   7   2 86.2720 7.70920   2
  -1  -7  -2 203.205 26.3063   1
  -1  -7  -2 201.011 15.6123   4
   1   7   2 172.051 29.5867   1
   1   7   2 177.876 14.0968   2
  -2  -7  -2 4.69591 3.75500   4
  -2  -7  -2 8.45979 13.8211   1
   2   7   2 12.2543 10.1872   1
   2   7   2 4.64491 1.70913   2
  -3  -7  -2 -5.8605 13.5964   1
  -3  -7  -2 0.22553 2.24292   3
  -3  -7  -2 2.74453 3.69299   4
   3   7   2 1.20283 1.37308   2
   3   7   2 4.71824 10.6079   1
  -4  -7  -2 46.8871 16.1402   1
  -4  -7  -2 42.7172 5.73085   3
  -4  -7  -2 47.3961 7.32440   4
   4   7   2 31.0871 11.2916   1
   4   7   2 47.2259 4.06318   2
  -5  -7  -2 114.542 19.1724   1
  -5  -7  -2 124.380 10.8263   3
  -5  -7  -2 104.486 10.7296   4
   5   7   2 128.153 8.96866   2
   5   7   2 99.8377 16.5676   1
  -6  -7  -2 60.9248 8.20908   4
  -6  -7  -2 77.4097 17.3884   1
  -6  -7  -2 80.1827 9.30376   3
   6   7   2 79.6385 6.03657   2
   6   7   2 55.9216 15.8926   1
  -7  -7  -2 77.1439 11.0710   3
   7   7   2 59.8627 5.50743   2
  -8  -7  -2 93.4613 12.8101   3
   8   7   2 65.5824 6.20350   2
   2  -8  -2 29.4831 7.77267   4
  -2   8   2 26.8157 4.21468   2
   1  -8  -2 39.5856 7.19653   4
  -1   8   2 42.5861 5.60690   2
   0  -8  -2 32.0143 6.31721   4
   0   8   2 30.4593 4.44931   2
  -1  -8  -2 6.59184 5.91736   4
  -2  -8  -2 4.78289 4.86215   4
  -2  -8  -2 6.78031 17.3728   1
   2   8   2 23.7819 13.1942   1
   2   8   2 0.27244 1.87856   2
  -3  -8  -2 104.861 10.8693   4
   3   8   2 67.3603 16.0639   1
   3   8   2 104.656 8.00233   2
  -4  -8  -2 147.358 14.6424   4
  -4  -8  -2 172.980 13.4599   3
   4   8   2 139.144 29.0436   1
   4   8   2 181.247 12.5454   2
  -5  -8  -2 14.1256 4.08640   3
  -5  -8  -2 12.1500 4.78152   4
  -5  -8  -2 9.81827 18.9115   1
   5   8   2 14.3130 2.14688   2
   5   8   2 20.5358 20.4175   1
  -6  -8  -2 5.20636 4.43290   4
  -6  -8  -2 7.76052 5.03268   3
  -6  -8  -2 16.8745 21.5406   1
   6   8   2 -27.048 23.8802   1
   6   8   2 10.1586 1.99521   2
  -7  -8  -2 92.4210 11.7817   3
  -7  -8  -2 55.1248 9.19433   4
   7   8   2 75.0014 7.93091   2
  -8  -8  -2 57.6456 9.94098   3
   8   8   2 50.5957 5.27368   2
   0  -9  -2 7.24401 6.39548   4
   0   9   2 7.86257 3.24027   2
  -1  -9  -2 39.7853 7.82010   4
   1   9   2 41.7186 5.13387   2
  -2  -9  -2 55.2352 11.0107   4
   2   9   2 50.9344 5.46720   2
  -3  -9  -2 20.2102 6.25474   4
   3   9   2 27.3024 3.86808   2
  -4  -9  -2 7.04523 5.57281   4
   4   9   2 5.06369 2.06906   2
  -5  -9  -2 10.0748 4.67997   3
  -5  -9  -2 4.17798 5.35727   4
   5   9   2 12.1285 2.34754   2
  -6  -9  -2 34.1764 6.25308   3
  -6  -9  -2 26.9767 7.18347   4
   6   9   2 40.9118 4.37820   2
  -6  -8   3 25.6802 6.21835   4
  -6  -8   3 37.5900 7.35829   3
  -5  -8   3 28.2343 6.10698   3
  -5  -8   3 20.6226 6.16190   4
  -4  -8   3 10.4439 4.81726   3
  -4  -8   3 2.28210 5.86508   4
   3   8  -3 52.2626 4.68850   2
   2   8  -3 135.938 10.6371   2
  -2  -8   3 144.257 14.8321   4
   1   8  -3 50.6695 4.83459   2
  -1  -8   3 38.8648 7.91663   4
   0   8  -3 15.5666 2.75308   2
   0  -8   3 11.0776 5.96016   4
  -7  -7   3 12.8823 4.50363   4
  -6  -7   3 8.53838 4.61471   4
   5   7  -3 71.7231 5.55014   2
  -5  -7   3 63.2554 9.36615   4
  -5  -7   3 70.8912 9.92247   3
   4   7  -3 80.9723 6.71738   2
  -4  -7   3 80.0737 10.2619   4
  -4  -7   3 105.251 9.68439   3
   3   7  -3 87.4362 6.95540   2
  -3  -7   3 80.5048 10.3773   4
  -3  -7   3 99.0286 9.20673   3
   2   7  -3 38.4284 3.99405   2
  -2  -7   3 45.0003 6.06211   3
   1   7  -3 23.8876 3.27402   2
  -1  -7   3 26.0430 5.24722   4
   0   7  -3 81.7412 7.24599   2
   0  -7   3 93.9583 10.8250   4
  -1   7  -3 66.9342 7.96561   2
  -2   7  -3 13.7048 2.95772   2
   2  -7   3 14.2278 6.30188   4
  -8  -6   3 -3.9674 7.70293   3
   7   6  -3 31.9243 17.7267   1
  -7  -6   3 4.30343 5.71431   3
   6   6  -3 52.2581 16.7327   1
   6   6  -3 65.2581 4.87405   2
  -6  -6   3 57.8216 9.51049   3
  -6  -6   3 52.7201 7.63178   4
   5   6  -3 248.689 16.0961   2
   5   6  -3 186.539 27.2606   1
  -5  -6   3 205.483 17.5705   4
  -5  -6   3 220.294 18.2792   3
   4   6  -3 92.1825 6.87837   2
   4   6  -3 77.7877 14.7020   1
  -4  -6   3 91.8192 9.59268   3
  -4  -6   3 91.3344 9.39103   4
   3   6  -3 12.0256 9.37503   1
   3   6  -3 0.21620 1.09083   2
  -3  -6   3 2.80871 3.62708   4
  -3  -6   3 3.57798 3.26396   3
   2   6  -3 92.3849 7.19991   2
   2   6  -3 73.0052 14.2329   1
  -2  -6   3 103.744 9.57004   4
   1   6  -3 200.570 15.2905   2
  -1  -6   3 216.367 16.7723   4
   0   6  -3 248.162 19.1485   2
   0  -6   3 275.435 20.4123   4
  -1   6  -3 75.7913 6.97711   2
   1  -6   3 91.8145 9.35945   4
  -2   6  -3 3.36927 2.23321   2
  -3   6  -3 58.2114 6.55367   2
   3  -6   3 66.3477 9.57227   4
   8   5  -3 37.9744 3.83229   2
  -8  -5   3 53.5159 10.7976   3
   7   5  -3 74.3553 18.9853   1
   7   5  -3 101.550 7.58193   2
  -7  -5   3 111.423 19.7673   1
  -7  -5   3 96.8922 12.1304   3
   6   5  -3 89.7024 19.6626   1
   6   5  -3 127.849 8.43858   2
  -6  -5   3 115.594 12.9025   3
  -6  -5   3 96.2214 9.87720   4
  -6  -5   3 114.884 18.1120   1
   5   5  -3 69.7619 13.8801   1
   5   5  -3 62.0401 5.26747   2
  -5  -5   3 66.8620 7.41673   4
  -5  -5   3 93.7879 17.3363   1
  -5  -5   3 70.3402 8.26959   3
   4   5  -3 175.025 11.1911   2
   4   5  -3 139.845 19.1455   1
  -4  -5   3 130.959 11.1478   2
  -4  -5   3 152.796 12.6406   4
  -4  -5   3 137.058 19.7760   1
  -4  -5   3 168.210 13.0596   3
   3   5  -3 249.446 17.4030   2
   3   5  -3 221.976 22.7153   1
  -3  -5   3 262.954 18.6471   3
  -3  -5   3 246.702 18.4887   4
  -3  -5   3 209.598 17.3615   2
  -3  -5   3 265.747 23.9547   1
   2   5  -3 171.861 11.6443   2
   2   5  -3 135.560 16.8827   1
  -2  -5   3 136.139 11.8843   2
  -2  -5   3 166.619 12.4475   3
  -2  -5   3 155.107 12.5775   4
   1   5  -3 82.5284 6.42263   2
  -1  -5   3 85.1986 8.03644   4
  -1  -5   3 73.4852 9.52050   3
  -1  -5   3 98.0202 15.7943   1
   0   5  -3 -0.7073 1.25970   2
   0  -5   3 6.87113 2.56798   3
   0  -5   3 1.35695 2.76409   4
  -1   5  -3 387.646 30.2257   2
   1  -5   3 449.554 30.8584   4
  -2   5  -3 79.6321 7.47452   2
   2  -5   3 102.634 9.08269   4
  -3   5  -3 30.3106 4.50938   2
   3  -5   3 46.5584 7.29782   4
  -4   5  -3 -1.0944 2.63990   2
   4  -5   3 0.78610 4.07610   4
  -5   5  -3 33.0717 5.64484   2
   5  -5   3 35.3179 8.44766   4
  -9  -4   3 35.2905 9.19103   3
   8   4  -3 105.669 8.21830   2
  -8  -4   3 107.780 12.9877   3
   7   4  -3 24.8171 2.80731   2
   7   4  -3 32.5845 15.3371   1
  -7  -4   3 29.6685 13.8178   1
  -7  -4   3 31.7170 6.28080   3
   6   4  -3 -2.0571 10.3132   1
  -6  -4   3 3.99960 3.88384   3
  -6  -4   3 -1.1726 11.0010   1
   5   4  -3 -1.3002 8.49768   1
  -5  -4   3 3.89256 3.31405   3
  -5  -4   3 0.77830 8.77099   1
  -5  -4   3 -4.4925 2.65563   4
   4   4  -3 1300.60 86.5024   2
   4   4  -3 1249.61 89.6596   1
  -4  -4   3 1171.24 89.8316   1
  -4  -4   3 1236.16 87.5265   3
  -4  -4   3 1308.49 87.0340   4
  -4  -4   3 1047.03 86.5059   2
   3   4  -3 79.9057 5.19353   2
   3   4  -3 64.3415 10.5903   1
  -3  -4   3 75.4585 10.7851   1
  -3  -4   3 64.2047 6.78012   3
  -3  -4   3 59.6636 5.13186   2
  -3  -4   3 72.6995 6.87063   4
   2   4  -3 0.49692 2.66855   3
   2   4  -3 4.53555 0.96747   2
   2   4  -3 5.83585 4.73870   1
  -2  -4   3 11.4547 6.57285   1
  -2  -4   3 3.97439 2.31582   4
  -2  -4   3 8.12143 2.40351   3
  -2  -4   3 2.07934 0.89128   2
   1   4  -3 162.639 12.3374   2
   1   4  -3 170.370 13.6331   3
  -1  -4   3 159.689 12.3410   2
  -1  -4   3 184.404 13.1570   3
  -1  -4   3 171.542 13.0710   4
   0   4  -3 331.911 26.6910   2
   0  -4   3 408.800 26.6870   2
   0  -4   3 362.374 27.1270   4
   0  -4   3 384.275 27.0875   3
  -1   4  -3 225.778 17.3407   2
   1  -4   3 218.578 17.4611   3
   1  -4   3 231.937 17.8697   4
   1  -4   3 275.025 17.8661   3
  -2   4  -3 2.18457 1.55453   2
   2  -4   3 5.71749 3.28711   3
   2  -4   3 4.52748 1.92688   3
   2  -4   3 6.77773 2.62280   4
  -3   4  -3 72.6999 6.57745   2
   3  -4   3 63.8641 9.09709   3
   3  -4   3 87.3728 7.92299   4
  -4   4  -3 29.0279 4.27205   2
   4  -4   3 35.8646 6.52800   4
  -5   4  -3 154.559 12.9340   2
   5  -4   3 168.747 14.0074   4
  -6   4  -3 11.1315 3.54887   2
   9   3  -3 243.467 18.4503   2
  -9  -3   3 258.453 22.3664   3
   8   3  -3 1.86199 1.45968   2
  -8  -3   3 6.03279 5.59020   3
   7   3  -3 80.6380 16.3263   1
   7   3  -3 98.8258 7.25862   2
  -7  -3   3 79.5259 10.5087   3
  -7  -3   3 127.502 21.4904   1
   6   3  -3 196.807 22.8808   1
   6   3  -3 223.779 15.7005   2
  -6  -3   3 209.805 24.1383   1
  -6  -3   3 219.932 17.6946   3
   5   3  -3 161.593 13.4526   2
   5   3  -3 195.112 13.4621   2
   5   3  -3 204.198 19.4290   1
  -5  -3   3 186.930 20.2813   1
  -5  -3   3 193.798 15.1167   3
   4   3  -3 82.7229 11.8949   1
   4   3  -3 70.9619 6.16707   2
   4   3  -3 88.7251 6.12424   2
  -4  -3   3 86.2181 7.01679   4
  -4  -3   3 85.1111 7.82041   3
  -4  -3   3 100.135 13.3375   1
   3   3  -3 89.5098 5.84022   2
   3   3  -3 75.8407 10.2720   1
  -3  -3   3 69.9399 5.83566   2
  -3  -3   3 77.2563 6.72123   4
  -3  -3   3 86.1021 11.5792   1
  -3  -3   3 86.0406 7.25303   3
   2   3  -3 787.312 54.6637   3
   2   3  -3 755.130 55.8229   1
   2   3  -3 833.716 54.0590   2
  -2  -3   3 695.190 54.0302   2
  -2  -3   3 767.949 56.2540   1
  -2  -3   3 729.556 54.4440   4
   1   3  -3 213.610 15.2210   3
   1   3  -3 194.208 14.1187   2
  -1  -3   3 204.139 16.9278   1
  -1  -3   3 206.427 14.7970   3
  -1  -3   3 198.177 14.7035   4
  -1  -3   3 168.199 14.1114   2
   0   3  -3 165.791 13.6897   2
   0  -3   3 200.635 14.3352   3
   0  -3   3 218.789 13.6805   2
   0  -3   3 171.270 14.0911   4
  -1   3  -3 12.4804 2.02595   2
   1  -3   3 17.0452 3.45262   4
   1  -3   3 13.3022 2.38294   3
  -2   3  -3 210.702 16.0366   2
   2  -3   3 244.608 16.3601   4
   2  -3   3 226.557 16.1981   3
   2  -3   3 189.358 16.9929   3
  -3   3  -3 219.469 17.2057   2
   3  -3   3 223.801 17.3129   3
   3  -3   3 256.227 17.5050   4
  -4   3  -3 53.7152 5.80841   2
  -4   3  -3 72.0009 6.64323   3
   4  -3   3 70.8169 6.92496   4
  -5   3  -3 12.5338 2.87522   2
  -5   3  -3 19.9150 3.52883   3
  -6   3  -3 18.7917 3.57516   2
  -6   3  -3 29.0267 4.57156   3
  -9  -2   3 7.15361 6.58456   3
   8   2  -3 72.9105 6.01976   2
  -8  -2   3 60.4662 10.0550   3
   7   2  -3 184.640 24.3360   1
   7   2  -3 194.279 14.1773   2
  -7  -2   3 175.163 24.8841   1
  -7  -2   3 197.440 16.4888   3
   6   2  -3 116.343 17.6297   1
   6   2  -3 122.075 9.28205   2
  -6  -2   3 121.067 11.2786   3
  -6  -2   3 153.393 18.5953   1
   5   2  -3 11.1872 7.12965   1
   5   2  -3 4.66199 1.07643   2
   5   2  -3 4.24700 1.09696   2
  -5  -2   3 4.67551 7.38018   1
  -5  -2   3 1.79612 2.72431   3
   4   2  -3 242.400 20.4528   1
   4   2  -3 236.941 16.8873   4
   4   2  -3 209.782 16.3820   2
   4   2  -3 205.203 16.4090   2
  -4  -2   3 230.013 17.4680   3
  -4  -2   3 238.417 20.7217   1
  -4  -2   3 247.832 16.7786   4
   3   2  -3 829.845 56.4827   4
   3   2  -3 674.152 56.1170   2
   3   2  -3 711.260 56.0909   2
   3   2  -3 780.201 56.8158   3
   3   2  -3 840.740 58.5383   1
  -3  -2   3 838.430 58.6713   1
  -3  -2   3 802.929 56.8447   3
  -3  -2   3 858.519 56.4411   4
   2   2  -3 705.915 49.4767   3
   2   2  -3 683.405 49.2921   4
   2   2  -3 673.563 50.5891   1
  -2  -2   3 700.846 49.5480   3
  -2  -2   3 670.690 50.8130   1
  -2  -2   3 700.236 49.2503   4
   1   2  -3 315.166 23.9191   4
   1   2  -3 291.379 23.5185   2
   1   2  -3 384.173 24.3115   3
  -1  -2   3 356.732 24.1194   3
  -1  -2   3 315.697 23.8752   4
  -1  -2   3 325.051 25.1486   1
   0   2  -3 72.8562 6.01790   2
   0   2  -3 76.3025 6.46948   4
   0  -2   3 87.8523 5.98561   2
   0  -2   3 93.0639 7.01895   3
   0  -2   3 79.8093 6.41189   4
  -1   2  -3 393.821 29.8328   2
   1  -2   3 442.963 30.2346   3
   1  -2   3 447.303 29.8200   2
   1  -2   3 430.000 30.0244   4
   1  -2   3 369.875 30.3747   3
  -2   2  -3 305.778 22.4876   3
  -2   2  -3 278.179 22.0343   2
   2  -2   3 307.430 22.1413   4
   2  -2   3 312.809 22.1977   4
   2  -2   3 292.465 22.2440   3
   2  -2   3 335.613 22.0740   2
  -3   2  -3 64.2754 5.71820   2
   3  -2   3 76.8168 6.18293   4
   3  -2   3 66.8663 6.05120   3
   3  -2   3 72.3894 6.01871   4
  -4   2  -3 13.7274 2.72517   3
  -4   2  -3 9.15569 1.98680   2
  -5   2  -3 142.800 11.7328   2
  -5   2  -3 159.747 12.3795   3
  -6   2  -3 207.182 17.1665   2
  -6   2  -3 240.199 17.7915   3
  -7   2  -3 6.19773 3.21485   2
  -7   2  -3 -0.1370 4.27330   3
   8   1  -3 91.6012 7.90062   2
  -8  -1   3 107.359 11.4291   3
   7   1  -3 89.0845 7.26883   2
   7   1  -3 77.8399 17.6139   1
  -7  -1   3 93.0865 10.0380   3
  -7  -1   3 125.151 20.6679   1
   6   1  -3 200.195 15.0371   2
   6   1  -3 199.676 21.8028   1
  -6  -1   3 212.377 16.6536   3
  -6  -1   3 208.801 22.3185   1
   5   1  -3 296.540 24.9850   1
   5   1  -3 259.495 20.4877   2
   5   1  -3 316.828 20.7384   2
  -5  -1   3 297.326 25.7743   1
  -5  -1   3 261.340 21.5155   3
   4   1  -3 394.158 28.6483   2
   4   1  -3 405.750 31.7186   1
  -4  -1   3 429.744 32.3355   1
  -4  -1   3 380.259 29.4161   3
   3   1  -3 103.911 11.0630   1
   3   1  -3 105.026 8.22889   4
   3   1  -3 92.8734 7.70065   2
   3   1  -3 101.110 7.74723   2
  -3  -1   3 110.066 8.70223   3
  -3  -1   3 120.562 12.1942   1
  -3  -1   3 121.451 8.21772   4
   2   1  -3 98.8799 9.75808   1
   2   1  -3 98.1269 7.89991   4
   2   1  -3 113.138 8.34452   3
  -2  -1   3 109.313 10.5812   1
  -2  -1   3 103.643 8.40529   3
  -2  -1   3 101.708 7.86068   4
   1   1  -3 627.416 41.1734   3
   1   1  -3 533.059 40.8793   4
   1   1  -3 532.337 41.6595   1
  -1  -1   3 550.725 41.8395   1
  -1  -1   3 565.964 40.8710   4
  -1  -1   3 624.175 41.1733   3
   0   1  -3 724.498 57.3120   2
   0   1  -3 813.791 57.5282   4
   0   1  -3 793.618 57.9969   3
   0  -1   3 800.152 57.3134   2
   0  -1   3 906.137 57.5586   4
  -1   1  -3 471.727 32.7282   3
  -1   1  -3 431.780 32.3625   4
  -1   1  -3 398.361 32.2410   2
   1  -1   3 463.284 32.2630   2
   1  -1   3 472.692 32.6751   3
   1  -1   3 476.204 32.3998   4
  -2   1  -3 171.455 14.0085   2
  -2   1  -3 197.771 14.4022   3
   2  -1   3 203.225 14.1120   4
   2  -1   3 194.435 14.3176   3
   2  -1   3 196.064 14.0231   2
  -3   1  -3 14.1130 2.09618   2
   3  -1   3 14.1680 2.75568   3
  -4   1  -3 324.635 25.0247   2
  -4   1  -3 364.504 25.3611   3
  -5   1  -3 194.554 15.3547   2
  -5   1  -3 214.839 15.9130   3
  -6   1  -3 33.1131 4.23319   2
  -7   1  -3 28.6289 5.24415   3
   7  -1   3 18.7579 3.09066   2
  -8   1  -3 164.921 15.2481   3
   8  -1   3 156.170 12.7521   2
  -8   0   3 5.85254 4.89745   3
  -7   0   3 66.5894 8.48090   3
   6   0  -3 249.603 24.8968   1
  -6   0   3 251.216 18.9312   2
  -6   0   3 249.885 19.9110   3
  -6   0   3 286.068 26.8861   1
   5   0  -3 168.156 17.6835   1
  -5   0   3 183.462 19.2258   1
  -5   0   3 163.198 12.5163   2
  -5   0   3 165.538 13.4637   3
   4   0  -3 -3.7617 5.07981   1
   4   0  -3 2.56934 0.88848   2
  -4   0   3 0.19188 1.13894   2
  -4   0   3 0.45783 2.04492   3
  -4   0   3 9.06551 6.31903   1
   3   0  -3 678.895 45.6393   3
   3   0  -3 604.150 45.2756   4
   3   0  -3 610.054 47.1060   1
   3   0  -3 682.532 45.1559   2
  -3   0   3 629.385 45.2759   4
  -3   0   3 688.799 47.6859   1
  -3   0   3 550.692 45.1620   2
   2   0  -3 462.405 35.9286   1
   2   0  -3 534.320 34.9230   3
   2   0  -3 457.118 34.6305   4
   2   0  -3 509.076 34.4453   2
  -2   0   3 512.684 36.3414   1
  -2   0   3 483.907 34.9478   3
  -2   0   3 503.982 34.6341   4
  -2   0   3 414.968 34.4525   2
   1   0  -3 559.480 37.0990   3
   1   0  -3 469.039 36.8176   4
   1   0  -3 470.657 37.6087   1
   1   0  -3 555.411 36.6148   2
  -1   0   3 514.426 37.8592   1
  -1   0   3 510.272 36.8226   4
  -1   0   3 484.885 36.6231   2
  -1   0   3 564.116 37.1748   3
   0   0  -3 -1.1131 0.84706   4
   0   0  -3 -2.4145 1.80906   3
   0   0  -3 0.60924 0.23361   2
   0   0   3 0.16210 1.56575   3
   0   0   3 0.46685 0.84878   4
   0   0   3 0.45055 0.21643   2
  -1   0  -3 28.9724 2.62467   4
  -1   0  -3 29.5910 3.44230   3
   1   0   3 28.9370 3.15130   3
   1   0   3 25.9967 2.18237   2
   1   0   3 31.9536 2.62388   4
   1   0   3 25.3080 2.26972   2
  -2   0  -3 454.278 33.0821   4
  -2   0  -3 502.097 33.4154   3
   2   0   3 492.316 33.4614   3
   2   0   3 426.154 33.0568   2
   2   0   3 444.457 33.1385   2
  -3   0  -3 504.663 39.7238   3
   3   0   3 564.181 38.9740   3
   3   0   3 548.871 38.6642   2
  -4   0  -3 218.266 16.4334   3
  -5   0  -3 9.76304 2.73198   3
   5   0   3 7.61273 1.49215   2
  -6   0  -3 177.920 13.9208   3
   6   0   3 159.514 12.6741   2
  -7   0  -3 256.302 20.4088   3
  -8   0  -3 41.2216 6.43106   3
   8   0   3 34.9542 4.92009   2
  -8   1   3 81.6812 10.1716   3
  -8   1   3 96.5563 8.94725   2
  -7   1   3 107.944 10.8006   3
  -7   1   3 107.066 9.26119   2
   6  -1  -3 19.4972 11.2565   1
  -6   1   3 22.9381 3.74955   2
  -6   1   3 25.7966 14.1455   1
  -6   1   3 27.5627 4.49708   3
   5  -1  -3 65.0865 13.5552   1
  -5   1   3 72.1303 6.34655   2
  -5   1   3 97.7678 16.8839   1
  -5   1   3 80.7223 7.49838   3
   4  -1  -3 215.122 18.5903   1
  -4   1   3 195.288 15.2068   3
  -4   1   3 179.148 14.6383   2
  -4   1   3 232.639 20.5450   1
   3  -1  -3 806.924 53.6673   3
   3  -1  -3 807.463 53.2531   2
   3  -1  -3 749.907 55.4189   1
   3  -1  -3 702.623 53.3778   4
  -3   1   3 792.555 55.9942   1
  -3   1   3 679.465 53.6548   3
  -3   1   3 683.829 53.2921   2
  -3   1   3 763.787 53.4176   4
   2  -1  -3 13.6266 2.75362   4
   2  -1  -3 19.4179 3.18930   3
   2  -1  -3 13.5245 4.21116   1
  -2   1   3 23.0371 5.72022   1
  -2   1   3 17.2572 1.80567   2
  -2   1   3 15.4103 3.06659   3
  -2   1   3 20.4372 2.99449   4
   1  -1  -3 0.62994 1.49118   3
   1  -1  -3 1.30775 3.05510   1
   1  -1  -3 -0.0785 1.05648   4
   1  -1  -3 0.78582 0.40057   2
  -1   1   3 0.25991 0.55043   2
  -1   1   3 2.54226 1.63139   3
  -1   1   3 -1.1580 3.60399   1
  -1   1   3 0.80869 1.16813   4
   0  -1  -3 646.382 45.3298   4
   0  -1  -3 578.133 45.1371   2
   0  -1  -3 654.437 46.5920   1
   0   1   3 617.629 45.1426   2
   0   1   3 711.797 45.6031   3
   0   1   3 585.401 45.6198   3
   0   1   3 660.546 45.3120   4
  -1  -1  -3 633.740 41.9233   3
  -1  -1  -3 597.243 41.6724   4
   1   1   3 603.057 41.6560   4
   1   1   3 484.603 41.5358   2
   1   1   3 609.334 41.9521   3
   1   1   3 583.385 42.6396   1
  -2  -1  -3 500.907 39.7870   2
  -2  -1  -3 610.633 40.1558   3
   2   1   3 519.689 39.8001   2
   2   1   3 607.654 40.2191   3
  -3  -1  -3 37.6978 4.18722   3
   3   1   3 40.6138 3.82738   3
   3   1   3 33.1810 3.15199   2
  -4  -1  -3 190.810 14.4096   3
   4   1   3 187.389 13.8182   2
  -5  -1  -3 185.741 14.4923   3
   5   1   3 184.303 13.6649   2
  -6  -1  -3 516.166 38.1154   3
   6   1   3 509.199 37.2723   2
   6   1   3 528.885 40.8174   1
  -7  -1  -3 20.0644 4.55397   3
   7   1   3 7.44748 11.5487   1
   7   1   3 20.7059 3.25932   2
  -8  -1  -3 29.4048 5.82006   3
   8   1   3 22.3575 3.90881   2
  -7   2   3 16.6900 3.43955   2
  -7   2   3 12.4949 4.33974   3
  -6   2   3 98.6386 9.38845   3
  -6   2   3 94.9466 8.40399   2
   5  -2  -3 260.444 24.3605   1
  -5   2   3 234.830 18.1179   2
  -5   2   3 267.934 27.7585   1
  -5   2   3 234.223 18.5505   3
   4  -2  -3 145.621 16.3775   1
   4  -2  -3 137.596 11.3463   4
   4  -2  -3 158.466 11.7730   3
  -4   2   3 128.516 10.6165   2
  -4   2   3 142.480 19.5164   1
  -4   2   3 133.767 11.0198   3
   3  -2  -3 3.70254 2.48788   3
   3  -2  -3 -3.5866 5.70845   1
   3  -2  -3 2.01004 2.31424   4
  -3   2   3 0.99656 2.03826   4
  -3   2   3 -4.1553 7.47942   1
  -3   2   3 2.98302 1.23514   2
  -3   2   3 0.06744 2.08608   3
   2  -2  -3 86.8920 6.75879   3
   2  -2  -3 66.2559 7.04371   4
   2  -2  -3 87.0252 10.7017   1
  -2   2   3 84.4364 6.99550   2
   1  -2  -3 513.060 39.2117   1
   1  -2  -3 526.652 36.8667   3
   1  -2  -3 499.299 36.8301   4
  -1   2   3 501.566 36.7917   4
  -1   2   3 553.416 36.6873   2
  -1   2   3 487.288 36.7933   3
   0  -2  -3 233.129 20.6277   1
   0  -2  -3 234.417 17.7797   4
   0   2   3 234.764 17.9379   3
   0   2   3 242.709 17.7171   4
   0   2   3 257.238 17.7665   3
   0   2   3 258.358 17.4827   2
  -1  -2  -3 564.943 37.0603   1
  -1  -2  -3 470.283 35.4874   3
  -1  -2  -3 540.566 35.4651   4
  -1  -2  -3 425.462 35.2213   2
   1   2   3 469.931 35.5069   3
   1   2   3 544.476 36.7055   1
   1   2   3 522.098 35.4066   4
   1   2   3 438.179 35.2059   2
  -2  -2  -3 5.10758 0.84511   2
  -2  -2  -3 9.19106 1.56775   4
  -2  -2  -3 5.93112 1.45056   3
   2   2   3 5.50891 1.29822   4
   2   2   3 10.0949 3.02948   1
   2   2   3 6.91717 0.95867   2
   2   2   3 7.01372 1.48226   3
  -3  -2  -3 388.080 31.0439   2
   3   2   3 486.772 32.7256   1
   3   2   3 436.442 31.5231   3
  -4  -2  -3 525.664 39.2339   1
  -4  -2  -3 524.658 38.1983   3
   4   2   3 515.590 37.6994   2
   4   2   3 545.038 39.4742   1
  -5  -2  -3 438.706 32.9808   1
  -5  -2  -3 432.638 31.6056   3
   5   2   3 443.661 33.6047   1
   5   2   3 407.973 30.8912   2
  -6  -2  -3 94.0032 13.0383   1
  -6  -2  -3 118.545 10.1362   3
   6   2   3 114.089 8.57032   2
   6   2   3 99.9715 15.4593   1
  -7  -2  -3 58.8986 10.0343   1
  -7  -2  -3 73.7683 8.58877   3
   7   2   3 57.3403 13.0760   1
   7   2   3 66.3017 5.84978   2
  -8  -2  -3 162.671 14.6842   3
   8   2   3 147.043 11.9134   2
  -9  -2  -3 58.5809 11.5337   3
   9   2   3 60.3552 6.49133   2
  -7   3   3 90.5116 13.5199   3
  -7   3   3 81.1182 9.22786   2
  -6   3   3 68.5346 7.70584   3
  -6   3   3 69.6343 7.84918   2
   5  -3  -3 21.1882 14.7940   1
   5  -3  -3 38.8720 7.54179   4
  -5   3   3 50.6705 5.75179   3
  -5   3   3 44.3930 5.13931   2
   4  -3  -3 21.4997 3.99566   4
   4  -3  -3 15.2703 10.2668   1
   4  -3  -3 21.8179 4.28480   3
  -4   3   3 24.2877 4.25712   3
  -4   3   3 21.9269 3.01354   2
   3  -3  -3 201.130 20.6661   1
   3  -3  -3 174.413 14.7238   4
   3  -3  -3 203.713 14.5160   3
  -3   3   3 184.129 14.2674   3
  -3   3   3 186.865 14.1106   2
   2  -3  -3 412.795 30.6131   4
   2  -3  -3 457.619 30.4392   3
   2  -3  -3 476.216 36.2484   1
   2  -3  -3 376.891 34.7180   1
  -2   3   3 428.691 30.4133   2
  -2   3   3 385.016 30.2962   3
   1  -3  -3 223.020 15.9309   4
   1  -3  -3 215.419 21.5562   1
   1  -3  -3 188.915 20.3808   1
  -1   3   3 199.821 15.4761   3
  -1   3   3 229.546 15.5848   2
   0  -3  -3 0.87401 6.81558   1
   0  -3  -3 2.25335 1.92074   4
   0  -3  -3 3.76656 0.80419   2
   0   3   3 1.08302 1.52006   4
   0   3   3 1.49643 1.81480   3
   0   3   3 3.32643 1.12608   3
   0   3   3 1.52110 0.94222   2
   0   3   3 -8.6072 5.09999   1
  -1  -3  -3 356.083 27.3675   3
  -1  -3  -3 413.731 27.5042   4
  -1  -3  -3 412.392 29.9014   1
   1   3   3 386.655 27.1570   2
   1   3   3 416.243 29.2961   1
   1   3   3 344.389 27.3343   3
   1   3   3 348.298 27.3308   4
  -2  -3  -3 516.360 41.2322   2
  -2  -3  -3 538.784 41.5054   3
  -2  -3  -3 652.855 41.4849   4
  -2  -3  -3 631.022 43.2778   1
   2   3   3 634.103 42.7970   1
   2   3   3 590.305 41.2216   2
   2   3   3 536.733 41.5101   3
   2   3   3 544.227 41.3159   4
  -3  -3  -3 350.999 26.7902   1
   3   3   3 310.086 24.8277   3
   3   3   3 364.204 26.1377   1
   3   3   3 344.116 24.4215   2
  -4  -3  -3 75.3542 11.1094   1
  -4  -3  -3 82.6028 7.14017   3
   4   3   3 81.7951 6.25788   2
   4   3   3 88.5194 9.19521   1
  -5  -3  -3 41.1572 5.31172   3
  -5  -3  -3 40.6525 9.10019   1
   5   3   3 43.1199 3.70570   2
   5   3   3 45.2586 9.11078   1
  -6  -3  -3 541.460 39.1514   3
   6   3   3 521.518 38.1617   2
  -7  -3  -3 186.596 15.7961   3
   7   3   3 197.980 24.5538   1
   7   3   3 180.268 13.8925   2
  -8  -3  -3 27.5547 6.32437   3
  -9  -3  -3 25.9358 7.30900   3
   9   3   3 13.4303 2.81830   2
  -6   4   3 3.00429 3.34025   2
   5  -4  -3 158.480 14.2938   4
  -5   4   3 162.047 12.7564   3
   4  -4  -3 105.519 10.7885   4
  -4   4   3 98.1367 9.03290   2
  -4   4   3 115.714 9.34313   3
   3  -4  -3 175.930 26.4054   1
   3  -4  -3 137.398 11.7297   4
   3  -4  -3 113.155 19.0287   1
  -3   4   3 128.955 10.5477   2
   2  -4  -3 18.4297 12.6588   1
   2  -4  -3 7.31866 3.10411   4
   2  -4  -3 5.26928 11.7861   1
  -2   4   3 7.03311 1.99782   2
   1  -4  -3 71.9484 13.2013   1
   1  -4  -3 65.2254 6.55307   4
  -1   4   3 55.4525 5.19377   2
   0  -4  -3 6.07196 2.37981   4
   0  -4  -3 8.50590 8.14614   1
   0   4   3 1.16443 6.66164   1
   0   4   3 5.08054 1.26306   2
  -1  -4  -3 1599.78 106.146   4
  -1  -4  -3 1467.64 105.986   3
  -1  -4  -3 1676.05 108.755   1
   1   4   3 1554.78 108.142   1
   1   4   3 1529.52 105.879   2
   1   4   3 1339.78 105.934   3
   1   4   3 1285.98 105.997   4
  -2  -4  -3 106.543 8.51521   3
  -2  -4  -3 106.000 8.12118   2
  -2  -4  -3 113.310 13.4878   1
   2   4   3 121.659 8.03077   2
   2   4   3 101.610 8.43379   3
   2   4   3 131.554 11.5736   1
   2   4   3 98.5969 8.47336   4
  -3  -4  -3 8.08390 2.22815   3
  -3  -4  -3 16.0060 6.28404   1
   3   4   3 6.96950 1.84216   4
   3   4   3 9.39941 4.43990   1
   3   4   3 11.4065 1.36796   2
   3   4   3 8.32891 1.97716   3
  -4  -4  -3 304.629 26.3020   1
  -4  -4  -3 310.059 23.4170   3
   4   4   3 320.563 22.7649   2
   4   4   3 330.852 25.2571   1
  -5  -4  -3 408.483 33.3254   1
  -5  -4  -3 408.924 30.3708   3
   5   4   3 401.572 32.1336   1
   5   4   3 422.415 29.5308   2
  -6  -4  -3 131.086 17.1658   1
  -6  -4  -3 139.939 12.2476   3
   6   4   3 134.654 15.7455   1
   6   4   3 146.799 10.5964   2
  -7  -4  -3 1.61252 4.11406   3
  -7  -4  -3 -6.6430 9.81532   1
   7   4   3 12.6862 9.20027   1
   7   4   3 3.63560 1.57439   2
  -8  -4  -3 172.158 14.9383   3
   8   4   3 139.269 12.1043   2
  -9  -4  -3 27.2784 8.40459   3
   9   4   3 18.2220 2.94252   2
   5  -5  -3 -0.1499 5.40140   4
  -5   5   3 2.71033 3.28507   2
   4  -5  -3 179.189 15.7811   4
   3  -5  -3 0.41939 4.14790   4
  -3   5   3 0.22274 2.27686   2
   2  -5  -3 204.703 26.5696   1
   2  -5  -3 112.914 22.0566   1
   2  -5  -3 175.485 13.5903   4
  -2   5   3 147.118 12.2654   2
   1  -5  -3 243.403 19.3830   4
   1  -5  -3 276.125 27.3701   1
   0  -5  -3 184.508 14.3530   4
   0   5   3 180.372 13.5129   2
  -1  -5  -3 19.9334 3.06286   3
  -1  -5  -3 16.4528 9.67843   1
  -1  -5  -3 18.7594 3.26496   4
   1   5   3 16.7646 7.00622   1
   1   5   3 17.7662 2.34527   2
   1   5   3 20.3738 2.70051   3
  -2  -5  -3 95.3352 14.4979   1
  -2  -5  -3 78.8620 6.94315   3
  -2  -5  -3 90.0220 7.77908   4
   2   5   3 81.7745 6.35769   2
   2   5   3 84.0403 6.94023   3
   2   5   3 93.9644 11.7509   1
  -3  -5  -3 561.880 41.6698   3
  -3  -5  -3 567.996 45.2107   1
  -3  -5  -3 601.720 41.6649   4
   3   5   3 543.146 41.6637   3
   3   5   3 591.320 43.9156   1
   3   5   3 603.179 41.2502   2
  -4  -5  -3 143.153 11.3192   4
  -4  -5  -3 156.139 17.8099   1
  -4  -5  -3 145.868 11.4062   3
   4   5   3 152.687 10.4707   2
   4   5   3 119.265 10.8990   4
   4   5   3 147.837 14.6447   1
  -5  -5  -3 78.2807 7.86399   3
  -5  -5  -3 76.4872 12.5534   1
   5   5   3 66.7252 12.3447   1
   5   5   3 81.9078 6.14460   2
  -6  -5  -3 36.7774 10.6474   1
  -6  -5  -3 49.1617 7.11740   3
   6   5   3 50.5039 4.29259   2
   6   5   3 42.7442 9.67254   1
  -7  -5  -3 182.562 24.1385   1
  -7  -5  -3 217.978 17.7938   3
   7   5   3 236.716 23.3124   1
   7   5   3 199.941 15.4295   2
  -8  -5  -3 150.006 15.0962   3
  -9  -5  -3 12.4124 7.40627   3
  -4   6   3 8.10093 3.48154   2
   3  -6  -3 97.8956 10.8416   4
  -3   6   3 69.5995 7.87944   2
   2  -6  -3 106.605 10.9544   4
  -2   6   3 93.9309 8.58013   2
   1  -6  -3 28.0442 14.7197   1
   1  -6  -3 24.8258 4.82014   4
  -1   6   3 22.8711 3.83849   2
   0  -6  -3 17.2503 13.1912   1
   0  -6  -3 10.0252 3.75066   4
   0   6   3 7.99461 12.7368   1
  -1  -6  -3 120.533 20.5514   1
  -1  -6  -3 135.635 11.2242   4
   1   6   3 128.815 9.68572   2
   1   6   3 103.134 18.0121   1
  -2  -6  -3 331.441 24.6277   3
  -2  -6  -3 323.741 25.1670   4
   2   6   3 347.445 24.7110   3
   2   6   3 351.668 24.3940   2
  -3  -6  -3 269.129 20.5129   3
  -3  -6  -3 273.669 20.8928   4
  -3  -6  -3 291.155 27.8741   1
   3   6   3 291.958 20.0298   2
   3   6   3 277.771 20.6971   3
   3   6   3 262.796 24.2375   1
  -4  -6  -3 101.611 8.79762   3
  -4  -6  -3 94.9403 19.3662   1
  -4  -6  -3 94.8563 9.22414   4
   4   6   3 78.2980 14.4895   1
   4   6   3 111.431 7.66155   2
  -5  -6  -3 93.2165 9.34896   3
  -5  -6  -3 99.3811 15.8660   1
  -5  -6  -3 100.226 9.08352   4
   5   6   3 108.775 7.68002   2
   5   6   3 82.3077 14.8352   1
  -6  -6  -3 145.602 23.5267   1
  -6  -6  -3 190.843 15.3162   3
   6   6   3 144.651 20.8774   1
   6   6   3 195.622 13.3738   2
  -7  -6  -3 80.2245 10.0248   3
   7   6   3 59.6650 5.54326   2
  -8  -6  -3 2.39455 5.86171   3
   8   6   3 -0.0209 1.57046   2
  -9  -6  -3 31.6989 7.98178   3
   9   6   3 26.7763 4.19442   2
   3  -7  -3 21.3869 6.86972   4
  -3   7   3 16.8513 4.09480   2
   2  -7  -3 51.2949 9.29005   4
  -2   7   3 31.1315 5.29593   2
   1  -7  -3 145.433 37.9767   1
   1  -7  -3 157.794 13.6791   4
  -1   7   3 126.035 11.1815   2
   0  -7  -3 116.647 10.9952   4
   0   7   3 92.4303 8.36106   2
  -1  -7  -3 108.335 19.1051   1
  -1  -7  -3 117.504 11.0531   4
   1   7   3 121.231 22.8523   1
   1   7   3 104.376 8.71269   2
  -2  -7  -3 15.8038 4.33856   4
  -2  -7  -3 37.8925 14.7317   1
   2   7   3 9.48318 1.90833   2
   2   7   3 27.5025 12.9136   1
  -3  -7  -3 43.7870 7.53137   4
  -3  -7  -3 44.3364 5.25269   3
  -3  -7  -3 71.0716 15.9895   1
   3   7   3 38.8096 12.1285   1
   3   7   3 51.8010 4.29927   2
  -4  -7  -3 209.918 27.6884   1
  -4  -7  -3 171.793 13.8568   3
  -4  -7  -3 160.672 14.5058   4
   4   7   3 187.816 12.9442   2
   4   7   3 161.477 21.6907   1
  -5  -7  -3 106.059 19.3069   1
  -5  -7  -3 121.018 10.7551   3
  -5  -7  -3 108.806 11.0689   4
   5   7   3 100.036 19.9168   1
   5   7   3 133.882 9.15657   2
  -6  -7  -3 92.6867 19.1494   1
  -6  -7  -3 59.5264 8.31316   3
  -6  -7  -3 46.1426 7.45546   4
   6   7   3 55.6344 4.88035   2
  -7  -7  -3 112.494 13.2505   3
   7   7   3 107.057 8.54973   2
  -8  -7  -3 14.0335 7.04663   3
   8   7   3 12.1901 2.35096   2
  -2   8   3 13.4146 3.32770   2
   1  -8  -3 83.0100 11.4275   4
  -1   8   3 56.0306 6.66818   2
   0  -8  -3 25.9315 5.86383   4
   0   8   3 17.5405 3.09474   2
  -1  -8  -3 37.4682 25.9017   1
  -2  -8  -3 169.082 14.9548   4
   2   8   3 161.453 12.4869   2
  -3  -8  -3 80.9728 31.1836   1
  -3  -8  -3 81.9712 10.2601   4
   3   8   3 64.9934 21.8037   1
   3   8   3 90.5265 7.09041   2
  -4  -8  -3 56.1400 6.78845   3
  -4  -8  -3 90.5251 21.4924   1
  -4  -8  -3 51.8897 9.28837   4
   4   8   3 44.5624 16.9702   1
   4   8   3 64.0746 5.29204   2
  -5  -8  -3 2.49131 3.59462   3
  -5  -8  -3 0.80172 4.50551   4
  -5  -8  -3 -3.3416 18.7880   1
   5   8   3 8.18801 14.9978   1
   5   8   3 4.83110 1.68793   2
  -6  -8  -3 38.2449 24.3327   1
  -6  -8  -3 31.0725 5.77094   3
  -6  -8  -3 20.4861 5.51204   4
   6   8   3 34.8996 3.69799   2
  -7  -8  -3 104.380 12.1990   3
   7   8   3 97.9403 8.05505   2
  -8  -8  -3 35.4799 8.37234   3
   8   8   3 23.3512 3.95556   2
   0  -9  -3 32.9605 7.21010   4
   0   9   3 16.7252 3.50737   2
  -1  -9  -3 30.4882 7.22309   4
   1   9   3 26.6364 4.56002   2
  -2  -9  -3 127.839 13.7686   4
   2   9   3 112.588 9.57913   2
  -3  -9  -3 8.52713 5.99393   4
  -4  -9  -3 10.3897 5.85355   4
   4   9   3 12.7519 2.43870   2
  -5  -9  -3 44.6871 7.97669   4
  -5  -9  -3 58.5634 8.12235   3
  -5  -9  -3 21.2744 32.9067   1
   5   9   3 51.0234 22.0278   1
   5   9   3 63.2623 5.49945   2
  -6  -9  -3 63.0743 9.81844   3
   6   9   3 55.5812 5.56163   2
  -5  -8   4 -0.7229 6.32687   4
  -4  -8   4 17.2007 7.08790   4
  -4  -8   4 28.8249 7.23506   3
  -3  -8   4 65.0314 12.3119   4
   2   8  -4 60.5633 5.62899   2
  -2  -8   4 39.7663 7.98492   4
  -1  -8   4 4.41939 6.18618   4
  -7  -7   4 13.5265 6.45490   4
  -6  -7   4 13.1809 6.21265   3
  -6  -7   4 8.62602 6.60298   4
  -5  -7   4 116.963 11.8386   3
  -5  -7   4 96.1616 13.6840   4
  -4  -7   4 67.6123 10.1056   4
  -4  -7   4 69.5836 9.32953   3
   3   7  -4 85.3963 6.90504   2
  -3  -7   4 104.449 10.1214   3
  -3  -7   4 82.0270 10.7774   4
   2   7  -4 65.5121 5.61432   2
  -2  -7   4 75.4657 10.2081   4
   1   7  -4 14.5789 2.22293   2
  -1  -7   4 16.6785 5.56053   4
   0   7  -4 40.1075 4.42518   2
   0  -7   4 37.9009 6.62936   4
   1  -7   4 94.5509 12.5685   4
  -7  -6   4 197.319 17.1664   3
  -7  -6   4 145.748 13.8344   4
   6   6  -4 79.6772 18.0294   1
  -6  -6   4 96.2096 9.93281   4
   5   6  -4 18.0803 11.4431   1
  -5  -6   4 4.59553 4.13501   4
  -5  -6   4 12.9455 5.04742   3
  -5  -6   4 44.2793 14.7797   1
   4   6  -4 12.3586 9.65874   1
  -4  -6   4 11.1214 4.15826   3
  -4  -6   4 10.9326 4.19881   4
  -4  -6   4 5.96804 12.7227   1
   3   6  -4 14.9776 8.44236   1
   3   6  -4 16.3498 2.11398   2
  -3  -6   4 19.7114 4.25578   3
  -3  -6   4 9.76183 4.31238   4
  -3  -6   4 11.3782 11.7829   1
   2   6  -4 94.5880 8.12883   2
  -2  -6   4 112.322 19.7951   1
  -2  -6   4 110.648 10.8556   4
  -2  -6   4 123.526 10.0664   3
   1   6  -4 168.001 13.9861   2
  -1  -6   4 186.310 15.8300   4
  -1  -6   4 217.766 15.0911   3
   0   6  -4 30.6665 3.48179   2
   0  -6   4 25.8528 4.99281   4
  -1   6  -4 -1.9929 1.89479   2
  -2   6  -4 94.7241 8.41634   2
   2  -6   4 103.742 11.0060   4
  -3   6  -4 106.969 9.41115   2
   3  -6   4 112.088 12.2312   4
  -8  -5   4 43.8242 9.32481   3
   7   5  -4 107.412 25.0084   1
  -7  -5   4 128.466 13.9143   3
   6   5  -4 23.6948 18.8439   1
  -6  -5   4 39.7160 7.81978   3
  -6  -5   4 -2.1049 13.9947   1
  -6  -5   4 25.8610 4.40159   4
   5   5  -4 8.59143 14.6084   1
  -5  -5   4 -1.8532 3.54364   4
  -5  -5   4 5.51513 3.85106   3
  -5  -5   4 14.0752 12.0077   1
   4   5  -4 158.285 22.2653   1
   4   5  -4 191.149 13.1247   2
  -4  -5   4 160.470 13.1044   2
  -4  -5   4 195.430 15.1263   3
  -4  -5   4 192.042 14.7770   4
  -4  -5   4 184.470 21.6197   1
   3   5  -4 158.738 19.0907   1
   3   5  -4 163.004 11.8209   2
  -3  -5   4 144.418 11.7648   2
  -3  -5   4 166.956 19.8513   1
  -3  -5   4 174.768 13.5394   3
  -3  -5   4 174.481 13.4728   4
   2   5  -4 103.735 9.02808   2
  -2  -5   4 109.734 8.96715   2
  -2  -5   4 145.914 17.7702   1
  -2  -5   4 131.141 10.3944   3
  -2  -5   4 137.549 10.8332   4
   1   5  -4 0.21658 1.10973   2
  -1  -5   4 -2.6100 1.48219   2
  -1  -5   4 -1.0596 2.95614   4
  -1  -5   4 4.25492 2.63025   3
   0   5  -4 194.773 15.5886   2
   0  -5   4 218.146 16.7545   4
   0  -5   4 226.881 16.6617   3
  -1   5  -4 4.27450 1.73369   2
   1  -5   4 0.38588 3.28462   4
   1  -5   4 5.82191 4.72777   3
  -2   5  -4 273.197 21.9776   2
   2  -5   4 311.932 22.8912   4
   2  -5   4 313.499 23.2330   3
  -3   5  -4 16.9980 3.00878   2
   3  -5   4 26.6558 4.64433   4
  -4   5  -4 16.8115 3.48524   2
  -8  -4   4 66.9791 12.4613   3
   7   4  -4 15.2098 21.0355   1
  -7  -4   4 0.46678 4.92662   3
  -7  -4   4 7.94000 14.3886   1
   6   4  -4 78.9416 5.54204   2
   6   4  -4 64.3254 15.9131   1
  -6  -4   4 64.4091 9.32240   3
  -6  -4   4 59.2128 7.26793   4
  -6  -4   4 65.3357 14.6045   1
   5   4  -4 507.168 43.2935   1
   5   4  -4 588.577 37.9202   2
  -5  -4   4 521.508 39.4456   3
  -5  -4   4 491.928 43.5764   1
   4   4  -4 10.6653 8.23817   1
   4   4  -4 12.9887 1.50161   2
  -4  -4   4 11.7560 3.69331   3
  -4  -4   4 28.0324 9.51598   1
   3   4  -4 121.544 8.36030   2
   3   4  -4 108.206 14.3054   1
  -3  -4   4 126.577 10.2065   4
  -3  -4   4 121.311 10.0663   3
  -3  -4   4 99.9670 8.30959   2
  -3  -4   4 112.765 15.1065   1
   2   4  -4 -8.1962 5.25775   1
   2   4  -4 0.17127 0.84509   2
  -2  -4   4 7.63089 6.76197   1
  -2  -4   4 -1.1753 2.78564   4
  -2  -4   4 1.29246 2.51235   3
  -2  -4   4 -0.3689 0.75048   2
   1   4  -4 188.211 14.5043   2
   1   4  -4 193.500 15.9993   3
  -1  -4   4 219.649 15.3829   3
  -1  -4   4 199.242 15.4125   4
   0   4  -4 315.662 25.0277   2
   0  -4   4 368.280 25.0026   2
   0  -4   4 336.748 25.6398   4
   0  -4   4 375.623 27.2967   3
  -1   4  -4 350.882 25.4431   2
   1  -4   4 379.787 25.9825   4
   1  -4   4 324.539 25.7808   3
  -2   4  -4 50.9104 4.92855   2
   2  -4   4 54.7719 5.38029   3
  -3   4  -4 115.840 10.4056   2
   3  -4   4 142.476 11.4455   4
   3  -4   4 143.733 11.8619   3
  -4   4  -4 161.962 14.1106   2
   4  -4   4 194.870 15.3584   3
   4  -4   4 194.450 14.9953   4
  -5   4  -4 39.8655 5.44531   2
   5  -4   4 31.2430 5.38897   4
   8   3  -4 12.6157 1.84810   2
  -8  -3   4 13.2192 6.44917   3
   7   3  -4 38.0766 15.8069   1
   7   3  -4 44.2429 3.91086   2
  -7  -3   4 56.7638 15.2048   1
   6   3  -4 119.478 9.20719   2
   6   3  -4 124.494 8.91251   2
   6   3  -4 100.719 19.6582   1
  -6  -3   4 125.731 11.6810   3
  -6  -3   4 102.090 19.7824   1
   5   3  -4 99.8594 7.06083   2
   5   3  -4 89.4402 7.07388   2
   5   3  -4 78.2404 15.3326   1
   5   3  -4 102.270 8.36866   4
  -5  -3   4 88.1436 16.1897   1
  -5  -3   4 96.4494 9.39612   3
   4   3  -4 18.1578 1.98488   2
   4   3  -4 23.8875 4.24893   4
   4   3  -4 19.1875 11.2157   1
   4   3  -4 24.6489 1.91190   2
  -4  -3   4 30.0474 4.95472   3
  -4  -3   4 17.7323 10.0441   1
   3   3  -4 273.300 19.9849   4
  -3  -3   4 266.885 20.3871   3
   2   3  -4 547.764 41.0988   4
  -2  -3   4 594.669 41.3729   3
   1   3  -4 186.051 15.1245   3
   1   3  -4 177.951 13.5699   2
  -1  -3   4 203.536 14.7141   3
   0   3  -4 17.8232 2.25558   2
   0  -3   4 30.4381 4.94574   3
   0  -3   4 20.3404 3.06049   4
  -1   3  -4 141.634 11.0857   2
   1  -3   4 160.236 12.4848   3
   1  -3   4 148.152 11.6795   4
   1  -3   4 165.770 11.0342   2
   1  -3   4 133.471 11.7569   3
  -2   3  -4 170.669 12.9170   2
   2  -3   4 184.697 13.3739   4
   2  -3   4 165.406 13.2343   3
  -3   3  -4 279.155 21.9813   2
   3  -3   4 321.620 22.2851   4
  -4   3  -4 62.1421 6.96541   3
  -4   3  -4 62.7001 5.98572   2
   4  -3   4 72.5577 7.00588   4
  -5   3  -4 30.9901 5.87366   3
  -6   3  -4 126.881 11.3564   3
  -6   3  -4 122.820 10.8760   2
   8   2  -4 92.0516 7.50857   2
  -8  -2   4 99.1267 12.3493   3
   7   2  -4 138.436 23.5045   1
   7   2  -4 122.347 8.92400   2
  -7  -2   4 86.1066 17.5854   1
  -7  -2   4 115.901 12.1965   3
   6   2  -4 2.05308 9.71045   1
   6   2  -4 2.28649 1.02093   2
  -6  -2   4 5.45050 10.2076   1
  -6  -2   4 -1.4165 3.44605   3
   5   2  -4 98.8407 14.8473   1
   5   2  -4 92.5245 6.57111   2
   5   2  -4 81.9655 6.55270   2
  -5  -2   4 101.025 15.8415   1
  -5  -2   4 82.5103 8.74098   3
  -5  -2   4 84.7607 7.49504   4
   4   2  -4 225.965 19.8512   1
   4   2  -4 197.118 15.1684   2
   4   2  -4 216.051 15.8171   4
   4   2  -4 203.521 15.2029   2
  -4  -2   4 205.751 16.4805   3
  -4  -2   4 240.944 20.4776   1
  -4  -2   4 214.008 15.7539   4
   3   2  -4 277.733 23.6058   1
   3   2  -4 273.571 20.6218   4
  -3  -2   4 288.346 21.1805   3
  -3  -2   4 286.550 23.8830   1
  -3  -2   4 283.245 20.5767   4
   2   2  -4 73.3595 6.45323   4
   2   2  -4 74.4957 7.22967   3
   2   2  -4 72.7788 9.36407   1
  -2  -2   4 79.5301 10.4407   1
  -2  -2   4 77.3096 6.43898   4
  -2  -2   4 86.7681 7.06447   3
   1   2  -4 48.0931 6.74816   1
   1   2  -4 57.6528 6.44191   3
   1   2  -4 55.5775 5.02583   4
  -1  -2   4 54.2160 4.97724   4
  -1  -2   4 66.8584 5.99199   3
   0   2  -4 405.650 30.3818   4
   0   2  -4 381.130 30.0353   2
   0  -2   4 465.157 30.8351   3
   0  -2   4 439.079 30.0146   2
   0  -2   4 417.259 30.3844   4
  -1   2  -4 671.323 50.6804   2
   1  -2   4 764.315 50.6672   2
   1  -2   4 750.400 50.9614   4
   1  -2   4 698.320 51.4054   3
   1  -2   4 670.004 51.1887   3
  -2   2  -4 370.797 27.9743   2
   2  -2   4 399.510 28.1369   4
   2  -2   4 395.727 28.3631   3
  -3   2  -4 5.16188 2.44857   3
  -3   2  -4 0.07769 1.21599   2
   3  -2   4 1.82476 2.18269   3
   3  -2   4 -0.6853 1.81468   4
  -4   2  -4 426.189 29.7064   3
  -4   2  -4 381.383 29.3249   2
  -5   2  -4 111.061 9.84102   2
  -5   2  -4 134.621 10.8121   3
  -6   2  -4 87.6137 8.33826   2
  -6   2  -4 102.405 9.70065   3
  -7   2  -4 -6.8466 4.34198   3
   7  -2   4 3.34452 2.26478   2
   8   1  -4 14.3257 2.38689   2
  -8  -1   4 20.6274 5.99989   3
   7   1  -4 19.7197 2.65517   2
  -7  -1   4 29.7889 21.0560   1
  -7  -1   4 15.0725 4.89573   3
   6   1  -4 62.0126 5.08236   2
   6   1  -4 66.8498 13.0551   1
  -6  -1   4 58.7369 13.0869   1
  -6  -1   4 62.8401 7.77778   3
   5   1  -4 196.781 14.8924   2
   5   1  -4 214.779 14.9260   2
   5   1  -4 207.286 20.9103   1
  -5  -1   4 204.659 16.3734   3
  -5  -1   4 203.694 21.7396   1
   4   1  -4 160.085 16.9896   1
   4   1  -4 160.642 14.2939   4
   4   1  -4 186.219 12.6043   2
  -4  -1   4 172.709 13.0505   4
  -4  -1   4 169.344 13.7802   3
  -4  -1   4 197.345 18.4655   1
   3   1  -4 31.8966 4.30865   4
   3   1  -4 42.7146 2.92019   2
   3   1  -4 38.9767 6.51865   1
   3   1  -4 33.9346 2.85812   2
  -3  -1   4 41.8137 7.83356   1
  -3  -1   4 41.1692 4.83952   3
  -3  -1   4 36.0255 4.12150   4
   2   1  -4 76.9109 8.50658   1
   2   1  -4 67.8065 6.13002   4
   2   1  -4 76.6004 6.78727   3
  -2  -1   4 74.6146 6.00406   4
  -2  -1   4 80.7467 9.94891   1
  -2  -1   4 68.8757 8.07927   3
   1   1  -4 1998.28 145.371   1
   1   1  -4 1900.71 144.462   4
   1   1  -4 2113.73 144.835   3
  -1  -1   4 2001.63 144.446   4
  -1  -1   4 2156.06 144.825   3
   0   1  -4 363.041 26.2205   4
   0  -1   4 354.591 25.8844   2
   0  -1   4 315.401 25.8449   2
   0  -1   4 399.333 26.8407   3
   0  -1   4 389.024 26.2214   4
  -1   1  -4 125.744 9.43458   4
  -1   1  -4 115.037 9.08475   2
   1  -1   4 115.446 9.91193   3
   1  -1   4 108.170 10.3942   3
   1  -1   4 137.544 9.12326   2
   1  -1   4 138.839 9.45166   4
  -2   1  -4 402.821 29.2511   3
   2  -1   4 383.284 28.5458   2
   2  -1   4 393.964 28.9855   3
   2  -1   4 410.797 28.6820   4
  -3   1  -4 415.357 31.9801   2
  -3   1  -4 472.702 32.3622   3
   3  -1   4 443.800 31.9475   4
   3  -1   4 446.456 32.3791   3
  -4   1  -4 310.259 21.5214   3
  -4   1  -4 266.217 21.0747   2
  -5   1  -4 54.8594 5.63766   2
  -5   1  -4 73.1527 6.94165   3
  -6   1  -4 22.7061 4.33801   3
   6  -1   4 15.5904 2.49649   2
  -7   1  -4 140.128 12.8899   3
   7  -1   4 131.706 10.8498   2
  -8   0   4 18.6713 6.28319   3
  -7   0   4 88.1484 9.83423   3
   6   0  -4 201.285 22.3300   1
  -6   0   4 186.396 15.3978   3
  -6   0   4 180.437 14.1086   2
  -6   0   4 195.315 24.1051   1
   5   0  -4 30.0847 8.72069   1
  -5   0   4 26.2576 3.10364   2
  -5   0   4 41.9059 10.4438   1
  -5   0   4 24.9394 4.52602   3
   4   0  -4 1.28044 6.12042   1
   4   0  -4 3.14375 0.89391   2
  -4   0   4 2.45774 2.04910   4
  -4   0   4 1.43056 1.25251   2
  -4   0   4 0.66820 7.00105   1
  -4   0   4 0.92599 2.41101   3
   3   0  -4 626.973 40.6147   2
   3   0  -4 562.602 40.9006   4
   3   0  -4 557.234 42.9839   1
  -3   0   4 621.068 43.7022   1
  -3   0   4 556.868 40.8434   4
  -3   0   4 494.073 40.6385   2
  -3   0   4 581.262 41.3742   3
   2   0  -4 465.392 35.3605   4
   2   0  -4 516.243 35.6943   3
   2   0  -4 472.234 36.8442   1
  -2   0   4 512.760 37.3744   1
  -2   0   4 505.542 35.8354   3
  -2   0   4 488.716 35.3270   4
   1   0  -4 613.769 44.9947   4
   1   0  -4 545.948 44.6638   2
   1   0  -4 650.306 45.3753   3
   1   0  -4 599.270 45.9496   1
  -1   0   4 640.870 46.2717   1
  -1   0   4 646.606 44.7057   2
  -1   0   4 647.715 44.9797   4
  -1   0   4 697.247 45.4836   3
   0   0  -4 11.9172 1.09838   2
   0   0   4 13.6669 1.09137   2
   0   0   4 20.5293 3.85963   3
  -1   0  -4 509.728 35.1702   4
  -1   0  -4 519.496 35.6492   3
   1   0   4 467.192 35.5699   3
   1   0   4 432.704 34.9403   2
   1   0   4 461.191 35.0210   2
   1   0   4 558.218 35.1815   4
  -2   0  -4 1088.54 72.6830   3
  -2   0  -4 966.227 72.2851   4
   2   0   4 1101.78 72.7908   3
   2   0   4 1106.91 72.3328   4
   2   0   4 936.963 72.2909   2
   2   0   4 898.496 72.1991   2
  -3   0  -4 329.843 23.5206   3
   3   0   4 320.154 23.6243   3
   3   0   4 339.127 23.6315   2
   3   0   4 295.036 23.0467   2
  -4   0  -4 5.97886 2.20025   3
   4   0   4 0.40455 0.99684   2
  -5   0  -4 153.637 12.3259   3
   5   0   4 149.382 11.4078   2
  -6   0  -4 255.533 19.1736   3
   6   0   4 233.643 18.0520   2
  -7   0  -4 172.890 14.4609   3
   7   0   4 153.093 12.4809   2
  -8   0  -4 10.9184 5.50300   3
   8   0   4 4.60388 2.57004   2
  -8   1   4 95.4409 9.21594   2
  -8   1   4 90.0230 11.1605   3
  -7   1   4 14.1647 2.77733   2
  -7   1   4 14.9594 4.84644   3
   6  -1  -4 4.64092 11.9050   1
  -6   1   4 6.62636 1.98382   2
  -6   1   4 -9.8592 14.5649   1
  -6   1   4 4.11430 3.51400   3
   5  -1  -4 153.810 18.1064   1
  -5   1   4 133.263 10.6825   2
  -5   1   4 133.767 11.6204   3
  -5   1   4 170.780 21.6541   1
   4  -1  -4 284.436 19.8232   4
   4  -1  -4 275.758 23.5958   1
  -4   1   4 262.878 20.0800   3
  -4   1   4 303.286 25.8355   1
  -4   1   4 258.176 19.4263   2
  -4   1   4 239.416 19.6861   4
   3  -1  -4 218.973 19.6213   1
   3  -1  -4 255.776 16.3449   2
   3  -1  -4 239.964 17.2120   3
  -3   1   4 226.126 21.2159   1
  -3   1   4 214.375 17.0432   3
  -3   1   4 206.072 16.4214   2
  -3   1   4 221.058 16.7931   4
   2  -1  -4 122.694 11.9325   1
   2  -1  -4 129.696 9.71693   3
   2  -1  -4 115.647 9.35252   4
  -2   1   4 124.133 9.79858   3
  -2   1   4 123.672 13.4187   1
  -2   1   4 121.182 9.29066   4
  -2   1   4 110.344 8.81477   2
   1  -1  -4 112.815 9.16996   4
   1  -1  -4 118.692 9.63160   3
   1  -1  -4 123.028 11.2501   1
  -1   1   4 126.361 9.78875   3
  -1   1   4 117.181 9.09479   4
  -1   1   4 127.419 8.77311   2
  -1   1   4 114.259 12.2541   1
   0  -1  -4 1322.28 94.4708   1
   0  -1  -4 1309.66 93.2020   4
   0   1   4 1242.05 92.9595   2
   0   1   4 1314.81 93.1622   4
   0   1   4 1281.63 93.6166   3
   0   1   4 1396.61 93.5443   3
  -1  -1  -4 956.884 67.3694   4
  -1  -1  -4 1024.41 67.7619   3
   1   1   4 803.847 67.1815   2
   1   1   4 949.398 67.7552   3
   1   1   4 1001.08 67.3555   4
  -2  -1  -4 825.946 55.7137   3
  -2  -1  -4 660.109 55.2408   2
  -2  -1  -4 811.207 55.3519   4
   2   1   4 822.325 55.8271   3
   2   1   4 696.259 55.2545   2
   2   1   4 849.457 55.3465   4
  -3  -1  -4 1167.63 76.7293   3
   3   1   4 1141.63 76.8563   3
   3   1   4 966.366 76.3600   2
   3   1   4 1016.94 76.2806   2
  -4  -1  -4 371.987 26.4458   3
   4   1   4 348.028 25.9021   2
  -5  -1  -4 122.964 10.3330   3
   5   1   4 122.635 9.34851   2
  -6  -1  -4 94.7546 8.76700   3
   6   1   4 86.8838 7.20285   2
   6   1   4 78.8312 14.0482   1
  -7  -1  -4 2.39699 3.71473   3
   7   1   4 17.6415 13.6710   1
  -8  -1  -4 48.4255 9.05946   3
   8   1   4 52.6868 5.48294   2
  -7   2   4 14.4938 4.58161   3
  -7   2   4 15.2161 3.34186   2
  -6   2   4 56.4870 6.83531   3
  -6   2   4 50.1566 5.81799   2
   5  -2  -4 224.468 16.9042   4
   5  -2  -4 213.450 24.3794   1
  -5   2   4 246.959 27.2014   1
  -5   2   4 212.382 16.8169   3
  -5   2   4 208.098 16.2991   2
   4  -2  -4 61.0010 10.8456   1
   4  -2  -4 42.4981 5.77022   4
  -4   2   4 43.9433 4.26600   2
  -4   2   4 56.9076 12.4642   1
  -4   2   4 37.0806 5.12599   3
   3  -2  -4 86.1808 7.52880   3
   3  -2  -4 70.1487 12.5484   1
   3  -2  -4 80.4557 7.26487   4
  -3   2   4 78.2677 15.1835   1
  -3   2   4 78.2366 6.17212   2
  -3   2   4 77.7601 9.25893   3
  -3   2   4 64.7384 7.13278   4
   2  -2  -4 1212.76 85.7009   1
   2  -2  -4 1190.53 83.1270   4
   2  -2  -4 1236.52 83.1893   3
  -2   2   4 1099.25 83.1550   3
  -2   2   4 1092.94 83.0530   4
   1  -2  -4 1091.26 79.4763   3
   1  -2  -4 1156.32 79.3359   4
   1  -2  -4 1143.36 81.7325   1
  -1   2   4 1141.70 79.3036   4
  -1   2   4 1049.84 79.4477   3
  -1   2   4 1097.71 79.1367   2
   0  -2  -4 23.8984 7.51927   1
   0  -2  -4 21.4910 3.60181   4
   0  -2  -4 25.3393 1.95879   2
   0   2   4 23.9348 3.21464   4
   0   2   4 21.3944 2.00696   2
   0   2   4 21.0488 3.03425   3
   0   2   4 25.3934 4.12743   3
  -1  -2  -4 3.94355 0.66235   2
  -1  -2  -4 6.45160 1.82195   4
  -1  -2  -4 5.32334 1.81313   3
  -1  -2  -4 12.5476 6.53309   1
   1   2   4 6.70470 1.57188   4
   1   2   4 3.70245 3.88610   1
   1   2   4 5.47767 1.69533   3
   1   2   4 6.47412 0.87333   2
  -2  -2  -4 338.076 25.3672   3
  -2  -2  -4 365.126 25.1290   4
   2   2   4 354.235 25.1032   4
   2   2   4 330.407 25.4177   3
   2   2   4 384.662 27.0313   1
   2   2   4 327.642 24.9274   2
  -3  -2  -4 503.821 36.1096   3
  -3  -2  -4 478.792 36.7790   1
   3   2   4 477.088 36.1789   3
   3   2   4 488.072 35.6614   2
   3   2   4 553.144 37.2637   1
  -4  -2  -4 313.582 22.9890   3
  -4  -2  -4 310.449 24.0658   1
   4   2   4 309.236 22.4258   2
  -5  -2  -4 4.49311 2.41433   3
   5   2   4 1.49906 1.06133   2
  -6  -2  -4 8.30586 3.22000   3
   6   2   4 3.63760 1.50153   2
   6   2   4 -0.8730 8.00158   1
  -7  -2  -4 273.716 21.2246   3
   7   2   4 264.441 19.7534   2
   7   2   4 261.584 27.1114   1
  -8  -2  -4 183.108 15.8054   3
   8   2   4 174.430 13.7276   2
  -9  -2  -4 5.46464 7.26026   3
   9   2   4 3.61623 2.35632   2
  -7   3   4 107.616 10.3299   2
  -7   3   4 91.9351 10.5532   3
  -6   3   4 135.894 11.7600   3
   5  -3  -4 -27.518 15.9223   1
   5  -3  -4 1.77915 3.89201   4
  -5   3   4 4.02736 2.16556   2
  -5   3   4 6.13425 2.95279   3
   4  -3  -4 115.581 10.4998   4
   4  -3  -4 138.713 20.3630   1
  -4   3   4 110.152 9.15869   2
  -4   3   4 109.875 9.32442   3
   3  -3  -4 212.142 21.7525   1
   3  -3  -4 195.729 14.8207   3
   3  -3  -4 182.852 14.8617   4
  -3   3   4 193.721 14.2303   2
  -3   3   4 177.125 14.4513   3
   2  -3  -4 473.450 37.9953   1
   2  -3  -4 424.191 36.0440   1
   2  -3  -4 427.508 31.3376   4
   2  -3  -4 455.363 31.3194   3
  -2   3   4 380.155 31.0484   3
  -2   3   4 438.692 31.0785   2
   1  -3  -4 43.6259 5.01432   4
   1  -3  -4 47.5957 11.4029   1
   1  -3  -4 32.5358 9.92602   1
  -1   3   4 37.2096 4.47098   3
  -1   3   4 36.3746 4.47279   4
  -1   3   4 32.9202 3.51193   2
   0  -3  -4 115.026 9.30660   4
   0  -3  -4 100.491 15.8186   1
   0   3   4 96.6186 8.61829   4
   0   3   4 113.494 8.50400   3
   0   3   4 117.158 9.06581   3
  -1  -3  -4 831.699 56.0886   1
  -1  -3  -4 797.440 53.3539   4
  -1  -3  -4 738.654 53.0421   2
  -1  -3  -4 721.512 53.3469   3
   1   3   4 706.609 53.2028   4
   1   3   4 694.338 53.3039   3
   1   3   4 752.430 55.2369   1
   1   3   4 731.773 52.9832   2
  -2  -3  -4 420.596 34.8709   2
  -2  -3  -4 547.528 37.5483   1
  -2  -3  -4 489.907 35.2865   3
   2   3   4 474.256 35.3069   3
   2   3   4 481.559 35.0524   4
   2   3   4 537.246 36.8636   1
  -3  -3  -4 249.935 18.1995   3
  -3  -3  -4 205.660 17.6207   2
  -3  -3  -4 235.790 20.6431   1
   3   3   4 260.021 17.6698   2
   3   3   4 237.366 18.2255   3
   3   3   4 290.835 19.9081   1
  -4  -3  -4 78.8092 7.13263   3
   4   3   4 82.4479 6.18828   2
  -5  -3  -4 795.282 58.0711   3
   5   3   4 821.109 59.9517   1
   5   3   4 797.652 57.4062   2
  -6  -3  -4 28.2120 6.63576   1
  -6  -3  -4 20.8592 4.15539   3
   6   3   4 20.3180 2.78200   2
   6   3   4 26.8501 9.09793   1
  -7  -3  -4 217.833 17.5209   3
  -7  -3  -4 191.129 20.5075   1
   7   3   4 199.520 24.3767   1
   7   3   4 216.473 15.6787   2
  -8  -3  -4 10.6299 4.98032   3
   8   3   4 8.60219 2.29849   2
  -9  -3  -4 28.9655 8.32216   3
   9   3   4 16.8562 3.25954   2
   6  -4  -4 5.48793 5.46678   4
  -6   4   4 10.9596 3.70715   2
   5  -4  -4 61.3452 9.30428   4
  -5   4   4 55.1504 8.22058   2
  -5   4   4 60.9713 6.63577   3
   4  -4  -4 180.235 30.7776   1
   4  -4  -4 258.664 18.8594   4
  -4   4   4 233.110 19.6574   3
  -4   4   4 232.996 17.9379   2
   3  -4  -4 102.877 20.5908   1
   3  -4  -4 86.9722 8.75489   3
   3  -4  -4 84.4510 9.18996   4
  -3   4   4 87.4922 7.55089   3
  -3   4   4 78.7688 7.38989   2
   2  -4  -4 -15.823 12.0396   1
   2  -4  -4 0.68184 3.13343   4
   2  -4  -4 -2.8580 13.6106   1
  -2   4   4 -0.3154 1.87126   3
  -2   4   4 -1.5793 1.52909   2
   1  -4  -4 197.232 23.1192   1
   1  -4  -4 237.212 24.9011   1
   1  -4  -4 206.122 15.8760   4
  -1   4   4 189.955 15.2116   2
  -1   4   4 214.655 15.0892   3
   0  -4  -4 2471.18 184.174   4
   0  -4  -4 2733.70 187.396   1
   0   4   4 2812.08 184.138   3
   0   4   4 2359.63 183.959   3
  -1  -4  -4 322.146 25.7025   1
  -1  -4  -4 288.440 20.7141   4
  -1  -4  -4 267.344 20.5231   3
   1   4   4 266.197 20.8360   4
   1   4   4 251.973 20.3226   3
   1   4   4 302.977 20.1100   2
   1   4   4 275.797 23.7070   1
  -2  -4  -4 7.49501 2.11330   3
  -2  -4  -4 9.57256 7.22303   1
  -2  -4  -4 7.24275 2.55064   4
   2   4   4 3.54819 1.77807   4
   2   4   4 15.3347 5.35771   1
   2   4   4 10.2891 1.24729   2
   2   4   4 6.42593 1.84608   3
  -3  -4  -4 66.6795 6.55449   4
  -3  -4  -4 63.9305 5.75487   3
  -3  -4  -4 58.5984 11.4275   1
   3   4   4 54.8873 5.71118   3
   3   4   4 71.2411 4.90335   2
   3   4   4 85.8463 9.42928   1
   3   4   4 53.9958 5.52028   4
  -4  -4  -4 238.012 18.1772   3
  -4  -4  -4 228.741 21.7960   1
   4   4   4 254.450 17.4680   2
   4   4   4 237.112 20.1114   1
  -5  -4  -4 181.740 14.2166   3
  -5  -4  -4 160.414 18.5346   1
   5   4   4 183.105 13.1665   2
   5   4   4 181.048 16.8532   1
  -6  -4  -4 86.0783 8.71566   3
  -6  -4  -4 85.0503 14.4197   1
   6   4   4 78.2850 13.0147   1
   6   4   4 84.6459 6.73382   2
  -7  -4  -4 36.0004 5.88510   3
   7   4   4 32.0000 3.84173   2
   7   4   4 43.6950 15.9032   1
  -8  -4  -4 103.426 11.6214   3
   8   4   4 93.4681 8.04012   2
  -9  -4  -4 167.353 17.4531   3
   9   4   4 170.737 13.3851   2
   5  -5  -4 299.701 23.2442   4
  -5   5   4 274.606 22.2171   2
   4  -5  -4 18.4806 5.47184   4
   3  -5  -4 82.3645 9.52091   4
  -3   5   4 66.0692 7.05142   2
   2  -5  -4 171.736 26.5695   1
   2  -5  -4 96.0013 20.3521   1
   2  -5  -4 126.041 10.9691   4
  -2   5   4 99.8666 9.25088   2
   1  -5  -4 199.421 25.1757   1
   1  -5  -4 198.543 25.7843   1
   1  -5  -4 184.640 14.4887   4
  -1   5   4 158.249 13.3048   2
   0  -5  -4 100.862 9.44751   4
   0  -5  -4 114.838 19.6666   1
   0   5   4 100.705 7.95092   2
  -1  -5  -4 64.3927 13.1250   1
  -1  -5  -4 52.2029 5.72498   3
  -1  -5  -4 58.8074 6.79634   4
   1   5   4 63.3296 10.1720   1
   1   5   4 54.4894 5.04148   3
   1   5   4 66.1468 4.80295   2
  -2  -5  -4 276.264 21.3050   3
  -2  -5  -4 308.907 21.6515   4
  -2  -5  -4 308.470 27.0060   1
   2   5   4 304.652 20.8768   2
   2   5   4 293.386 24.6431   1
   2   5   4 259.107 21.2013   3
  -3  -5  -4 305.700 23.7531   3
  -3  -5  -4 326.168 28.4171   1
  -3  -5  -4 325.641 23.9260   4
   3   5   4 330.047 23.2531   2
   3   5   4 335.447 26.6426   1
  -4  -5  -4 87.2131 15.7429   1
  -4  -5  -4 91.1372 8.26139   3
  -4  -5  -4 92.0573 8.46545   4
   4   5   4 87.0084 12.3892   1
   4   5   4 100.253 7.13221   2
  -5  -5  -4 12.9776 9.00598   1
  -5  -5  -4 1.58498 2.78382   3
   5   5   4 3.26271 1.21171   2
   5   5   4 3.31572 6.60761   1
  -6  -5  -4 209.459 24.3153   1
  -6  -5  -4 253.170 19.1955   3
   6   5   4 225.759 22.9049   1
   6   5   4 254.215 17.6654   2
  -7  -5  -4 44.8902 8.00532   3
  -7  -5  -4 43.1644 17.3301   1
   7   5   4 40.8792 4.20732   2
  -8  -5  -4 50.2225 10.1775   3
   8   5   4 55.3761 5.23414   2
  -9  -5  -4 32.8408 7.78902   3
   9   5   4 37.5400 4.90773   2
   4  -6  -4 129.915 13.1669   4
  -4   6   4 101.584 10.6618   2
   3  -6  -4 114.616 11.6440   4
  -3   6   4 80.9211 8.60908   2
   2  -6  -4 43.7084 25.3002   1
  -2   6   4 55.7654 5.97446   2
   1  -6  -4 -3.2540 15.4152   1
   1  -6  -4 38.6764 17.8374   1
   1  -6  -4 1.32763 4.23383   4
   0  -6  -4 94.6586 9.43030   4
   0  -6  -4 96.6959 17.5440   1
   0   6   4 81.7498 7.20471   2
  -1  -6  -4 431.072 32.4835   4
  -1  -6  -4 450.225 39.6775   1
   1   6   4 462.277 31.7156   2
   1   6   4 415.577 36.9432   1
  -2  -6  -4 71.3942 7.99022   4
  -2  -6  -4 53.8618 14.0917   1
  -2  -6  -4 64.0262 6.40713   3
   2   6   4 68.4492 5.32022   2
   2   6   4 76.5914 14.3194   1
   2   6   4 62.8397 6.15388   3
  -3  -6  -4 17.3844 4.08358   4
  -3  -6  -4 26.6652 11.8127   1
  -3  -6  -4 21.7519 3.97289   3
   3   6   4 25.3137 2.57099   2
   3   6   4 19.4286 8.64799   1
   3   6   4 30.2349 4.36976   3
  -4  -6  -4 2.92979 3.34708   4
  -4  -6  -4 1.33493 2.46064   3
  -4  -6  -4 7.52645 11.2141   1
   4   6   4 3.30461 1.18744   2
   4   6   4 -4.1872 7.71011   1
  -5  -6  -4 160.777 13.1312   3
  -5  -6  -4 150.837 12.8253   4
  -5  -6  -4 126.350 21.9229   1
   5   6   4 173.606 11.7309   2
   5   6   4 144.902 18.4080   1
  -6  -6  -4 106.648 21.5516   1
  -6  -6  -4 138.445 12.2680   3
   6   6   4 114.912 18.7301   1
   6   6   4 143.125 10.2205   2
  -7  -6  -4 61.0798 9.71702   3
   7   6   4 66.1983 5.62920   2
  -8  -6  -4 -1.6378 5.64407   3
   8   6   4 3.13945 1.84242   2
  -9  -6  -4 136.755 15.9022   3
   9   6   4 133.815 10.9335   2
   3  -7  -4 2.72638 6.58237   4
  -3   7   4 10.0558 3.83619   2
   2  -7  -4 84.2975 10.9296   4
  -2   7   4 66.3418 7.39105   2
   1  -7  -4 22.6450 19.8049   1
  -1   7   4 32.9473 4.67546   2
   0  -7  -4 80.5306 25.5080   1
   0  -7  -4 93.5184 10.3332   4
   0   7   4 78.4634 7.22367   2
  -1  -7  -4 30.1923 5.42942   4
  -1  -7  -4 36.3013 17.1190   1
   1   7   4 46.2066 14.7483   1
   1   7   4 27.1829 3.71813   2
  -2  -7  -4 31.4542 15.6290   1
  -2  -7  -4 9.21133 4.38678   4
  -2  -7  -4 4.87835 2.88254   3
   2   7   4 10.4187 11.1192   1
   2   7   4 9.17685 1.86746   2
   2   7   4 12.2016 5.14679   3
  -3  -7  -4 51.7374 8.05191   4
  -3  -7  -4 50.7927 16.5824   1
  -3  -7  -4 50.7156 5.72922   3
   3   7   4 40.5329 12.3109   1
   3   7   4 55.7659 4.56931   2
  -4  -7  -4 248.931 32.8684   1
  -4  -7  -4 234.748 18.3525   3
  -4  -7  -4 228.525 19.0322   4
   4   7   4 255.787 17.5589   2
   4   7   4 237.791 28.3767   1
  -5  -7  -4 52.1180 7.35872   3
  -5  -7  -4 71.4244 17.5818   1
  -5  -7  -4 50.4181 7.85821   4
   5   7   4 57.5468 4.84289   2
   5   7   4 59.6126 13.1712   1
  -6  -7  -4 10.1357 16.0522   1
  -6  -7  -4 6.63658 3.89823   4
  -6  -7  -4 9.57760 4.25993   3
   6   7   4 5.12508 1.69433   2
   6   7   4 16.3260 12.8575   1
  -7  -7  -4 55.5198 12.2436   3
  -8  -7  -4 113.059 14.0597   3
   8   7   4 110.853 9.00788   2
   2  -8  -4 61.0235 12.6346   4
  -2   8   4 43.8262 6.21873   2
   1  -8  -4 32.7438 7.11816   4
  -1   8   4 19.5732 3.63194   2
   0  -8  -4 -1.7587 5.42413   4
   0   8   4 -0.0760 2.43958   2
  -1  -8  -4 14.4099 20.4163   1
   1   8   4 32.7482 16.6685   1
   1   8   4 11.5441 3.07767   2
  -2  -8  -4 115.984 12.1539   4
   2   8   4 111.664 21.5634   1
   2   8   4 111.807 8.99974   2
  -3  -8  -4 84.6749 10.4834   4
  -3  -8  -4 97.9462 21.9002   1
  -3  -8  -4 76.5272 7.83900   3
   3   8   4 81.8703 6.71518   2
   3   8   4 82.8504 18.9175   1
  -4  -8  -4 42.7235 20.2017   1
  -4  -8  -4 7.36600 5.06444   4
  -4  -8  -4 0.54715 3.11315   3
   4   8   4 -11.803 17.7808   1
   4   8   4 6.86171 1.72511   2
  -5  -8  -4 30.3268 20.5076   1
  -5  -8  -4 4.13319 4.78015   4
  -5  -8  -4 3.10690 3.62329   3
   5   8   4 14.6463 18.1886   1
   5   8   4 6.27298 1.78089   2
  -6  -8  -4 79.7691 9.82885   3
  -6  -8  -4 61.4726 9.22431   4
  -7  -8  -4 59.6759 10.3344   3
   7   8   4 60.3693 5.62890   2
  -8  -8  -4 28.9111 8.10636   3
   8   8   4 37.3098 4.65485   2
   0  -9  -4 32.8484 7.48141   4
   0   9   4 30.6905 5.12226   2
  -1  -9  -4 59.1388 12.3110   4
   1   9   4 54.1356 6.00484   2
  -2  -9  -4 4.21516 6.28890   4
   2   9   4 1.70875 2.22931   2
  -3  -9  -4 3.60769 5.98954   4
   3   9   4 -1.4318 2.13234   2
  -4  -9  -4 18.1360 6.32589   4
  -4  -9  -4 28.2409 26.6417   1
   4   9   4 -4.2252 18.7297   1
   4   9   4 20.5002 2.86982   2
  -5  -9  -4 53.2229 8.33632   3
  -5  -9  -4 51.5377 10.0953   4
   5   9   4 76.9978 6.00467   2
  -6  -9  -4 23.3677 7.07019   4
  -6  -9  -4 50.7724 8.69243   3
   6   9   4 39.2657 4.52747   2
  -6  -7   5 9.15328 6.33129   3
  -6  -7   5 10.9590 5.46921   4
  -5  -7   5 113.413 12.5589   4
  -4  -7   5 46.8292 9.75595   4
  -3  -7   5 12.0489 4.80480   3
  -3  -7   5 8.17597 5.67274   4
   2   7  -5 20.7568 3.54460   2
  -2  -7   5 12.9821 5.95665   4
  -2  -7   5 24.9427 5.34927   3
   1   7  -5 110.673 8.75795   2
  -1  -7   5 117.580 13.3676   4
   0   7  -5 80.0884 6.78152   2
   0  -7   5 77.5688 12.3082   4
  -1   7  -5 32.2191 4.03769   2
   1  -7   5 19.1536 6.16271   4
  -7  -6   5 31.9939 5.50980   4
  -6  -6   5 51.7011 8.33217   4
  -5  -6   5 46.3134 8.81734   3
  -5  -6   5 36.7768 6.07817   4
  -4  -6   5 -3.2522 4.38041   4
  -4  -6   5 3.37602 4.32598   3
  -3  -6   5 90.1880 10.4427   4
  -3  -6   5 90.4417 9.80945   3
   2   6  -5 245.517 19.7980   2
  -2  -6   5 275.312 21.7165   4
  -2  -6   5 306.968 21.3998   3
   1   6  -5 64.2820 5.81737   2
  -1  -6   5 85.2645 8.19917   3
   0   6  -5 11.8765 1.96772   2
   0  -6   5 9.93675 4.61767   4
  -1   6  -5 16.7008 2.75878   2
   1  -6   5 23.5277 5.32375   4
   2  -6   5 102.023 11.8257   4
  -8  -5   5 74.0678 14.6597   3
   7   5  -5 45.4459 20.6745   1
  -7  -5   5 39.0965 6.98920   4
  -7  -5   5 32.3484 30.9160   1
  -7  -5   5 61.8460 11.3550   3
   6   5  -5 1.25650 14.3866   1
  -6  -5   5 -1.4355 14.6810   1
   5   5  -5 109.711 19.0990   1
  -5  -5   5 64.1317 8.88402   4
  -5  -5   5 81.3656 9.63298   3
   4   5  -5 123.087 18.9498   1
  -4  -5   5 127.424 11.7236   3
  -4  -5   5 118.957 11.4999   4
   3   5  -5 133.324 10.7519   2
   3   5  -5 144.703 18.1520   1
  -3  -5   5 158.330 13.0114   4
  -3  -5   5 161.763 12.9508   3
   2   5  -5 51.2951 9.59603   1
   2   5  -5 61.7419 5.14734   2
  -2  -5   5 68.3638 7.54518   3
  -2  -5   5 74.1191 8.21274   4
   1   5  -5 61.8452 5.36095   2
  -1  -5   5 77.0976 7.45447   3
  -1  -5   5 67.5206 8.24506   4
   0   5  -5 184.782 15.1410   2
   0  -5   5 225.545 16.2022   3
   0  -5   5 211.367 16.5943   4
  -1   5  -5 145.919 11.9827   2
   1  -5   5 160.559 13.6657   4
   1  -5   5 170.304 13.0758   3
  -2   5  -5 27.9790 3.98745   2
   2  -5   5 38.0078 7.52735   4
   2  -5   5 37.6465 6.60419   3
  -4   5  -5 77.4050 7.73380   2
   4  -5   5 80.2617 10.3205   4
  -8  -4   5 7.43985 7.06417   3
   7   4  -5 -0.3331 24.7286   1
  -7  -4   5 7.28954 5.93981   3
  -7  -4   5 27.0082 19.7165   1
   6   4  -5 140.319 26.7422   1
  -6  -4   5 103.278 11.2090   3
  -6  -4   5 87.6581 17.3589   1
   5   4  -5 353.416 31.7612   1
  -5  -4   5 344.990 32.4247   1
  -5  -4   5 341.126 26.5988   3
   4   4  -5 101.346 16.3469   1
  -4  -4   5 84.2101 9.07015   3
  -4  -4   5 86.1573 13.7707   1
   3   4  -5 3.63095 8.23052   1
  -3  -4   5 2.98743 3.11677   3
  -3  -4   5 9.49314 8.23928   1
   2   4  -5 162.436 17.5490   1
   2   4  -5 156.203 12.4226   2
  -2  -4   5 184.824 13.9772   3
  -2  -4   5 188.538 14.2033   4
  -2  -4   5 189.445 18.5547   1
  -2  -4   5 164.477 12.3683   2
   1   4  -5 337.593 26.1771   2
  -1  -4   5 391.791 27.1889   4
  -1  -4   5 368.993 27.0627   3
   0   4  -5 283.382 22.8776   2
   0  -4   5 325.971 22.8558   2
   0  -4   5 327.445 23.7601   4
   0  -4   5 334.899 23.7408   3
  -1   4  -5 114.526 9.68344   2
   1  -4   5 129.840 11.0946   4
   1  -4   5 142.448 11.0091   3
  -2   4  -5 0.32660 1.57974   2
   2  -4   5 4.25088 3.37214   3
   2  -4   5 0.49717 2.96054   4
  -3   4  -5 126.723 11.1225   2
   3  -4   5 145.823 12.6494   3
   3  -4   5 158.202 12.4292   4
   4  -4   5 146.532 13.1595   4
   4  -4   5 159.970 14.0688   3
  -5   4  -5 9.82134 3.29616   2
   5  -4   5 7.71498 4.38006   4
  -8  -3   5 43.6192 9.26911   3
   7   3  -5 93.0971 7.02131   2
   7   3  -5 78.0379 23.6330   1
  -7  -3   5 92.0339 11.5221   3
  -7  -3   5 94.3401 18.7000   1
   6   3  -5 138.418 11.2702   4
   6   3  -5 119.609 23.0099   1
   6   3  -5 137.477 9.92990   2
  -6  -3   5 126.811 12.7448   3
  -6  -3   5 130.443 22.1388   1
   5   3  -5 59.2436 12.0384   1
   5   3  -5 58.1102 6.61600   4
  -5  -3   5 60.9918 7.80958   3
  -5  -3   5 42.0595 11.8234   1
   4   3  -5 198.990 15.3992   4
   4   3  -5 202.619 20.9138   1
  -4  -3   5 191.612 16.1194   3
  -4  -3   5 212.096 21.0603   1
   3   3  -5 304.464 21.6188   4
   3   3  -5 287.640 24.7310   1
  -3  -3   5 289.495 22.0396   3
  -3  -3   5 273.809 25.2917   1
   2   3  -5 226.539 17.4117   4
   2   3  -5 220.001 19.6640   1
  -2  -3   5 239.448 17.8391   3
  -2  -3   5 242.012 20.8617   1
   1   3  -5 125.678 9.66800   4
   1   3  -5 114.721 8.70364   2
   0   3  -5 6.93575 1.31691   2
   0  -3   5 10.8857 3.11246   3
  -1   3  -5 686.256 52.1582   2
   1  -3   5 719.571 52.3640   2
   1  -3   5 749.705 52.8655   3
   1  -3   5 767.938 52.5838   4
  -2   3  -5 71.6260 6.36878   2
   2  -3   5 89.5004 7.65750   4
   2  -3   5 77.9572 8.53243   3
  -3   3  -5 75.0702 6.59042   2
   3  -3   5 86.8430 7.70225   4
   3  -3   5 72.8057 8.84356   3
  -4   3  -5 -0.0598 1.74854   2
   4  -3   5 1.72079 2.87114   4
  -5   3  -5 62.2991 6.33619   2
  -5   3  -5 63.6267 7.74119   3
  -6   3  -5 120.836 14.5011   3
  -6   3  -5 97.3968 9.83021   2
   8   2  -5 98.3061 7.54949   2
  -8  -2   5 86.5844 13.9115   3
   7   2  -5 19.8980 17.3687   1
   7   2  -5 22.5868 2.63685   2
  -7  -2   5 43.7536 15.6702   1
   6   2  -5 10.2880 11.7569   1
   6   2  -5 2.49256 0.99954   2
  -6  -2   5 5.89363 11.7478   1
  -6  -2   5 0.98961 4.10650   3
   5   2  -5 10.3096 9.31818   1
   5   2  -5 13.7172 1.73251   2
   5   2  -5 11.6402 2.79078   4
  -5  -2   5 10.9623 3.82870   3
  -5  -2   5 29.4715 10.1132   1
   4   2  -5 1485.31 104.739   4
  -4  -2   5 1453.19 105.381   3
   3   2  -5 12.2213 2.43468   4
  -3  -2   5 18.3441 3.52468   3
   2   2  -5 7.93411 2.01721   4
   2   2  -5 12.1717 5.86393   1
  -2  -2   5 10.0215 3.01106   3
  -2  -2   5 8.21434 7.07409   1
   1   2  -5 182.211 14.2502   4
   1   2  -5 168.305 15.8176   3
  -1  -2   5 217.879 14.9792   3
   0   2  -5 411.011 29.7908   4
   0   2  -5 351.987 29.2975   2
   0  -2   5 441.553 29.3037   2
   0  -2   5 441.325 30.2962   3
  -1   2  -5 328.045 23.3060   4
  -1   2  -5 304.346 22.9571   2
   1  -2   5 266.492 23.7810   3
   1  -2   5 347.785 22.9490   2
   1  -2   5 348.258 24.1166   3
  -2   2  -5 7.80426 1.47185   2
   2  -2   5 12.6805 2.65593   4
   2  -2   5 0.65781 3.21959   3
  -3   2  -5 73.1936 6.32741   2
  -3   2  -5 78.1205 7.81360   3
   3  -2   5 81.2317 7.03705   4
  -4   2  -5 69.5130 6.82077   2
  -4   2  -5 91.1468 8.16218   3
   4  -2   5 86.3122 7.46539   4
  -5   2  -5 276.096 21.9151   2
  -5   2  -5 315.227 22.6136   3
  -6   2  -5 35.8555 6.70302   3
   6  -2   5 21.3644 3.22907   2
  -7   2  -5 7.69236 6.27550   3
   7  -2   5 1.01644 2.41369   2
   8   1  -5 1.35272 1.70393   2
  -8  -1   5 1.40009 6.26709   3
   7   1  -5 92.9686 7.28787   2
  -7  -1   5 90.8896 12.3320   3
   6   1  -5 174.047 23.0426   1
   6   1  -5 165.503 12.4561   2
  -6  -1   5 185.008 23.3759   1
  -6  -1   5 168.264 14.6876   3
   5   1  -5 101.446 18.1280   1
   5   1  -5 145.448 11.3719   4
   5   1  -5 154.652 10.3784   2
  -5  -1   5 146.300 19.7322   1
  -5  -1   5 132.156 12.2542   3
   4   1  -5 75.2840 7.05132   4
   4   1  -5 75.9273 12.9422   1
   4   1  -5 90.6495 5.82418   2
   4   1  -5 70.3125 5.76814   2
  -4  -1   5 71.3655 14.5585   1
  -4  -1   5 73.4195 7.93360   3
   3   1  -5 94.2807 11.8653   1
   3   1  -5 85.5727 7.82035   4
  -3  -1   5 98.6523 8.69516   3
  -3  -1   5 109.312 13.9034   1
   2   1  -5 655.771 48.3123   4
   2   1  -5 666.028 50.0207   1
  -2  -1   5 690.512 48.8028   3
  -2  -1   5 706.142 50.5016   1
  -2  -1   5 655.757 48.2606   4
   1   1  -5 225.017 18.7038   3
   1   1  -5 235.705 17.9697   4
  -1  -1   5 246.629 17.9465   4
  -1  -1   5 269.832 18.7087   3
  -1  -1   5 248.491 19.9828   1
   0   1  -5 239.791 16.5836   4
   0  -1   5 206.604 16.0261   2
   0  -1   5 252.013 16.5881   4
   0  -1   5 232.340 16.0880   2
   0  -1   5 217.043 17.7512   3
   0  -1   5 197.129 17.2092   3
  -1   1  -5 10.0676 1.85291   4
   1  -1   5 13.2243 3.11915   3
   1  -1   5 6.48672 2.65263   3
   1  -1   5 9.47304 1.34306   2
   1  -1   5 12.8437 1.97956   4
   1  -1   5 13.3975 1.59331   2
  -2   1  -5 351.307 26.0120   4
  -2   1  -5 357.850 26.6079   3
   2  -1   5 375.557 26.0820   4
   2  -1   5 358.156 25.8792   2
   2  -1   5 353.560 26.5636   3
  -3   1  -5 286.357 21.2883   3
  -3   1  -5 250.327 20.6060   2
   3  -1   5 313.882 20.8422   4
  -4   1  -5 127.770 10.3054   3
   4  -1   5 113.512 9.15406   2
  -5   1  -5 36.5574 5.91684   3
   5  -1   5 31.0867 3.63602   2
  -6   1  -5 58.6218 7.61946   3
   6  -1   5 49.6249 6.10741   2
  -7   1  -5 134.931 13.2399   3
   7  -1   5 134.262 10.9320   2
   8   0  -5 56.3480 6.38589   2
  -8   0   5 66.0140 10.3432   3
  -7   0   5 135.611 13.0698   3
   6   0  -5 99.3651 16.3416   1
  -6   0   5 78.1838 17.5823   1
  -6   0   5 84.2038 7.26790   2
  -6   0   5 92.3725 9.37642   3
   5   0  -5 4.88484 2.67214   4
   5   0  -5 14.0639 9.10568   1
  -5   0   5 9.01130 3.75817   3
  -5   0   5 20.8330 11.5287   1
  -5   0   5 8.93039 1.54284   2
   4   0  -5 168.488 17.9912   1
   4   0  -5 177.419 13.5867   4
   4   0  -5 198.660 12.8552   2
  -4   0   5 223.280 20.3356   1
  -4   0   5 161.512 14.2150   3
  -4   0   5 153.967 12.9761   2
   3   0  -5 671.970 51.4926   1
   3   0  -5 712.427 49.2083   4
  -3   0   5 762.654 52.4089   1
  -3   0   5 604.842 48.8217   2
  -3   0   5 707.614 49.7895   3
  -3   0   5 668.764 49.1120   4
   2   0  -5 365.616 26.1956   4
   2   0  -5 357.782 28.0418   1
  -2   0   5 368.909 26.1185   4
  -2   0   5 387.085 28.9277   1
  -2   0   5 378.749 26.7590   3
  -2   0   5 316.194 25.7083   2
   1   0  -5 272.359 21.0245   3
   1   0  -5 275.809 21.6875   1
  -1   0   5 280.245 22.4923   1
  -1   0   5 288.453 20.3455   4
   0   0  -5 15.9746 2.94934   4
   0   0  -5 16.8792 1.48738   2
   0   0   5 18.5070 1.48108   2
   0   0   5 18.6200 2.81451   4
   0   0   5 24.0118 4.10148   3
   0   0   5 20.1325 3.73572   3
  -1   0  -5 430.819 28.6418   4
   1   0   5 369.813 28.2833   2
   1   0   5 339.721 29.0677   3
   1   0   5 389.476 28.3869   2
   1   0   5 452.979 28.6278   4
  -2   0  -5 453.120 32.0147   3
  -2   0  -5 442.927 31.5084   4
   2   0   5 407.014 31.3900   2
   2   0   5 441.974 32.1011   3
   2   0   5 484.833 31.5374   4
   2   0   5 399.108 31.2810   2
  -3   0  -5 124.536 9.43788   3
  -3   0  -5 106.150 8.74100   4
   3   0   5 100.667 8.39902   2
   3   0   5 122.075 8.79748   4
  -4   0  -5 9.95222 2.66870   3
   4   0   5 7.96217 1.43589   2
  -5   0  -5 278.879 20.6023   3
   5   0   5 260.825 19.7463   2
  -6   0  -5 317.899 23.0960   3
   6   0   5 282.364 21.9891   2
  -7   0  -5 24.0429 4.89296   3
   7   0   5 13.0118 2.52106   2
  -8   0  -5 -5.9468 5.42841   3
   8   0   5 8.06754 2.39366   2
  -8   1   5 78.5532 10.8048   3
  -7   1   5 53.7757 5.73921   2
  -7   1   5 41.4606 7.94950   3
   6  -1  -5 167.102 25.2054   1
  -6   1   5 173.693 14.4551   3
  -6   1   5 170.280 29.4227   1
  -6   1   5 172.727 13.2123   2
   5  -1  -5 151.130 11.9027   4
   5  -1  -5 144.337 20.2644   1
  -5   1   5 137.483 12.2545   3
  -5   1   5 144.077 23.1615   1
  -5   1   5 144.421 11.0327   2
   4  -1  -5 222.368 21.2025   1
   4  -1  -5 222.599 16.3458   4
  -4   1   5 202.724 15.6916   2
  -4   1   5 227.877 23.8974   1
  -4   1   5 208.219 16.6787   3
   3  -1  -5 61.0947 10.7685   1
   3  -1  -5 58.2101 5.83745   4
  -3   1   5 53.9855 4.72573   2
  -3   1   5 70.0333 11.3577   1
  -3   1   5 55.1166 6.40438   3
   2  -1  -5 61.3196 9.50255   1
   2  -1  -5 60.5562 6.58104   3
   2  -1  -5 60.2911 5.90595   4
  -2   1   5 78.7352 6.67010   3
  -2   1   5 57.4644 4.90289   2
  -2   1   5 72.9549 12.2001   1
   1  -1  -5 306.801 23.9817   1
   1  -1  -5 307.136 22.6533   3
  -1   1   5 295.968 22.7576   3
  -1   1   5 312.008 22.0389   4
  -1   1   5 293.527 24.7485   1
   0  -1  -5 674.574 49.9969   1
   0  -1  -5 574.558 48.2632   2
   0  -1  -5 710.185 48.6451   4
   0   1   5 674.896 48.2740   2
   0   1   5 675.540 48.9960   3
   0   1   5 734.872 49.2964   3
   0   1   5 717.137 48.5853   4
  -1  -1  -5 309.666 21.6114   3
  -1  -1  -5 296.756 20.9031   4
  -1  -1  -5 251.664 20.5522   2
   1   1   5 268.841 20.5492   2
   1   1   5 292.089 21.4391   3
   1   1   5 311.874 20.8652   4
  -2  -1  -5 50.5111 4.75050   4
  -2  -1  -5 47.1535 4.00176   2
  -2  -1  -5 61.4916 5.38914   3
   2   1   5 51.1902 5.34152   3
   2   1   5 50.7570 4.06812   2
   2   1   5 57.8330 4.70143   4
  -3  -1  -5 26.5915 3.76334   3
   3   1   5 21.0695 2.17999   2
  -4  -1  -5 544.287 38.1397   3
   4   1   5 504.034 37.5388   2
  -5  -1  -5 275.075 20.2826   3
   5   1   5 256.391 19.3907   2
  -6  -1  -5 58.6391 6.97717   3
   6   1   5 43.7322 4.55359   2
  -7  -1  -5 60.8567 8.36175   3
   7   1   5 50.8749 7.02789   2
  -8  -1  -5 253.649 20.3509   3
   8   1   5 224.795 18.0299   2
  -7   2   5 56.3937 6.46698   2
  -7   2   5 45.2403 7.71009   3
  -6   2   5 161.554 11.9008   2
  -6   2   5 133.480 12.6400   3
   5  -2  -5 93.0449 9.24505   4
   5  -2  -5 90.0742 16.3503   1
  -5   2   5 81.9129 8.50944   3
  -5   2   5 90.7529 18.1950   1
  -5   2   5 96.3677 7.66160   2
   4  -2  -5 -0.4906 2.85273   4
   4  -2  -5 -2.9354 9.59023   1
  -4   2   5 0.87867 1.49695   2
  -4   2   5 -2.9868 2.56238   3
  -4   2   5 7.32475 11.6370   1
   3  -2  -5 224.856 21.8303   1
   3  -2  -5 227.419 17.0942   4
  -3   2   5 220.990 17.1858   3
  -3   2   5 227.888 23.7824   1
  -3   2   5 230.022 16.5953   2
   2  -2  -5 295.440 24.3964   1
   2  -2  -5 281.265 20.9368   3
   2  -2  -5 266.286 20.5743   4
   1  -2  -5 300.618 23.5130   3
   1  -2  -5 352.322 26.5268   1
   1  -2  -5 325.073 23.1292   4
  -1   2   5 331.940 23.1155   4
  -1   2   5 312.681 23.6159   3
  -1   2   5 287.685 22.7655   2
   0  -2  -5 6.70553 8.11312   1
   0  -2  -5 11.8350 6.34284   1
   0  -2  -5 16.2351 1.55917   2
   0   2   5 16.4325 1.67213   2
   0   2   5 21.3223 3.23666   4
   0   2   5 16.9230 3.27780   3
   0   2   5 17.1306 3.30185   3
  -1  -2  -5 12.6779 1.35678   2
  -1  -2  -5 12.5027 2.99278   3
   1   2   5 16.5669 1.44411   2
   1   2   5 13.2571 2.59113   3
  -2  -2  -5 507.169 34.5625   3
  -2  -2  -5 503.695 34.0051   4
   2   2   5 472.886 33.9271   4
   2   2   5 457.714 34.3992   3
   2   2   5 413.401 33.8091   2
   2   2   5 486.548 35.9763   1
  -3  -2  -5 631.251 43.4431   3
   3   2   5 572.110 42.8904   2
  -4  -2  -5 198.133 14.9902   3
   4   2   5 190.996 14.2062   2
  -5  -2  -5 30.9165 5.01282   3
   5   2   5 24.1241 2.84193   2
  -6  -2  -5 188.841 15.2595   3
   6   2   5 196.744 19.2865   1
   6   2   5 182.080 14.0098   2
  -7  -2  -5 251.273 19.5589   3
   7   2   5 183.039 31.3877   1
   7   2   5 251.172 18.0473   2
  -8  -2  -5 54.0688 9.46677   3
   8   2   5 49.5804 5.51987   2
  -7   3   5 48.9519 9.06272   3
  -7   3   5 69.8911 8.23405   2
   6  -3  -5 9.02570 4.68358   4
  -6   3   5 13.2423 3.77093   3
   5  -3  -5 35.5951 5.39573   4
  -5   3   5 41.7802 5.59081   3
  -5   3   5 36.9405 4.86789   2
   4  -3  -5 140.307 22.4862   1
   4  -3  -5 120.174 10.5624   4
  -4   3   5 97.9003 9.33197   3
  -4   3   5 114.133 9.13265   2
   3  -3  -5 356.075 25.8434   4
   3  -3  -5 369.807 26.0603   3
   3  -3  -5 360.285 32.1709   1
  -3   3   5 348.305 25.3908   2
  -3   3   5 311.550 25.4659   3
   2  -3  -5 16.5676 3.25811   4
   2  -3  -5 14.2759 12.8888   1
   2  -3  -5 -1.6908 9.75392   1
   2  -3  -5 21.3980 3.64326   3
  -2   3   5 13.4696 2.10998   2
  -2   3   5 14.3687 3.29687   3
   1  -3  -5 -1.0289 2.42267   4
   1  -3  -5 -13.707 8.49119   1
   1  -3  -5 -11.556 10.0989   1
   1  -3  -5 0.36920 0.80672   2
  -1   3   5 -1.8055 2.80609   3
  -1   3   5 -2.5969 1.22349   2
   0  -3  -5 344.577 27.2039   4
   0  -3  -5 366.135 32.1254   1
   0   3   5 356.281 27.1314   3
   0   3   5 394.557 27.5353   3
   0   3   5 402.337 26.7418   2
  -1  -3  -5 339.651 25.4576   3
  -1  -3  -5 381.409 25.3127   4
  -1  -3  -5 372.622 29.4823   1
  -1  -3  -5 328.740 24.7447   2
   1   3   5 352.561 24.7178   2
   1   3   5 347.551 25.2906   3
   1   3   5 319.938 27.7756   1
   1   3   5 327.251 25.0898   4
  -2  -3  -5 367.642 28.0052   1
   2   3   5 317.322 24.8533   3
   2   3   5 362.482 26.7731   1
   2   3   5 333.065 24.2568   2
   2   3   5 327.511 24.5791   4
  -3  -3  -5 43.1936 4.61546   3
  -3  -3  -5 45.4060 4.74664   4
   3   3   5 57.1084 11.3105   1
   3   3   5 37.2818 4.48056   4
   3   3   5 42.5537 3.47487   2
  -4  -3  -5 173.418 13.4696   3
  -4  -3  -5 152.814 15.2073   1
   4   3   5 171.863 12.6341   2
   4   3   5 196.129 16.8136   1
  -5  -3  -5 233.215 21.4494   1
  -5  -3  -5 259.144 19.7975   3
   5   3   5 279.932 23.0160   1
   5   3   5 267.872 18.9396   2
  -6  -3  -5 420.123 31.9405   3
   6   3   5 449.324 35.3523   1
   6   3   5 422.081 30.9853   2
  -7  -3  -5 10.2841 4.07158   3
   7   3   5 6.72687 1.87372   2
  -8  -3  -5 25.2266 5.78956   3
   8   3   5 29.0380 4.12229   2
  -9  -3  -5 138.068 14.4477   3
   9   3   5 124.787 10.6111   2
   6  -4  -5 43.2017 7.02909   4
  -6   4   5 51.4027 7.37049   2
   5  -4  -5 102.112 11.5209   4
  -5   4   5 106.455 11.6582   2
  -5   4   5 106.469 9.36752   3
   4  -4  -5 37.0363 19.5883   1
   4  -4  -5 61.4255 8.87193   4
  -4   4   5 55.5090 6.14668   2
  -4   4   5 58.4617 5.96766   3
   3  -4  -5 -2.7277 3.64692   4
   3  -4  -5 -1.8679 18.6615   1
  -3   4   5 -1.1673 3.32137   3
  -3   4   5 -1.9828 2.04117   2
   2  -4  -5 10.9368 12.9388   1
   2  -4  -5 14.4462 17.1488   1
   2  -4  -5 16.5886 3.82532   4
  -2   4   5 14.9532 2.54180   2
  -2   4   5 12.2317 2.71054   3
   1  -4  -5 308.054 28.6587   1
   1  -4  -5 250.263 19.3272   4
   1  -4  -5 257.664 27.1286   1
  -1   4   5 246.832 18.6536   2
  -1   4   5 268.526 18.7477   3
  -1   4   5 230.598 18.8535   3
   0  -4  -5 310.088 24.4909   4
   0  -4  -5 337.372 31.0338   1
   0   4   5 343.313 23.9160   2
   0   4   5 313.350 24.1256   3
   0   4   5 357.963 24.5569   3
  -1  -4  -5 207.900 15.4891   4
  -1  -4  -5 185.485 15.3972   3
  -1  -4  -5 222.179 22.3107   1
   1   4   5 216.549 14.5810   2
   1   4   5 193.736 15.0586   3
   1   4   5 187.272 19.2801   1
  -2  -4  -5 19.6009 3.32267   4
  -2  -4  -5 24.4416 8.78699   1
   2   4   5 25.7472 6.47125   1
   2   4   5 19.0686 3.44553   3
   2   4   5 14.5573 2.70315   4
   2   4   5 24.1192 2.01279   2
  -3  -4  -5 413.963 27.9667   4
  -3  -4  -5 375.693 31.1762   1
  -3  -4  -5 360.849 27.9704   3
   3   4   5 383.809 30.0947   1
   3   4   5 378.305 27.4189   2
  -4  -4  -5 397.032 34.0733   1
  -4  -4  -5 412.476 31.1780   3
   4   4   5 448.454 33.1226   1
   4   4   5 441.738 30.5457   2
  -5  -4  -5 267.513 26.6032   1
  -5  -4  -5 260.776 20.4483   3
   5   4   5 272.596 19.5521   2
   5   4   5 275.377 23.1903   1
  -6  -4  -5 130.812 11.5627   3
   6   4   5 133.450 10.0153   2
   6   4   5 123.074 19.7857   1
  -7  -4  -5 43.7024 7.12056   3
   7   4   5 32.2521 3.94229   2
  -8  -4  -5 146.405 14.2084   3
   8   4   5 141.529 11.3083   2
  -9  -4  -5 75.8280 11.3608   3
   9   4   5 64.9223 6.68826   2
   5  -5  -5 30.9585 6.78120   4
  -5   5   5 26.0935 4.85967   2
   4  -5  -5 10.6941 5.17714   4
   3  -5  -5 94.2619 10.2232   4
  -3   5   5 78.5987 7.92619   2
   2  -5  -5 135.201 22.2583   1
  -2   5   5 134.678 10.8462   2
   1  -5  -5 120.235 23.5282   1
   1  -5  -5 100.255 9.81073   4
   1  -5  -5 126.214 19.8245   1
  -1   5   5 86.2575 7.88039   2
   0  -5  -5 6.07742 12.7666   1
   0  -5  -5 6.62503 3.26926   4
   0   5   5 2.43119 1.67311   3
   0   5   5 1.35930 1.54334   2
   0   5   5 1.67238 2.52463   3
  -1  -5  -5 186.647 14.8268   4
  -1  -5  -5 186.125 23.5718   1
   1   5   5 170.983 13.9571   3
   1   5   5 172.530 19.8047   1
   1   5   5 209.185 13.6803   2
  -2  -5  -5 325.501 22.1965   4
  -2  -5  -5 291.327 28.1456   1
   2   5   5 300.596 25.5556   1
   2   5   5 266.871 21.7089   3
  -3  -5  -5 206.363 21.3316   1
  -3  -5  -5 187.790 14.9371   3
  -3  -5  -5 193.112 15.2797   4
   3   5   5 198.481 14.2117   2
   3   5   5 199.765 18.9075   1
  -4  -5  -5 44.6319 6.18306   4
  -4  -5  -5 43.2720 5.50608   3
  -4  -5  -5 35.7759 10.4703   1
   4   5   5 54.2188 9.31631   1
   4   5   5 48.2482 3.93525   2
  -5  -5  -5 30.1404 10.6469   1
  -5  -5  -5 37.9784 5.99644   3
   5   5   5 44.0257 3.76202   2
   5   5   5 39.4852 9.10054   1
  -6  -5  -5 484.427 35.5121   3
  -6  -5  -5 433.506 39.5096   1
   6   5   5 470.275 38.5351   1
   6   5   5 506.935 34.3824   2
  -7  -5  -5 79.2653 9.42963   3
   7   5   5 75.9921 6.48989   2
  -8  -5  -5 9.08271 5.64214   3
   8   5   5 9.92900 2.40004   2
  -9  -5  -5 17.0741 6.58637   3
   9   5   5 14.2175 2.96557   2
   4  -6  -5 36.7642 6.76252   4
  -4   6   5 24.0820 5.10034   2
  -3   6   5 38.3624 5.68460   2
   2  -6  -5 0.93832 4.98228   4
   2  -6  -5 -2.7942 36.7663   1
  -2   6   5 -1.7806 2.49576   2
   1  -6  -5 25.1912 17.6096   1
   1  -6  -5 48.0533 18.8671   1
   1  -6  -5 15.1487 4.71606   4
  -1   6   5 11.0845 2.66703   2
   0  -6  -5 11.9876 15.5527   1
   0  -6  -5 10.6198 4.17998   4
   0   6   5 7.54276 2.07823   2
  -1  -6  -5 891.426 64.4786   4
   1   6   5 908.971 63.8501   2
   1   6   5 841.155 63.8957   3
   1   6   5 939.679 64.1224   3
  -2  -6  -5 9.09478 3.93461   4
  -2  -6  -5 12.2461 3.80439   3
  -2  -6  -5 2.86235 12.9387   1
   2   6   5 12.7037 9.52280   1
   2   6   5 13.7654 2.62919   3
   2   6   5 14.9277 2.15278   2
  -3  -6  -5 16.1999 3.09160   3
  -3  -6  -5 13.4431 3.92576   4
  -3  -6  -5 16.8849 12.6518   1
   3   6   5 20.4478 2.26588   2
   3   6   5 5.65272 8.57982   1
  -4  -6  -5 196.475 24.2798   1
  -4  -6  -5 182.322 15.0412   4
  -4  -6  -5 176.895 14.7546   3
   4   6   5 203.617 13.7853   2
   4   6   5 178.035 19.6389   1
  -5  -6  -5 203.113 16.5119   4
  -5  -6  -5 210.082 16.7919   3
  -5  -6  -5 198.172 25.1788   1
   5   6   5 228.296 15.5638   2
   5   6   5 206.264 21.8723   1
  -6  -6  -5 86.7053 9.27469   3
  -6  -6  -5 56.3714 14.7869   1
   6   6   5 60.6433 13.1363   1
   6   6   5 92.9106 6.77980   2
  -7  -6  -5 9.12295 4.88685   3
   7   6   5 6.93446 2.14659   2
  -8  -6  -5 82.5197 12.2200   3
   8   6   5 90.9990 7.52178   2
   3  -7  -5 4.30827 6.77792   4
  -3   7   5 -0.2238 4.03154   2
   2  -7  -5 79.8427 10.8696   4
  -2   7   5 54.1166 6.86114   2
   1  -7  -5 149.096 28.1170   1
   1  -7  -5 93.0308 11.4951   4
  -1   7   5 86.9421 8.56211   2
   0  -7  -5 62.1749 19.9773   1
   0  -7  -5 67.4797 9.40095   4
   0   7   5 47.8955 5.41469   2
  -1  -7  -5 23.0208 17.6713   1
   1   7   5 31.5089 18.0279   1
  -2  -7  -5 64.8478 17.9519   1
  -2  -7  -5 56.2131 8.72581   4
  -2  -7  -5 52.7565 7.04557   3
   2   7   5 56.5075 4.97052   2
   2   7   5 65.6304 14.6776   1
  -3  -7  -5 258.669 20.4776   4
  -3  -7  -5 297.639 35.4122   1
  -3  -7  -5 246.884 19.4968   3
   3   7   5 259.758 27.1310   1
   3   7   5 263.453 18.8869   2
  -4  -7  -5 68.2862 7.40249   3
  -4  -7  -5 66.2112 8.78979   4
  -4  -7  -5 73.8822 17.7962   1
   4   7   5 74.7706 5.69169   2
   4   7   5 43.9118 13.6993   1
  -5  -7  -5 35.0783 5.50487   4
  -5  -7  -5 40.8078 6.51532   3
  -5  -7  -5 60.5493 17.6845   1
   5   7   5 41.3190 13.0641   1
   5   7   5 42.8321 4.01158   2
  -6  -7  -5 24.7835 29.2103   1
  -6  -7  -5 30.4676 5.57350   3
   6   7   5 37.2537 3.83163   2
   7   7   5 157.605 12.0502   2
  -8  -7  -5 68.4479 12.2217   3
   8   7   5 64.9433 6.15049   2
   2  -8  -5 36.9376 8.08125   4
  -2   8   5 21.5117 4.15686   2
   1  -8  -5 7.68858 6.49424   4
  -1   8   5 5.40367 2.85392   2
   0  -8  -5 5.72637 6.04001   4
   0   8   5 3.42056 2.50015   2
  -1  -8  -5 44.3509 8.25272   4
   1   8   5 36.1347 5.11751   2
   1   8   5 67.1489 18.1943   1
  -2  -8  -5 170.919 15.7915   4
  -2  -8  -5 148.939 26.5089   1
   2   8   5 181.972 12.9917   2
   2   8   5 139.571 28.1622   1
  -3  -8  -5 76.8229 8.12709   3
  -3  -8  -5 85.9130 22.7319   1
  -3  -8  -5 88.5442 10.8579   4
   3   8   5 95.0955 7.09891   2
   3   8   5 59.7731 18.8463   1
  -4  -8  -5 67.1811 7.78417   3
  -4  -8  -5 102.549 23.0682   1
  -4  -8  -5 69.3241 10.2168   4
   4   8   5 75.7800 6.07528   2
   4   8   5 49.4640 18.7863   1
  -5  -8  -5 60.5219 22.3615   1
  -5  -8  -5 24.8879 5.67788   4
  -5  -8  -5 30.5688 4.82256   3
   5   8   5 19.9755 18.5695   1
  -6  -8  -5 86.7368 10.1333   4
  -6  -8  -5 80.4383 10.3557   3
   6   8   5 97.2619 7.45198   2
  -7  -8  -5 38.9464 7.09786   3
   7   8   5 34.7430 4.34827   2
   0  -9  -5 26.2677 7.54505   4
   0   9   5 25.1115 3.74042   2
  -1  -9  -5 31.0265 7.94993   4
   1   9   5 30.1082 4.91290   2
  -2  -9  -5 2.23228 6.58930   4
   2   9   5 1.50403 2.29421   2
  -3  -9  -5 1.53837 28.7504   1
  -3  -9  -5 20.0845 6.80797   4
   3   9   5 20.8791 20.7133   1
   3   9   5 27.5397 4.14430   2
  -4  -9  -5 62.2797 11.4676   4
   4   9   5 85.7417 6.94933   2
  -5  -9  -5 39.1696 7.77787   3
  -5  -9  -5 49.9843 10.1590   4
   5   9   5 55.4473 5.13300   2
  -6  -9  -5 9.60241 5.19536   3
  -6  -9  -5 10.6156 6.27714   4
   6   9   5 17.8224 2.82825   2
  -5  -7   6 10.4003 6.55600   3
  -5  -7   6 8.20117 6.39155   4
  -4  -7   6 24.5561 6.81840   4
  -3  -7   6 56.6303 10.0716   3
  -2  -7   6 21.9964 7.20379   4
  -1  -7   6 96.3118 12.8986   4
  -6  -6   6 94.2483 12.6579   3
  -6  -6   6 64.5141 9.89471   4
  -5  -6   6 7.39782 5.45341   3
  -5  -6   6 3.47546 5.16292   4
  -4  -6   6 29.2675 5.95684   3
  -4  -6   6 27.6138 6.00229   4
  -3  -6   6 119.086 13.2179   4
  -3  -6   6 140.554 12.7740   3
  -2  -6   6 78.4729 11.0997   4
  -2  -6   6 107.680 10.3274   3
   1   6  -6 15.2750 2.36026   2
  -1  -6   6 9.12616 4.96531   4
  -1  -6   6 16.1055 4.38015   3
   0   6  -6 25.0013 3.13114   2
   0  -6   6 23.4678 5.02756   3
   0  -6   6 18.5531 5.41217   4
  -1   6  -6 58.2779 5.43667   2
   1  -6   6 53.8698 10.3763   4
  -2   6  -6 107.183 9.13953   2
   2  -6   6 118.948 13.6386   4
  -7  -5   6 31.2181 9.20024   3
  -7  -5   6 15.7763 4.54314   4
  -6  -5   6 17.7935 4.92664   4
  -6  -5   6 23.8028 6.57900   3
  -5  -5   6 141.186 13.6437   3
  -5  -5   6 133.120 12.8176   4
   4   5  -6 52.2511 16.5888   1
  -4  -5   6 66.8256 9.55520   4
  -4  -5   6 83.2109 9.48973   3
   3   5  -6 95.5722 16.1118   1
  -3  -5   6 112.541 21.0667   1
  -3  -5   6 107.501 10.6222   3
  -3  -5   6 103.018 11.0572   4
   2   5  -6 55.8904 4.91988   2
  -2  -5   6 65.8886 8.89787   4
  -2  -5   6 79.4446 8.14263   3
   1   5  -6 10.1599 1.50482   2
  -1  -5   6 17.8582 4.02598   3
  -1  -5   6 6.30235 4.12876   4
  -1  -5   6 11.8134 14.5650   1
   0   5  -6 93.9835 7.98127   2
   0  -5   6 119.117 10.1542   3
   0  -5   6 103.327 10.7788   4
  -1   5  -6 158.845 12.9620   2
   1  -5   6 178.882 15.7436   4
   1  -5   6 184.713 14.5649   3
  -2   5  -6 13.4122 2.46046   2
   2  -5   6 17.0334 5.76558   3
   2  -5   6 13.9460 4.61439   4
  -3   5  -6 34.4619 4.47343   2
   3  -5   6 30.1087 5.60447   4
   7   4  -6 186.413 31.0670   1
  -7  -4   6 143.595 25.1895   1
  -7  -4   6 172.686 17.3632   3
   6   4  -6 63.8401 15.2331   1
  -6  -4   6 63.5117 9.72458   3
   5   4  -6 18.0162 13.3589   1
  -5  -4   6 23.2363 5.54185   3
   4   4  -6 40.0789 13.1628   1
  -4  -4   6 28.9317 5.26836   3
   3   4  -6 17.7028 12.4078   1
  -3  -4   6 33.4528 6.61515   3
  -3  -4   6 35.2460 15.6469   1
  -2  -4   6 187.146 15.3246   3
   1   4  -6 245.018 18.6335   2
  -1  -4   6 233.458 18.6188   2
  -1  -4   6 305.172 20.1503   3
   0   4  -6 52.5532 4.43886   2
   0  -4   6 52.1516 4.49591   2
   0  -4   6 62.7905 7.27896   3
   0  -4   6 52.1961 7.76116   4
  -1   4  -6 14.0127 2.47370   2
   1  -4   6 18.0832 4.24298   3
   1  -4   6 15.0279 3.77037   4
  -2   4  -6 138.339 11.5828   2
   2  -4   6 170.807 13.1113   4
   2  -4   6 150.231 13.3235   3
  -3   4  -6 173.515 13.8422   2
   3  -4   6 196.826 15.1546   4
   3  -4   6 172.509 15.6428   3
  -4   4  -6 24.8021 3.50733   2
   4  -4   6 20.1663 4.59068   4
  -8  -3   6 37.1288 8.74570   3
   7   3  -6 96.6678 30.2659   1
  -7  -3   6 144.729 14.3808   3
  -7  -3   6 75.0223 27.6056   1
   6   3  -6 33.0687 6.15607   4
   6   3  -6 44.7092 16.5041   1
  -6  -3   6 27.8173 6.54876   3
  -6  -3   6 29.9978 14.0769   1
   5   3  -6 -0.9129 3.03717   4
   5   3  -6 -1.3126 10.6731   1
  -5  -3   6 -4.9049 10.9513   1
  -5  -3   6 0.41992 4.27613   3
   4   3  -6 265.784 27.5548   1
   4   3  -6 268.637 20.3659   4
  -4  -3   6 268.844 26.2448   1
  -4  -3   6 268.734 21.1708   3
   3   3  -6 189.722 15.0154   4
   3   3  -6 188.969 21.5576   1
  -3  -3   6 201.068 20.4541   1
  -3  -3   6 191.813 15.7209   3
   2   3  -6 168.583 13.6672   4
  -2  -3   6 186.909 14.4216   3
  -2  -3   6 162.900 18.2923   1
   1   3  -6 0.60003 2.10588   4
   0  -3   6 191.668 14.5578   2
   0  -3   6 213.874 16.1567   3
  -1   3  -6 24.0306 2.78745   2
   1  -3   6 32.1835 6.04697   3
   1  -3   6 32.3529 4.43461   4
  -2   3  -6 512.119 39.8603   2
   2  -3   6 602.275 40.3643   4
   2  -3   6 551.303 40.9135   3
  -3   3  -6 24.5111 3.44289   2
   3  -3   6 28.4205 5.21466   3
   3  -3   6 28.8492 5.59268   4
  -4   3  -6 34.1167 4.41608   2
   4  -3   6 34.9077 6.36955   4
   4  -3   6 51.0779 8.28323   3
  -5   3  -6 174.824 14.6696   2
   5  -3   6 195.003 16.6441   3
   5  -3   6 195.157 15.2824   4
  -8  -2   6 31.0647 9.29342   3
  -7  -2   6 33.1083 18.6330   1
  -7  -2   6 1.80539 5.90919   3
   6   2  -6 49.9989 17.3750   1
   6   2  -6 73.0167 7.43947   4
  -6  -2   6 60.7220 9.28574   3
  -6  -2   6 62.1491 15.4857   1
   5   2  -6 303.604 29.0733   1
   5   2  -6 299.175 22.1122   4
  -5  -2   6 278.284 29.1918   1
   4   2  -6 -2.1533 8.41638   1
   4   2  -6 -0.5628 2.48793   4
  -4  -2   6 4.50620 3.61876   3
  -4  -2   6 16.9351 8.98799   1
   3   2  -6 217.121 16.6454   4
   3   2  -6 216.617 21.0277   1
  -3  -2   6 214.590 17.4972   3
  -3  -2   6 236.930 22.0213   1
   2   2  -6 7.24162 6.24891   1
   2   2  -6 3.44977 2.11498   4
  -2  -2   6 4.66980 3.34120   3
  -2  -2   6 4.49654 6.80508   1
   1   2  -6 314.090 23.6997   4
  -1  -2   6 332.106 24.3745   3
   0   2  -6 540.461 37.8215   4
   0  -2   6 469.654 37.1778   2
   0  -2   6 533.918 38.3769   3
   0  -2   6 548.058 37.2245   2
  -1   2  -6 475.396 35.3179   4
   1  -2   6 474.387 34.8713   2
   1  -2   6 515.211 36.1332   3
  -2   2  -6 155.448 11.5809   2
   2  -2   6 155.953 13.3973   3
  -3   2  -6 148.667 11.8532   2
   3  -2   6 139.143 13.5525   3
   3  -2   6 179.729 12.5037   4
  -4   2  -6 230.887 18.1841   3
  -4   2  -6 208.564 17.0766   2
   4  -2   6 247.877 17.4047   4
  -5   2  -6 74.5452 8.17255   3
   5  -2   6 63.7361 6.08995   2
  -6   2  -6 -0.8081 4.26303   3
   6  -2   6 -0.8146 2.08243   2
  -8  -1   6 7.91498 8.34201   3
   7   1  -6 38.8235 3.69731   2
  -7  -1   6 35.1304 6.96737   3
   6   1  -6 114.690 8.39661   2
   6   1  -6 96.7604 17.6242   1
  -6  -1   6 152.199 23.5169   1
  -6  -1   6 103.635 11.5456   3
   5   1  -6 95.2593 7.85470   2
   5   1  -6 92.3917 14.9686   1
   5   1  -6 103.777 9.39455   4
   5   1  -6 120.233 7.85624   2
  -5  -1   6 140.175 20.0740   1
  -5  -1   6 98.6303 10.5427   3
   4   1  -6 25.4595 1.92452   2
   4   1  -6 19.5716 1.90500   2
   4   1  -6 16.1192 3.19560   4
   4   1  -6 14.7114 9.16185   1
  -4  -1   6 18.4384 4.43404   3
  -4  -1   6 21.8044 9.70000   1
   3   1  -6 316.367 23.1134   4
  -3  -1   6 310.057 23.9516   3
   2   1  -6 542.549 39.1456   4
  -2  -1   6 542.429 39.7622   3
   1   1  -6 176.606 13.5374   4
  -1  -1   6 181.190 14.5627   3
   0   1  -6 27.1256 3.86770   4
   0  -1   6 32.9877 2.50297   2
   0  -1   6 28.0060 2.35774   2
   0  -1   6 35.5033 5.54147   3
  -1   1  -6 136.131 10.4846   4
   1  -1   6 134.151 11.6291   3
   1  -1   6 127.291 9.83568   2
   1  -1   6 143.580 9.97194   2
  -2   1  -6 323.624 23.4334   4
   2  -1   6 307.387 23.0573   2
   2  -1   6 331.813 23.2326   2
  -3   1  -6 418.717 31.3757   3
   3  -1   6 429.320 30.5153   2
  -4   1  -6 77.8346 7.50988   3
   4  -1   6 59.4168 6.12282   4
   4  -1   6 61.9142 5.44454   2
  -5   1  -6 60.6873 7.28062   3
   5  -1   6 49.9631 4.97535   2
  -6   1  -6 217.910 16.9120   3
   6  -1   6 184.657 15.1016   2
  -7   1  -6 152.583 13.6270   3
   7  -1   6 120.596 11.0193   2
   8   0  -6 60.1731 5.92363   2
  -8   0   6 90.4708 13.0214   3
  -7   0   6 86.3414 11.0706   3
   6   0  -6 1.62598 19.9962   1
  -6   0   6 2.17737 1.58018   2
  -6   0   6 -1.8501 4.36065   3
   5   0  -6 59.8456 6.68825   4
   5   0  -6 41.9619 12.3061   1
  -5   0   6 73.5551 15.1428   1
  -5   0   6 54.9119 4.82725   2
  -5   0   6 57.5583 7.55094   3
   4   0  -6 118.254 9.79790   4
   4   0  -6 105.349 15.8735   1
  -4   0   6 116.846 10.9131   3
  -4   0   6 106.910 8.72117   2
  -4   0   6 164.765 19.5669   1
   3   0  -6 350.748 25.8953   4
   3   0  -6 337.863 28.8749   1
  -3   0   6 396.157 30.7440   1
  -3   0   6 339.625 26.7051   3
   2   0  -6 100.453 12.3588   1
   2   0  -6 114.505 9.25938   4
   2   0  -6 125.801 8.23154   2
  -2   0   6 105.601 8.28445   2
  -2   0   6 110.792 10.2594   3
  -2   0   6 136.238 14.8062   1
   1   0  -6 12.1698 4.36783   1
  -1   0   6 19.0715 6.81635   1
  -1   0   6 14.2624 3.47909   3
   0   0  -6 585.430 41.3004   4
   0   0   6 658.205 41.5755   4
   0   0   6 572.505 42.0006   3
   0   0   6 552.342 40.8108   2
   0   0   6 500.527 42.6912   3
  -1   0  -6 797.987 54.7891   4
   1   0   6 705.315 54.4034   2
   1   0   6 711.122 54.5099   2
   1   0   6 755.378 55.5188   3
   1   0   6 858.457 54.8143   4
  -2   0  -6 412.401 28.8463   4
  -2   0  -6 393.480 29.5328   3
   2   0   6 440.013 28.9193   4
   2   0   6 373.467 28.5300   2
   2   0   6 375.054 28.6670   2
  -3   0  -6 6.22957 1.82199   4
  -3   0  -6 8.32054 2.96525   3
   3   0   6 9.13675 2.16060   4
   3   0   6 6.30193 1.16903   2
  -4   0  -6 549.790 38.3125   3
   4   0   6 497.067 37.5456   2
  -5   0  -6 128.713 10.7424   3
   5   0   6 111.601 9.22895   2
  -6   0  -6 152.102 13.2358   3
   6   0   6 145.494 11.5226   2
   7   0   6 -0.2245 1.94318   2
  -7   1   6 7.91234 2.61349   2
  -6   1   6 26.9877 5.15353   3
  -6   1   6 20.9391 20.4927   1
   5  -1  -6 130.793 23.2226   1
   5  -1  -6 182.046 13.8263   4
  -5   1   6 167.791 14.3138   3
  -5   1   6 167.948 12.8006   2
  -5   1   6 189.262 27.1220   1
   4  -1  -6 119.544 10.1003   4
   4  -1  -6 136.257 17.8955   1
  -4   1   6 113.727 8.86881   2
  -4   1   6 102.301 10.5160   3
  -4   1   6 162.429 21.1605   1
   3  -1  -6 24.4031 3.58555   4
   3  -1  -6 36.4884 8.37691   1
  -3   1   6 30.5045 3.06248   2
  -3   1   6 27.3363 4.51268   3
  -3   1   6 38.3767 10.5721   1
   2  -1  -6 115.751 13.4138   1
   2  -1  -6 113.437 9.21043   4
  -2   1   6 109.756 8.27957   2
  -2   1   6 132.613 16.3226   1
  -2   1   6 101.698 10.0374   3
   1  -1  -6 1267.84 88.1703   1
   1  -1  -6 1274.99 85.9230   2
   1  -1  -6 1289.38 86.3871   4
  -1   1   6 1222.90 88.6212   1
  -1   1   6 1082.77 85.9744   2
  -1   1   6 1131.06 86.8488   3
   0  -1  -6 176.549 13.5499   4
   0  -1  -6 160.050 12.9177   2
   0  -1  -6 170.587 15.6293   1
   0   1   6 184.122 13.4837   4
   0   1   6 171.447 13.9933   3
   0   1   6 197.361 12.9378   2
   0   1   6 202.118 14.5818   3
  -1  -1  -6 69.4003 5.55764   2
  -1  -1  -6 80.0637 6.49780   4
   1   1   6 67.2616 7.39508   3
   1   1   6 72.6865 7.17888   3
   1   1   6 84.8422 6.38900   4
   1   1   6 75.5004 5.56325   2
  -2  -1  -6 324.658 23.2762   4
  -2  -1  -6 285.572 22.4755   2
  -2  -1  -6 323.060 23.4441   3
   2   1   6 287.839 22.5730   2
   2   1   6 349.147 22.8368   4
  -3  -1  -6 394.619 27.9203   3
  -3  -1  -6 362.690 27.5030   4
   3   1   6 353.149 27.1131   2
   3   1   6 401.939 27.3438   4
  -4  -1  -6 327.410 23.4364   3
   4   1   6 298.690 22.6120   2
  -5  -1  -6 58.9087 6.77459   3
   5   1   6 50.8425 4.75852   2
  -6  -1  -6 24.0628 4.54108   3
   6   1   6 18.1811 3.23021   2
  -7  -1  -6 141.418 15.1327   3
   7   1   6 138.728 11.0798   2
  -8  -1  -6 55.3179 10.3611   3
   8   1   6 47.1072 5.62067   2
  -7   2   6 58.2492 6.85181   2
   6  -2  -6 129.303 11.9135   4
  -6   2   6 121.946 10.3177   2
  -6   2   6 125.712 11.4239   3
   5  -2  -6 10.0577 3.99636   4
   5  -2  -6 1.01247 14.3827   1
  -5   2   6 10.0201 3.61308   3
  -5   2   6 8.85849 16.8446   1
  -5   2   6 15.2441 2.44947   2
   4  -2  -6 -5.2999 10.8756   1
   4  -2  -6 4.12031 3.26243   4
  -4   2   6 5.87948 1.75003   2
  -4   2   6 24.5004 13.2826   1
  -4   2   6 2.43433 3.08375   3
   3  -2  -6 353.107 30.2448   1
   3  -2  -6 346.566 25.3289   4
  -3   2   6 340.487 25.6146   3
  -3   2   6 342.864 31.9224   1
  -3   2   6 332.063 24.7734   2
   2  -2  -6 303.549 25.1880   1
   2  -2  -6 303.008 20.8800   4
  -2   2   6 238.253 20.3484   2
  -2   2   6 286.656 21.2864   3
   1  -2  -6 387.301 30.7140   1
   1  -2  -6 356.796 27.8200   3
   1  -2  -6 380.171 27.3681   4
  -1   2   6 378.058 26.9204   2
  -1   2   6 374.177 27.9044   3
   0  -2  -6 44.1909 5.53503   4
   0  -2  -6 60.2891 10.9356   1
   0  -2  -6 72.6987 14.4259   1
   0  -2  -6 53.1670 4.10460   2
   0   2   6 59.8598 4.18627   2
   0   2   6 51.3528 5.53438   3
   0   2   6 62.2356 6.50227   3
   0   2   6 49.3805 5.44992   4
  -1  -2  -6 437.540 29.7025   4
   1   2   6 405.844 29.1894   2
   1   2   6 406.122 29.5557   4
   1   2   6 425.875 30.1212   3
   1   2   6 370.654 30.1398   3
  -2  -2  -6 771.753 53.6166   3
   2   2   6 714.761 52.8757   2
   2   2   6 743.708 53.1059   4
  -3  -2  -6 232.844 17.3499   3
  -3  -2  -6 234.447 16.9194   4
   3   2   6 228.132 16.8478   4
   3   2   6 220.160 16.5516   2
  -4  -2  -6 1.14982 2.38378   3
   4   2   6 1.72964 0.99966   2
  -5  -2  -6 168.652 13.4230   3
   5   2   6 158.923 12.1971   2
  -6  -2  -6 230.813 17.9845   3
   6   2   6 220.511 16.7104   2
   6   2   6 224.564 21.7719   1
  -7  -2  -6 166.051 14.5287   3
   7   2   6 149.885 13.4943   2
  -8  -2  -6 10.9041 5.57868   3
   8   2   6 11.0590 2.85728   2
   6  -3  -6 2.38885 4.86487   4
  -6   3   6 14.0960 3.92808   3
   5  -3  -6 88.8876 9.98999   4
  -5   3   6 86.4013 7.88536   2
  -5   3   6 87.0265 8.44996   3
   4  -3  -6 156.913 12.7124   4
   4  -3  -6 138.329 25.6550   1
  -4   3   6 140.385 11.3507   2
  -4   3   6 136.149 11.7653   3
   3  -3  -6 148.323 21.6868   1
   3  -3  -6 140.714 11.2784   4
  -3   3   6 131.996 10.2714   2
  -3   3   6 115.054 10.7726   3
   2  -3  -6 28.7225 11.3709   1
   2  -3  -6 63.7677 14.5379   1
   2  -3  -6 50.9194 6.73664   3
   2  -3  -6 46.0410 6.47491   4
  -2   3   6 41.7523 5.82680   3
   1  -3  -6 141.641 20.5946   1
   1  -3  -6 93.1633 17.0343   1
   1  -3  -6 112.926 9.60178   4
  -1   3   6 97.7257 9.04077   3
  -1   3   6 117.187 8.46140   2
   0  -3  -6 795.075 57.7840   4
   0  -3  -6 691.661 60.8612   1
   0  -3  -6 841.533 62.3288   1
   0  -3  -6 862.267 57.3412   2
   0   3   6 872.419 57.3356   2
   0   3   6 759.314 57.8119   3
  -1  -3  -6 418.740 29.7091   4
  -1  -3  -6 430.696 35.3789   1
  -1  -3  -6 361.129 29.1879   2
   1   3   6 422.520 29.9589   3
   1   3   6 418.737 29.1693   2
  -2  -3  -6 226.431 17.4895   3
  -2  -3  -6 248.935 17.2964   4
   2   3   6 222.906 16.6490   2
   2   3   6 225.131 17.1590   4
   2   3   6 235.218 20.6343   1
  -3  -3  -6 695.353 50.2649   3
  -3  -3  -6 686.398 51.5437   1
   3   3   6 665.796 49.8453   4
   3   3   6 713.308 49.6693   2
   3   3   6 724.760 52.4972   1
  -4  -3  -6 128.895 10.2484   3
  -4  -3  -6 107.674 12.4325   1
   4   3   6 123.781 9.14007   2
  -5  -3  -6 91.4495 12.1115   1
  -5  -3  -6 108.312 9.66222   3
   5   3   6 111.004 8.18910   2
  -6  -3  -6 114.939 10.5206   3
   6   3   6 98.2721 17.0788   1
   6   3   6 107.839 8.56618   2
  -7  -3  -6 4.81558 4.25191   3
   7   3   6 0.74756 1.72839   2
  -8  -3  -6 56.9271 10.2017   3
   8   3   6 57.3606 5.83596   2
   6  -4  -6 24.2117 6.31257   4
  -6   4   6 19.7261 4.65999   2
   5  -4  -6 156.030 14.2559   4
  -5   4   6 139.292 12.0285   3
   4  -4  -6 25.0888 5.16493   4
   4  -4  -6 62.4732 28.2116   1
   4  -4  -6 18.2549 26.5669   1
  -4   4   6 19.6476 3.55004   2
  -4   4   6 22.2535 4.45004   3
   3  -4  -6 13.3425 20.1923   1
   3  -4  -6 -24.769 16.1142   1
   3  -4  -6 8.43729 3.92706   4
  -3   4   6 6.45516 2.55672   3
  -3   4   6 4.06638 2.46338   2
   2  -4  -6 545.076 46.2142   1
   2  -4  -6 598.665 38.6109   4
  -2   4   6 519.143 39.0701   3
  -2   4   6 450.783 37.9913   2
   1  -4  -6 406.300 34.4844   1
   1  -4  -6 317.332 32.1947   1
   1  -4  -6 339.705 24.9037   4
  -1   4   6 327.862 24.3802   3
  -1   4   6 343.109 24.2154   2
  -1   4   6 295.887 24.7795   3
   0  -4  -6 20.4384 3.82112   4
   0  -4  -6 36.4060 12.8891   1
   0   4   6 32.5663 5.77475   3
   0   4   6 27.3832 3.99487   3
   0   4   6 25.2924 2.85836   2
  -1  -4  -6 -4.5592 2.67935   4
  -1  -4  -6 -2.0352 10.4074   1
   1   4   6 -1.4631 2.04175   3
   1   4   6 -7.4139 7.45983   1
   1   4   6 0.45334 0.84902   2
  -2  -4  -6 143.242 11.9088   3
  -2  -4  -6 160.075 12.2076   4
  -2  -4  -6 153.754 19.3228   1
   2   4   6 152.005 10.9200   2
   2   4   6 133.910 15.9155   1
  -3  -4  -6 404.409 27.4058   4
  -3  -4  -6 336.705 27.3968   3
  -3  -4  -6 391.003 31.3314   1
   3   4   6 364.017 26.7799   2
   3   4   6 377.189 29.9318   1
  -4  -4  -6 223.753 17.6245   3
   4   4   6 234.686 16.6883   2
   4   4   6 228.810 20.9970   1
  -5  -4  -6 1.98619 6.13819   1
  -5  -4  -6 2.55021 2.79814   3
   5   4   6 -5.0193 9.75670   1
   5   4   6 1.43618 1.10995   2
  -6  -4  -6 14.8864 4.18253   3
   6   4   6 15.7434 2.66693   2
   6   4   6 17.9435 10.9575   1
  -7  -4  -6 248.460 20.2396   3
   7   4   6 244.732 18.3203   2
  -8  -4  -6 151.947 14.8237   3
   8   4   6 141.261 11.5356   2
  -9  -4  -6 9.28583 7.04370   3
   5  -5  -6 2.06363 6.00881   4
  -5   5   6 1.68466 3.70255   2
  -4   5   6 28.6075 7.08212   2
   3  -5  -6 19.9446 24.0334   1
   3  -5  -6 73.2399 9.54572   4
   3  -5  -6 128.324 29.3161   1
  -3   5   6 49.3551 7.41721   2
   2  -5  -6 150.396 24.9056   1
  -2   5   6 166.670 13.6068   2
  -2   5   6 178.315 13.5258   3
  -2   5   6 186.689 13.4364   3
   1  -5  -6 11.3399 3.96851   4
   1  -5  -6 23.4458 15.2293   1
   1  -5  -6 29.9484 17.3497   1
  -1   5   6 7.57500 2.35241   3
  -1   5   6 3.79183 2.88311   3
  -1   5   6 9.78691 2.33556   2
   0  -5  -6 41.5040 15.3381   1
   0  -5  -6 38.5771 7.21561   4
   0   5   6 53.0138 6.34512   3
   0   5   6 49.5366 4.42592   2
   0   5   6 44.0635 4.98345   3
  -1  -5  -6 409.505 36.4711   1
  -1  -5  -6 398.115 28.8160   4
   1   5   6 364.352 28.3268   3
   1   5   6 425.426 27.9565   2
   1   5   6 340.409 33.2610   1
  -2  -5  -6 230.046 17.4317   3
  -2  -5  -6 247.969 17.7702   4
  -2  -5  -6 235.373 26.1598   1
   2   5   6 212.010 22.3271   1
   2   5   6 235.362 16.5399   2
   2   5   6 205.425 17.6917   3
  -3  -5  -6 107.640 18.6291   1
  -3  -5  -6 106.163 9.65195   4
  -3  -5  -6 104.468 9.06566   3
   3   5   6 108.747 7.91102   2
   3   5   6 90.1940 14.3501   1
  -4  -5  -6 66.2139 7.66061   4
  -4  -5  -6 71.2121 7.43344   3
  -4  -5  -6 78.3153 13.2459   1
   4   5   6 79.2562 5.87362   2
   4   5   6 80.0551 13.0432   1
  -5  -5  -6 356.045 27.7909   3
  -5  -5  -6 347.500 32.4603   1
   5   5   6 394.372 26.8579   2
   5   5   6 382.267 31.1339   1
  -6  -5  -6 21.7092 11.0733   1
  -6  -5  -6 23.1961 4.68646   3
   6   5   6 17.9078 9.59667   1
   6   5   6 21.6798 3.01933   2
  -7  -5  -6 296.822 25.0059   3
  -8  -5  -6 8.57115 6.08946   3
   8   5   6 5.64813 2.14575   2
  -4   6   6 62.2791 8.21384   2
  -3   6   6 15.6613 3.68036   2
   2  -6  -6 1.45985 4.90405   4
  -2   6   6 -4.6475 2.51570   2
   1  -6  -6 138.626 23.2617   1
   1  -6  -6 176.519 31.1112   1
   1  -6  -6 129.489 12.3552   4
  -1   6   6 112.477 10.0082   2
   0  -6  -6 682.810 56.4609   1
   0  -6  -6 692.458 48.1097   4
   0   6   6 580.178 47.2283   3
   0   6   6 691.844 47.3127   2
  -1  -6  -6 93.0634 19.9130   1
  -1  -6  -6 89.5154 9.80063   4
   1   6   6 81.4132 15.6659   1
   1   6   6 94.2979 8.86260   3
   1   6   6 96.7571 7.18350   2
   1   6   6 82.4009 7.60119   3
  -2  -6  -6 34.0528 5.61456   3
  -2  -6  -6 34.6475 15.7075   1
  -2  -6  -6 35.4495 7.30732   4
   2   6   6 41.3342 11.5416   1
   2   6   6 38.2428 4.84961   3
   2   6   6 42.2526 3.60603   2
  -3  -6  -6 27.8355 5.16500   3
  -3  -6  -6 23.4787 14.4532   1
  -3  -6  -6 27.8642 4.81207   4
   3   6   6 30.5004 2.95424   2
   3   6   6 23.3813 9.79915   1
  -4  -6  -6 166.695 24.6616   1
  -4  -6  -6 162.332 13.7570   3
  -4  -6  -6 161.111 14.0408   4
   4   6   6 171.316 19.8141   1
   4   6   6 186.249 12.6265   2
  -5  -6  -6 147.129 12.9367   3
  -5  -6  -6 165.468 23.6604   1
  -5  -6  -6 142.922 12.5709   4
   5   6   6 141.207 19.5562   1
   5   6   6 160.922 11.3585   2
  -6  -6  -6 58.9968 15.9961   1
  -6  -6  -6 68.6643 9.01449   3
   6   6   6 72.8163 5.94574   2
   7   6   6 46.5316 4.65535   2
  -8  -6  -6 85.1553 12.6071   3
   8   6   6 79.2476 7.11986   2
   3  -7  -6 28.3438 7.13415   4
  -3   7   6 13.3787 4.76601   2
   2  -7  -6 36.9472 6.96409   4
  -2   7   6 24.9294 4.45160   2
  -1   7   6 41.9273 6.87590   2
   0  -7  -6 37.4672 20.9546   1
   0   7   6 30.7497 4.19824   2
  -1  -7  -6 3.79380 19.3125   1
  -1  -7  -6 20.1900 5.38426   4
   1   7   6 44.7052 17.5158   1
   1   7   6 23.4109 3.49305   2
  -2  -7  -6 131.131 13.0671   4
  -2  -7  -6 162.033 29.2688   1
   2   7   6 142.367 10.5101   2
   2   7   6 125.621 24.1689   1
  -3  -7  -6 151.901 13.4324   4
  -3  -7  -6 134.898 12.0491   3
  -3  -7  -6 126.770 24.2162   1
   3   7   6 158.142 10.9575   2
   3   7   6 125.582 22.7163   1
  -4  -7  -6 44.5410 8.08741   4
  -4  -7  -6 42.6544 6.45018   3
  -4  -7  -6 39.5693 18.6700   1
   4   7   6 48.0457 4.18976   2
   4   7   6 20.2626 12.6721   1
  -5  -7  -6 32.2096 17.7452   1
   5   7   6 14.4022 12.9987   1
  -6  -7  -6 117.864 11.9110   3
  -7  -7  -6 24.9589 5.98237   3
   7   7   6 25.9261 3.84342   2
  -8  -7  -6 69.7677 12.9193   3
   8   7   6 59.6353 6.09914   2
   2  -8  -6 30.8914 7.64653   4
  -2   8   6 20.6039 4.16693   2
   1  -8  -6 0.62847 6.95573   4
  -1   8   6 -2.6204 2.88138   2
   0  -8  -6 34.8602 7.21024   4
   0   8   6 26.9569 4.67941   2
  -1  -8  -6 131.746 13.6016   4
   1   8   6 124.448 10.1002   2
  -2  -8  -6 20.9962 22.9545   1
  -2  -8  -6 21.2387 6.77917   4
   2   8   6 25.4301 19.8050   1
  -3  -8  -6 10.6738 22.0279   1
  -3  -8  -6 4.30766 5.22605   4
  -3  -8  -6 2.02451 3.66738   3
   3   8   6 1.95815 2.31571   2
   3   8   6 19.5904 19.3132   1
  -4  -8  -6 11.8688 22.8180   1
   4   8   6 14.5583 17.7218   1
  -5  -8  -6 90.1931 11.3072   4
  -5  -8  -6 94.8129 9.97540   3
   5   8   6 109.365 8.04891   2
  -6  -8  -6 77.6553 9.91864   4
  -6  -8  -6 85.4559 10.5282   3
   6   8   6 93.7940 7.35527   2
  -7  -8  -6 40.4664 7.19247   3
   7   8   6 37.2869 4.61064   2
   0  -9  -6 34.1296 7.91527   4
   0   9   6 20.6879 3.60026   2
  -1  -9  -6 6.15960 7.53344   4
   1   9   6 7.32806 2.98094   2
  -2  -9  -6 -0.3166 6.52351   4
   2   9   6 -1.6859 2.33636   2
  -3  -9  -6 37.8817 33.3308   1
  -3  -9  -6 19.8779 6.90849   4
   3   9   6 30.2683 4.29820   2
   3   9   6 20.5097 25.2429   1
  -4  -9  -6 98.1331 13.2350   4
   4   9   6 127.140 9.44049   2
  -5  -9  -6 14.7771 4.89269   3
  -5  -9  -6 16.2427 6.82480   4
   5   9   6 16.7424 2.77690   2
  -6  -9  -6 2.17516 5.31824   3
  -6  -9  -6 0.85016 7.27834   4
   6   9   6 3.86559 2.47635   2
  -5  -6   7 3.81414 5.71178   4
  -5  -6   7 5.75951 6.23385   3
  -4  -6   7 76.4495 11.3858   4
  -4  -6   7 81.0594 13.0751   3
  -3  -6   7 146.434 15.6701   4
  -3  -6   7 175.040 15.1792   3
  -2  -6   7 29.4174 6.62459   4
  -1  -6   7 9.75422 4.66139   3
  -1  -6   7 0.12262 5.56536   4
   0  -6   7 127.385 14.2998   4
  -1   6  -7 65.1963 6.14858   2
   1  -6   7 78.8127 11.7398   4
  -6  -5   7 19.2751 7.13437   3
  -6  -5   7 18.0391 6.38485   4
  -5  -5   7 185.483 17.2192   3
  -4  -5   7 67.6663 9.91383   3
  -3  -5   7 20.7830 5.31831   3
  -2  -5   7 56.5530 8.36279   3
  -1  -5   7 193.282 16.1467   3
   0   5  -7 109.892 9.56267   2
   0  -5   7 138.310 12.1211   3
   0  -5   7 147.810 12.7573   4
  -1   5  -7 37.0364 3.66560   2
   1  -5   7 32.6142 5.98791   3
   1  -5   7 28.5389 5.43895   4
  -2   5  -7 16.2158 2.60997   2
   2  -5   7 16.7985 5.29284   4
  -3   5  -7 136.051 11.6503   2
   3  -5   7 160.352 14.5686   4
  -7  -4   7 83.4730 14.3074   3
  -6  -4   7 76.4940 11.7252   3
   5   4  -7 60.2870 8.21012   4
   5   4  -7 40.8688 20.6659   1
   4   4  -7 3.80746 3.49962   4
   4   4  -7 -0.9795 10.1654   1
  -4  -4   7 8.47930 4.85616   3
  -4  -4   7 5.63175 12.2638   1
   3   4  -7 122.799 17.7008   1
  -3  -4   7 172.605 21.2190   1
  -3  -4   7 153.571 13.4856   3
  -2  -4   7 362.639 27.6055   3
  -1  -4   7 65.3696 8.38689   3
   0   4  -7 13.5496 1.93654   2
   0  -4   7 17.8717 4.73171   3
   0  -4   7 9.78552 4.58439   4
  -1   4  -7 28.1143 3.18283   2
   1  -4   7 38.9705 7.41803   3
   1  -4   7 34.4311 7.23393   4
  -2   4  -7 154.305 12.5677   2
   2  -4   7 158.389 14.7272   3
   2  -4   7 189.668 14.3746   4
  -3   4  -7 85.6691 7.49560   2
   3  -4   7 92.7993 10.9045   3
  -4   4  -7 3.96245 2.55720   2
   4  -4   7 7.33113 4.52831   4
   7   3  -7 52.6441 8.08255   4
  -7  -3   7 61.4004 12.4634   3
  -7  -3   7 59.3263 21.1870   1
   6   3  -7 12.7397 3.96926   4
   6   3  -7 31.8378 15.4511   1
  -6  -3   7 8.28070 5.56618   3
   5   3  -7 87.7767 9.00683   4
   5   3  -7 64.2970 16.3106   1
  -5  -3   7 83.4098 10.2942   3
   4   3  -7 199.471 26.1399   1
   4   3  -7 172.346 14.0503   4
  -4  -3   7 161.762 15.2046   3
   3   3  -7 200.660 23.9985   1
   3   3  -7 192.805 15.1939   4
  -3  -3   7 183.953 16.0105   3
  -3  -3   7 189.897 22.5095   1
   2   3  -7 76.6390 8.42178   4
  -2  -3   7 108.684 9.82924   3
   1   3  -7 124.226 10.5018   4
   0   3  -7 272.041 19.9034   4
   0  -3   7 267.762 18.9172   2
   0  -3   7 238.915 18.8518   2
   0  -3   7 275.806 20.7280   3
   1  -3   7 185.397 15.5832   3
  -2   3  -7 40.4394 3.97809   2
   2  -3   7 48.0129 6.99347   4
   2  -3   7 36.8638 7.67491   3
  -3   3  -7 4.40537 1.67939   2
   3  -3   7 2.86080 3.26785   4
   3  -3   7 3.11636 4.27667   3
   4  -3   7 119.042 13.1033   3
   4  -3   7 132.520 10.1353   2
   4  -3   7 130.427 11.5552   4
   5  -3   7 117.555 9.24305   2
   5  -3   7 100.414 10.6531   4
  -7  -2   7 10.3514 6.87721   3
   6   2  -7 166.834 13.5924   4
   6   2  -7 143.286 27.1175   1
  -6  -2   7 161.333 27.3813   1
  -6  -2   7 163.575 17.2992   3
   5   2  -7 335.339 32.6972   1
   5   2  -7 340.282 25.1530   4
  -5  -2   7 347.261 26.6145   3
  -5  -2   7 306.115 32.8406   1
   4   2  -7 37.0312 6.07290   4
   4   2  -7 43.8244 12.3170   1
  -4  -2   7 42.9195 7.76830   3
  -4  -2   7 44.0319 11.7908   1
   3   2  -7 16.9833 11.0011   1
   3   2  -7 6.21798 2.77541   4
  -3  -2   7 9.55464 9.08510   1
  -3  -2   7 8.23676 4.32482   3
   2   2  -7 189.174 15.1951   4
   2   2  -7 208.379 20.5433   1
  -2  -2   7 193.611 16.2145   3
  -2  -2   7 206.935 20.4597   1
   1   2  -7 395.210 28.9725   4
  -1  -2   7 395.429 29.7761   3
   0   2  -7 273.344 20.1928   4
   0  -2   7 240.370 19.3006   2
   0  -2   7 282.476 19.3710   2
   0  -2   7 288.322 21.2014   3
  -1   2  -7 104.191 8.96950   4
   1  -2   7 118.078 10.5319   3
   1  -2   7 103.129 8.05816   2
   1  -2   7 102.726 7.86818   2
   2  -2   7 3.81272 1.15438   2
   3  -2   7 272.175 19.2572   4
   3  -2   7 261.039 18.4812   2
   3  -2   7 218.563 20.2114   3
   4  -2   7 236.125 16.7064   4
   4  -2   7 221.773 16.1114   2
   4  -2   7 185.206 17.8639   3
  -5   2  -7 17.0908 4.56656   3
   5  -2   7 20.2097 3.67805   4
   5  -2   7 15.4756 3.13651   2
   6  -2   7 27.9123 4.62482   2
  -7  -1   7 61.6761 11.3870   3
   6   1  -7 120.758 10.4496   4
   6   1  -7 75.1832 22.7292   1
   6   1  -7 109.882 8.27393   2
  -6  -1   7 107.628 20.1449   1
   5   1  -7 28.4005 6.10859   4
   5   1  -7 30.3770 2.76226   2
   5   1  -7 21.0923 14.1203   1
  -5  -1   7 33.7144 6.63566   3
  -5  -1   7 46.7393 13.8160   1
   4   1  -7 158.621 13.8926   4
   4   1  -7 158.649 21.7191   1
  -4  -1   7 185.876 15.4689   3
  -4  -1   7 206.302 22.4626   1
   3   1  -7 229.008 23.4857   1
   3   1  -7 246.200 18.6902   4
  -3  -1   7 245.017 19.8561   3
  -3  -1   7 272.700 24.7571   1
   2   1  -7 247.206 18.1339   4
   2   1  -7 246.721 21.6423   1
  -2  -1   7 244.336 22.5077   1
  -2  -1   7 225.157 19.0382   3
   1   1  -7 128.973 10.7279   4
  -1  -1   7 142.641 12.3196   3
   0   1  -7 22.5266 4.05427   4
   0  -1   7 26.9621 2.25939   2
   0  -1   7 23.0288 2.03228   2
   0  -1   7 29.0364 5.87254   3
  -1   1  -7 846.188 57.8095   4
   1  -1   7 762.453 57.2862   2
   1  -1   7 810.500 57.3921   2
   1  -1   7 803.594 58.6269   3
  -2   1  -7 39.2076 4.53510   4
   2  -1   7 39.8147 6.87352   3
   2  -1   7 35.9274 3.23122   2
   3  -1   7 148.376 11.0671   2
  -4   1  -7 9.47817 3.72962   3
   4  -1   7 2.62376 2.56646   4
   4  -1   7 6.00820 1.56637   2
  -5   1  -7 98.8970 9.57541   3
   5  -1   7 79.0465 7.15513   2
  -6   1  -7 183.281 15.5194   3
   6  -1   7 169.193 13.5687   2
   7   0  -7 12.6311 1.97039   2
  -7   0   7 20.9223 6.60597   3
   6   0  -7 2.52733 3.44514   4
   6   0  -7 -26.296 17.5307   1
  -6   0   7 -7.0019 17.6032   1
  -6   0   7 -0.5393 5.16118   3
   5   0  -7 29.8944 6.25403   4
   5   0  -7 41.9488 14.5298   1
  -5   0   7 35.5748 6.50986   3
  -5   0   7 34.3854 3.46616   2
  -5   0   7 33.4419 15.4306   1
   4   0  -7 1065.66 84.2462   1
   4   0  -7 1162.56 80.7749   4
  -4   0   7 1107.45 81.6815   3
  -4   0   7 1175.28 85.6586   1
   3   0  -7 5.47244 0.94979   2
   3   0  -7 3.71617 2.67183   4
   3   0  -7 11.5983 7.74236   1
  -3   0   7 1.32661 4.07943   3
  -3   0   7 -2.5497 9.71043   1
   2   0  -7 -4.0249 6.00342   1
  -2   0   7 6.34019 3.87519   3
  -2   0   7 6.36878 8.28882   1
   1   0  -7 124.481 12.7475   1
   1   0  -7 122.517 10.1941   4
  -1   0   7 128.252 15.6809   1
  -1   0   7 134.390 11.6704   3
   0   0  -7 338.013 23.8805   4
   0   0   7 328.894 24.7545   3
   0   0   7 331.554 23.1786   2
   0   0   7 303.833 23.2804   2
  -1   0  -7 348.841 23.9205   4
   1   0   7 309.192 23.4573   2
   1   0   7 329.865 24.8984   3
   1   0   7 318.148 23.3235   2
  -2   0  -7 17.8322 2.55614   4
   2   0   7 16.4782 1.86972   2
   2   0   7 14.3112 3.98107   3
   2   0   7 18.6237 2.40520   2
  -3   0  -7 62.9485 5.73752   4
  -3   0  -7 60.2267 7.64451   3
   3   0   7 63.0279 5.02966   2
  -4   0  -7 148.499 12.1736   3
   4   0   7 132.127 10.4864   2
  -5   0  -7 422.093 30.5001   3
   5   0   7 389.357 29.3856   2
  -6   0  -7 32.4676 5.56126   3
  -7   0  -7 18.1517 5.50060   3
   7   0   7 4.43602 2.42994   2
   7  -1  -7 64.3875 9.43083   4
  -7   1   7 57.6760 9.76260   3
  -7   1   7 68.9983 6.83344   2
   6  -1  -7 95.5621 9.40562   4
  -6   1   7 79.7482 7.09643   2
  -6   1   7 70.3737 9.58090   3
   5  -1  -7 50.4094 18.1814   1
   5  -1  -7 72.8530 8.17395   4
  -5   1   7 46.3285 19.7436   1
  -5   1   7 71.4446 5.85050   2
  -5   1   7 63.4845 8.60049   3
   4  -1  -7 55.3301 6.93569   4
  -4   1   7 54.3256 4.56718   2
  -4   1   7 43.6786 7.80405   3
   3  -1  -7 56.9335 6.76361   4
   3  -1  -7 59.8929 12.2146   1
  -3   1   7 60.9443 4.98333   2
  -3   1   7 57.9622 8.29706   3
   2  -1  -7 355.264 28.8542   1
   2  -1  -7 359.199 25.3381   4
  -2   1   7 312.531 24.6340   2
  -2   1   7 329.921 26.1417   3
  -2   1   7 378.047 31.3626   1
   1  -1  -7 213.854 19.5849   1
   1  -1  -7 224.909 16.5556   4
   1  -1  -7 222.133 15.6880   2
  -1   1   7 221.438 15.8123   2
  -1   1   7 209.261 17.4667   3
   0  -1  -7 197.090 14.9969   4
   0  -1  -7 173.879 14.1826   2
   0   1   7 212.361 14.1934   2
   0   1   7 210.613 16.0885   3
  -1  -1  -7 2.44656 2.05276   4
  -1  -1  -7 3.91495 0.75406   2
   1   1   7 3.44405 2.88768   3
   1   1   7 4.48944 0.83993   2
  -2  -1  -7 350.128 25.1462   4
  -2  -1  -7 353.092 26.0425   3
   2   1   7 332.736 24.7159   2
  -3  -1  -7 265.921 19.4986   4
  -3  -1  -7 273.724 20.3711   3
   3   1   7 257.167 19.1800   2
  -4  -1  -7 175.981 13.7056   3
   4   1   7 155.722 12.2155   2
  -5  -1  -7 46.8192 7.05771   3
   5   1   7 43.4964 4.21050   2
  -6  -1  -7 93.8693 9.50999   3
   6   1   7 75.0515 6.88498   2
  -7  -1  -7 222.868 18.0086   3
   7   1   7 195.166 15.7791   2
  -8  -1  -7 137.168 15.2525   3
   8   1   7 109.081 10.0849   2
  -7   2   7 86.4007 7.93979   2
  -7   2   7 59.4424 10.2084   3
   6  -2  -7 48.8922 8.17252   4
  -6   2   7 32.9582 6.07057   3
  -6   2   7 47.8486 5.33734   2
   5  -2  -7 20.1771 17.7406   1
   5  -2  -7 9.91863 4.03028   4
  -5   2   7 2.60147 4.04017   3
  -5   2   7 18.2724 19.4673   1
  -5   2   7 13.0840 2.33007   2
   4  -2  -7 82.6559 8.85284   4
   4  -2  -7 64.9664 15.0146   1
  -4   2   7 81.6665 6.64305   2
  -4   2   7 106.688 18.3933   1
  -4   2   7 68.1225 8.55242   3
   3  -2  -7 397.554 27.4513   4
   3  -2  -7 366.600 32.9507   1
  -3   2   7 360.000 27.8830   3
  -3   2   7 352.189 26.7067   2
   2  -2  -7 119.445 16.7740   1
   2  -2  -7 138.787 10.3389   4
  -2   2   7 122.129 11.0780   3
  -2   2   7 99.0351 8.97108   2
   1  -2  -7 82.5383 5.63177   2
   1  -2  -7 66.9856 7.26935   4
   1  -2  -7 69.8422 13.3404   1
  -1   2   7 62.4265 8.42814   3
  -1   2   7 78.5803 5.98320   2
   0  -2  -7 3.35100 0.79240   2
   0  -2  -7 13.0627 11.1008   1
   0  -2  -7 2.29651 2.37203   4
   0  -2  -7 9.88224 7.32635   1
   0   2   7 4.95617 0.97538   2
   0   2   7 7.10128 3.36677   3
  -1  -2  -7 359.155 29.5193   1
  -1  -2  -7 359.991 25.8724   4
   1   2   7 357.372 25.3008   2
   1   2   7 335.993 26.4931   3
  -2  -2  -7 412.578 29.3654   4
  -2  -2  -7 388.602 29.3375   2
  -2  -2  -7 413.910 30.0377   3
   2   2   7 402.245 28.9162   2
  -3  -2  -7 82.7751 7.08663   4
  -3  -2  -7 91.7568 8.14664   3
   3   2   7 80.8133 7.18622   4
   3   2   7 79.2629 6.32461   2
  -4  -2  -7 15.9085 3.69291   3
   4   2   7 14.3918 2.17547   2
  -5  -2  -7 314.606 23.4223   3
   5   2   7 300.110 22.3488   2
  -6  -2  -7 283.144 21.4122   3
   6   2   7 259.415 19.9301   2
  -7  -2  -7 29.1209 5.63024   3
   7   2   7 25.8311 3.84354   2
  -8  -2  -7 5.77673 6.03877   3
   8   2   7 5.51814 2.55707   2
   6  -3  -7 102.134 11.5783   4
  -6   3   7 99.4105 9.73390   3
  -6   3   7 76.3313 11.6246   2
   5  -3  -7 49.5013 8.74564   4
  -5   3   7 39.2000 6.23194   3
  -5   3   7 45.7035 5.43463   2
   4  -3  -7 71.2214 19.7114   1
   4  -3  -7 109.401 10.4017   4
  -4   3   7 100.352 9.27706   3
  -4   3   7 92.6413 8.33685   2
   3  -3  -7 36.1318 6.66777   4
   3  -3  -7 22.2169 13.9175   1
  -3   3   7 34.4918 4.88621   3
  -3   3   7 25.0221 3.99423   2
   2  -3  -7 19.8882 11.7789   1
   2  -3  -7 17.1303 3.69468   4
   2  -3  -7 32.7098 15.0194   1
  -2   3   7 19.4914 4.17425   3
   1  -3  -7 160.141 14.0492   4
   1  -3  -7 209.721 24.3406   1
   1  -3  -7 157.255 21.0470   1
  -1   3   7 185.056 13.2557   2
  -1   3   7 191.216 14.7233   3
   0  -3  -7 435.266 38.8299   1
   0  -3  -7 436.432 34.5520   4
   0  -3  -7 485.164 40.8944   1
   0   3   7 507.007 35.0721   3
   0   3   7 506.319 33.9845   2
  -1  -3  -7 156.804 12.2000   4
  -1  -3  -7 160.987 21.8743   1
   1   3   7 159.676 11.1217   2
   1   3   7 136.966 12.6361   3
  -2  -3  -7 4.67271 3.00370   3
  -2  -3  -7 2.59284 2.53717   4
  -2  -3  -7 -15.934 8.68200   1
   2   3   7 -3.2449 8.93741   1
  -3  -3  -7 46.1697 7.72415   1
  -3  -3  -7 34.0497 5.08829   4
  -3  -3  -7 40.2120 5.59728   3
   3   3   7 41.8182 3.48324   2
   3   3   7 48.0011 10.0947   1
  -4  -3  -7 471.028 34.9781   3
   4   3   7 480.718 34.1623   2
  -5  -3  -7 226.359 17.9559   3
   5   3   7 230.348 16.7941   2
  -6  -3  -7 31.4983 5.30866   3
   6   3   7 21.0411 10.5709   1
   6   3   7 30.1435 3.56831   2
  -7  -3  -7 71.4756 9.86685   3
   7   3   7 69.5179 6.24418   2
  -8  -3  -7 240.109 21.0264   3
   8   3   7 233.907 17.9692   2
   5  -4  -7 51.0625 9.60898   4
  -5   4   7 52.5573 6.40318   3
   4  -4  -7 -2.8140 30.4953   1
   4  -4  -7 -2.5134 4.54049   4
  -4   4   7 -5.1668 2.56311   2
   3  -4  -7 47.2327 20.3027   1
   3  -4  -7 70.5662 8.85748   4
  -3   4   7 58.1790 6.45721   3
   2  -4  -7 160.090 13.0269   4
   2  -4  -7 163.804 32.6800   1
   2  -4  -7 111.200 20.9530   1
  -2   4   7 144.366 12.0528   3
   1  -4  -7 176.955 14.5247   4
   1  -4  -7 185.653 27.1681   1
   1  -4  -7 156.289 24.8466   1
  -1   4   7 194.369 13.2967   2
  -1   4   7 188.265 14.3524   3
  -1   4   7 148.791 14.1116   3
   0  -4  -7 21.5582 12.5473   1
   0  -4  -7 18.6235 3.84934   4
   0  -4  -7 21.1608 13.9046   1
   0   4   7 22.6394 2.74617   2
   0   4   7 16.7758 3.64988   3
   0   4   7 25.3903 4.02545   3
  -1  -4  -7 16.9629 3.66446   4
  -1  -4  -7 16.5159 12.2298   1
   1   4   7 18.0715 2.08818   2
   1   4   7 13.2931 3.58811   3
  -2  -4  -7 356.922 32.3651   1
  -2  -4  -7 319.599 25.4511   3
  -2  -4  -7 357.715 25.2615   4
   2   4   7 319.038 29.1645   1
   2   4   7 352.066 24.4886   2
  -3  -4  -7 443.463 31.5323   4
  -3  -4  -7 432.016 31.8515   3
  -3  -4  -7 435.834 37.5259   1
   3   4   7 436.057 30.9565   2
   3   4   7 408.142 34.8491   1
  -4  -4  -7 96.7472 9.29433   3
  -4  -4  -7 100.746 8.80569   4
   4   4   7 111.927 17.7935   1
   4   4   7 105.154 7.81327   2
  -5  -4  -7 37.5688 6.32167   3
  -5  -4  -7 36.6358 7.92263   1
   5   4   7 37.9716 3.64150   2
   5   4   7 34.8285 11.2835   1
  -6  -4  -7 147.473 13.0286   3
   6   4   7 138.277 11.0157   2
   6   4   7 161.245 21.1058   1
  -7  -4  -7 221.301 18.8187   3
   7   4   7 211.326 16.1573   2
  -8  -4  -7 45.8344 8.15211   3
   8   4   7 47.7749 5.48482   2
   5  -5  -7 16.3741 6.48463   4
  -5   5   7 9.16804 4.67736   2
   4  -5  -7 48.8064 9.95170   4
  -4   5   7 37.3929 7.72679   3
  -4   5   7 29.0177 4.80008   2
   3  -5  -7 158.411 13.9957   4
  -3   5   7 143.927 11.7683   3
   2  -5  -7 -0.4854 20.0405   1
   2  -5  -7 14.6764 4.64107   4
   2  -5  -7 9.87586 22.0091   1
  -2   5   7 9.34608 2.76225   3
  -2   5   7 2.17818 2.56136   2
   1  -5  -7 -0.4961 3.94853   4
   1  -5  -7 3.64343 16.8955   1
  -1   5   7 -3.7802 2.40864   3
   0  -5  -7 150.205 13.9140   4
   0  -5  -7 165.001 29.1648   1
   0   5   7 150.066 12.7212   3
   0   5   7 180.137 12.2643   2
   0   5   7 169.219 13.1465   3
  -1  -5  -7 211.544 28.1282   1
  -1  -5  -7 201.347 16.7226   4
   1   5   7 220.583 15.2466   2
   1   5   7 201.680 16.3076   3
  -2  -5  -7 165.451 14.6330   3
  -2  -5  -7 184.408 14.9661   4
  -2  -5  -7 206.936 25.5808   1
   2   5   7 191.783 13.3929   2
   2   5   7 181.878 20.7375   1
  -3  -5  -7 38.9059 5.65791   3
  -3  -5  -7 21.8014 12.4293   1
  -3  -5  -7 29.8104 6.49425   4
   3   5   7 33.5702 3.18071   2
   3   5   7 37.2332 9.76963   1
  -4  -5  -7 126.709 20.9597   1
  -4  -5  -7 142.842 12.3002   3
  -4  -5  -7 142.011 12.0318   4
   4   5   7 141.479 17.5676   1
   4   5   7 157.961 10.9099   2
  -5  -5  -7 217.340 25.6043   1
  -5  -5  -7 208.945 17.6182   3
   5   5   7 227.754 23.0552   1
   5   5   7 232.434 16.3299   2
  -6  -5  -7 236.526 19.2481   3
   6   5   7 240.465 17.6049   2
  -7  -5  -7 -1.5166 4.34291   3
   7   5   7 2.10127 1.67654   2
  -8  -5  -7 29.0615 7.21088   3
   8   5   7 25.2760 4.30743   2
   4  -6  -7 31.4923 7.08287   4
  -4   6   7 15.2839 4.85266   2
   3  -6  -7 0.80870 5.61660   4
  -3   6   7 -3.2479 3.35218   2
   2  -6  -7 3.98891 5.26888   4
   2  -6  -7 15.4038 33.8343   1
   1  -6  -7 133.898 26.5469   1
   1  -6  -7 137.931 26.9897   1
   1  -6  -7 150.532 13.0211   4
  -1   6   7 141.272 10.6763   2
  -1   6   7 111.980 10.6298   3
   0  -6  -7 178.670 15.8439   4
   0  -6  -7 213.932 32.9468   1
   0   6   7 178.993 14.2635   3
   0   6   7 197.314 14.0717   2
  -1  -6  -7 31.8156 19.1215   1
  -1  -6  -7 46.2100 8.19357   4
   1   6   7 43.5984 5.65490   3
   1   6   7 51.5232 6.19100   3
   1   6   7 55.6702 4.60299   2
  -2  -6  -7 23.8400 4.57568   3
  -2  -6  -7 24.6534 16.2376   1
  -2  -6  -7 32.3159 5.04081   4
   2   6   7 33.2907 3.22413   2
   2   6   7 35.5554 12.1146   1
  -3  -6  -7 195.907 16.0038   4
  -3  -6  -7 186.938 15.5980   3
   3   6   7 181.807 22.5388   1
   3   6   7 206.987 14.3457   2
  -4  -6  -7 210.908 28.3412   1
  -4  -6  -7 224.728 17.9739   3
  -4  -6  -7 237.366 18.0961   4
   4   6   7 240.455 16.7389   2
   4   6   7 205.608 23.9674   1
  -5  -6  -7 117.068 11.1691   3
  -5  -6  -7 167.809 23.6459   1
  -5  -6  -7 105.393 10.5499   4
   5   6   7 103.758 19.2979   1
   5   6   7 127.304 9.20109   2
  -6  -6  -7 91.4444 10.4464   3
   6   6   7 102.224 7.91433   2
  -7  -6  -7 10.8685 5.39590   3
   7   6   7 13.9693 2.53160   2
  -8  -6  -7 131.150 15.5272   3
   8   6   7 123.502 10.2559   2
   3  -7  -7 35.4729 8.28152   4
  -3   7   7 26.8441 4.94566   2
   2  -7  -7 68.8652 11.2581   4
  -2   7   7 47.8692 6.59682   2
   1  -7  -7 38.2689 6.62973   4
  -1   7   7 29.5662 4.90926   2
   0  -7  -7 5.69704 5.39432   4
   0  -7  -7 -0.2129 22.3969   1
   0   7   7 -2.3969 2.07884   2
  -1  -7  -7 73.0870 10.2467   4
  -1  -7  -7 32.3060 22.2456   1
   1   7   7 75.2643 6.30879   2
  -2  -7  -7 120.861 26.9007   1
  -2  -7  -7 131.787 13.1392   4
   2   7   7 139.987 25.2061   1
   2   7   7 135.871 11.3850   3
   2   7   7 137.631 10.3052   2
  -3  -7  -7 90.2499 10.4404   4
  -3  -7  -7 82.6376 9.13518   3
  -3  -7  -7 76.9055 22.1931   1
   3   7   7 95.1493 7.08858   2
   3   7   7 75.8705 16.7656   1
  -4  -7  -7 23.6424 5.14755   4
  -4  -7  -7 23.2284 4.62518   3
  -4  -7  -7 29.2264 19.1869   1
   4   7   7 30.8865 3.25388   2
   4   7   7 13.8979 13.6007   1
  -5  -7  -7 27.1741 26.8921   1
  -5  -7  -7 29.1896 5.09916   4
  -5  -7  -7 29.0607 5.20890   3
   5   7   7 32.1213 3.64837   2
  -6  -7  -7 320.393 26.9930   3
   6   7   7 380.892 25.6684   2
  -7  -7  -7 13.2656 5.83887   3
   7   7   7 9.55523 2.31811   2
  -8  -7  -7 13.9840 7.92172   3
   1  -8  -7 8.16020 7.05268   4
  -1   8   7 1.16528 3.12071   2
   0  -8  -7 12.5323 6.59559   4
   0   8   7 8.39345 2.81553   2
  -1  -8  -7 408.513 31.6974   4
   1   8   7 412.139 29.8646   2
  -2  -8  -7 -0.1866 8.29239   4
  -2  -8  -7 18.5978 24.5087   1
   2   8   7 4.00651 20.6617   1
   2   8   7 6.43926 2.96421   3
  -3  -8  -7 2.27019 5.72592   4
  -3  -8  -7 24.8507 24.7116   1
   3   8   7 10.6310 2.17594   2
   3   8   7 7.04696 20.3742   1
  -4  -8  -7 78.2965 10.4582   4
  -4  -8  -7 68.6547 8.97196   3
   4   8   7 79.4614 6.47321   2
  -5  -8  -7 80.1017 9.77225   3
  -5  -8  -7 76.9916 10.2627   4
   5   8   7 95.3533 7.26747   2
  -6  -8  -7 37.4307 6.31328   4
  -6  -8  -7 48.7605 8.92264   3
   6   8   7 51.4656 4.97170   2
  -7  -8  -7 -1.1791 5.73068   3
   7   8   7 2.62400 2.52704   2
  -1  -9  -7 9.61827 7.58810   4
   1   9   7 4.75846 2.76557   2
  -2  -9  -7 33.5887 7.90753   4
   2   9   7 29.9072 4.93079   2
  -3  -9  -7 87.4745 12.9750   4
   3   9   7 90.6703 7.80780   2
  -4  -9  -7 19.4350 6.87353   4
   4   9   7 32.7447 4.32202   2
  -5  -9  -7 10.9658 6.15022   4
  -5  -9  -7 8.91269 5.12803   3
   5   9   7 16.8018 2.94074   2
   6   9   7 19.5557 3.08496   2
  -4  -6   8 56.9602 11.4902   4
  -3  -6   8 47.7030 8.23939   4
  -2  -6   8 5.07317 5.96033   3
  -2  -6   8 0.19085 6.08822   4
  -1  -6   8 34.5148 7.05903   4
  -6  -5   8 128.076 15.3819   3
  -5  -5   8 6.43627 5.79419   4
  -5  -5   8 17.4534 7.12408   3
  -4  -5   8 65.6972 10.5290   3
  -4  -5   8 46.0501 7.81962   4
  -3  -5   8 18.7238 6.16858   4
  -3  -5   8 17.1444 5.83016   3
  -2  -5   8 55.1613 8.86586   3
  -2  -5   8 34.4183 7.11117   4
  -1  -5   8 159.866 15.4721   4
  -1  -5   8 165.656 14.9273   3
   0  -5   8 53.3961 9.17448   3
   0  -5   8 60.7298 10.1807   4
   1  -5   8 -1.1522 4.84638   4
   1  -5   8 -0.6679 5.12871   3
   2  -5   8 52.2754 10.9016   4
  -6  -4   8 85.8627 14.0582   3
  -5  -4   8 15.6301 6.69677   3
   4   4  -8 38.3106 7.56080   4
  -4  -4   8 34.1001 8.63672   3
   3   4  -8 144.052 12.6913   4
  -3  -4   8 139.657 13.7168   3
  -2  -4   8 129.511 12.7163   3
  -1  -4   8 41.0843 8.10048   3
   0  -4   8 28.5273 5.53131   3
   0  -4   8 23.2415 2.36322   2
   0  -4   8 21.2978 5.55880   4
   1  -4   8 83.5257 10.3554   3
   1  -4   8 79.8394 6.36652   2
   2  -4   8 162.902 16.3412   3
   2  -4   8 208.662 15.8726   4
   2  -4   8 177.184 13.6375   2
   3  -4   8 7.18628 1.99917   2
   3  -4   8 -4.0625 5.19162   3
   3  -4   8 7.81440 4.60500   4
   7   3  -8 15.6202 5.03804   4
  -7  -3   8 16.1773 7.59823   3
   6   3  -8 21.0328 4.56258   4
  -6  -3   8 19.4912 6.92293   3
   5   3  -8 130.609 12.1986   4
  -5  -3   8 127.521 13.6923   3
   4   3  -8 70.0741 13.5161   1
   4   3  -8 87.1815 9.32209   4
  -4  -3   8 72.2583 16.0316   1
  -4  -3   8 91.5825 10.8885   3
   3   3  -8 106.959 16.3381   1
   3   3  -8 105.080 9.81867   4
  -3  -3   8 90.9311 11.1977   3
  -3  -3   8 95.8008 19.6209   1
   2   3  -8 49.7494 6.81060   4
   1   3  -8 6.32340 3.03147   4
  -1  -3   8 16.6869 4.62688   3
   0   3  -8 225.810 16.9866   4
   0  -3   8 201.401 15.6539   2
   0  -3   8 230.566 18.1965   3
   1  -3   8 225.992 17.3818   2
   1  -3   8 259.015 19.6871   3
   2  -3   8 10.7086 4.98452   3
   2  -3   8 20.5870 4.50655   4
   2  -3   8 17.6898 2.45898   2
   3  -3   8 73.2738 8.30977   4
   3  -3   8 63.1162 10.0532   3
   3  -3   8 66.7672 5.82542   2
   4  -3   8 194.964 18.9318   3
   4  -3   8 236.018 17.5361   4
   7   2  -8 135.321 12.2433   4
  -7  -2   8 109.478 16.7341   3
   6   2  -8 29.0619 5.02405   4
   6   2  -8 43.3682 17.1608   1
  -6  -2   8 41.7150 9.04904   3
  -6  -2   8 27.0406 18.1686   1
   5   2  -8 40.8187 6.99911   4
   5   2  -8 29.6166 14.5438   1
  -5  -2   8 30.8435 7.66936   3
   4   2  -8 27.9439 4.32640   4
   4   2  -8 35.1748 14.3000   1
  -4  -2   8 28.1030 6.56763   3
   3   2  -8 16.5707 3.58387   4
   3   2  -8 18.7547 13.5008   1
  -3  -2   8 17.0655 5.42555   3
  -3  -2   8 22.7368 11.7519   1
   2   2  -8 217.261 16.5199   4
   2   2  -8 219.605 24.3841   1
  -2  -2   8 202.312 17.7710   3
   1   2  -8 348.946 25.6274   4
  -1  -2   8 340.817 26.7172   3
   0   2  -8 62.8219 7.00922   4
   0  -2   8 78.2718 5.33811   2
   0  -2   8 61.5211 5.17312   2
   0  -2   8 82.4708 9.30178   3
  -1   2  -8 48.4281 5.77123   4
   1  -2   8 50.9187 8.10500   3
   1  -2   8 43.5542 3.69243   2
   2  -2   8 165.926 12.6113   2
   2  -2   8 179.835 15.3339   3
   3  -2   8 236.434 17.4851   2
   3  -2   8 224.316 19.5942   3
   3  -2   8 252.461 18.6320   4
   4  -2   8 36.1796 4.02624   2
   4  -2   8 37.9854 6.60090   3
   4  -2   8 37.9624 6.17028   4
   5  -2   8 -1.4462 3.26499   4
   5  -2   8 -0.0503 1.87471   2
   7   1  -8 109.865 11.0371   4
  -7  -1   8 85.7255 14.9983   3
   6   1  -8 21.4826 4.50329   4
   6   1  -8 50.3267 24.5635   1
  -6  -1   8 13.3251 6.56025   3
   5   1  -8 -0.9143 3.50872   4
   5   1  -8 -6.8613 18.8029   1
  -5  -1   8 2.25544 5.48572   3
  -5  -1   8 12.4654 15.9421   1
   4   1  -8 223.190 26.7638   1
   4   1  -8 263.439 19.2030   4
  -4  -1   8 275.211 28.9536   1
  -4  -1   8 228.914 20.7432   3
   3   1  -8 143.389 11.9198   4
   3   1  -8 146.770 20.2861   1
  -3  -1   8 154.834 21.2178   1
  -3  -1   8 131.378 13.5395   3
   2   1  -8 165.462 19.9901   1
   2   1  -8 167.160 12.9084   4
  -2  -1   8 168.241 19.8170   1
  -2  -1   8 141.431 14.2794   3
   1   1  -8 -1.2735 2.31336   4
  -1  -1   8 3.02229 4.37509   3
   0   1  -8 143.224 11.1220   4
   0  -1   8 128.242 12.6453   3
   0  -1   8 136.924 9.85690   2
   0  -1   8 136.206 9.95746   2
  -1   1  -8 96.7630 8.68159   4
   1  -1   8 103.285 7.61801   2
   1  -1   8 104.946 10.5237   3
   1  -1   8 97.7254 7.51076   2
  -2   1  -8 702.045 47.3350   4
   2  -1   8 620.601 48.2783   3
   2  -1   8 641.830 46.7664   2
  -3   1  -8 14.5186 2.64293   4
   3  -1   8 10.6377 1.71683   2
   3  -1   8 9.46218 4.39092   3
   4  -1   8 70.1369 7.40427   4
   4  -1   8 62.9078 5.61749   2
  -5   1  -8 268.520 21.7996   3
   5  -1   8 276.950 20.2221   2
  -6   1  -8 166.001 15.4078   3
   6  -1   8 169.932 13.1830   2
  -7   0   8 3.72075 7.67777   3
   6   0  -8 20.7956 22.6424   1
  -6   0   8 24.3064 6.43012   3
  -6   0   8 -30.746 31.8689   1
   5   0  -8 140.778 11.7189   4
   5   0  -8 106.976 23.1446   1
  -5   0   8 122.899 13.3178   3
  -5   0   8 120.524 21.8341   1
   4   0  -8 14.6342 1.73558   2
   4   0  -8 15.6929 3.74226   4
   4   0  -8 10.7701 12.8440   1
  -4   0   8 15.2677 2.23484   2
  -4   0   8 13.3363 5.67148   3
  -4   0   8 25.1047 14.0463   1
   3   0  -8 216.165 23.4348   1
   3   0  -8 219.187 16.7294   4
  -3   0   8 222.118 25.2286   1
  -3   0   8 200.867 18.1522   3
   2   0  -8 17.3865 7.73929   1
   2   0  -8 17.6449 3.44711   4
  -2   0   8 38.2034 10.8323   1
  -2   0   8 29.9423 5.56069   3
   1   0  -8 323.787 26.3330   1
   1   0  -8 334.542 23.6142   4
  -1   0   8 295.744 28.1205   1
  -1   0   8 310.234 24.7177   3
   0   0  -8 541.603 36.8215   4
   0   0   8 449.850 36.1069   2
   0   0   8 548.587 36.0163   2
   0   0   8 484.058 37.6176   3
  -1   0  -8 361.403 24.2910   4
   1   0   8 319.087 25.3438   3
   1   0   8 306.284 23.6420   2
   1   0   8 326.703 23.4978   2
  -2   0  -8 281.912 19.9500   4
   2   0   8 252.000 21.1454   3
   2   0   8 266.518 19.2896   2
  -3   0  -8 127.957 10.1120   4
   3   0   8 122.162 9.36731   2
  -4   0  -8 229.107 17.1087   4
  -4   0  -8 232.266 18.5520   3
   4   0   8 225.617 16.8125   2
  -5   0  -8 88.1613 9.90258   3
   5   0   8 81.2939 6.99402   2
  -6   0  -8 9.44288 7.78296   3
  -7   0  -8 19.5902 6.30027   3
   7   0   8 27.0331 3.63154   2
   7  -1  -8 26.3574 5.96456   4
  -7   1   8 26.0687 7.05221   3
   6  -1  -8 106.232 10.3770   4
  -6   1   8 81.7174 7.68427   2
  -6   1   8 95.1997 15.6699   3
   5  -1  -8 67.8503 8.55947   4
   5  -1  -8 62.7901 18.4677   1
  -5   1   8 70.2248 21.3157   1
  -5   1   8 67.1010 5.79852   2
   4  -1  -8 6.88785 3.52792   4
   4  -1  -8 1.76791 12.9845   1
  -4   1   8 -5.5037 4.82632   3
  -4   1   8 0.79175 14.9010   1
   3  -1  -8 250.836 25.7503   1
   3  -1  -8 270.398 19.1237   4
  -3   1   8 239.965 28.0625   1
  -3   1   8 233.190 20.2941   3
  -3   1   8 237.730 17.9479   2
   2  -1  -8 307.827 27.2419   1
   2  -1  -8 334.601 22.9627   4
  -2   1   8 287.364 29.1724   1
  -2   1   8 280.639 23.8811   3
   1  -1  -8 120.491 14.9006   1
   1  -1  -8 121.934 10.4247   4
   1  -1  -8 117.441 8.92084   2
  -1   1   8 127.553 11.9472   3
  -1   1   8 127.699 9.11712   2
   0  -1  -8 26.6719 5.14217   4
   0  -1  -8 27.2587 6.98406   1
   0  -1  -8 27.6600 2.59047   2
   0   1   8 34.8236 2.65321   2
   0   1   8 46.3176 6.98285   3
  -1  -1  -8 93.4170 8.05018   4
  -1  -1  -8 80.6173 6.70381   2
   1   1   8 104.159 9.56016   3
   1   1   8 90.8817 7.23251   2
  -2  -1  -8 419.204 29.0461   4
   2   1   8 399.289 28.4918   2
   2   1   8 373.180 29.9782   3
  -3  -1  -8 380.871 28.9565   3
  -3  -1  -8 399.091 27.9901   4
   3   1   8 371.420 27.5828   2
  -4  -1  -8 46.1469 7.01526   3
  -4  -1  -8 36.5558 4.50383   4
   4   1   8 39.2152 3.66821   2
  -5  -1  -8 73.5911 8.55489   3
   5   1   8 61.1272 5.62230   2
  -6  -1  -8 183.025 17.3529   3
  -7  -1  -8 142.938 14.3158   3
   7   1   8 131.795 11.0492   2
   6  -2  -8 -4.2200 4.63046   4
  -6   2   8 3.93765 2.45888   2
   5  -2  -8 14.1081 22.4601   1
   5  -2  -8 27.3666 4.90920   4
  -5   2   8 27.9782 21.7231   1
  -5   2   8 18.4472 5.20362   3
  -5   2   8 25.3589 3.88971   2
   4  -2  -8 37.5827 7.40761   4
   4  -2  -8 1.44064 15.6980   1
  -4   2   8 38.7596 4.10379   2
  -4   2   8 85.8174 19.1375   1
  -4   2   8 32.8496 6.33417   3
   3  -2  -8 308.672 21.4823   4
   3  -2  -8 297.912 29.3007   1
  -3   2   8 241.731 20.2872   2
  -3   2   8 280.013 22.2334   3
   2  -2  -8 70.6821 8.22593   4
   2  -2  -8 86.9021 5.82131   2
   2  -2  -8 67.5870 12.6890   1
  -2   2   8 60.8336 9.20748   3
   1  -2  -8 5.56924 8.62135   1
  -1   2   8 7.12451 4.24252   3
   0  -2  -8 457.236 33.0892   4
   0  -2  -8 432.100 36.2918   1
   0  -2  -8 403.967 32.2629   2
   0   2   8 517.875 33.9494   3
  -1  -2  -8 506.252 40.7296   1
  -1  -2  -8 506.304 36.5637   4
  -1  -2  -8 457.487 39.3951   1
   1   2   8 513.315 37.3679   3
   1   2   8 525.353 35.8932   2
  -2  -2  -8 247.076 18.5967   4
   2   2   8 247.681 17.8439   2
  -3  -2  -8 26.7585 4.49027   4
  -3  -2  -8 34.0465 6.36421   3
   3   2   8 34.4803 3.02131   2
  -4  -2  -8 360.097 26.6535   4
  -4  -2  -8 377.786 27.7270   3
   4   2   8 362.154 26.4421   2
  -5  -2  -8 72.4511 8.63254   3
   5   2   8 63.9510 5.64772   2
  -6  -2  -8 175.638 15.0259   3
   6   2   8 164.015 12.8562   2
  -7  -2  -8 -0.4634 5.12279   3
   7   2   8 -1.3691 1.96661   2
  -8  -2  -8 8.51984 6.31187   3
   8   2   8 10.0682 2.92994   2
  -6   3   8 23.8709 5.41960   3
  -6   3   8 14.0942 4.62267   2
   5  -3  -8 112.565 11.5071   4
  -5   3   8 106.413 9.99676   3
  -5   3   8 85.8764 8.64109   2
   4  -3  -8 57.6627 20.7785   1
   4  -3  -8 57.8105 8.78579   4
  -4   3   8 52.7735 7.20633   3
  -4   3   8 47.3880 5.46112   2
   3  -3  -8 -10.070 15.5764   1
   3  -3  -8 11.4496 4.25510   4
  -3   3   8 13.9432 4.69809   3
  -3   3   8 5.87488 2.29917   2
   2  -3  -8 100.584 18.0653   1
   2  -3  -8 118.310 10.7058   4
   2  -3  -8 158.712 26.8616   1
  -2   3   8 108.361 11.0615   3
   1  -3  -8 663.648 50.2667   4
   1  -3  -8 719.350 56.8175   1
   1  -3  -8 633.993 55.0424   1
  -1   3   8 697.827 50.7297   3
  -1   3   8 752.395 49.7042   2
   0  -3  -8 64.0567 13.1813   1
   0  -3  -8 70.9079 8.40072   4
   0  -3  -8 105.903 21.2313   1
   0   3   8 90.7161 9.10629   3
   0   3   8 90.3970 6.45085   2
  -1  -3  -8 47.7598 11.2285   1
  -1  -3  -8 43.1463 6.53782   4
  -1  -3  -8 36.1424 16.4132   1
   1   3   8 52.4047 3.92016   2
   1   3   8 43.2113 6.74451   3
  -2  -3  -8 136.234 18.7105   1
  -2  -3  -8 171.048 13.1825   4
  -2  -3  -8 155.122 13.8002   3
   2   3   8 173.433 11.9618   2
  -3  -3  -8 216.634 16.5226   4
  -3  -3  -8 219.076 17.3974   3
  -3  -3  -8 228.145 20.0602   1
   3   3   8 171.296 22.7373   1
   3   3   8 231.389 15.8517   2
  -4  -3  -8 251.963 19.3815   4
  -4  -3  -8 265.501 20.3595   3
   4   3   8 267.477 19.0331   2
  -5  -3  -8 39.3741 6.77968   3
   5   3   8 35.4671 3.64717   2
  -6  -3  -8 17.4980 4.72182   3
   6   3   8 10.8064 2.04419   2
  -7  -3  -8 117.661 12.5291   3
   7   3   8 111.184 9.26736   2
  -8  -3  -8 71.3783 12.3513   3
   8   3   8 67.2865 6.69838   2
   5  -4  -8 5.57989 6.13409   4
  -5   4   8 12.2430 3.71082   3
  -5   4   8 -1.4577 3.35457   2
   4  -4  -8 80.3496 34.5079   1
   3  -4  -8 161.539 13.8172   4
   3  -4  -8 205.988 38.6572   1
  -3   4   8 139.034 12.7077   3
   2  -4  -8 152.992 12.5052   4
   2  -4  -8 194.360 32.5150   1
  -2   4   8 119.676 10.8358   2
  -2   4   8 135.041 11.9143   3
   1  -4  -8 168.433 28.3998   1
   1  -4  -8 206.931 29.3805   1
   1  -4  -8 159.357 14.4438   4
  -1   4   8 173.404 14.6995   3
  -1   4   8 190.021 13.3132   2
   0  -4  -8 63.0731 14.7417   1
   0  -4  -8 71.5596 16.6663   1
   0  -4  -8 45.9516 7.34047   4
   0   4   8 56.4093 7.36249   3
   0   4   8 64.3585 5.00105   2
  -1  -4  -8 204.619 16.3225   4
  -1  -4  -8 193.815 26.8038   1
   1   4   8 222.609 15.0481   2
   1   4   8 193.998 16.5100   3
  -2  -4  -8 337.139 27.8213   3
  -2  -4  -8 354.330 35.6280   1
  -2  -4  -8 391.695 27.5272   4
   2   4   8 389.999 26.6168   2
  -3  -4  -8 137.683 11.6952   4
  -3  -4  -8 137.572 12.0948   3
   3   4   8 141.622 10.2957   2
   3   4   8 126.807 23.0548   1
  -4  -4  -8 5.45589 3.56634   3
  -4  -4  -8 -10.395 7.73438   1
  -4  -4  -8 0.09535 2.56613   4
   4   4   8 4.19807 11.0657   1
   4   4   8 0.83960 1.23379   2
  -5  -4  -8 112.823 11.1086   3
   5   4   8 117.417 20.1630   1
   5   4   8 122.572 9.13466   2
  -6  -4  -8 149.731 13.2265   3
   6   4   8 139.935 11.0288   2
  -7  -4  -8 129.182 13.2663   3
   7   4   8 123.923 10.0474   2
  -8  -4  -8 6.78355 7.10186   3
   8   4   8 4.20080 2.21693   2
   4  -5  -8 66.9017 10.6044   4
  -4   5   8 54.2465 8.10226   3
   3  -5  -8 67.0524 30.9981   1
   3  -5  -8 64.7003 10.1751   4
  -3   5   8 69.6117 6.81225   3
   2  -5  -8 27.4091 26.4752   1
   2  -5  -8 43.6788 24.3467   1
   2  -5  -8 16.1228 5.04303   4
  -2   5   8 12.3841 3.35443   3
  -2   5   8 5.00993 2.70401   2
   1  -5  -8 107.472 23.7969   1
   1  -5  -8 65.3223 8.99892   4
  -1   5   8 63.9708 6.01738   2
  -1   5   8 60.8437 7.34386   3
   0  -5  -8 346.669 39.0859   1
   0  -5  -8 347.380 27.4866   4
   0  -5  -8 371.598 38.0476   1
   0   5   8 345.631 27.1047   3
   0   5   8 401.869 26.4016   2
  -1  -5  -8 161.142 14.0282   4
  -1  -5  -8 182.653 27.3709   1
   1   5   8 152.260 13.5465   3
   1   5   8 170.631 12.1001   2
  -2  -5  -8 70.4529 8.75734   4
  -2  -5  -8 48.8065 17.5600   1
   2   5   8 53.5478 13.3382   1
   2   5   8 76.0561 5.66290   2
  -3  -5  -8 327.763 23.9307   4
  -3  -5  -8 307.232 24.2144   3
  -3  -5  -8 298.550 33.0589   1
   3   5   8 289.845 29.2025   1
   3   5   8 338.649 22.8970   2
  -4  -5  -8 26.2372 4.45818   4
  -4  -5  -8 28.2890 13.0898   1
  -4  -5  -8 34.0357 6.64097   3
   4   5   8 35.1076 10.4021   1
   4   5   8 36.5891 3.42237   2
  -5  -5  -8 98.0218 10.3628   3
   5   5   8 80.0618 18.8576   1
   5   5   8 105.347 7.94232   2
  -6  -5  -8 94.4373 10.8381   3
   6   5   8 104.696 8.11823   2
  -7  -5  -8 5.02476 5.14436   3
   7   5   8 0.99192 1.84384   2
  -8  -5  -8 71.7540 12.4903   3
   8   5   8 55.6454 6.04625   2
   4  -6  -8 12.1449 6.90471   4
  -4   6   8 -3.3031 4.68467   2
   3  -6  -8 2.12396 5.99187   4
  -3   6   8 -6.3780 3.35151   2
   2  -6  -8 260.684 21.3144   4
   2  -6  -8 340.232 50.6759   1
  -2   6   8 232.279 18.0644   3
  -2   6   8 229.298 18.7097   2
   1  -6  -8 79.6928 26.1519   1
   1  -6  -8 84.7522 10.5430   4
  -1   6   8 83.1345 7.17361   2
  -1   6   8 70.3149 7.19603   3
   0  -6  -8 44.6189 20.5836   1
   0  -6  -8 20.5001 21.2374   1
   0  -6  -8 15.5219 5.11385   4
   0   6   8 16.3782 3.75856   3
   0   6   8 19.1031 2.81202   2
  -1  -6  -8 0.81949 18.4337   1
  -1  -6  -8 -3.1859 4.30378   4
   1   6   8 -1.8664 3.04522   3
   1   6   8 1.05288 1.60556   2
  -2  -6  -8 46.5121 19.1641   1
  -2  -6  -8 50.5891 8.64107   4
   2   6   8 65.8872 5.11931   2
   2   6   8 45.7214 14.2101   1
  -3  -6  -8 213.699 16.9595   4
  -3  -6  -8 198.658 16.7800   3
  -3  -6  -8 222.871 30.7795   1
   3   6   8 191.714 25.3612   1
  -4  -6  -8 126.624 12.0174   3
  -4  -6  -8 129.267 25.9193   1
  -4  -6  -8 124.116 11.8503   4
   4   6   8 136.504 9.97807   2
   4   6   8 149.384 21.1129   1
  -5  -6  -8 4.74486 4.04582   3
  -5  -6  -8 8.33490 31.4504   1
  -5  -6  -8 -2.3271 3.39513   4
   5   6   8 3.43378 1.52605   2
  -6  -6  -8 16.2578 5.30204   3
   6   6   8 22.0443 3.26015   2
  -7  -6  -8 173.837 16.1120   3
   7   6   8 166.465 12.9923   2
  -8  -6  -8 87.8160 13.0822   3
   8   6   8 85.9581 7.68475   2
   2  -7  -8 94.7499 12.6430   4
  -2   7   8 78.6050 8.32930   2
   1  -7  -8 1.58594 5.85612   4
  -1   7   8 -1.8478 2.53798   2
   0  -7  -8 18.4927 24.1002   1
   0  -7  -8 35.9322 27.8929   1
   0  -7  -8 12.8799 6.92297   4
   0   7   8 7.10476 3.17072   3
   0   7   8 9.48897 3.76092   2
  -1  -7  -8 163.630 27.9357   1
  -1  -7  -8 156.155 15.2282   4
   1   7   8 179.279 12.6119   2
   1   7   8 157.703 13.1984   3
  -2  -7  -8 39.8270 31.6843   1
  -2  -7  -8 81.2944 10.6607   4
   2   7   8 88.3721 6.89404   2
   2   7   8 83.3560 8.66248   3
   2   7   8 72.5405 25.4628   1
  -3  -7  -8 41.5102 8.86370   4
  -3  -7  -8 50.2733 22.7492   1
  -3  -7  -8 44.6648 7.93446   3
   3   7   8 29.2932 17.1511   1
   3   7   8 46.4021 4.31272   2
  -4  -7  -8 63.0143 25.3594   1
  -4  -7  -8 39.5059 8.31306   4
  -4  -7  -8 36.4371 7.30893   3
   4   7   8 42.2199 4.17454   2
  -5  -7  -8 137.254 12.6274   4
  -5  -7  -8 124.803 13.1766   3
   5   7   8 155.524 10.8830   2
   6   7   8 12.1972 2.49247   2
  -7  -7  -8 254.905 22.0797   3
   7   7   8 263.218 19.4001   2
   1  -8  -8 43.0876 8.34278   4
  -1   8   8 35.7286 5.95890   2
   0  -8  -8 103.343 34.9986   1
   0  -8  -8 170.115 16.2361   4
   0   8   8 156.784 12.5457   2
  -1  -8  -8 -39.235 30.2719   1
  -2  -8  -8 46.1271 28.8105   1
  -2  -8  -8 51.2298 10.0199   4
   2   8   8 28.4597 5.83357   3
   2   8   8 41.6109 4.57658   2
   3   8   8 14.2864 2.42130   2
  -4  -8  -8 92.3983 11.0987   4
  -4  -8  -8 79.5191 10.2670   3
   4   8   8 99.8812 7.65355   2
  -5  -8  -8 83.6896 10.4463   4
  -5  -8  -8 74.9530 10.4866   3
   5   8   8 96.2775 7.46153   2
  -6  -8  -8 24.0411 6.48448   3
  -6  -8  -8 23.7264 4.90230   4
  -7  -8  -8 44.3641 8.19426   3
   7   8   8 46.9893 5.34647   2
  -1  -9  -8 18.7907 7.35802   4
   1   9   8 7.79588 2.83770   2
  -2  -9  -8 48.0352 9.27093   4
   2   9   8 53.4650 5.97155   2
  -3  -9  -8 44.6181 8.30788   4
   3   9   8 52.5006 5.70712   2
  -4  -9  -8 17.0109 6.80494   4
   4   9   8 16.4884 3.05657   2
  -5  -9  -8 -0.6451 5.65242   4
  -5  -9  -8 -9.0514 5.22519   3
   5   9   8 0.51929 2.19970   2
  -4  -5   9 20.3422 7.30907   3
  -4  -5   9 4.08666 7.18148   4
  -3  -5   9 43.2456 8.25697   4
  -3  -5   9 38.7629 7.99741   3
  -2  -5   9 90.2423 12.8861   3
  -2  -5   9 86.4550 13.3244   4
  -1  -5   9 129.675 14.4373   3
  -1  -5   9 118.329 14.6630   4
   0  -5   9 9.08453 6.18428   4
   0  -5   9 18.4088 6.29637   3
   1  -5   9 34.4702 6.64283   4
   5   4  -9 3.18046 4.74989   4
  -5  -4   9 1.20180 7.98581   3
   4   4  -9 123.121 12.0896   4
  -4  -4   9 112.607 14.1084   3
   3   4  -9 179.481 14.7678   4
  -3  -4   9 142.145 20.9848   3
  -2  -4   9 40.8745 7.04333   3
  -1  -4   9 5.92489 5.45686   3
   0  -4   9 194.995 17.4838   3
   0  -4   9 199.664 17.8530   4
   1  -4   9 64.8971 9.13974   3
   1  -4   9 83.3411 10.7323   4
   2  -4   9 65.0052 9.85820   4
   2  -4   9 62.1672 5.76396   2
   2  -4   9 45.6512 8.23345   3
   6   3  -9 14.9150 4.94852   4
  -6  -3   9 22.3827 9.41886   3
   5   3  -9 206.012 19.5364   4
  -5  -3   9 201.858 19.7313   3
   4   3  -9 48.1674 9.46274   4
  -4  -3   9 56.2154 10.8007   3
   3   3  -9 15.5426 4.19429   4
  -3  -3   9 9.38644 6.00921   3
   2   3  -9 61.6929 7.82171   4
  -2  -3   9 60.4121 10.0571   3
   1   3  -9 209.427 16.0514   4
  -1  -3   9 183.827 17.3721   3
   0   3  -9 171.132 13.7923   4
   0  -3   9 157.690 15.3883   3
   1  -3   9 32.5129 6.39803   3
   1  -3   9 28.1580 2.76424   2
   2  -3   9 28.6075 6.53298   3
   2  -3   9 25.8094 3.01409   2
   3  -3   9 173.545 13.8171   4
   3  -3   9 165.489 12.0259   2
   3  -3   9 125.571 15.1055   3
   4  -3   9 17.0264 2.84499   2
   4  -3   9 18.6385 4.60047   4
  -6  -2   9 77.3265 13.9432   3
   5   2  -9 59.3792 8.41303   4
  -5  -2   9 58.6520 11.5988   3
   4   2  -9 0.33861 12.9241   1
   4   2  -9 5.42224 3.76403   4
  -4  -2   9 6.73426 17.4205   1
  -4  -2   9 6.17728 6.05286   3
   3   2  -9 152.480 12.6666   4
   3   2  -9 135.198 19.6572   1
  -3  -2   9 127.884 14.4414   3
  -3  -2   9 175.310 23.7147   1
   2   2  -9 331.179 24.0315   4
  -2  -2   9 300.604 25.2848   3
   1   2  -9 46.1098 6.54075   4
  -1  -2   9 44.6848 9.25422   3
   0   2  -9 4.64346 2.86720   4
   0  -2   9 13.0605 5.18244   3
   0  -2   9 6.54504 0.99384   2
  -1   2  -9 44.2763 5.88950   4
   1  -2   9 52.9003 8.68056   3
   1  -2   9 38.4587 3.43495   2
  -2   2  -9 218.884 16.7303   4
   2  -2   9 218.622 18.4035   3
   2  -2   9 207.603 15.6471   2
   3  -2   9 140.927 14.0104   3
   3  -2   9 137.776 10.5442   2
   3  -2   9 139.714 12.8714   4
   4  -2   9 0.63906 1.60913   2
   4  -2   9 0.86722 5.13460   3
   4  -2   9 1.01042 3.31825   4
   5  -2   9 23.1141 6.97187   3
   5  -2   9 20.1665 4.38810   4
   5  -2   9 15.0656 2.90564   2
   6   1  -9 -8.9632 28.1992   1
   6   1  -9 2.29802 4.19974   4
  -6  -1   9 2.37320 6.77312   3
   5   1  -9 70.4436 9.02232   4
   5   1  -9 68.7737 17.4056   1
  -5  -1   9 66.6079 21.0333   1
  -5  -1   9 62.6316 11.3046   3
   4   1  -9 119.918 18.8444   1
   4   1  -9 152.659 12.3957   4
  -4  -1   9 124.606 14.3448   3
   3   1  -9 150.268 11.9096   4
   3   1  -9 135.520 23.2625   1
  -3  -1   9 112.448 13.8038   3
   2   1  -9 59.6400 7.19485   4
   2   1  -9 63.2736 14.1150   1
  -2  -1   9 54.6165 9.57226   3
   1   1  -9 153.162 12.6086   4
  -1  -1   9 152.066 14.7223   3
   0   1  -9 228.463 16.8379   4
   0  -1   9 208.104 18.3356   3
   0  -1   9 212.285 15.5978   2
  -1   1  -9 149.888 11.9799   4
   1  -1   9 147.858 13.6981   3
   1  -1   9 138.992 10.7248   2
   1  -1   9 147.575 10.8023   2
  -2   1  -9 48.5866 5.79592   4
   2  -1   9 52.5647 8.50370   3
   2  -1   9 45.1904 3.94027   2
  -3   1  -9 1.21533 2.21995   4
   3  -1   9 1.52568 1.22509   2
   3  -1   9 1.13111 4.26327   3
   4  -1   9 127.549 13.8540   3
   4  -1   9 142.264 10.5271   2
   5  -1   9 126.563 17.9982   3
   5  -1   9 129.746 10.2403   2
   6   0  -9 184.026 15.1476   4
  -6   0   9 156.115 17.4067   3
   5   0  -9 175.825 36.1121   1
   5   0  -9 212.954 17.1058   4
   4   0  -9 8.23637 3.81877   4
   4   0  -9 13.6858 18.3648   1
  -4   0   9 3.06645 6.13850   3
  -4   0   9 24.2533 17.0425   1
   3   0  -9 6.13609 12.3046   1
   3   0  -9 4.16926 3.38170   4
  -3   0   9 33.2125 14.4741   1
  -3   0   9 6.79399 5.66297   3
   2   0  -9 91.9536 17.7469   1
   2   0  -9 121.502 10.3504   4
  -2   0   9 109.219 12.3338   3
  -2   0   9 126.948 20.7941   1
   1   0  -9 307.095 22.0933   4
   1   0  -9 284.147 25.6140   1
  -1   0   9 281.490 23.4300   3
   0   0  -9 207.439 15.2199   4
   0   0   9 171.419 13.9907   2
   0   0   9 174.794 16.3540   3
   0   0   9 214.783 13.8823   2
  -1   0  -9 38.2909 5.55530   4
   1   0   9 44.6428 7.96444   3
   1   0   9 42.5674 3.76980   2
  -2   0  -9 4.88135 2.47144   4
   2   0   9 4.37957 4.44014   3
   2   0   9 4.69169 1.09001   2
  -3   0  -9 333.942 23.5363   4
   3   0   9 302.569 24.9064   3
   3   0   9 312.203 22.9069   2
  -4   0  -9 221.823 19.1063   3
  -4   0  -9 235.963 17.4911   4
   4   0   9 236.263 17.0969   2
  -5   0  -9 20.3770 5.94010   3
   5   0   9 16.8669 2.49739   2
  -6   0  -9 41.2274 6.95069   3
   6   0   9 36.8912 4.68969   2
   6  -1  -9 73.8427 9.67437   4
  -6   1   9 53.6236 11.0565   3
   5  -1  -9 20.1049 25.4649   1
   5  -1  -9 7.30805 4.46367   4
  -5   1   9 -8.5833 21.5618   1
  -5   1   9 -1.2288 5.93264   3
   4  -1  -9 43.2062 16.1655   1
   4  -1  -9 73.1898 8.98601   4
  -4   1   9 78.5121 5.91574   2
  -4   1   9 57.1183 9.05524   3
  -4   1   9 76.8966 20.4161   1
   3  -1  -9 131.224 24.1363   1
   3  -1  -9 162.420 12.7260   4
  -3   1   9 130.178 24.9762   1
  -3   1   9 138.664 10.6654   2
  -3   1   9 132.974 14.4140   3
   2  -1  -9 160.474 22.7122   1
   2  -1  -9 171.820 13.8801   4
   2  -1  -9 175.468 12.0394   2
  -2   1   9 145.819 15.2324   3
   1  -1  -9 91.9098 6.99927   2
   1  -1  -9 93.1278 14.8566   1
   1  -1  -9 86.6593 9.07847   4
  -1   1   9 99.1901 7.23574   2
  -1   1   9 105.832 11.0753   3
   0  -1  -9 33.3182 3.01988   2
   0  -1  -9 31.2717 4.51138   4
   0   1   9 35.3544 6.27775   3
   0   1   9 42.5944 3.11419   2
  -1  -1  -9 646.613 47.2527   4
   1   1   9 653.907 48.2075   3
   1   1   9 659.734 46.5221   2
  -2  -1  -9 16.2553 3.20193   4
   2   1   9 18.5237 4.57230   3
   2   1   9 17.0056 2.03047   2
  -3  -1  -9 214.826 16.0706   4
   3   1   9 207.132 15.3937   2
  -4  -1  -9 3.24884 4.35494   3
  -4  -1  -9 4.59017 2.13737   4
   4   1   9 3.40331 1.34736   2
  -5  -1  -9 92.3310 10.7514   3
   5   1   9 92.4316 7.50463   2
  -6  -1  -9 219.983 18.4339   3
   6   1   9 204.357 15.9153   2
  -7  -1  -9 70.9026 9.98537   3
   7   1   9 66.4625 6.79429   2
  -6   2   9 8.19208 2.87227   2
  -6   2   9 0.05468 5.61781   3
   5  -2  -9 28.9210 5.67563   4
  -5   2   9 57.9039 37.5903   1
  -5   2   9 33.5360 6.84884   3
  -5   2   9 39.5058 4.57610   2
   4  -2  -9 522.202 53.7103   1
   4  -2  -9 615.452 40.1081   4
  -4   2   9 466.706 38.9647   2
  -4   2   9 557.847 40.9151   3
   3  -2  -9 15.9151 15.8353   1
   3  -2  -9 17.7921 4.36435   4
  -3   2   9 18.0870 2.90449   2
  -3   2   9 16.7208 5.96881   3
   2  -2  -9 -0.2118 0.92661   2
   2  -2  -9 0.58936 3.58401   4
   2  -2  -9 -12.016 13.4056   1
  -2   2   9 -0.4940 4.66440   3
   1  -2  -9 57.4515 4.78339   2
   1  -2  -9 64.5443 13.4477   1
   1  -2  -9 63.4612 15.3458   1
   1  -2  -9 56.7712 7.57492   4
  -1   2   9 68.9502 5.22031   2
  -1   2   9 65.1949 9.27528   3
   0  -2  -9 215.314 24.6250   1
   0  -2  -9 232.481 19.1136   4
   0   2   9 252.585 19.9954   3
   0   2   9 273.608 17.9069   2
  -1  -2  -9 282.069 22.5450   4
   1   2   9 313.808 21.5130   2
   1   2   9 302.251 23.5218   3
  -2  -2  -9 22.8327 3.70452   4
   2   2   9 21.6308 5.35380   3
   2   2   9 23.4471 2.43577   2
  -3  -2  -9 48.8074 6.02716   4
  -3  -2  -9 52.7064 8.32386   3
   3   2   9 56.9596 4.47990   2
  -4  -2  -9 154.661 13.5774   3
  -4  -2  -9 140.360 11.5477   4
   4   2   9 148.502 11.0333   2
  -5  -2  -9 369.756 27.3902   3
   5   2   9 339.586 25.7031   2
  -6  -2  -9 17.1099 5.36574   3
   6   2   9 25.0744 3.71271   2
  -7  -2  -9 9.95532 6.49893   3
   7   2   9 8.38407 2.49186   2
  -5   3   9 29.2824 4.07931   2
  -5   3   9 35.3355 7.26609   3
   4  -3  -9 -2.9368 26.1899   1
   4  -3  -9 34.7388 5.75564   4
  -4   3   9 27.3605 4.45406   2
  -4   3   9 36.0752 5.89052   3
   3  -3  -9 38.3942 18.9075   1
   3  -3  -9 37.0814 5.44769   4
  -3   3   9 21.2905 3.36606   2
  -3   3   9 33.2271 5.98494   3
   2  -3  -9 191.330 15.9433   4
   2  -3  -9 193.405 27.8753   1
  -2   3   9 191.465 16.5694   3
   1  -3  -9 163.678 15.4978   4
   1  -3  -9 201.372 28.7075   1
  -1   3   9 203.063 14.0485   2
  -1   3   9 195.324 16.2397   3
   0  -3  -9 174.898 25.0631   1
   0  -3  -9 100.652 17.2212   1
   0  -3  -9 97.3778 10.9741   4
   0   3   9 126.748 8.85340   2
   0   3   9 122.010 11.4478   3
  -1  -3  -9 0.15092 3.38502   4
  -1  -3  -9 -8.1855 12.1116   1
   1   3   9 4.66454 3.91978   3
  -2  -3  -9 247.019 18.7118   4
   2   3   9 213.624 19.4300   3
   2   3   9 263.578 17.6112   2
  -3  -3  -9 182.847 16.0848   3
  -3  -3  -9 183.167 14.9112   4
   3   3   9 202.682 13.9889   2
  -4  -3  -9 164.979 13.9348   3
  -4  -3  -9 149.113 12.3139   4
   4   3   9 157.804 11.7035   2
  -5  -3  -9 38.4169 7.64134   3
   5   3   9 32.5311 3.67457   2
  -6  -3  -9 93.8266 11.2400   3
  -7  -3  -9 223.409 19.2681   3
   7   3   9 206.570 16.2033   2
   5  -4  -9 2.95548 5.98387   4
  -5   4   9 0.82477 3.25633   2
   4  -4  -9 135.614 40.4528   1
   3  -4  -9 101.647 29.2950   1
   3  -4  -9 201.883 33.3945   1
   3  -4  -9 183.109 15.3332   4
  -3   4   9 166.877 14.3033   3
   2  -4  -9 44.0756 8.12300   4
   2  -4  -9 28.9586 20.7135   1
   2  -4  -9 56.1915 23.1883   1
  -2   4   9 38.1329 4.95304   2
  -2   4   9 42.3173 6.15856   3
   1  -4  -9 4.06778 3.96996   4
   1  -4  -9 26.2908 18.3382   1
   1  -4  -9 8.35494 17.0558   1
  -1   4   9 7.44396 2.23429   2
  -1   4   9 8.86780 4.46176   3
   0  -4  -9 0.38220 14.8281   1
   0  -4  -9 22.6622 16.5102   1
   0  -4  -9 -3.6865 3.64092   4
   0   4   9 2.60867 1.54986   2
   0   4   9 3.91040 3.89457   3
  -1  -4  -9 264.335 31.5210   1
  -1  -4  -9 257.516 20.2952   4
  -1  -4  -9 217.765 31.7038   1
   1   4   9 250.050 20.5341   3
   1   4   9 284.370 18.8857   2
  -2  -4  -9 306.146 21.7368   4
  -2  -4  -9 217.419 37.8559   1
   2   4   9 315.966 20.4183   2
   2   4   9 237.135 22.0092   3
  -3  -4  -9 43.4790 7.10964   4
  -3  -4  -9 56.4198 12.4809   1
  -3  -4  -9 48.3725 7.96116   3
   3   4   9 55.4689 4.45341   2
  -4  -4  -9 13.7112 3.36358   4
  -4  -4  -9 23.6523 4.85184   3
  -4  -4  -9 6.32812 9.37522   1
   4   4   9 20.5174 2.70340   2
  -5  -4  -9 269.241 20.7114   3
   5   4   9 214.884 29.0493   1
   5   4   9 257.877 18.7217   2
  -6  -4  -9 186.695 16.1695   3
   6   4   9 155.251 13.7091   2
  -7  -4  -9 24.0085 6.50635   3
   7   4   9 28.4377 4.04399   2
  -8  -4  -9 9.12428 7.72931   3
   8   4   9 -1.5190 2.54883   2
   4  -5  -9 47.8735 7.44704   4
  -4   5   9 24.5657 4.86190   2
  -4   5   9 38.3193 7.12687   3
   3  -5  -9 13.8043 33.5593   1
   3  -5  -9 21.6438 5.94013   4
  -3   5   9 27.7199 5.31735   3
   2  -5  -9 -13.406 25.5110   1
   2  -5  -9 4.50145 5.00064   4
   2  -5  -9 -8.3000 26.0504   1
  -2   5   9 -0.8700 3.51903   3
  -2   5   9 -0.7567 2.56678   2
   1  -5  -9 95.9239 24.5494   1
   1  -5  -9 73.5271 10.0592   4
   1  -5  -9 63.8330 23.8807   1
  -1   5   9 90.0060 7.34231   2
  -1   5   9 85.6629 9.04302   3
   0  -5  -9 270.313 36.2134   1
   0  -5  -9 228.582 20.3687   4
   0  -5  -9 289.200 35.2139   1
   0   5   9 290.226 18.9835   2
   0   5   9 240.620 20.1165   3
  -1  -5  -9 74.8034 18.7332   1
  -1  -5  -9 67.6965 8.73066   4
   1   5   9 68.0367 5.52401   2
   1   5   9 60.2104 8.28568   3
  -2  -5  -9 -3.4268 3.87399   4
  -2  -5  -9 -15.873 16.0682   1
   2   5   9 1.39857 1.20722   2
  -3  -5  -9 42.2163 7.77923   4
  -3  -5  -9 51.8363 17.7579   1
  -3  -5  -9 52.4641 8.49049   3
   3   5   9 36.7838 12.8825   1
   3   5   9 62.4375 4.70587   2
  -4  -5  -9 313.446 24.5963   3
  -4  -5  -9 303.222 23.8555   4
   4   5   9 330.782 22.9663   2
  -5  -5  -9 130.794 13.0310   3
   5   5   9 143.536 10.6220   2
  -6  -5  -9 17.0967 5.53072   3
   6   5   9 10.7329 2.21216   2
  -7  -5  -9 75.6063 11.2373   3
   7   5   9 66.9393 6.50535   2
  -8  -5  -9 159.211 17.6219   3
   8   5   9 156.997 12.6763   2
   3  -6  -9 18.1224 6.53298   4
  -3   6   9 15.5294 4.18466   2
   2  -6  -9 76.8853 11.2032   4
   2  -6  -9 94.3189 33.9098   1
  -2   6   9 72.8678 7.02443   3
  -2   6   9 61.9554 7.98426   2
   1  -6  -9 91.0693 27.5386   1
   1  -6  -9 19.2024 29.1369   1
  -1   6   9 61.3898 7.34139   3
  -1   6   9 80.2745 6.78050   2
   0  -6  -9 14.4141 5.04203   4
   0  -6  -9 35.3519 24.2396   1
   0   6   9 10.9451 3.96574   3
   0   6   9 11.4170 2.58919   2
  -1  -6  -9 3.13294 21.2829   1
  -1  -6  -9 10.0192 5.00171   4
   1   6   9 14.4851 3.97860   3
   1   6   9 12.7378 2.17886   2
  -2  -6  -9 133.055 26.4130   1
  -2  -6  -9 183.911 15.9045   4
   2   6   9 182.107 15.4797   3
   2   6   9 199.480 13.7112   2
  -3  -6  -9 154.402 26.7566   1
  -3  -6  -9 197.535 16.5285   4
  -3  -6  -9 167.475 16.7988   3
   3   6   9 227.537 14.6318   2
   3   6   9 210.167 27.1727   1
  -4  -6  -9 39.1385 5.61170   4
  -4  -6  -9 23.3416 22.2890   1
  -4  -6  -9 44.2894 8.45426   3
   4   6   9 43.4055 4.15680   2
  -5  -6  -9 19.7130 4.11616   4
  -5  -6  -9 27.5322 5.60440   3
   5   6   9 19.2497 3.31678   2
  -6  -6  -9 79.9899 10.7379   3
   6   6   9 88.0709 7.29589   2
  -7  -6  -9 133.715 14.7528   3
   7   6   9 135.970 10.8268   2
   2  -7  -9 5.88781 7.24675   4
  -2   7   9 1.22895 3.54452   2
   1  -7  -9 -1.3442 6.08086   4
  -1   7   9 -1.3830 2.92860   2
   0  -7  -9 68.2330 10.5478   4
   0  -7  -9 28.0671 27.1138   1
   0   7   9 38.9466 6.03658   3
   0   7   9 57.6063 5.54871   2
  -1  -7  -9 86.0900 26.6368   1
   1   7   9 82.7507 8.85771   3
   1   7   9 103.064 9.15295   2
  -2  -7  -9 30.2775 25.9314   1
  -2  -7  -9 67.8119 10.6378   4
   2   7   9 93.0224 6.63055   2
   2   7   9 63.1438 8.58894   3
  -3  -7  -9 13.4212 5.21820   4
   3   7   9 13.9778 2.49476   2
  -4  -7  -9 107.784 11.9285   3
  -4  -7  -9 102.898 11.7184   4
   4   7   9 126.148 9.21809   2
  -5  -7  -9 112.874 12.2486   3
  -5  -7  -9 106.355 11.4485   4
   5   7   9 127.487 9.34138   2
  -6  -7  -9 83.4882 11.7555   3
   6   7   9 107.766 8.35006   2
  -7  -7  -9 0.26236 6.41679   3
   7   7   9 0.51900 2.24175   2
   1  -8  -9 67.8469 13.5400   4
  -1   8   9 60.4535 6.85223   2
   0  -8  -9 69.4531 12.9229   4
   0   8   9 69.2129 7.09251   2
  -1  -8  -9 2.04266 6.38852   4
   1   8   9 5.49960 2.63207   2
  -2  -8  -9 18.8568 6.59873   4
   2   8   9 14.4797 3.79791   3
   2   8   9 18.2896 2.91188   2
  -3  -8  -9 77.8562 11.6611   4
   3   8   9 78.9697 7.33768   2
   3   8   9 104.700 9.47501   3
  -4  -8  -9 80.1616 11.3509   3
   4   8   9 106.961 8.09919   2
  -5  -8  -9 27.7824 6.69785   3
  -5  -8  -9 44.9672 8.40922   4
   5   8   9 45.9491 4.84409   2
  -6  -8  -9 39.1849 7.80694   4
  -6  -8  -9 38.6792 7.60194   3
   6   8   9 49.3402 5.24110   2
  -2  -9  -9 45.2587 8.71967   4
   2   9   9 50.6190 5.62966   2
  -3  -9  -9 28.2465 8.19403   4
   3   9   9 38.6459 4.80540   2
  -4  -9  -9 6.23206 6.71400   4
   4   9   9 12.9857 2.73105   2
  -5  -9  -9 17.6942 6.56985   4
  -5  -9  -9 5.99642 7.55805   3
   5   9   9 22.8521 3.36917   2
   4   4 -10 66.3848 10.3362   4
  -4  -4  10 41.2194 9.61678   3
   3   4 -10 88.5275 10.8369   4
  -3  -4  10 82.9853 12.9601   3
  -2  -4  10 5.25996 6.58974   3
  -1  -4  10 33.8240 7.22577   3
   0  -4  10 6.60916 7.77938   3
   0  -4  10 3.46687 6.52158   4
   1  -4  10 177.365 20.0184   3
   1  -4  10 245.078 19.4367   4
   5   3 -10 10.0881 5.24929   4
  -5  -3  10 12.6859 9.52471   3
   4   3 -10 44.8979 8.82548   4
  -4  -3  10 42.1658 9.14991   3
   3   3 -10 7.63300 4.30979   4
  -3  -3  10 -0.5708 6.54853   3
   2   3 -10 48.0716 7.91279   4
   1   3 -10 204.038 16.5030   4
  -1  -3  10 194.047 18.3155   3
   0   3 -10 68.5537 8.49497   4
   0  -3  10 76.9011 11.3468   3
   1  -3  10 -8.9082 5.84384   3
   2  -3  10 63.6534 10.5853   4
   3  -3  10 105.685 11.4622   4
   3  -3  10 103.597 8.35871   2
   3  -3  10 102.546 13.0532   3
   6   2 -10 77.5666 10.3450   4
  -6  -2  10 56.0854 10.6717   3
   5   2 -10 4.14665 4.60351   4
  -5  -2  10 8.49988 8.57277   3
   4   2 -10 15.1485 5.13820   4
  -4  -2  10 15.1546 7.20751   3
   2   2 -10 136.192 12.2166   4
  -2  -2  10 130.797 14.3270   3
   1   2 -10 12.6111 3.71921   4
  -1  -2  10 12.8678 6.16082   3
   0   2 -10 20.2860 4.02977   4
   0  -2  10 18.6721 6.60736   3
  -1   2 -10 113.840 10.3225   4
   1  -2  10 107.947 12.5193   3
   1  -2  10 108.918 8.18460   2
  -2   2 -10 214.781 17.0657   4
   2  -2  10 209.499 15.1383   2
   2  -2  10 193.341 18.3151   3
   3  -2  10 16.3195 2.73584   2
   4  -2  10 6.18333 5.82917   3
   4  -2  10 14.7623 4.14473   4
   6   1 -10 23.0977 5.53447   4
  -6  -1  10 18.8807 8.98382   3
  -5  -1  10 69.9025 13.5175   3
   4   1 -10 73.7972 9.16792   4
  -4  -1  10 58.0455 9.96993   3
   3   1 -10 78.4461 8.85931   4
   3   1 -10 66.6779 18.5000   1
  -3  -1  10 64.1911 11.6345   3
   2   1 -10 13.0449 10.2790   1
   2   1 -10 18.0525 4.06843   4
  -2  -1  10 13.4155 6.82064   3
  -2  -1  10 12.7281 13.7805   1
   1   1 -10 9.77926 3.52226   4
  -1  -1  10 3.32937 5.99281   3
   0   1 -10 317.836 23.1992   4
   0  -1  10 290.209 24.6469   3
  -1   1 -10 237.244 18.1130   4
   1  -1  10 230.944 20.1741   3
   1  -1  10 230.754 16.7957   2
  -2   1 -10 7.28612 3.09640   4
   2  -1  10 6.32567 1.29978   2
   2  -1  10 7.12272 5.17879   3
  -3   1 -10 105.221 9.17902   4
   3  -1  10 96.2473 7.85153   2
   3  -1  10 106.429 11.7435   3
   4  -1  10 250.441 18.5339   2
   4  -1  10 252.295 22.0312   3
   5  -1  10 46.7504 4.94692   2
   5  -1  10 42.9309 6.98534   4
   6   0 -10 19.1083 5.43616   4
  -6   0  10 8.48016 10.8402   3
  -5   0  10 34.4578 8.91469   3
   4   0 -10 28.5250 5.19056   4
   4   0 -10 36.0733 14.7172   1
  -4   0  10 14.7573 19.6405   1
   3   0 -10 16.8484 4.33419   4
   3   0 -10 1.56312 11.7602   1
  -3   0  10 12.3916 6.74786   3
   2   0 -10 216.185 16.3562   4
   2   0 -10 200.479 23.0070   1
  -2   0  10 179.142 18.2182   3
   1   0 -10 312.003 23.2251   4
  -1   0  10 295.440 24.7701   3
   0   0 -10 41.1823 6.68753   4
   0   0  10 51.3396 3.84315   2
   0   0  10 45.3153 9.06633   3
   0   0  10 47.7965 4.30286   2
  -1   0 -10 57.2515 7.07046   4
   1   0  10 51.5898 9.64262   3
   1   0  10 66.1717 4.81257   2
  -2   0 -10 122.852 10.5513   4
   2   0  10 126.043 12.7964   3
   2   0  10 122.578 9.17512   2
  -3   0 -10 234.648 17.5660   4
   3   0  10 227.192 19.6314   3
   3   0  10 225.290 16.7389   2
  -4   0 -10 46.3833 5.69633   4
   4   0  10 51.3034 10.3892   3
   4   0  10 46.7562 4.42828   2
  -6   0 -10 58.2543 9.13512   3
   6   0  10 52.0119 5.81257   2
   6  -1 -10 12.3478 5.47580   4
  -6   1  10 13.2009 8.35737   3
   5  -1 -10 6.00735 21.8169   1
  -5   1  10 15.0855 25.3876   1
  -5   1  10 -6.6602 6.90537   3
   4  -1 -10 166.042 13.8489   4
   4  -1 -10 134.331 22.2033   1
  -4   1  10 132.689 15.8249   3
   3  -1 -10 79.0423 17.8992   1
   3  -1 -10 66.3101 9.02758   4
  -3   1  10 59.5225 9.67935   3
  -3   1  10 76.1555 5.74063   2
   2  -1 -10 116.281 19.0499   1
   2  -1 -10 114.396 10.3227   4
  -2   1  10 103.249 12.3417   3
  -2   1  10 88.4274 7.57367   2
   1  -1 -10 1.40003 0.89684   2
   1  -1 -10 -2.2161 3.31869   4
   1  -1 -10 -6.6486 13.1466   1
  -1   1  10 0.63462 1.38353   2
  -1   1  10 9.89837 5.59288   3
   0  -1 -10 97.4205 7.92578   2
   0  -1 -10 97.4203 10.1310   4
   0   1  10 121.875 7.99947   2
   0   1  10 109.988 11.5400   3
  -1  -1 -10 167.167 14.1543   4
   1   1  10 182.934 12.6475   2
   1   1  10 168.386 15.5959   3
  -2  -1 -10 560.458 40.3628   4
   2   1  10 543.160 41.4516   3
   2   1  10 557.518 39.5798   2
  -3  -1 -10 2.48209 2.35952   4
   3   1  10 1.16126 1.14791   2
   3   1  10 -2.3903 4.39493   3
  -4  -1 -10 75.0830 7.00474   4
   4   1  10 71.7391 6.03524   2
  -5  -1 -10 246.003 20.9211   3
   5   1  10 252.375 18.4710   2
  -6  -1 -10 123.032 14.1514   3
   6   1  10 122.446 9.91173   2
   5  -2 -10 52.4323 9.44802   4
  -5   2  10 54.8621 10.0490   3
   4  -2 -10 31.0230 25.7991   1
   4  -2 -10 31.5193 5.80542   4
  -4   2  10 29.8742 3.89247   2
  -4   2  10 31.2501 7.06611   3
   3  -2 -10 134.411 11.6019   4
   3  -2 -10 100.530 24.8076   1
  -3   2  10 98.7263 8.59856   2
  -3   2  10 110.867 12.9177   3
   2  -2 -10 30.4010 5.22266   4
   2  -2 -10 21.6056 18.3680   1
  -2   2  10 36.4258 6.80928   3
   1  -2 -10 220.244 29.7862   1
   1  -2 -10 224.072 18.3758   2
   1  -2 -10 254.438 30.6249   1
   1  -2 -10 245.779 20.0148   4
  -1   2  10 273.817 21.3076   3
  -1   2  10 294.147 18.5874   2
   0  -2 -10 345.510 33.4452   1
   0  -2 -10 300.128 34.3105   1
   0  -2 -10 347.950 27.4003   4
   0   2  10 421.978 26.1492   2
   0   2  10 365.887 28.2087   3
  -1  -2 -10 161.140 23.7700   1
  -1  -2 -10 170.471 14.6571   4
   1   2  10 183.208 12.9325   2
   1   2  10 184.619 15.8938   3
  -2  -2 -10 250.335 20.3389   4
   2   2  10 271.530 21.6195   3
   2   2  10 278.820 19.3012   2
  -3  -2 -10 35.0728 5.87760   4
   3   2  10 44.7592 3.81452   2
   3   2  10 38.6984 6.31207   3
  -4  -2 -10 175.141 14.2674   4
  -4  -2 -10 185.968 16.5652   3
   4   2  10 191.708 13.6870   2
  -5  -2 -10 85.7338 12.9456   3
   5   2  10 93.3840 7.45768   2
  -6  -2 -10 1.57255 5.78496   3
   6   2  10 1.48518 1.86459   2
  -7  -2 -10 47.2662 7.90788   3
   7   2  10 33.2989 4.99314   2
   5  -3 -10 31.0072 6.46784   4
  -5   3  10 31.2967 6.07900   3
  -5   3  10 23.1977 3.67058   2
   4  -3 -10 -51.681 37.1048   1
   4  -3 -10 -4.8325 5.19670   4
  -4   3  10 2.41059 2.32649   2
  -4   3  10 3.54581 5.15009   3
   3  -3 -10 175.263 15.2873   4
   3  -3 -10 125.456 28.6561   1
  -3   3  10 173.559 15.6694   3
   2  -3 -10 125.317 21.3023   1
   2  -3 -10 135.342 12.5729   4
   2  -3 -10 201.203 32.6272   1
  -2   3  10 107.093 10.0110   2
  -2   3  10 148.827 13.3535   3
   1  -3 -10 58.8227 9.14641   4
   1  -3 -10 58.6880 15.4386   1
   1  -3 -10 102.191 20.1529   1
  -1   3  10 81.6387 6.26142   2
  -1   3  10 72.4384 10.2662   3
   0  -3 -10 13.0682 14.1975   1
   0  -3 -10 58.7096 17.1029   1
   0  -3 -10 16.0137 4.55765   4
   0   3  10 21.4348 5.21963   3
   0   3  10 24.8592 2.81028   2
  -1  -3 -10 35.3568 13.7158   1
  -1  -3 -10 45.4317 17.3848   1
  -1  -3 -10 40.0072 7.73895   4
   1   3  10 59.7581 8.58116   3
   1   3  10 61.1646 4.51283   2
  -2  -3 -10 307.178 34.6404   1
  -2  -3 -10 360.001 27.1059   4
  -2  -3 -10 319.733 33.7510   1
   2   3  10 406.015 26.0327   2
   2   3  10 371.359 28.0897   3
  -3  -3 -10 220.096 18.0642   4
   3   3  10 245.056 17.0269   2
  -4  -3 -10 13.7045 3.24665   4
  -4  -3 -10 16.6607 5.19263   3
   4   3  10 18.8612 2.70514   2
   5   3  10 52.2080 4.84247   2
  -6  -3 -10 142.975 14.8481   3
   6   3  10 139.142 10.9821   2
  -7  -3 -10 109.493 14.6079   3
   7   3  10 100.527 8.90287   2
   4  -4 -10 12.5832 5.98900   4
  -4   4  10 7.05892 3.11735   2
   3  -4 -10 238.122 20.6144   4
  -3   4  10 232.096 19.1552   3
   2  -4 -10 -0.7809 20.0885   1
   2  -4 -10 22.9155 5.33311   4
   2  -4 -10 69.4426 26.1515   1
  -2   4  10 17.9795 5.42188   3
  -2   4  10 15.9331 3.05065   2
   1  -4 -10 -1.1078 20.6055   1
   1  -4 -10 6.37220 4.58936   4
   1  -4 -10 -20.570 17.9130   1
  -1   4  10 12.5058 5.11239   3
   0  -4 -10 242.745 35.0953   1
   0  -4 -10 253.093 21.3717   4
   0  -4 -10 257.101 34.5526   1
   0   4  10 296.129 19.5795   2
   0   4  10 262.710 21.3530   3
  -1  -4 -10 235.813 19.1164   4
  -1  -4 -10 180.827 35.3331   1
  -1  -4 -10 215.691 32.8172   1
   1   4  10 230.507 19.3783   3
   1   4  10 262.829 17.3326   2
  -2  -4 -10 125.097 11.8481   4
  -2  -4 -10 98.0289 21.0716   1
   2   4  10 112.756 12.2024   3
   2   4  10 138.850 9.47343   2
  -3  -4 -10 27.4395 13.3158   1
  -3  -4 -10 25.3391 6.04889   3
  -3  -4 -10 34.3839 5.05695   4
   3   4  10 43.4352 3.63725   2
  -4  -4 -10 176.861 16.0633   3
  -4  -4 -10 163.939 14.1874   4
   4   4  10 190.433 13.2633   2
  -5  -4 -10 22.2321 3.57899   4
   5   4  10 31.1034 3.45332   2
  -6  -4 -10 184.787 16.4741   3
   6   4  10 165.430 13.1797   2
  -7  -4 -10 3.85013 7.07827   3
   7   4  10 3.11854 2.45983   2
   4  -5 -10 19.1496 7.12097   4
  -4   5  10 15.1633 4.30571   2
   3  -5 -10 6.35267 5.97444   4
  -3   5  10 10.2186 3.49739   2
  -3   5  10 9.21859 4.04227   3
   2  -5 -10 71.0901 10.6345   4
   2  -5 -10 24.3324 28.3896   1
   2  -5 -10 92.8629 45.2176   1
  -2   5  10 73.4110 6.94121   2
  -2   5  10 67.5382 8.45875   3
   1  -5 -10 217.080 42.1088   1
   1  -5 -10 277.573 42.0688   1
   1  -5 -10 264.412 21.2797   4
  -1   5  10 279.235 19.5168   2
  -1   5  10 248.492 20.6936   3
   0  -5 -10 57.0834 21.8554   1
   0  -5 -10 22.0571 20.4170   1
   0  -5 -10 22.1787 5.39986   4
   0   5  10 27.3614 5.40000   3
   0   5  10 29.8569 3.82794   2
  -1  -5 -10 10.1825 19.0621   1
  -1  -5 -10 21.3541 5.27484   4
  -1  -5 -10 7.29837 25.5089   1
   1   5  10 31.3901 5.50733   3
  -2  -5 -10 60.0232 9.44405   4
  -2  -5 -10 44.4037 20.4296   1
   2   5  10 82.7792 5.88586   2
   2   5  10 59.7598 9.24420   3
  -3  -5 -10 114.277 12.8453   3
  -3  -5 -10 119.435 27.7801   1
  -3  -5 -10 125.891 12.3089   4
   3   5  10 145.027 9.96307   2
  -4  -5 -10 162.184 16.4072   3
  -4  -5 -10 167.844 14.4605   4
   4   5  10 191.921 13.1918   2
  -5  -5 -10 17.2554 9.48529   3
  -5  -5 -10 14.5716 3.42021   4
   5   5  10 12.8317 2.75076   2
  -6  -5 -10 4.50627 5.63615   3
   6   5  10 4.98616 2.15606   2
  -7  -5 -10 68.1315 13.1368   3
   7   5  10 77.7074 7.08075   2
   3  -6 -10 59.7883 12.0976   4
  -3   6  10 53.0222 7.27005   2
   2  -6 -10 63.6739 11.1549   4
  -2   6  10 55.6187 6.38086   2
  -2   6  10 50.6118 6.80722   3
   1  -6 -10 -7.8137 30.5708   1
   1  -6 -10 63.2504 10.4641   4
  -1   6  10 63.3562 6.30200   2
  -1   6  10 59.2979 7.56580   3
   0  -6 -10 25.7868 8.30875   4
   0  -6 -10 38.1385 28.7130   1
   0  -6 -10 -5.8141 28.9762   1
   0   6  10 30.4868 5.41483   3
   0   6  10 38.0977 4.44571   2
  -1  -6 -10 74.5387 31.3600   1
  -1  -6 -10 30.8814 25.2400   1
  -1  -6 -10 59.8407 10.1217   4
   1   6  10 73.5719 8.64705   3
   1   6  10 74.4312 6.15546   2
  -2  -6 -10 151.639 14.7174   4
  -2  -6 -10 158.212 35.6356   1
   2   6  10 168.935 12.1342   2
   2   6  10 160.161 14.2508   3
  -3  -6 -10 65.0213 10.0252   4
   3   6  10 84.9236 6.52468   2
  -4  -6 -10 -3.8702 4.13522   4
  -4  -6 -10 -0.2244 5.24067   3
   4   6  10 3.24803 1.77553   2
  -5  -6 -10 52.8671 7.75666   4
   5   6  10 72.6657 5.93138   2
  -6  -6 -10 77.7051 11.7087   3
   6   6  10 80.3686 7.08237   2
  -7  -6 -10 91.4767 14.0099   3
   7   6  10 93.6113 8.16105   2
   2  -7 -10 0.37936 6.85377   4
  -2   7  10 5.18773 4.11975   2
   1  -7 -10 29.3102 7.44910   4
  -1   7  10 28.1602 4.25495   2
   0  -7 -10 123.500 14.1934   4
   0   7  10 130.882 10.4259   2
  -1  -7 -10 105.667 39.5865   1
  -1  -7 -10 45.2121 7.36744   4
   1   7  10 44.4518 7.23693   3
   1   7  10 51.2421 5.25896   2
  -2  -7 -10 26.1824 6.33999   4
   2   7  10 25.3215 3.55355   2
   2   7  10 15.4036 4.78333   3
  -3  -7 -10 112.094 12.5654   4
   3   7  10 121.384 9.25325   2
   3   7  10 116.160 11.9278   3
  -4  -7 -10 2.93632 5.68659   3
  -4  -7 -10 8.33437 4.79294   4
   4   7  10 6.95836 2.15869   2
  -5  -7 -10 72.1468 9.60466   4
  -5  -7 -10 81.3286 13.4806   3
   5   7  10 91.1810 7.28581   2
  -6  -7 -10 66.0474 11.9370   3
   6   7  10 74.7269 6.92312   2
   0  -8 -10 9.79054 6.94020   4
   0   8  10 12.0793 3.30502   2
  -1  -8 -10 2.74919 7.04956   4
   1   8  10 -3.1731 2.61690   2
  -2  -8 -10 16.5551 6.79811   4
   2   8  10 15.7174 4.37846   3
   2   8  10 25.4388 3.32252   2
  -3  -8 -10 78.4026 12.5872   4
   3   8  10 109.752 10.8712   3
   3   8  10 107.964 8.48579   2
  -4  -8 -10 41.1285 7.76918   3
  -4  -8 -10 49.1025 9.84747   4
   4   8  10 59.6578 5.54436   2
  -5  -8 -10 3.39297 6.09669   3
  -5  -8 -10 0.49170 5.22540   4
   5   8  10 3.49399 2.39951   2
  -6  -8 -10 4.46462 6.60490   3
  -6  -8 -10 10.0281 5.35043   4
   6   8  10 17.2484 3.19407   2
  -2  -4  11 30.1298 8.76471   3
  -1  -4  11 47.1607 9.16298   3
   4   3 -11 3.64352 5.82035   4
  -4  -3  11 7.61004 8.31582   3
   3   3 -11 35.4385 6.14431   4
  -3  -3  11 20.8567 8.96850   3
   2   3 -11 114.790 11.3194   4
  -2  -3  11 76.0277 11.5750   3
   1   3 -11 128.356 12.3247   4
  -1  -3  11 109.337 14.7218   3
   0   3 -11 7.91816 4.24626   4
   0  -3  11 0.56289 6.68384   3
   1  -3  11 36.6535 8.32220   3
   2  -3  11 117.824 13.5627   4
   2  -3  11 82.4150 14.2494   3
   5   2 -11 4.25639 5.35269   4
  -5  -2  11 5.80116 8.65896   3
   4   2 -11 123.939 12.2189   4
  -4  -2  11 87.2462 16.3622   3
   3   2 -11 141.722 12.7410   4
  -3  -2  11 100.930 15.5970   3
   2   2 -11 32.5965 5.42960   4
  -2  -2  11 27.2600 7.96081   3
   1   2 -11 0.68530 3.66576   4
  -1  -2  11 1.58435 6.60209   3
   0   2 -11 190.090 15.7513   4
   0  -2  11 182.143 20.5741   3
  -1   2 -11 57.3309 7.54677   4
   1  -2  11 40.6415 8.26160   3
  -2   2 -11 93.4473 9.13028   4
   2  -2  11 72.0145 12.3464   3
   3  -2  11 -2.2722 2.13368   2
   3  -2  11 -2.8489 6.29198   3
   5   1 -11 192.347 17.3171   4
   4   1 -11 25.2863 5.52286   4
  -4  -1  11 3.50118 8.47616   3
   3   1 -11 16.2539 4.64997   4
  -3  -1  11 9.57739 7.66792   3
   2   1 -11 72.6040 10.0872   4
  -1  -1  11 135.596 16.1655   3
   0  -1  11 153.052 15.7944   3
  -1   1 -11 22.6868 6.42991   4
   1  -1  11 17.8189 2.34261   2
   1  -1  11 22.6657 6.84052   3
   2  -1  11 21.8621 2.57613   2
   3  -1  11 139.654 14.6133   3
   3  -1  11 136.962 10.4234   2
   4  -1  11 26.3078 6.97391   3
   4  -1  11 20.9566 3.35680   2
   5   0 -11 59.4497 10.2964   4
   4   0 -11 14.6303 5.06023   4
  -4   0  11 4.30980 8.14837   3
  -3   0  11 68.6478 12.3298   3
   2   0 -11 226.975 17.9282   4
  -2   0  11 202.547 19.8600   3
   1   0 -11 29.8359 4.86904   4
  -1   0  11 35.3091 7.39590   3
   0   0 -11 -0.0848 3.26486   4
   0   0  11 0.94556 5.55888   3
  -1   0 -11 45.1883 6.89923   4
   1   0  11 46.8855 3.81275   2
   1   0  11 42.3178 7.54824   3
  -2   0 -11 219.069 16.8006   4
   2   0  11 216.019 15.5127   2
   2   0  11 200.417 18.8363   3
  -3   0 -11 143.055 11.8029   4
   3   0  11 134.380 16.0472   3
   3   0  11 143.049 10.6257   2
  -4   0 -11 3.12659 2.53204   4
   4   0  11 0.17332 1.55017   2
   4   0  11 2.85783 5.79042   3
   5   0  11 8.71134 2.17201   2
   5   0  11 19.0847 6.84897   3
   5  -1 -11 30.9969 6.19509   4
  -5   1  11 32.9567 10.0452   3
   4  -1 -11 111.265 11.6411   4
  -4   1  11 79.8257 14.1450   3
   2  -1 -11 18.3429 13.4536   1
   2  -1 -11 37.5301 5.69810   4
  -2   1  11 40.8282 7.71135   3
   1  -1 -11 136.795 12.0906   4
  -1   1  11 119.986 9.44827   2
   0  -1 -11 114.849 11.4786   4
   0   1  11 127.322 13.3412   3
  -1  -1 -11 111.898 11.4354   4
   1   1  11 132.731 9.34429   2
   1   1  11 133.717 13.5122   3
  -2  -1 -11 62.4889 7.47733   4
   2   1  11 66.4898 5.21411   2
   2   1  11 61.5254 9.88250   3
  -3  -1 -11 1.69691 2.69236   4
   3   1  11 -0.7273 1.19660   2
   3   1  11 -0.9528 4.91948   3
  -4  -1 -11 129.779 10.8371   4
   4   1  11 123.605 13.7919   3
   4   1  11 132.887 9.96019   2
  -5  -1 -11 114.232 9.65435   4
   5   1  11 114.874 9.16060   2
   5  -2 -11 84.4147 11.4062   4
  -5   2  11 64.8705 12.4319   3
   4  -2 -11 2.51459 5.30502   4
  -4   2  11 -0.7322 6.78554   3
   3  -2 -11 -18.993 16.6157   1
  -3   2  11 -7.2340 6.40441   3
   2  -2 -11 54.4877 14.5834   1
   2  -2 -11 44.5415 8.61142   4
  -2   2  11 61.7542 10.5608   3
  -2   2  11 38.0021 4.08313   2
   1  -2 -11 158.487 24.1224   1
   1  -2 -11 257.188 39.9924   1
   1  -2 -11 201.140 17.5083   4
  -1   2  11 225.463 15.4217   2
  -1   2  11 217.550 18.8965   3
   0  -2 -11 102.171 18.1559   1
   0  -2 -11 114.768 11.7117   4
   0  -2 -11 97.3734 18.1300   1
   0   2  11 133.346 12.9103   3
  -1  -2 -11 8.89567 4.10239   4
   1   2  11 12.3743 2.08782   2
   1   2  11 18.5781 5.59351   3
  -2  -2 -11 -2.4597 3.20067   4
   2   2  11 2.95439 4.66817   3
   2   2  11 3.16620 1.25986   2
  -3  -2 -11 303.218 23.7512   4
   3   2  11 308.888 25.2331   3
   3   2  11 332.345 22.8544   2
  -4  -2 -11 183.220 14.8046   4
   4   2  11 179.994 17.5181   3
   4   2  11 201.568 14.1264   2
  -5  -2 -11 13.4442 6.05930   3
  -5  -2 -11 14.2415 2.79257   4
  -6  -2 -11 23.9744 8.07153   3
   6   2  11 31.1138 4.21979   2
   4  -3 -11 32.5341 6.54781   4
  -4   3  11 30.2303 4.07572   2
  -4   3  11 35.2906 7.37948   3
   3  -3 -11 68.7052 21.5299   1
   3  -3 -11 90.1810 10.6476   4
  -3   3  11 82.2333 10.9266   3
  -3   3  11 61.3489 6.59407   2
   2  -3 -11 53.7805 18.1101   1
   2  -3 -11 86.4146 11.8432   4
  -2   3  11 73.8684 6.68831   2
  -2   3  11 87.4542 11.4665   3
   1  -3 -11 49.1970 8.89115   4
   1  -3 -11 52.6363 15.8853   1
   1  -3 -11 89.3665 23.1688   1
  -1   3  11 60.9994 5.39399   2
  -1   3  11 64.9106 10.5365   3
   0  -3 -11 16.8923 12.7568   1
   0  -3 -11 13.8112 22.9417   1
   0  -3 -11 24.8401 5.47881   4
   0   3  11 37.7771 6.35999   3
   0   3  11 34.9019 3.48492   2
  -1  -3 -11 303.295 34.8932   1
  -1  -3 -11 337.885 26.6239   4
   1   3  11 382.807 25.0939   2
   1   3  11 343.833 27.3452   3
  -2  -3 -11 2.85194 3.91859   4
   2   3  11 2.92060 4.89708   3
  -3  -3 -11 231.812 17.9614   4
   3   3  11 247.105 16.7160   2
   3   3  11 197.798 19.2779   3
  -4  -3 -11 -2.8989 2.77345   4
   4   3  11 2.65713 1.55281   2
  -5  -3 -11 93.4927 12.4234   3
  -6  -3 -11 198.645 19.4498   3
   6   3  11 197.989 15.0760   2
   4  -4 -11 262.761 22.2684   4
  -4   4  11 252.700 21.7824   3
   3  -4 -11 39.9211 28.3908   1
   3  -4 -11 24.6427 6.41576   4
  -3   4  11 20.8147 3.66197   2
  -3   4  11 25.3906 6.16611   3
   2  -4 -11 8.89658 5.36900   4
   2  -4 -11 -35.612 21.1311   1
  -2   4  11 8.08543 5.48102   3
   1  -4 -11 0.46317 18.8088   1
   1  -4 -11 20.5912 6.41306   4
   0  -4 -11 189.951 36.5093   1
   0  -4 -11 146.961 14.9800   4
   0   4  11 181.271 12.3586   2
   0   4  11 152.807 15.1452   3
  -1  -4 -11 180.423 28.3098   1
  -1  -4 -11 191.641 17.3160   4
   1   4  11 203.935 17.4714   3
   1   4  11 217.261 14.9389   2
  -2  -4 -11 7.70836 4.41887   4
  -2  -4 -11 19.7950 13.8856   1
  -2  -4 -11 -6.0138 16.6146   1
   2   4  11 14.5964 5.58190   3
  -3  -4 -11 45.5379 7.58772   4
   3   4  11 43.4828 7.56661   3
   3   4  11 54.8487 4.60400   2
  -4  -4 -11 99.4858 10.3518   4
   4   4  11 127.102 9.01220   2
  -5  -4 -11 207.557 16.6677   4
  -5  -4 -11 221.791 19.4460   3
   5   4  11 223.965 16.9789   2
  -6  -4 -11 21.4616 6.99427   3
   6   4  11 10.7909 2.53034   2
   3  -5 -11 20.9877 6.99158   4
  -3   5  11 20.1898 4.90330   3
  -3   5  11 21.3278 6.55602   2
   2  -5 -11 89.9185 12.1718   4
   2  -5 -11 52.9811 29.7399   1
  -2   5  11 81.1671 7.57815   2
  -2   5  11 78.1579 9.73042   3
   1  -5 -11 83.0308 11.4911   4
   1  -5 -11 86.2676 27.5985   1
  -1   5  11 90.6841 7.55499   2
  -1   5  11 76.9470 10.1378   3
   0  -5 -11 36.7248 21.0090   1
   0   5  11 41.8744 6.61089   3
   0   5  11 49.0524 4.82848   2
  -1  -5 -11 27.7626 17.7584   1
   1   5  11 11.1009 5.03035   3
  -2  -5 -11 122.857 13.1186   4
  -2  -5 -11 101.819 20.8222   1
   2   5  11 129.684 13.3800   3
   2   5  11 148.197 10.1597   2
  -3  -5 -11 96.6130 10.8814   4
   3   5  11 77.8522 11.4128   3
   3   5  11 114.156 8.01264   2
  -4  -5 -11 89.4613 10.1514   4
  -4  -5 -11 83.0185 16.3758   3
   4   5  11 121.295 8.40218   2
  -5  -5 -11 12.5910 3.54474   4
  -5  -5 -11 18.3428 6.42044   3
   5   5  11 12.6135 2.43550   2
  -6  -5 -11 92.9346 13.8385   3
   6   5  11 94.1199 8.02927   2
   2  -6 -11 21.9390 7.41304   4
  -2   6  11 25.7084 4.65548   3
  -2   6  11 16.6164 3.80538   2
   1  -6 -11 1.23319 5.80388   4
  -1   6  11 0.10288 2.80260   2
  -1   6  11 -2.6182 4.08996   3
   0  -6 -11 -3.4729 5.68005   4
   0  -6 -11 -4.2070 25.9348   1
   0   6  11 -0.0990 2.39781   2
   0   6  11 5.69489 4.57976   3
  -1  -6 -11 123.334 25.9762   1
  -1  -6 -11 156.581 14.8834   4
   1   6  11 165.496 11.8321   2
   1   6  11 144.883 13.8947   3
  -2  -6 -11 124.380 18.5982   4
  -2  -6 -11 79.2881 33.0954   1
   2   6  11 139.181 13.8756   3
   2   6  11 162.780 11.1054   2
  -3  -6 -11 15.6468 5.22911   4
   3   6  11 17.5534 5.76707   3
   3   6  11 15.6299 2.77051   2
  -4  -6 -11 13.6490 12.3083   3
  -4  -6 -11 13.1617 4.49491   4
  -5  -6 -11 148.522 16.7104   3
  -5  -6 -11 142.934 13.6933   4
   5   6  11 189.651 12.6098   2
  -6  -6 -11 65.4552 13.7246   3
   6   6  11 77.6183 7.19006   2
   1  -7 -11 29.8673 7.49996   4
  -1   7  11 34.5129 5.56145   2
   0  -7 -11 110.431 13.9589   4
   0   7  11 111.541 8.81743   2
   0   7  11 84.7250 9.82328   3
  -1  -7 -11 11.2170 6.33771   4
  -1  -7 -11 82.0194 32.9456   1
   1   7  11 17.7739 3.04680   2
   1   7  11 10.5945 4.71620   3
  -2  -7 -11 -4.2673 5.69682   4
   2   7  11 -1.6212 2.08943   2
   2   7  11 3.32636 4.50030   3
  -3  -7 -11 30.7623 6.67170   4
   3   7  11 46.6171 4.74375   2
   3   7  11 53.7834 9.03449   3
   4   7  11 160.130 12.3257   2
  -5  -7 -11 46.2181 8.22274   4
  -5  -7 -11 43.7273 8.69013   3
  -6  -7 -11 3.77003 8.14697   3
   6   7  11 4.60884 2.50005   2
  -1  -8 -11 5.65962 6.76581   4
   1   8  11 6.47516 2.94704   2
  -2  -8 -11 89.2461 13.2722   4
   2   8  11 77.7585 7.56767   2
  -3  -8 -11 74.7781 12.1922   4
   3   8  11 73.2529 7.09902   2
   3   8  11 80.8705 10.0271   3
  -4  -8 -11 6.04185 6.19787   4
   4   8  11 16.2528 2.85300   2
  -5  -8 -11 8.05681 7.75970   3
  -5  -8 -11 10.2254 5.61748   4
   5   8  11 12.5463 2.91785   2
   2   3 -12 39.1045 6.72276   4
  -2  -3  12 21.8711 9.16489   3
   1   3 -12 18.5350 5.62836   4
  -1  -3  12 16.6540 10.5769   3
   3   2 -12 68.1211 10.7057   4
  -3  -2  12 56.9631 11.7695   3
   2   2 -12 -0.5427 4.95975   4
  -2  -2  12 -6.3267 8.73138   3
   1   2 -12 13.0898 4.88356   4
  -1  -2  12 -3.7903 7.22785   3
   0   2 -12 26.5109 5.31028   4
   0  -2  12 20.5211 8.32972   3
  -1   2 -12 278.536 20.4217   4
   1  -2  12 210.908 22.6375   3
   2  -2  12 1.54026 7.65909   3
  -4  -1  12 13.9555 9.15231   3
   3   1 -12 2.99397 4.85344   4
  -3  -1  12 -7.0047 8.43493   3
   2   1 -12 56.6064 9.36176   4
   1   1 -12 184.919 15.2422   4
  -1  -1  12 151.013 17.9565   3
   0   1 -12 52.7435 8.19286   4
   0  -1  12 37.1803 8.90169   3
  -1   1 -12 0.83232 3.51584   4
   1  -1  12 -3.8332 6.74526   3
  -2   1 -12 59.2624 7.85793   4
   2  -1  12 60.5341 9.51172   3
  -3   1 -12 136.508 11.5895   4
   3  -1  12 113.476 15.5380   3
   4   0 -12 10.0366 5.73057   4
  -4   0  12 0.12484 10.7327   3
   3   0 -12 97.8498 11.3866   4
  -3   0  12 77.5226 12.1905   3
   2   0 -12 120.965 12.1388   4
  -2   0  12 101.316 14.9649   3
   1   0 -12 7.57214 4.38044   4
  -1   0  12 12.5900 7.37713   3
   0   0 -12 11.2160 4.28835   4
   0   0  12 15.4082 7.31829   3
  -1   0 -12 129.385 11.5821   4
   1   0  12 111.520 14.2532   3
  -2   0 -12 196.142 16.4413   4
   2   0  12 193.861 18.8928   3
   2   0  12 214.374 14.8642   2
  -3   0 -12 18.3843 3.58120   4
   3   0  12 13.3790 6.69223   3
   3   0  12 13.0759 2.09825   2
  -4   0 -12 3.17119 2.75517   4
   4   0  12 6.05607 7.06476   3
   4   0  12 0.31661 1.64783   2
   4  -1 -12 51.9269 10.5658   4
  -4   1  12 51.8052 10.9381   3
   3  -1 -12 45.1090 9.58663   4
  -3   1  12 46.0891 10.0490   3
   2  -1 -12 -0.0081 4.58223   4
  -2   1  12 3.27543 7.05121   3
   1  -1 -12 15.5409 4.97838   4
  -1   1  12 19.0134 8.96782   3
  -1  -1 -12 144.891 14.9721   4
   1   1  12 175.483 11.9917   2
  -2  -1 -12 0.52087 3.37694   4
   2   1  12 1.04064 1.33621   2
   2   1  12 0.29389 6.06179   3
  -3  -1 -12 94.8049 9.63054   4
   3   1  12 96.9596 12.9451   3
   3   1  12 109.828 8.01408   2
  -4  -1 -12 181.107 15.4621   4
   4   1  12 207.127 14.6458   2
   4   1  12 201.442 18.8236   3
  -5  -1 -12 30.7115 5.36301   4
   5   1  12 38.9688 8.15655   3
   5   1  12 32.1996 4.21885   2
   4  -2 -12 13.9690 6.38398   4
  -4   2  12 22.2341 8.81360   3
   3  -2 -12 14.9081 5.77368   4
  -3   2  12 3.75191 7.51661   3
   2  -2 -12 148.299 14.6523   4
  -2   2  12 162.601 16.7663   3
   1  -2 -12 207.968 17.2966   4
  -1   2  12 169.456 22.2598   3
  -1   2  12 199.236 14.4746   2
   0  -2 -12 14.0025 5.71052   4
   0   2  12 22.5804 2.80099   2
   0   2  12 16.0826 6.85304   3
  -1  -2 -12 41.2046 6.46673   4
   1   2  12 57.4786 4.45464   2
   1   2  12 55.9940 10.3661   3
  -2  -2 -12 61.4950 8.68041   4
   2   2  12 77.9859 5.87860   2
  -3  -2 -12 181.045 16.0521   4
   3   2  12 216.323 14.8505   2
   3   2  12 204.412 18.1598   3
  -4  -2 -12 43.8374 5.98613   4
   4   2  12 41.4478 4.32200   2
   4   2  12 39.7026 8.80396   3
  -5  -2 -12 1.14385 2.29379   4
   5   2  12 -2.1490 1.70971   2
   5   2  12 6.87157 7.80310   3
   4  -3 -12 78.1303 12.9846   4
  -4   3  12 77.1486 12.5112   3
   3  -3 -12 31.6550 6.57482   4
  -3   3  12 23.0909 7.23751   3
   2  -3 -12 70.0960 10.5874   4
  -2   3  12 62.5478 5.89583   2
   1  -3 -12 -6.6959 4.78991   4
  -1   3  12 1.49807 1.86640   2
  -1   3  12 0.66879 6.36109   3
   0   3  12 79.2553 6.41916   2
   0   3  12 76.0137 11.3344   3
  -1  -3 -12 150.261 15.2801   4
   1   3  12 181.689 12.6102   2
   1   3  12 174.828 16.0727   3
  -2  -3 -12 307.625 25.4756   4
   2   3  12 352.448 23.9485   2
  -3  -3 -12 1.68010 3.60566   4
   3   3  12 4.76141 1.69459   2
   3   3  12 3.98210 5.24214   3
  -4  -3 -12 47.1812 6.80626   4
   4   3  12 49.6385 4.76129   2
   4   3  12 49.8851 8.81148   3
  -5  -3 -12 158.536 13.4052   4
  -5  -3 -12 175.545 17.9387   3
   5   3  12 175.786 12.8989   2
   3  -4 -12 44.1212 8.22923   4
  -3   4  12 56.4504 5.91707   2
  -3   4  12 44.0503 7.75385   3
   2  -4 -12 32.9006 6.86012   4
  -2   4  12 37.2753 4.68165   2
  -2   4  12 15.8207 12.1389   3
   1  -4 -12 127.229 14.3395   4
  -1   4  12 126.539 14.3281   3
  -1   4  12 150.402 10.8216   2
   0  -4 -12 168.091 16.5360   4
   0   4  12 209.285 13.8685   2
   0   4  12 167.100 16.8348   3
   1   4  12 85.5266 10.4431   3
   1   4  12 70.4574 6.14125   2
  -2  -4 -12 161.238 15.5282   4
   2   4  12 188.256 13.1423   2
   2   4  12 176.381 16.6123   3
  -3  -4 -12 1.06558 4.20647   4
   3   4  12 1.04843 5.75619   3
  -4  -4 -12 130.132 12.2203   4
   4   4  12 160.996 10.9363   2
   4   4  12 120.487 14.6291   3
  -5  -4 -12 78.7984 13.9440   3
  -5  -4 -12 74.9048 8.10056   4
   5   4  12 86.1768 7.06422   2
  -6  -4 -12 -2.1202 6.79691   3
   6   4  12 0.87443 2.52739   2
   2  -5 -12 34.5133 8.08009   4
  -2   5  12 33.5501 7.30633   3
  -2   5  12 47.1994 5.46326   2
   1  -5 -12 27.9830 6.96199   4
  -1   5  12 32.2701 4.63173   2
  -1   5  12 32.6916 6.39542   3
   0  -5 -12 8.88156 6.13697   4
   0   5  12 8.89538 5.43370   3
   0   5  12 10.1168 2.53298   2
  -1  -5 -12 18.2189 6.24491   4
   1   5  12 26.8778 6.29604   3
   1   5  12 35.1243 3.83271   2
   2   5  12 285.509 20.4349   2
   2   5  12 272.971 23.0915   3
  -3  -5 -12 80.6181 10.3888   4
   3   5  12 96.6181 7.36944   2
   3   5  12 82.5898 12.3076   3
  -4  -5 -12 7.80628 4.07568   4
   4   5  12 7.00437 2.10390   2
   4   5  12 -5.9211 6.02301   3
  -5  -5 -12 16.0935 3.77126   4
  -5  -5 -12 25.0185 7.92608   3
  -6  -5 -12 79.7764 13.9929   3
   6   5  12 84.8249 7.61211   2
   1  -6 -12 2.85670 6.70284   4
  -1   6  12 4.34987 4.88580   3
  -1   6  12 9.07897 2.94434   2
   0  -6 -12 90.4690 13.2446   4
   0   6  12 93.4465 11.0319   3
   0   6  12 106.697 8.49874   2
  -1  -6 -12 80.5209 11.7305   4
   1   6  12 66.4822 10.0498   3
   1   6  12 79.0242 7.97283   2
  -2  -6 -12 46.4996 7.50812   4
   2   6  12 57.8644 5.47797   2
   2   6  12 51.6462 9.50224   3
  -3  -6 -12 14.4862 5.39395   4
   3   6  12 20.5580 7.14929   3
   4   6  12 64.9277 11.2544   3
   4   6  12 70.5428 6.36711   2
  -5  -6 -12 9.21803 7.82046   3
  -5  -6 -12 7.81494 4.42269   4
   5   6  12 13.0619 2.70162   2
   0  -7 -12 3.94523 6.81543   4
   0   7  12 3.41762 2.90617   2
   0   7  12 -7.2300 4.59495   3
  -1  -7 -12 14.7690 7.43035   4
   1   7  12 17.6089 3.15555   2
  -2  -7 -12 16.8156 6.88061   4
   2   7  12 20.9095 6.03838   3
   2   7  12 28.0775 4.32673   2
  -3  -7 -12 50.6084 8.24715   4
   3   7  12 82.1144 10.9496   3
   3   7  12 67.1301 6.13743   2
  -4  -7 -12 69.2418 10.8407   4
   4   7  12 95.9539 12.8242   3
   4   7  12 91.6105 7.64917   2
  -5  -7 -12 3.42720 4.42656   4
  -5  -7 -12 16.4916 8.31699   3
   5   7  12 5.62400 2.51846   2
   2   1 -13 121.626 12.2960   4
  -2  -1  13 82.9654 15.7871   3
   1   1 -13 106.025 11.7472   4
  -1  -1  13 78.9760 13.6684   3
   0   1 -13 7.50456 5.03501   4
   0  -1  13 -10.289 9.29481   3
  -1   1 -13 32.9274 5.83024   4
   1  -1  13 28.7047 9.87200   3
   3   0 -13 83.1742 11.4866   4
  -3   0  13 54.1552 11.7374   3
   2   0 -13 17.6009 6.24366   4
  -2   0  13 25.1673 10.3676   3
   1   0 -13 2.99330 5.11516   4
  -1   0  13 1.10600 8.49456   3
   0   0 -13 146.222 13.9482   4
   0   0  13 144.238 17.3753   3
  -1   0 -13 38.0076 7.89483   4
   1   0  13 29.2703 9.31642   3
  -2   0 -13 109.883 11.1977   4
   2   0  13 111.196 15.5578   3
  -3   0 -13 3.03760 3.52261   4
   3   0  13 -8.9271 6.80310   3
   3  -1 -13 14.1079 6.45174   4
  -3   1  13 6.08378 10.1619   3
   2  -1 -13 42.6577 7.27005   4
  -2   1  13 47.0129 10.0443   3
   1  -1 -13 103.177 11.9569   4
  -1   1  13 90.9167 15.4686   3
   0  -1 -13 121.282 13.0539   4
   0   1  13 127.365 15.5848   3
  -1  -1 -13 7.72340 4.47211   4
   1   1  13 9.05517 7.22284   3
  -2  -1 -13 11.8327 4.32291   4
   2   1  13 16.3741 6.97096   3
  -3  -1 -13 98.0932 10.3107   4
   3   1  13 110.103 8.30488   2
   3   1  13 107.454 15.1427   3
   4   1  13 26.9441 7.85783   3
   3  -2 -13 55.4805 11.6470   4
  -3   2  13 54.6581 11.5750   3
   2  -2 -13 121.502 13.8315   4
  -2   2  13 114.797 15.2979   3
   1  -2 -13 19.7110 6.10279   4
  -1   2  13 19.3989 7.91116   3
   0  -2 -13 -6.1542 5.02062   4
   0   2  13 -1.1609 6.90762   3
  -1  -2 -13 39.9751 6.42895   4
   1   2  13 43.3048 8.76602   3
   1   2  13 46.7333 4.13907   2
  -2  -2 -13 149.330 14.2640   4
   2   2  13 153.027 16.4773   3
   2   2  13 167.864 11.8258   2
  -3  -2 -13 91.9460 10.6649   4
   3   2  13 110.011 14.0694   3
   3   2  13 124.143 8.70814   2
  -4  -2 -13 1.72445 2.91639   4
   4   2  13 8.60713 7.30626   3
   4   2  13 2.07522 3.63881   2
   3  -3 -13 28.7553 7.01290   4
  -3   3  13 37.1794 8.91877   3
   2  -3 -13 15.8557 6.74472   4
  -2   3  13 19.4243 7.71854   3
   1  -3 -13 82.0278 11.9336   4
  -1   3  13 80.0386 13.3107   3
   0  -3 -13 44.4609 7.54897   4
   0   3  13 55.4979 4.86677   2
   0   3  13 46.9041 8.52430   3
  -1  -3 -13 78.6657 11.3418   4
   1   3  13 100.499 7.29098   2
   1   3  13 81.9945 12.5845   3
  -2  -3 -13 42.7418 9.07400   4
   2   3  13 55.4613 11.4942   3
   2   3  13 61.6660 5.05345   2
  -3  -3 -13 -3.3804 3.93425   4
   3   3  13 6.12977 6.46823   3
   3   3  13 -0.5803 1.72771   2
  -4  -3 -13 97.0651 10.3791   4
   4   3  13 106.698 14.7310   3
   2  -4 -13 13.9570 6.35029   4
  -2   4  13 12.4155 6.78959   3
   1  -4 -13 116.847 14.2278   4
  -1   4  13 136.640 9.93332   2
  -1   4  13 105.169 14.2461   3
   0  -4 -13 57.4474 11.3241   4
   0   4  13 69.0121 11.6174   3
   0   4  13 77.0497 6.31145   2
  -1  -4 -13 -9.0296 5.30297   4
   1   4  13 -3.6015 5.78816   3
   1   4  13 -0.6664 1.77194   2
  -2  -4 -13 2.21431 5.11972   4
   2   4  13 -2.5610 6.17507   3
   2   4  13 2.13759 1.74874   2
  -3  -4 -13 202.538 18.1948   4
   3   4  13 206.803 20.0334   3
   3   4  13 246.373 16.4037   2
  -4  -4 -13 102.478 11.0923   4
   4   4  13 92.7842 14.7621   3
   4   4  13 125.452 8.98480   2
   5   4  13 1.30998 2.26256   2
   5   4  13 -4.5766 6.80818   3
   1  -5 -13 19.2717 6.83509   4
  -1   5  13 16.4214 6.41458   3
   0  -5 -13 14.4575 6.86583   4
   0   5  13 18.6684 2.90060   2
   0   5  13 13.9030 6.32425   3
  -1  -5 -13 120.591 14.8107   4
   1   5  13 161.096 10.8497   2
   1   5  13 119.780 14.4796   3
  -2  -5 -13 -3.7164 5.24038   4
   2   5  13 7.02703 6.24352   3
   2   5  13 4.05508 2.01426   2
  -3  -5 -13 181.564 16.9293   4
   3   5  13 185.525 18.7215   3
   3   5  13 216.584 14.8273   2
  -4  -5 -13 -1.2301 4.21827   4
   4   5  13 0.56164 6.96934   3
   4   5  13 0.71795 2.09171   2
  -5  -5 -13 54.2452 7.87050   4
   5   5  13 70.2805 6.42375   2
   5   5  13 75.9475 13.3690   3
   0  -6 -13 68.1487 12.5315   4
   0   6  13 50.7916 10.1395   3
   0   6  13 75.9649 6.71359   2
  -1  -6 -13 90.2564 14.0976   4
   1   6  13 107.911 8.20512   2
   1   6  13 75.1260 11.7761   3
  -2  -6 -13 0.72119 6.25616   4
   2   6  13 5.95241 6.23357   3
   2   6  13 4.67078 2.28640   2
  -3  -6 -13 31.8402 6.84094   4
   3   6  13 43.1337 4.66881   2
   3   6  13 35.1791 8.17187   3
  -4  -6 -13 58.0843 9.44338   4
   4   6  13 53.5211 10.4252   3
   4   6  13 72.0423 6.32845   2
   0   0 -14 48.0492 10.2559   4
   0   0  14 47.7420 11.0363   3
   1  -1 -14 139.526 14.0823   4
  -1   1  14 107.641 16.9855   3
   0  -1 -14 29.5904 6.43885   4
   0   1  14 31.3122 9.28079   3
  -1  -1 -14 3.93948 5.27418   4
   1   1  14 0.67541 7.92659   3
  -2  -1 -14 56.9999 9.51473   4
   2   1  14 40.4063 9.19016   3
  -2   2  14 85.1679 14.3506   3
   1  -2 -14 1.36534 5.63707   4
  -1   2  14 0.20975 9.01752   3
   0  -2 -14 3.27387 6.51903   4
   0   2  14 14.7801 9.56707   3
  -1  -2 -14 105.129 13.0625   4
   1   2  14 95.2402 15.7918   3
  -2  -2 -14 130.275 13.2190   4
   2   2  14 118.386 15.6544   3
  -3  -2 -14 13.0737 4.73492   4
   3   2  14 11.0170 7.94891   3
   1  -3 -14 8.77571 6.18897   4
  -1   3  14 7.97011 8.99722   3
   0  -3 -14 216.401 19.5906   4
   0   3  14 202.747 21.0825   3
  -1  -3 -14 66.2118 11.8422   4
   1   3  14 72.1443 14.1385   3
  -2  -3 -14 -3.8132 5.22583   4
   2   3  14 7.92371 8.46044   3
   2   3  14 -1.2430 1.64244   2
  -3  -3 -14 59.6208 9.92939   4
   3   3  14 89.7947 13.2228   3
   3   3  14 73.3450 6.30809   2
   1  -4 -14 88.4821 13.6846   4
  -1   4  14 83.3050 14.3452   3
   0  -4 -14 -0.2020 6.11324   4
   0   4  14 2.95208 3.42075   2
   0   4  14 -0.2612 7.54198   3
  -1  -4 -14 18.7273 7.58383   4
   1   4  14 21.0147 8.05502   3
   1   4  14 23.0642 3.69655   2
  -2  -4 -14 26.4035 6.68456   4
   2   4  14 25.8125 8.56707   3
   2   4  14 32.8383 3.87982   2
  -3  -4 -14 121.254 13.7065   4
   3   4  14 159.116 11.0754   2
   3   4  14 129.284 16.3976   3
   0  -5 -14 36.6053 7.97523   4
   0   5  14 30.8808 8.48704   3
  -1  -5 -14 91.1538 12.7368   4
   1   5  14 84.3625 13.4082   3
  -2  -5 -14 108.429 14.6326   4
   2   5  14 138.919 10.2167   2
   2   5  14 133.932 16.0264   3
  -3  -5 -14 4.31648 5.65674   4
   3   5  14 6.73249 7.34131   3
   3   5  14 7.42270 2.36077   2
   0   0   0    0.00    0.00   0

 _exptl_absorpt_process_details
)
 SADABS 2016/2: Krause, L., Herbst-Irmer, R., Sheldrick G.M. & Stalke D.,
 J. Appl. Cryst. 48 (2015) 3-10
)
 _exptl_absorpt_correction_type   multi-scan
 _exptl_absorpt_correction_T_max  0.7457
 _exptl_absorpt_correction_T_min  0.3803
 _exptl_special_details
)
 The following wavelength and cell were deduced by SADABS from the
 direction cosines etc. They are given here for emergency use only:
 CELL 0.71082    7.143    7.446   11.004   72.850   84.780   67.912
)
;
_shelx_hkl_checksum              28946
_olex2_submission_special_instructions 'No special instructions were received'
loop_
_space_group_symop_operation_xyz
'x, y, z'
'-x, -y, -z'
loop_
_atom_site_label
_atom_site_type_symbol
_atom_site_fract_x
_atom_site_fract_y
_atom_site_fract_z
_atom_site_U_iso_or_equiv
_atom_site_adp_type
_atom_site_occupancy
_atom_site_site_symmetry_order
_atom_site_calc_flag
_atom_site_refinement_flags_posn
_atom_site_refinement_flags_adp
_atom_site_refinement_flags_occupancy
_atom_site_disorder_assembly
_atom_site_disorder_group
Br1 Br 0.88395(4) 0.31716(4) 0.93186(2) 0.01805(10) Uani 1 1 d . . . . .
O1 O 0.1841(3) 0.7365(3) 0.55327(17) 0.0181(4) Uani 1 1 d . . . . .
H1 H 0.214929 0.801890 0.483005 0.027 Uiso 1 1 calc R U . . .
N1 N 0.4117(3) 0.8684(3) 0.3859(2) 0.0137(4) Uani 1 1 d . . . . .
C1 C 0.2394(4) 1.0878(4) 0.1860(3) 0.0215(6) Uani 1 1 d . . . . .
H1A H 0.215692 0.992484 0.149699 0.032 Uiso 1 1 calc R U . . .
H1B H 0.254630 1.200065 0.116937 0.032 Uiso 1 1 calc R U . . .
H1C H 0.124210 1.140512 0.238280 0.032 Uiso 1 1 calc R U . . .
C2 C 0.4288(4) 0.9812(4) 0.2675(3) 0.0161(5) Uani 1 1 d . . . . .
C3 C 0.5753(4) 0.7680(4) 0.4655(2) 0.0129(5) Uani 1 1 d . . . . .
C4 C 0.5405(4) 0.6516(4) 0.5951(2) 0.0117(5) Uani 1 1 d . . . . .
C5 C 0.6999(4) 0.5492(4) 0.6865(2) 0.0134(5) Uani 1 1 d . . . . .
H5 H 0.831234 0.551129 0.663797 0.016 Uiso 1 1 calc R U . . .
C6 C 0.6667(4) 0.4465(4) 0.8084(2) 0.0149(5) Uani 1 1 d . . . . .
C7 C 0.4778(4) 0.4364(4) 0.8443(3) 0.0166(5) Uani 1 1 d . . . . .
H7 H 0.457241 0.364162 0.928478 0.020 Uiso 1 1 calc R U . . .
C8 C 0.7630(4) 0.7809(4) 0.4274(2) 0.0153(5) Uani 1 1 d . . . . .
H8 H 0.876732 0.711399 0.484125 0.018 Uiso 1 1 calc R U . . .
C9 C 0.7812(4) 0.8966(4) 0.3054(3) 0.0174(5) Uani 1 1 d . . . . .
H9 H 0.907917 0.907118 0.277578 0.021 Uiso 1 1 calc R U . . .
C10 C 0.6135(4) 0.9969(4) 0.2244(2) 0.0171(5) Uani 1 1 d . . . . .
H10 H 0.624315 1.075630 0.140215 0.020 Uiso 1 1 calc R U . . .
C11 C 0.3205(4) 0.5331(4) 0.7557(2) 0.0157(5) Uani 1 1 d . . . . .
H11 H 0.191332 0.525634 0.779312 0.019 Uiso 1 1 calc R U . . .
C12 C 0.3478(4) 0.6421(4) 0.6318(2) 0.0144(5) Uani 1 1 d . . . . .
loop_
_atom_site_aniso_label
_atom_site_aniso_U_11
_atom_site_aniso_U_22
_atom_site_aniso_U_33
_atom_site_aniso_U_23
_atom_site_aniso_U_13
_atom_site_aniso_U_12
Br1 0.01672(15) 0.02321(16) 0.01272(15) -0.00229(10) -0.00424(9) -0.00673(11)
O1 0.0135(9) 0.0245(10) 0.0160(10) -0.0001(8) -0.0038(7) -0.0099(8)
N1 0.0140(10) 0.0152(10) 0.0144(10) -0.0041(8) -0.0029(8) -0.0075(9)
C1 0.0234(14) 0.0213(14) 0.0198(14) 0.0016(11) -0.0081(11) -0.0120(12)
C2 0.0203(13) 0.0130(12) 0.0179(13) -0.0042(10) -0.0036(10) -0.0085(10)
C3 0.0139(12) 0.0127(11) 0.0152(12) -0.0064(9) -0.0019(9) -0.0059(10)
C4 0.0117(11) 0.0123(11) 0.0127(12) -0.0050(9) -0.0019(9) -0.0044(9)
C5 0.0124(12) 0.0140(12) 0.0152(12) -0.0060(10) -0.0013(9) -0.0045(10)
C6 0.0151(12) 0.0144(12) 0.0153(12) -0.0045(10) -0.0036(9) -0.0044(10)
C7 0.0194(13) 0.0162(12) 0.0130(12) -0.0028(10) 0.0012(10) -0.0066(10)
C8 0.0139(12) 0.0194(13) 0.0149(12) -0.0058(10) -0.0022(9) -0.0073(10)
C9 0.0161(13) 0.0212(13) 0.0188(13) -0.0071(11) 0.0030(10) -0.0107(11)
C10 0.0224(14) 0.0172(13) 0.0124(12) -0.0001(10) -0.0023(10) -0.0105(11)
C11 0.0145(12) 0.0156(12) 0.0189(13) -0.0051(10) 0.0025(10) -0.0078(10)
C12 0.0120(12) 0.0164(12) 0.0172(13) -0.0066(10) -0.0031(9) -0.0057(10)
loop_
_atom_type_symbol
_atom_type_description
_atom_type_scat_dispersion_real
_atom_type_scat_dispersion_imag
_atom_type_scat_source
C C 0.0033 0.0016 'International Tables Vol C Tables 4.2.6.8 and 6.1.1.4'
H H 0.0000 0.0000 'International Tables Vol C Tables 4.2.6.8 and 6.1.1.4'
Br Br -0.2901 2.4595 'International Tables Vol C Tables 4.2.6.8 and 6.1.1.4'
N N 0.0061 0.0033 'International Tables Vol C Tables 4.2.6.8 and 6.1.1.4'
O O 0.0106 0.0060 'International Tables Vol C Tables 4.2.6.8 and 6.1.1.4'
loop_
_geom_angle_atom_site_label_1
_geom_angle_atom_site_label_2
_geom_angle_atom_site_label_3
_geom_angle
_geom_angle_site_symmetry_1
_geom_angle_site_symmetry_3
_geom_angle_publ_flag
C12 O1 H1 109.5 . . ?
C2 N1 C3 120.2(2) . . ?
H1A C1 H1B 109.5 . . ?
H1A C1 H1C 109.5 . . ?
H1B C1 H1C 109.5 . . ?
C2 C1 H1A 109.5 . . ?
C2 C1 H1B 109.5 . . ?
C2 C1 H1C 109.5 . . ?
N1 C2 C1 116.5(2) . . ?
N1 C2 C10 121.0(2) . . ?
C10 C2 C1 122.5(2) . . ?
N1 C3 C4 116.3(2) . . ?
N1 C3 C8 121.0(2) . . ?
C8 C3 C4 122.7(2) . . ?
C5 C4 C3 120.4(2) . . ?
C5 C4 C12 118.0(2) . . ?
C12 C4 C3 121.6(2) . . ?
C4 C5 H5 119.7 . . ?
C6 C5 C4 120.6(2) . . ?
C6 C5 H5 119.7 . . ?
C5 C6 Br1 119.53(19) . . ?
C5 C6 C7 121.4(2) . . ?
C7 C6 Br1 119.1(2) . . ?
C6 C7 H7 120.6 . . ?
C11 C7 C6 118.9(2) . . ?
C11 C7 H7 120.6 . . ?
C3 C8 H8 120.5 . . ?
C9 C8 C3 119.0(2) . . ?
C9 C8 H8 120.5 . . ?
C8 C9 H9 120.2 . . ?
C10 C9 C8 119.6(2) . . ?
C10 C9 H9 120.2 . . ?
C2 C10 H10 120.4 . . ?
C9 C10 C2 119.3(3) . . ?
C9 C10 H10 120.4 . . ?
C7 C11 H11 119.4 . . ?
C7 C11 C12 121.2(2) . . ?
C12 C11 H11 119.4 . . ?
O1 C12 C4 123.2(2) . . ?
O1 C12 C11 116.9(2) . . ?
C11 C12 C4 119.8(2) . . ?
loop_
_geom_bond_atom_site_label_1
_geom_bond_atom_site_label_2
_geom_bond_distance
_geom_bond_site_symmetry_2
_geom_bond_publ_flag
Br1 C6 1.915(3) . ?
O1 H1 0.8400 . ?
O1 C12 1.347(3) . ?
N1 C2 1.344(3) . ?
N1 C3 1.354(3) . ?
C1 H1A 0.9800 . ?
C1 H1B 0.9800 . ?
C1 H1C 0.9800 . ?
C1 C2 1.502(4) . ?
C2 C10 1.391(4) . ?
C3 C4 1.482(4) . ?
C3 C8 1.394(3) . ?
C4 C5 1.410(3) . ?
C4 C12 1.416(3) . ?
C5 H5 0.9500 . ?
C5 C6 1.379(4) . ?
C6 C7 1.390(4) . ?
C7 H7 0.9500 . ?
C7 C11 1.381(4) . ?
C8 H8 0.9500 . ?
C8 C9 1.385(4) . ?
C9 H9 0.9500 . ?
C9 C10 1.384(4) . ?
C10 H10 0.9500 . ?
C11 H11 0.9500 . ?
C11 C12 1.400(4) . ?
loop_
_geom_torsion_atom_site_label_1
_geom_torsion_atom_site_label_2
_geom_torsion_atom_site_label_3
_geom_torsion_atom_site_label_4
_geom_torsion
_geom_torsion_site_symmetry_1
_geom_torsion_site_symmetry_2
_geom_torsion_site_symmetry_3
_geom_torsion_site_symmetry_4
_geom_torsion_publ_flag
Br1 C6 C7 C11 178.76(19) . . . . ?
N1 C2 C10 C9 -0.8(4) . . . . ?
N1 C3 C4 C5 -177.3(2) . . . . ?
N1 C3 C4 C12 1.6(3) . . . . ?
N1 C3 C8 C9 -0.7(4) . . . . ?
C1 C2 C10 C9 179.1(2) . . . . ?
C2 N1 C3 C4 178.6(2) . . . . ?
C2 N1 C3 C8 0.6(4) . . . . ?
C3 N1 C2 C1 -179.7(2) . . . . ?
C3 N1 C2 C10 0.2(4) . . . . ?
C3 C4 C5 C6 177.8(2) . . . . ?
C3 C4 C12 O1 -0.1(4) . . . . ?
C3 C4 C12 C11 -178.9(2) . . . . ?
C3 C8 C9 C10 0.1(4) . . . . ?
C4 C3 C8 C9 -178.6(2) . . . . ?
C4 C5 C6 Br1 -177.80(18) . . . . ?
C4 C5 C6 C7 1.5(4) . . . . ?
C5 C4 C12 O1 178.9(2) . . . . ?
C5 C4 C12 C11 0.0(4) . . . . ?
C5 C6 C7 C11 -0.5(4) . . . . ?
C6 C7 C11 C12 -0.7(4) . . . . ?
C7 C11 C12 O1 -178.0(2) . . . . ?
C7 C11 C12 C4 1.0(4) . . . . ?
C8 C3 C4 C5 0.6(4) . . . . ?
C8 C3 C4 C12 179.6(2) . . . . ?
C8 C9 C10 C2 0.7(4) . . . . ?
C12 C4 C5 C6 -1.2(4) . . . . ?
