#------------------------------------------------------------------------------
#$Date: 2022-08-31 00:56:23 +0300 (Wed, 31 Aug 2022) $
#$Revision: 277467 $
#$URL: file:///home/coder/svn-repositories/cod/cif/7/13/06/7130616.cif $
#------------------------------------------------------------------------------
#
# This file is available in the Crystallography Open Database (COD),
# http://www.crystallography.net/
#
# All data on this site have been placed in the public domain by the
# contributors.
#
data_7130616
loop_
_publ_author_name
'Dhaka, Arun'
'Jeannin, olivier'
'Aubert, Emmanuel'
'Espinosa, Enrique'
'Fourmigu\'e, Marc'
'Jeon, Ie-Rang'
_publ_section_title
;
 N-chlorobenzimidazoles as efficient and structurally diverse amphoteric
 halogen bond donors in crystal engineering
;
_journal_name_full               'Chemical Communications'
_journal_paper_doi               10.1039/D2CC03971K
_journal_year                    2022
_chemical_formula_moiety         'C7 H4 Cl2 N2'
_chemical_formula_sum            'C7 H4 Cl2 N2'
_chemical_formula_weight         187.02
_space_group_IT_number           14
_space_group_name_Hall           '-P 2yn'
_space_group_name_H-M_alt        'P 1 21/n 1'
_symmetry_cell_setting           monoclinic
_symmetry_Int_Tables_number      14
_symmetry_space_group_name_Hall  '-P 2yn'
_symmetry_space_group_name_H-M   'P 1 21/n 1'
_atom_sites_solution_hydrogens   geom
_audit_conform_dict_location     ftp://ftp.iucr.org/pub/cif_core.dic
_audit_conform_dict_name         cif_core.dic
_audit_conform_dict_version      2.4.3
_audit_creation_date             2022-05-16T10:48:41-00:00
_audit_creation_method           'WinGX routine CIF_UPDATE'
_audit_update_record
;
2022-05-17 deposited with the CCDC.	2022-08-24 downloaded from the CCDC.
;
_cell_angle_alpha                90
_cell_angle_beta                 98.837(9)
_cell_angle_gamma                90
_cell_formula_units_Z            4
_cell_length_a                   7.9412(15)
_cell_length_b                   9.2207(16)
_cell_length_c                   10.7738(15)
_cell_measurement_reflns_used    1290
_cell_measurement_temperature    296(2)
_cell_measurement_theta_max      23.8
_cell_measurement_theta_min      2.92
_cell_measurement_wavelength     0.71073
_cell_volume                     779.5(2)
_computing_molecular_graphics    'Ortep for Windows (Farrugia, 2012)'
_computing_publication_material  'WinGX publication routines (Farrugia, 2012)'
_computing_structure_refinement  'SHELXL-2014/7 (Sheldrick, 2014)'
_diffrn_ambient_temperature      296(2)
_diffrn_detector                 'CCD plate'
_diffrn_measured_fraction_theta_full 0.985
_diffrn_measured_fraction_theta_max 0.98
_diffrn_measurement_device_type  'APEXII, Bruker-AXS'
_diffrn_measurement_method       'CCD rotation images, thick slices'
_diffrn_orient_matrix_UB_11      0.109692
_diffrn_orient_matrix_UB_12      -0.011154
_diffrn_orient_matrix_UB_13      0.058693
_diffrn_orient_matrix_UB_21      -0.060614
_diffrn_orient_matrix_UB_22      -0.055456
_diffrn_orient_matrix_UB_23      0.059571
_diffrn_orient_matrix_UB_31      0.023105
_diffrn_orient_matrix_UB_32      -0.092531
_diffrn_orient_matrix_UB_33      -0.042777
_diffrn_radiation_probe          x-ray
_diffrn_radiation_source         'fine-focus sealed tube'
_diffrn_radiation_type           MoK\a
_diffrn_radiation_wavelength     0.71073
_diffrn_reflns_av_R_equivalents  0.0291
_diffrn_reflns_av_unetI/netI     0.043
_diffrn_reflns_Laue_measured_fraction_full 0.985
_diffrn_reflns_Laue_measured_fraction_max 0.98
_diffrn_reflns_limit_h_max       10
_diffrn_reflns_limit_h_min       -10
_diffrn_reflns_limit_k_max       11
_diffrn_reflns_limit_k_min       -11
_diffrn_reflns_limit_l_max       13
_diffrn_reflns_limit_l_min       -13
_diffrn_reflns_number            4738
_diffrn_reflns_point_group_measured_fraction_full 0.985
_diffrn_reflns_point_group_measured_fraction_max 0.98
_diffrn_reflns_theta_full        25.242
_diffrn_reflns_theta_max         27.481
_diffrn_reflns_theta_min         2.923
_exptl_absorpt_coefficient_mu    0.759
_exptl_absorpt_correction_T_max  0.977
_exptl_absorpt_correction_T_min  0.921
_exptl_absorpt_correction_type   multi-scan
_exptl_absorpt_process_details
;
  [Sheldrick, G.M. (2014). SADABS Bruker AXS Inc., Madison, Wisconsin, USA]
;
_exptl_crystal_colour            colorless
_exptl_crystal_density_diffrn    1.594
_exptl_crystal_density_method    'not measured'
_exptl_crystal_description       prism
_exptl_crystal_F_000             376
_exptl_crystal_size_max          0.18
_exptl_crystal_size_mid          0.09
_exptl_crystal_size_min          0.03
_refine_diff_density_max         0.267
_refine_diff_density_min         -0.205
_refine_diff_density_rms         0.052
_refine_ls_extinction_method     none
_refine_ls_goodness_of_fit_ref   1.043
_refine_ls_hydrogen_treatment    constr
_refine_ls_matrix_type           full
_refine_ls_number_constraints    0
_refine_ls_number_parameters     100
_refine_ls_number_reflns         1745
_refine_ls_number_restraints     0
_refine_ls_restrained_S_all      1.043
_refine_ls_R_factor_all          0.079
_refine_ls_R_factor_gt           0.0403
_refine_ls_shift/su_max          0
_refine_ls_shift/su_mean         0
_refine_ls_structure_factor_coef Fsqd
_refine_ls_weighting_details
'w=1/[\s^2^(Fo^2^)+(0.0282P)^2^+0.3414P] where P=(Fo^2^+2Fc^2^)/3'
_refine_ls_weighting_scheme      calc
_refine_ls_wR_factor_gt          0.0788
_refine_ls_wR_factor_ref         0.0935
_reflns_Friedel_coverage         0
_reflns_number_gt                1147
_reflns_number_total             1745
_reflns_threshold_expression     'I > 2\s(I)'
_cod_data_source_file            d2cc03971k2.cif
_cod_data_source_block           shelx_CCDC1
_cod_original_sg_symbol_H-M      'P 21/n'
_cod_database_code               7130616
_shelx_res_file
;
 
    shelx.res created by SHELXL-2014/7
 
TITL SIR2014 run in space group P 21/n
CELL  0.71073   7.9412   9.2207  10.7738   90.000   98.837   90.000
ZERR     4.00   0.0015   0.0016   0.0015    0.000    0.009    0.000
LATT   1
SYMM  1/2 - X, 1/2 + Y, 1/2 - Z
SFAC  C    H    N    CL
UNIT  28 16 8 8
MERG   2
FMAP   2
PLAN   25
ACTA
BOND   $H
CONF
L.S.  10
WGHT    0.028200    0.341400
FVAR       0.67233
C1    1    0.462117    0.006963    0.704496    11.00000    0.04004    0.04831 =
         0.04009   -0.00114    0.00565    0.00244
C2    1    0.474660   -0.128279    0.761712    11.00000    0.05356    0.05913 =
         0.05287    0.00899    0.01053    0.01074
AFIX  43
H2    2    0.552391   -0.144792    0.834125    11.00000   -1.20000
AFIX   0
C3    1    0.369778   -0.236652    0.708876    11.00000    0.07070    0.05090 =
         0.07294    0.00367    0.03192    0.00201
AFIX  43
H3    2    0.376280   -0.327708    0.746433    11.00000   -1.20000
AFIX   0
C4    1    0.253419   -0.213650    0.600039    11.00000    0.06816    0.05859 =
         0.07029   -0.01483    0.02650   -0.01633
AFIX  43
H4    2    0.184603   -0.289994    0.566364    11.00000   -1.20000
AFIX   0
C5    1    0.237658   -0.080607    0.540962    11.00000    0.04811    0.06772 =
         0.05037   -0.01068    0.00789   -0.00462
AFIX  43
H5    2    0.159978   -0.064506    0.468444    11.00000   -1.20000
AFIX   0
C6    1    0.344113    0.026910    0.596044    11.00000    0.03934    0.04771 =
         0.03766   -0.00325    0.00865    0.00045
C7    1    0.486917    0.227691    0.654563    11.00000    0.04305    0.04667 =
         0.04173   -0.00452    0.00209    0.00088
N1    3    0.550268    0.133876    0.738431    11.00000    0.04703    0.05308 =
         0.03844    0.00240   -0.00712    0.00189
N2    3    0.363134    0.171103    0.565855    11.00000    0.04000    0.05206 =
         0.03592    0.00135   -0.00228    0.00392
CL1   4    0.245180    0.258696    0.444865    11.00000    0.04635    0.06463 =
         0.03953    0.00568   -0.00309    0.00828
CL2   4    0.543392    0.403496    0.649643    11.00000    0.07836    0.04937 =
         0.06583    0.00065   -0.00518   -0.00843
HKLF    4
 
REM  SIR2014 run in space group P 21/n
REM R1 =  0.0403 for    1147 Fo > 4sig(Fo)  and  0.0790 for all    1745 data
REM    100 parameters refined using      0 restraints
 
END
 
WGHT      0.0282      0.3414
 
REM Highest difference peak  0.267,  deepest hole -0.205,  1-sigma level  0.052
Q1    1   0.3919  0.0359  0.6621  11.00000  0.05    0.27
Q2    1   0.4167 -0.0373  0.7444  11.00000  0.05    0.24
Q3    1   0.3976 -0.3618  0.7540  11.00000  0.05    0.21
Q4    1   0.2886 -0.1612  0.5537  11.00000  0.05    0.20
Q5    1   0.6092  0.1491  0.7871  11.00000  0.05    0.20
Q6    1   0.3389  0.0929  0.5783  11.00000  0.05    0.20
Q7    1   0.3106  0.2137  0.5369  11.00000  0.05    0.19
Q8    1   0.5026  0.1761  0.7069  11.00000  0.05    0.19
Q9    1   0.3383 -0.0496  0.5666  11.00000  0.05    0.19
Q10   1   0.5482  0.0612  0.7316  11.00000  0.05    0.18
Q11   1   0.4676  0.3714  0.5592  11.00000  0.05    0.18
Q12   1   0.5294  0.0932  0.6494  11.00000  0.05    0.17
Q13   1   0.4788  0.0849  0.7446  11.00000  0.05    0.17
Q14   1   0.4458  0.4319  0.5980  11.00000  0.05    0.17
Q15   1   0.1738 -0.3577  0.5221  11.00000  0.05    0.17
Q16   1   0.3588 -0.1959  0.7965  11.00000  0.05    0.17
Q17   1   0.3455 -0.2221  0.6376  11.00000  0.05    0.16
Q18   1   0.2940 -0.2039  0.6773  11.00000  0.05    0.16
Q19   1   0.1935  0.1315  0.4280  11.00000  0.05    0.16
Q20   1   0.3252  0.3954  0.4359  11.00000  0.05    0.15
Q21   1   0.4513  0.3942  0.7302  11.00000  0.05    0.15
Q22   1   0.3864  0.2426  0.7095  11.00000  0.05    0.15
Q23   1   0.3967  0.2364  0.6121  11.00000  0.05    0.15
Q24   1   0.4148  0.1664  0.5189  11.00000  0.05    0.15
Q25   1   0.1145 -0.4420  0.5894  11.00000  0.05    0.15
;
_shelx_res_checksum              47922
_shelx_hkl_file
;
   1   0   0    0.14    0.42   1
  -1   0   0   -0.23    0.52   1
   2   0   0   74.42    3.45   1
  -2   0   0   70.92    3.30   1
   3   0   0   -2.68    1.13   1
  -3   0   0   -2.11    1.35   1
   4   0   0 1595.36   37.23   1
  -4   0   0 1574.67   37.37   1
  -5   0   0   -1.32    1.22   1
  -6   0   0   83.77    6.48   1
  -6   0   0   94.82    6.42   4
  -7   0   0    1.23    2.80   1
  -7   0   0   -3.73    2.23   4
  -8   0   0  101.56    7.87   4
  -8   0   0  105.21    8.23   1
  -9   0   0    3.87    4.15   1
 -10   0   0   72.21    9.68   1
   0  -1   0    0.27    0.32   3
   0   1   0   -0.13    0.37   3
   1  -1   0  255.85    6.54   3
   1  -1   0  252.47    6.68   1
  -1   1   0  261.05    6.55   3
   1   1   0  256.45    6.81   1
  -1   1   0  264.49    6.75   1
  -2  -1   0  198.84    6.52   1
   2  -1   0  213.11    6.62   1
   2   1   0  204.01    6.60   1
  -2   1   0  216.97    6.67   1
  -3  -1   0   59.05    3.83   1
  -3  -1   0   50.54    3.02   4
   3  -1   0   50.24    3.51   1
   3   1   0   51.43    3.54   1
  -3   1   0   59.39    3.59   1
   4  -1   0  243.37    9.09   1
  -4  -1   0  238.19    8.23   4
  -4  -1   0  259.93    9.47   1
  -4   1   0  242.72    9.10   1
   4   1   0  257.36    9.26   1
  -5  -1   0   -0.19    1.96   1
  -5  -1   0   -0.26    1.47   4
  -5   1   0    2.43    2.27   1
  -6  -1   0  115.93    7.18   1
  -6  -1   0  114.29    6.34   4
  -6   1   0  103.28    7.17   1
  -7  -1   0   35.16    5.44   1
  -7   1   0   37.99    6.00   4
  -7   1   0   42.60    6.08   1
  -8  -1   0    6.15    3.98   1
  -8   1   0   -0.91    3.35   1
  -8   1   0   -1.92    3.06   4
   9  -1   0    3.39    3.46   3
  -9  -1   0    2.71    3.17   1
  -9   1   0   10.84    4.99   1
  -9   1   0    0.46    3.83   4
  10  -1   0    7.19    4.86   3
 -10  -1   0   -5.66    3.64   1
 -10   1   0   -7.39    3.91   1
   0  -2   0 1777.34   37.87   3
   0   2   0 1737.55   37.80   3
   1  -2   0   10.83    1.54   3
  -1   2   0    7.08    1.30   1
  -1   2   0    7.90    1.33   3
   2  -2   0 1637.59   36.06   1
   2  -2   0 1629.26   35.71   3
  -2   2   0 1609.15   35.62   3
   2   2   0 1616.79   36.26   1
  -2   2   0 1592.43   36.04   1
   3  -2   0  558.27   14.86   3
  -3  -2   0  550.30   15.49   1
   3  -2   0  578.06   15.29   1
   3   2   0  570.96   15.46   1
  -3   2   0  545.78   15.21   1
  -4  -2   0  234.84    9.16   1
   4  -2   0  236.70    8.97   1
   4  -2   0  247.14    8.89   3
  -4   2   0  237.97    9.18   1
   4   2   0  226.82    8.96   1
  -5  -2   0   55.66    5.57   1
   5  -2   0   54.13    5.18   3
  -5   2   0   40.21    4.83   1
   6  -2   0  167.99    8.41   3
  -6  -2   0  151.05    8.51   1
  -6   2   0  149.71    8.32   1
  -7  -2   0   22.41    4.88   1
   7  -2   0   28.29    4.82   3
  -7   2   0   23.57    4.99   1
   8  -2   0  150.05    9.49   3
  -8  -2   0  135.84   10.04   1
  -8   2   0  131.04   10.04   4
  -8   2   0  141.43   10.04   1
   9  -2   0    0.03    3.04   3
  -9  -2   0   -1.18    3.89   1
  -9   2   0    0.65    4.25   4
  -9   2   0    3.67    4.47   1
  10  -2   0    4.47    3.66   3
 -10  -2   0    2.64    5.19   1
 -10   2   0    0.97    4.51   1
   0  -3   0    0.48    1.25   3
   0   3   0   -0.82    1.10   3
   1  -3   0   93.76    4.19   3
   1   3   0   90.02    4.44   3
  -1   3   0  103.99    4.30   3
   2  -3   0   16.03    2.30   3
  -2   3   0   22.77    2.82   1
  -2   3   0   16.16    2.21   3
   3  -3   0    2.60    1.58   1
   3  -3   0   -0.75    1.27   3
  -3   3   0   -5.11    1.17   1
  -3   3   0    0.66    1.41   3
   3   3   0    0.71    1.54   1
   4  -3   0  623.81   17.62   3
  -4   3   0  657.06   18.49   1
   5  -3   0    6.26    2.43   3
  -5   3   0    5.11    2.36   1
   6  -3   0  113.18    6.98   3
  -6   3   0  100.85    7.29   1
   7  -3   0    3.48    2.80   3
  -7   3   0    6.33    3.46   1
   8  -3   0   42.35    6.06   3
  -8   3   0   33.43    6.10   1
   9  -3   0    1.85    3.51   3
  -9   3   0    1.90    3.88   1
  -9   3   0    0.33    4.25   4
   0  -4   0  100.95    5.08   3
   0   4   0  114.23    5.04   3
   1  -4   0   32.22    3.32   3
   1   4   0   31.15    3.45   3
  -1   4   0   33.37    3.31   3
   2  -4   0 1485.38   30.99   2
   2  -4   0 1464.89   34.42   3
   2   4   0 1495.41   35.36   3
  -2   4   0 1506.64   34.94   1
  -2   4   0 1494.93   34.40   3
   3  -4   0   12.47    2.53   3
  -3   4   0   15.53    2.70   3
  -3   4   0   12.23    2.44   1
   3   4   0    9.24    2.46   1
   4  -4   0   72.38    4.94   3
  -4   4   0   76.30    5.21   1
   5  -4   0  112.57    6.80   3
  -5   4   0  120.86    7.31   1
   6  -4   0   29.55    4.55   3
  -6   4   0   22.89    4.75   1
   7  -4   0    1.27    2.69   3
  -7   4   0    2.51    3.28   1
   8  -4   0   88.28    7.51   3
  -8   4   0   71.31    8.48   1
   9  -4   0    2.91    3.15   3
  -9   4   0    5.40    4.56   1
   0  -5   0    1.69    1.44   3
   0   5   0   -0.50    1.45   3
   1  -5   0  812.17   21.14   3
   1   5   0  830.45   21.56   3
  -1   5   0  768.96   20.70   3
   2  -5   0    0.84    1.53   3
  -2   5   0   -1.00    1.36   3
   2   5   0    0.59    1.74   3
  -2   5   0    3.66    1.93   1
   3  -5   0   20.24    1.34   2
   3  -5   0   29.13    3.73   3
  -3   5   0   23.47    3.43   1
  -3   5   0   17.32    3.02   3
   4  -5   0   53.79    5.43   3
  -4   5   0   43.57    4.79   3
  -4   5   0   49.99    5.51   1
   5  -5   0    1.83    2.26   3
  -5   5   0    1.55    2.21   1
   6  -5   0   21.44    4.36   3
  -6   5   0   14.25    4.06   1
   7  -5   0    3.05    3.12   3
  -7   5   0   -0.03    3.43   1
   8  -5   0    5.70    3.69   3
  -8   5   0    4.30    4.28   1
   9  -5   0    2.71    3.66   3
  -9   5   0    3.92    3.42   1
   0  -6   0  613.00   17.77   3
   0   6   0  565.11   17.20   3
   1  -6   0   44.88    4.86   3
  -1   6   0   50.05    4.86   3
   2  -6   0   42.13    4.78   3
  -2   6   0   39.88    4.45   3
  -2   6   0   41.20    4.77   1
   3  -6   0   54.05    5.53   3
  -3   6   0   54.36    5.69   1
   4  -6   0  323.46    8.14   2
   4  -6   0  353.63   12.72   3
  -4   6   0  325.30   13.04   1
   5  -6   0   32.31    5.08   3
  -5   6   0   26.84    4.92   1
   6  -6   0   67.58    7.19   3
  -6   6   0   71.27    7.66   1
   7  -6   0   25.54    5.29   3
  -7   6   0   32.68    5.97   1
   8  -6   0   18.65    4.99   3
  -8   6   0   23.71    6.11   1
   0  -7   0   -0.23    2.13   3
   1  -7   0  137.10    7.68   3
   2  -7   0  241.60   10.48   3
  -2   7   0  242.75   10.52   1
   3  -7   0   24.79    4.34   3
  -3   7   0   22.03    4.47   1
   4  -7   0   16.42    3.85   3
  -4   7   0   22.61    4.13   1
   5  -7   0    6.40    3.43   3
  -5   7   0    9.22    3.48   1
   6  -7   0   18.84    4.52   3
  -6   7   0   11.69    4.45   1
   7  -7   0    6.23    3.80   3
  -7   7   0    6.05    4.17   1
   8  -7   0    6.94    3.91   3
  -8   7   0    4.67    4.48   1
   1  -8   0   77.65    7.56   3
   2  -8   0    0.63    2.65   3
  -2   8   0    1.68    2.17   1
   3  -8   0  117.80    7.97   3
  -3   8   0  133.61    8.51   1
   4  -8   0   49.37    6.43   3
  -4   8   0   50.99    6.56   1
   5  -8   0   34.31    5.63   3
  -5   8   0   21.85    5.27   1
   6  -8   0    6.50    3.93   3
  -6   8   0   11.42    5.02   1
   7  -8   0   37.16    6.50   3
  -7   8   0   35.31    6.87   1
   1  -9   0   -0.42    2.53   3
   2  -9   0    0.24    2.71   3
  -2   9   0   -0.08    2.86   1
   3  -9   0    2.14    3.26   3
  -3   9   0    9.71    3.99   1
   4  -9   0   -0.27    2.99   3
  -4   9   0    2.78    2.74   1
   5  -9   0    6.20    3.75   3
  -5   9   0    4.86    4.11   1
   6  -9   0    1.59    3.46   3
  -6   9   0   -3.03    3.75   1
   2 -10   0   58.52    7.41   3
  -2  10   0   58.17    7.61   1
   3 -10   0    4.48    3.57   3
  -3  10   0   -2.19    3.18   1
   4 -10   0    3.57    3.67   3
  -4  10   0    0.27    3.20   1
   5 -10   0    3.60    3.63   3
  -5  10   0   -0.04    3.75   1
  -1  11   0   49.87    7.53   1
   2 -11   0    1.63    3.55   3
  -2  11   0   -1.08    3.51   1
   3 -11   0   10.30    4.64   3
  -3  11   0   16.58    5.35   1
   4 -11   0    5.85    4.21   3
  -4  11   0    3.64    4.13   1
 -10   0   1    7.28    5.10   1
  -9   0   1   40.77    6.89   1
  -8   0   1   -2.87    3.13   1
  -7   0   1   55.53    6.68   4
  -7   0   1   51.58    6.62   1
  -6   0   1    0.28    2.33   1
  -6   0   1   -1.72    2.39   4
  -5   0   1  270.33   10.69   4
  -5   0   1  265.44   10.51   1
   4   0  -1    0.36    1.14   1
  -4   0   1   -0.93    1.56   4
  -4   0   1   -0.01    1.74   1
  -3   0   1   51.16    3.29   1
  -3   0   1   55.59    3.67   4
   3   0  -1   44.08    3.04   1
   2   0  -1    1.09    1.11   1
  -2   0   1    0.87    0.90   1
  -2   0   1    0.30    1.37   4
  -1   0   1 1338.44   28.26   1
   1   0  -1 1318.48   28.23   1
   1   0  -1 1327.10   28.97   4
   0   0  -1    0.10    0.24   3
   0   0  -1   -0.31    0.33   2
   0   0   1   -0.51    0.27   2
   0   0   1    0.21    0.30   3
   1   0   1 3889.68   84.33   1
  -1   0  -1 3874.67   87.00   1
  -2   0  -1    2.97    1.11   1
   2   0   1    0.24    1.12   1
  -3   0  -1   10.60    2.24   1
   3   0   1   12.20    2.31   1
  -4   0  -1    0.05    1.20   1
   4   0   1    0.48    1.17   1
  -5   0  -1  397.55   13.69   1
  -6   0  -1    0.13    2.45   1
  -7   0  -1   39.96    6.06   1
  -7   0  -1   39.16    5.38   4
  -8   0  -1    0.20    2.74   4
  -8   0  -1    0.39    3.42   1
  -9   0  -1    4.07    4.02   1
 -10   0  -1    0.48    4.15   1
 -10  -1   1    1.69    4.84   1
  10  -1  -1    4.91    4.12   3
 -10   1   1   12.18    5.34   1
  -9  -1   1    8.52    4.75   1
  -9   1   1   20.18    5.67   4
  -9   1   1   20.21    5.78   1
  -8  -1   1    8.10    4.37   1
  -8   1   1   11.32    3.89   1
  -8   1   1    6.00    4.04   4
  -7  -1   1  110.43    7.78   1
  -7   1   1  118.74    8.64   4
  -7   1   1  126.78    8.44   1
  -6  -1   1   17.10    4.02   1
  -6   1   1   24.61    4.34   1
  -6   1   1   23.84    4.64   4
  -5  -1   1   67.20    4.92   1
  -5   1   1   66.73    4.86   1
   4  -1  -1  243.47    8.77   1
  -4  -1   1  235.64    9.07   1
  -4   1   1  254.05    9.16   1
   4   1  -1  244.11    9.07   1
  -3  -1   1    2.89    1.74   1
   3  -1  -1    3.90    1.65   1
  -3   1   1    5.19    1.86   1
   3   1  -1    2.49    1.60   1
   2  -1  -1 2245.88   47.32   1
  -2  -1   1 2177.44   47.67   1
  -2   1   1 2222.09   47.35   1
   2   1  -1 2152.49   47.57   1
   1  -1  -1 2356.91   50.52   1
   1  -1  -1 2366.73   49.85   3
  -1   1   1 2294.21   50.63   1
   1   1  -1 2317.44   49.20   3
  -1   1   1 2327.43   49.46   3
   0  -1   1  299.05    6.96   2
   0  -1   1  304.60    7.17   3
   0   1   1  290.38    6.84   2
   0   1   1  243.28    6.96   4
  -1  -1  -1    2.65    0.93   1
   1  -1   1    2.20    0.96   1
   1  -1   1    2.30    1.07   3
  -1   1  -1    1.87    0.94   1
   1   1   1    0.61    0.81   1
  -1   1  -1    1.14    0.99   3
  -2  -1  -1   19.33    2.24   1
   2  -1   1   15.89    2.22   3
   2  -1   1   18.34    2.18   1
  -2   1  -1   17.89    2.21   1
   2   1   1   15.11    1.95   1
  -3  -1  -1 1040.10   25.62   1
   3  -1   1 1075.08   25.73   1
   3   1   1 1092.49   25.67   1
  -3   1  -1 1060.18   25.78   1
   4  -1   1    8.09    2.41   1
  -4  -1  -1   18.12    3.13   1
  -4   1  -1   18.88    3.13   1
   4   1   1   13.51    2.71   1
  -5  -1  -1    1.65    1.62   4
  -5  -1  -1    1.55    2.11   1
  -5   1  -1    2.65    2.31   1
  -6  -1  -1   67.42    4.94   4
  -6  -1  -1   68.15    5.67   1
  -6   1  -1   84.80    6.44   1
  -7  -1  -1   37.60    4.73   4
  -7  -1  -1   54.55    6.74   1
  -7   1  -1   43.93    6.34   1
  -8  -1  -1   77.10    8.65   1
  -8   1  -1   59.89    7.93   1
   9  -1   1   38.41    6.68   3
  -9  -1  -1   49.41    7.91   1
  -9   1  -1   49.22    7.95   1
  -9   1  -1   30.25    6.39   4
  10  -1   1   -0.82    3.73   3
 -10  -1  -1   -5.67    3.41   1
 -10   1  -1    3.91    4.00   1
  10  -2  -1    0.82    3.49   3
 -10   2   1    3.98    5.03   4
 -10   2   1   -3.09    3.75   1
   9  -2  -1    4.62    3.58   3
  -9  -2   1    9.07    4.69   1
  -9   2   1    8.35    4.93   4
  -9   2   1    6.74    4.65   1
  -8  -2   1    5.43    4.12   1
   8  -2  -1   11.08    3.76   3
  -8   2   1   11.13    5.04   4
  -8   2   1    5.15    3.67   1
  -7  -2   1   -0.23    2.87   1
   7  -2  -1    0.88    2.29   3
  -7   2   1    1.94    3.35   4
  -7   2   1    1.53    3.03   1
  -6  -2   1    7.13    2.85   1
   6  -2  -1    9.97    2.92   3
  -6   2   1   13.51    3.61   1
  -5  -2   1    3.19    2.40   1
   5  -2  -1    7.18    2.32   3
  -5   2   1    8.34    2.76   1
  -4  -2   1   51.96    4.40   1
   4  -2  -1   55.09    3.89   1
   4  -2  -1   49.49    3.66   3
  -4   2   1   52.99    4.83   1
   4   2  -1   57.98    4.32   1
   3  -2  -1  128.70    4.99   3
   3  -2  -1  118.49    5.20   1
   3   2  -1  123.38    5.69   1
  -3   2   1  121.39    5.47   1
   2  -2  -1   40.89    2.35   3
   2  -2  -1   40.59    2.69   1
   2   2  -1   38.78    2.75   1
  -2   2   1   41.59    2.31   3
  -2   2   1   40.64    2.80   1
   1  -2  -1    7.26    0.79   2
  -1  -2   1    7.18    1.58   3
   1  -2  -1    4.97    1.05   3
  -1   2   1    6.29    1.23   1
   1   2  -1    6.03    1.34   3
  -1   2   1    5.15    0.91   3
   0  -2   1  388.88   10.29   3
   0   2   1  404.51    9.91   3
   0   2  -1  406.31   10.37   3
   1  -2   1   12.23    1.36   2
   1  -2   1   10.15    1.75   3
  -1   2  -1   12.96    1.77   3
  -1   2  -1    9.38    1.65   1
   2  -2   1 1203.09   27.69   1
   2  -2   1 1206.96   27.76   3
   2   2   1 1164.49   27.46   1
  -2   2  -1 1206.74   27.79   1
  -2   2  -1 1200.46   27.64   3
   3  -2   1  105.49    5.26   1
  -3  -2  -1  107.50    5.26   1
   3  -2   1  105.13    5.33   3
  -3   2  -1  116.42    5.58   1
   3   2   1  114.74    5.35   1
  -4  -2  -1  251.50    9.60   1
   4  -2   1  237.98    9.25   3
   4   2   1  241.79    9.22   1
  -4   2  -1  240.67    9.33   1
   5  -2   1   50.82    5.46   3
  -5  -2  -1   62.22    4.93   1
  -5   2  -1   59.56    5.92   1
  -6  -2  -1   -0.53    1.93   1
   6  -2   1    4.48    2.72   3
  -6   2  -1    4.36    2.92   1
  -7  -2  -1   18.95    4.75   1
   7  -2   1   23.50    4.82   3
  -7   2  -1   10.32    3.86   1
  -8  -2  -1    3.17    3.78   1
   8  -2   1   -1.62    3.07   3
  -8   2  -1    2.89    3.06   1
  -9  -2  -1   -0.10    2.90   1
   9  -2   1   -3.27    3.26   3
  -9   2  -1    3.18    4.51   4
  -9   2  -1   -1.02    2.76   1
   9  -3  -1   68.38    7.78   3
  -9   3   1   79.23    9.44   1
  -9   3   1   60.40    9.38   4
   8  -3  -1    7.99    3.40   3
  -8   3   1    2.29    4.22   4
  -8   3   1    7.45    3.45   1
   7  -3  -1   10.99    3.30   3
  -7   3   1    7.67    3.85   1
   6  -3  -1   12.18    3.24   3
  -6   3   1   13.15    3.81   1
   5  -3  -1  702.58   19.36   3
  -5   3   1  705.33   20.58   1
   4  -3  -1   -0.04    1.29   3
   4  -3  -1    3.19    1.73   1
   4   3  -1    2.64    1.51   4
  -4   3   1    1.44    1.83   1
   3  -3  -1  187.36    7.23   1
   3  -3  -1  197.83    6.83   3
   3   3  -1  186.59    7.72   1
  -3   3   1  186.57    7.37   1
   2  -3  -1    2.14    1.22   3
   2   3  -1    1.58    1.21   3
  -2   3   1    0.51    1.27   1
  -2   3   1    3.23    1.23   3
   1  -3  -1   53.56    3.01   3
  -1  -3   1   55.71    3.62   3
  -1   3   1   59.22    2.93   3
   1   3  -1   59.20    3.64   3
   0  -3   1   11.18    2.10   3
   0   3   1   10.21    1.77   3
   0   3  -1    5.97    1.75   3
   1  -3   1 2940.28   61.73   2
   1  -3   1 2909.76   63.70   3
  -1   3  -1 3004.96   63.76   3
  -1   3  -1 2975.83   61.77   2
   2  -3   1   15.70    1.78   2
   2  -3   1   16.66    2.36   3
  -2   3  -1   14.99    2.37   3
  -2   3  -1   19.83    2.67   1
   2   3   1   16.05    2.51   1
   3  -3   1  156.05    6.84   3
   3  -3   1  157.05    6.92   1
   3   3   1  160.13    6.84   1
  -3   3  -1  158.70    6.80   3
  -3   3  -1  166.97    7.13   1
   4  -3   1   64.34    4.76   3
  -4   3  -1   61.64    4.81   1
   5  -3   1  384.67   13.42   3
  -5   3  -1  362.03   13.58   1
  -6  -3  -1    5.22    2.67   1
   6  -3   1    6.33    3.01   3
  -6   3  -1   -3.20    2.23   1
   7  -3   1   65.15    7.17   3
  -7  -3  -1   68.88    7.76   1
  -7   3  -1   59.78    7.35   1
   8  -3   1    0.10    3.13   3
  -8   3  -1    0.54    3.30   1
   9  -3   1    2.57    3.14   3
  -9   3  -1    2.31    2.98   1
   9  -4  -1   -1.58    3.11   3
  -9   4   1   -3.91    4.25   4
  -9   4   1    3.60    4.53   1
   8  -4  -1   -0.41    2.60   3
  -8   4   1   -0.89    2.62   1
   7  -4  -1   13.57    3.63   3
  -7   4   1   13.16    4.22   1
   6  -4  -1   41.64    5.11   3
  -6   4   1   37.75    5.51   1
   5  -4  -1   24.41    3.84   3
  -5   4   1   19.03    3.76   1
   4  -4  -1   18.70    2.97   3
  -4   4   1   15.08    3.10   1
   3  -4  -1  668.95   17.36   3
   3   4  -1  648.77   18.64   3
  -3   4   1  663.32   17.19   3
  -3   4   1  655.99   18.10   1
   2  -4  -1  101.31    4.73   3
   2   4  -1   94.41    5.23   3
  -2   4   1  101.38    4.68   3
  -2   4   1  101.90    5.08   1
   1  -4  -1  144.17    5.71   3
  -1  -4   1  143.17    6.37   3
  -1   4   1  142.47    5.53   3
   1   4  -1  132.69    6.15   3
   0  -4   1  267.61    9.21   3
   0   4  -1  268.61    9.11   3
   0   4   1  281.07    8.81   3
   1  -4   1   24.89    3.19   3
  -1   4  -1   26.62    3.15   3
   1   4   1   23.53    3.11   3
  -1   4  -1   22.81    1.62   2
   2  -4   1  260.26    9.26   3
   2  -4   1  259.76    7.01   2
  -2   4  -1  255.13    9.09   3
  -2   4  -1  275.92    9.55   1
   3  -4   1  415.65   13.13   3
   3  -4   1  409.00   11.04   2
  -3   4  -1  418.45   13.35   1
   3   4   1  397.04   13.01   1
  -3   4  -1  421.42   13.03   3
   4  -4   1   58.02    4.80   3
  -4   4  -1   46.38    5.23   1
   5  -4   1   42.17    5.14   3
  -5   4  -1   30.21    4.66   1
   6  -4   1   36.27    5.32   3
  -6   4  -1   35.17    5.33   1
   7  -4   1  132.93    8.78   3
  -7   4  -1  108.34    8.24   1
   8  -4   1   -0.20    2.98   3
  -8   4  -1   -0.22    3.53   1
   9  -4   1    1.97    3.67   3
  -9   4  -1    1.18    3.78   1
  -9   5   1    9.22    5.36   1
  -9   5   1   11.10    6.71   4
   8  -5  -1    1.94    3.27   3
  -8   5   1    5.81    4.03   1
   7  -5  -1    2.51    2.74   3
  -7   5   1   13.26    4.56   1
   6  -5  -1   53.71    5.78   3
  -6   5   1   62.86    7.05   1
   5  -5  -1  210.02    9.07   3
  -5   5   1  205.65    9.96   1
   5   5  -1  205.69    7.47   4
   4  -5  -1   13.86    2.72   3
  -4   5   1   11.27    2.55   3
  -4   5   1   10.12    3.08   1
   3  -5  -1   28.75    3.63   3
  -3   5   1   19.26    3.33   1
  -3   5   1   24.92    3.13   3
   2  -5  -1  171.89    7.07   3
  -2   5   1  171.08    7.35   1
   2   5  -1  178.12    8.05   3
  -2   5   1  171.64    6.96   3
   1  -5  -1  152.92    6.61   3
  -1  -5   1  147.13    7.15   3
   1   5  -1  153.18    7.11   3
  -1   5   1  153.87    6.39   3
   0  -5   1  320.17   11.17   3
   0   5  -1  336.84   11.17   3
   0   5   1  324.01   10.60   3
   1  -5   1   56.37    4.36   3
  -1   5  -1   57.71    2.41   2
   1   5   1   54.02    3.96   3
  -1   5  -1   65.20    4.45   3
   2  -5   1  297.56   10.63   3
  -2   5  -1  283.81   10.49   1
   2   5   1  287.81   10.68   3
  -2   5  -1  291.12   10.37   3
   3  -5   1  305.77   11.26   3
   3  -5   1  304.33    8.36   2
  -3   5  -1  304.60   11.48   1
  -3   5  -1  315.76   11.27   3
   4  -5   1   63.29    6.05   3
   4  -5   1   63.88    3.77   2
  -4   5  -1   64.52    6.41   1
   5  -5   1    9.28    3.37   3
  -5   5  -1    7.38    3.22   1
   6  -5   1    6.93    3.46   3
  -6   5  -1    7.55    3.08   1
   7  -5   1   26.25    5.39   3
  -7   5  -1   33.22    5.90   1
   8  -5   1    2.75    3.71   3
  -8   5  -1    6.84    4.35   1
   9  -5   1   -0.75    4.06   3
  -9   5  -1   -4.95    3.62   1
   8  -6  -1    2.01    3.17   3
  -8   6   1    0.14    3.63   1
   7  -6  -1    9.21    3.66   3
  -7   6   1    6.16    3.90   1
   6  -6  -1    4.40    2.71   3
  -6   6   1   -0.02    2.91   1
   5  -6  -1   66.87    5.59   3
  -5   6   1   62.74    6.68   1
   4  -6  -1    3.12    2.57   3
  -4   6   1    0.38    2.30   1
   3  -6  -1  205.51    8.82   3
  -3   6   1  216.28    8.73   3
  -3   6   1  207.57    9.20   1
   2  -6  -1   71.73    4.93   3
  -2   6   1   64.62    4.97   1
  -2   6   1   74.34    4.73   3
   1  -6  -1  133.41    6.62   3
  -1  -6   1  120.56    6.75   3
  -1   6   1  115.75    6.01   3
   0  -6   1   81.33    5.69   3
   0   6   1   80.36    5.13   3
   1  -6   1    6.33    2.54   3
   2  -6   1   45.35    4.96   3
  -2   6  -1   40.19    5.03   1
   3  -6   1   47.89    5.50   3
  -3   6  -1   55.13    5.94   1
   4  -6   1   40.78    2.69   2
   4  -6   1   48.48    5.72   3
  -4   6  -1   43.47    5.59   1
   5  -6   1   64.45    6.79   3
  -5   6  -1   46.38    6.12   1
   6  -6   1   13.14    3.98   3
  -6   6  -1   21.42    5.01   1
   7  -6   1    5.74    3.73   3
  -7   6  -1    7.95    4.42   1
   8  -6   1   -1.67    3.00   3
  -8   6  -1   -1.26    4.21   1
  -8   7   1    1.17    4.15   1
   7  -7  -1   63.69    7.27   3
  -7   7   1   58.57    8.08   1
   6  -7  -1   -2.30    2.35   3
  -6   7   1    1.72    3.16   1
   5  -7  -1   46.86    5.74   3
  -5   7   1   53.47    6.74   1
   4  -7  -1    0.93    2.18   3
  -4   7   1    1.89    2.76   1
   3  -7  -1   28.55    4.69   3
  -3   7   1   28.10    4.61   1
   2  -7  -1   31.19    4.53   3
  -2   7   1   25.24    4.15   1
   1  -7  -1   59.14    5.86   3
   0  -7   1   17.00    3.78   3
   0   7  -1   18.91    2.26   2
   1  -7   1   10.82    3.23   3
   2  -7   1    0.63    2.24   3
  -2   7  -1    1.55    2.55   1
   3  -7   1  445.08   16.02   3
  -3   7  -1  462.66   16.44   1
   4  -7   1    4.21    2.98   3
  -4   7  -1    8.98    3.61   1
   5  -7   1   16.40    4.11   3
  -5   7  -1   19.60    4.81   1
   6  -7   1   -2.54    2.41   3
  -6   7  -1    5.33    3.28   1
   7  -7   1   -2.26    2.77   3
  -7   7  -1   -1.85    3.65   1
   8  -7   1   -1.11    3.37   3
  -8   7  -1    6.13    4.72   1
  -7   8   1    4.02    4.28   1
   6  -8  -1    6.25    3.97   3
  -6   8   1    9.83    4.80   1
   5  -8  -1   -0.84    2.69   3
  -5   8   1    2.67    3.52   1
   4  -8  -1   31.35    5.21   3
  -4   8   1   31.20    5.36   1
   3  -8  -1   -3.23    2.32   3
  -3   8   1    1.00    2.79   1
   2  -8  -1   31.84    4.97   3
  -2   8   1   40.03    5.53   1
   1  -8  -1   17.51    3.84   3
   0  -8   1  156.76    9.07   3
   0   8  -1  137.31    5.17   2
   1  -8   1    2.14    2.93   3
   2  -8   1   16.62    4.29   3
  -2   8  -1   18.69    4.27   1
   3  -8   1   13.71    4.06   3
  -3   8  -1   13.01    3.95   1
   4  -8   1   29.01    5.43   3
  -4   8  -1   20.15    4.40   1
   5  -8   1    8.71    3.77   3
  -5   8  -1   10.40    4.52   1
   6  -8   1   10.93    4.58   3
  -6   8  -1    6.53    4.44   1
   7  -8   1    4.70    4.15   3
  -7   8  -1    6.36    4.49   1
   6  -9  -1    4.46    5.55   3
  -6   9   1    2.97    4.14   1
   5  -9  -1   24.64    5.15   3
  -5   9   1   24.33    5.73   1
   4  -9  -1   10.24    3.82   3
  -4   9   1   20.52    5.01   1
   3  -9  -1   35.44    5.62   3
  -3   9   1   38.26    5.69   1
   2  -9  -1    1.27    2.85   3
  -2   9   1    5.56    3.42   1
   0  -9   1   18.63    4.70   3
   0   9  -1   27.57    3.38   2
   1  -9   1  137.90    9.25   3
   2  -9   1   26.52    5.38   3
  -2   9  -1   26.86    5.35   1
   3  -9   1   -1.67    2.79   3
  -3   9  -1    3.26    2.80   1
   4  -9   1    6.72    3.73   3
  -4   9  -1    7.64    4.24   1
   5  -9   1   36.86    6.39   3
  -5   9  -1   40.46    7.01   1
   6  -9   1   22.79    5.66   3
  -6   9  -1   30.55    6.50   1
   5 -10  -1   -1.44    3.28   3
  -5  10   1   -2.71    3.60   1
   4 -10  -1    8.58    4.06   3
  -4  10   1    5.95    4.30   1
   3 -10  -1   42.76    6.43   3
  -3  10   1   32.77    5.97   1
  -2  10   1   -4.97    2.57   1
   1 -10   1   11.49    4.29   3
   2 -10   1    4.86    3.52   3
  -2  10  -1    9.35    4.43   1
   3 -10   1    0.83    3.39   3
  -3  10  -1    2.86    3.88   1
   4 -10   1    2.42    3.53   3
  -4  10  -1    2.08    3.86   1
   5 -10   1    0.14    3.40   3
  -5  10  -1   -0.03    3.89   1
   4 -11  -1    5.23    3.78   3
  -4  11   1    7.06    4.48   1
   3 -11  -1    3.22    3.49   3
  -3  11   1   -2.03    3.29   1
  -2  11   1   22.11    5.64   1
  -1  11   1   -1.55    3.48   1
  -1  11  -1   12.61    4.31   1
   2 -11   1    2.34    4.04   3
  -2  11  -1    3.08    4.34   1
   3 -11   1    3.04    4.12   3
  -3  11  -1    2.55    4.25   1
 -10   0   2   10.34    5.52   1
  -9   0   2   -0.82    2.75   1
  -8   0   2   63.71    7.75   1
  -7   0   2    1.41    2.95   1
  -6   0   2    6.41    2.55   1
  -5   0   2    0.00    1.93   1
  -5   0   2    0.31    2.13   4
   4   0  -2  636.46   17.41   1
  -4   0   2  643.98   18.45   4
  -4   0   2  630.22   17.50   1
   3   0  -2    0.06    1.11   1
  -3   0   2   -1.48    1.22   1
  -2   0   2 9779.24  212.22   1
   2   0  -2 9999.99  214.01   1
   2   0  -2 9803.79  211.83   4
  -1   0   2    0.38    0.52   3
   1   0  -2    1.51    0.68   1
   1   0  -2    0.67    0.53   3
   0   0  -2   47.85    2.56   2
   0   0   2   48.05    2.09   3
   0   0   2   48.82    2.45   2
   0   0  -2   46.26    2.05   3
   1   0   2   -0.86    0.70   1
   1   0   2    1.36    1.00   2
  -1   0  -2    0.22    0.75   1
   2   0   2 4684.14   97.05   1
  -2   0  -2 4551.52   97.05   1
   3   0   2   -0.29    1.21   1
  -3   0  -2   -0.18    1.40   1
   4   0   2  146.76    6.77   1
  -4   0  -2  140.11    6.65   1
  -5   0  -2   -0.27    1.97   1
  -6   0  -2  457.11   16.32   1
  -7   0  -2   -2.30    2.85   1
  -8   0  -2  105.49    8.86   1
  -8   0  -2   96.74    7.32   4
  -9   0  -2    6.39    4.56   1
  10  -1  -2    8.18    4.38   3
 -10  -1   2    2.41    4.68   1
 -10   1   2    7.11    4.90   1
  -9  -1   2   17.30    5.95   1
  -9   1   2   14.24    5.24   1
  -8  -1   2    1.83    3.71   1
  -8   1   2   -0.07    3.24   1
  -8   1   2   -0.75    3.08   4
  -7  -1   2    4.70    3.40   1
  -7   1   2    3.58    3.22   1
  -7   1   2    4.02    3.05   4
  -6  -1   2  180.87    9.30   1
  -6   1   2  171.55    8.96   1
  -6   1   2  187.70   10.04   4
  -5  -1   2  180.75    8.46   1
  -5   1   2  184.38    9.23   4
  -5   1   2  175.05    8.16   1
   4  -1  -2   24.52    3.25   1
  -4  -1   2   17.86    3.06   1
  -4   1   2   21.76    3.17   1
  -4   1   2   22.05    3.68   4
   4   1  -2   18.94    2.97   1
  -3  -1   2  762.56   19.32   1
   3  -1  -2  748.17   18.68   1
  -3   1   2  772.08   18.91   1
   3   1  -2  741.49   19.13   1
   3   1  -2  757.74   19.63   4
  -3   1   2  764.21   20.55   4
   2  -1  -2 7890.70  164.16   1
  -2   1   2 7748.20  176.23   4
  -2   1   2 7743.41  169.61   1
   2   1  -2 7892.57  170.90   1
   2   1  -2 7856.31  169.26   3
   1  -1  -2 2270.63   48.22   2
  -1  -1   2 2341.05   51.77   3
   1  -1  -2 2212.27   48.59   1
   1  -1  -2 2283.64   49.46   4
   1   1  -2 2274.67   48.07   3
  -1   1   2 2279.01   49.80   1
  -1   1   2 2206.99   49.43   4
   0  -1  -2    9.24    1.55   2
   0  -1   2    8.42    1.45   3
   0  -1   2    7.98    1.48   2
   0   1   2   10.12    1.57   2
   0   1  -2    8.84    1.50   2
   0   1  -2    9.18    1.29   3
   0   1   2    9.20    0.60   1
   1  -1   2  204.83    6.02   1
   1  -1   2  193.29    6.24   2
  -1  -1  -2  197.64    5.54   1
   1  -1   2  206.26    6.49   3
  -1   1  -2  188.33    6.21   2
   1   1   2  192.96    5.47   1
  -1   1  -2  189.32    5.84   1
  -1   1  -2  204.61    6.33   3
   2  -1   2  814.52   19.50   1
  -2  -1  -2  795.20   19.23   1
   2  -1   2  835.11   20.14   3
   2   1   2  801.06   19.19   1
  -2   1  -2  793.43   19.51   1
   3  -1   2    3.39    1.65   1
  -3  -1  -2    1.95    1.45   1
   3   1   2    1.68    1.40   1
  -3   1  -2    0.59    1.53   1
  -4  -1  -2  372.04   12.32   1
   4  -1   2  384.65   12.42   1
   4   1   2  369.16   12.10   1
  -4   1  -2  372.74   12.44   1
  -5  -1  -2   19.26    3.62   1
  -5   1  -2   19.81    3.69   1
  -6  -1  -2  209.28   10.19   1
  -6   1  -2  178.54    9.36   1
  -7  -1  -2   59.17    4.88   4
  -7  -1  -2   51.42    6.92   1
  -7   1  -2   59.90    6.89   1
  -8  -1  -2   73.57    8.63   1
   8  -1   2   66.81    8.11   3
  -8   1  -2   72.44    8.35   1
  -9  -1  -2    5.49    3.86   1
   9  -1   2    8.04    4.63   3
  -9   1  -2    4.96    4.27   1
 -10   2   2   22.17    5.73   1
   9  -2  -2    1.11    3.11   3
  -9   2   2    3.89    4.82   4
  -9   2   2    3.97    4.21   1
  -8  -2   2   29.00    5.99   1
   8  -2  -2   26.04    4.56   3
  -8   2   2   31.29    6.55   4
  -8   2   2   32.95    5.87   1
  -7  -2   2   61.21    7.30   1
   7  -2  -2   59.45    6.04   3
  -7   2   2   47.29    7.26   4
  -7   2   2   53.07    6.53   1
  -6  -2   2  169.61    9.09   1
   6  -2  -2  154.50    7.44   3
  -6   2   2  141.76    8.23   1
  -6   2   2  153.18    9.61   4
   5  -2  -2   29.56    3.42   3
  -5   2   2   22.17    4.54   4
  -5   2   2   31.98    4.24   1
   4  -2  -2  219.24    8.34   1
   4  -2  -2  234.37    7.58   3
   4   2  -2  217.42    8.71   1
   4   2  -2  227.78    8.56   4
  -4   2   2  233.39    8.72   1
   3  -2  -2    0.17    1.06   1
   3  -2  -2   -0.61    0.82   3
   3   2  -2    0.34    1.31   1
  -3   2   2    0.77    1.43   1
   2  -2  -2  401.68    9.71   3
   2  -2  -2  413.77   10.76   1
   2   2  -2  422.45   11.56   3
  -2   2   2  423.51   10.89   1
  -1  -2   2  268.35    7.97   3
   1  -2  -2  257.78    7.02   2
  -1   2   2  266.08    6.47   3
  -1   2   2  269.95    8.69   4
  -1   2   2  251.82    6.80   1
   1   2  -2  273.91    7.99   3
   0  -2   2  453.63   12.15   3
   0   2   2  461.27   11.59   2
   0   2   2  492.79   12.34   4
   0   2  -2  472.02   11.88   2
   0   2  -2  467.48   12.19   3
   1  -2   2  115.13    4.77   3
   1  -2   2  109.59    4.33   2
  -1   2  -2  109.61    4.75   3
   1   2   2  112.48    4.03   1
  -1   2  -2  110.49    4.49   1
  -1   2  -2  108.21    4.29   2
   2  -2   2   81.16    3.95   2
   2  -2   2   72.81    4.07   1
   2  -2   2   82.07    4.56   3
  -2  -2  -2   75.64    3.92   1
  -2   2  -2   81.46    4.45   3
  -2   2  -2   75.57    4.17   1
   2   2   2   83.22    3.93   1
   3  -2   2  911.67   23.90   3
   3  -2   2  954.88   23.73   1
  -3  -2  -2  923.89   23.46   1
  -3   2  -2  934.72   23.76   1
   3   2   2  985.00   23.48   1
   4  -2   2  440.00   14.35   3
  -4  -2  -2  428.65   10.66   4
  -4  -2  -2  464.41   14.23   1
  -4   2  -2  458.12   14.41   1
   4   2   2  445.05   13.92   1
   5  -2   2   15.61    3.65   3
  -5  -2  -2   14.54    3.20   1
  -5   2  -2   10.32    2.93   1
   6  -2   2   42.92    5.49   3
  -6  -2  -2   38.87    5.44   1
  -6   2  -2   23.55    4.62   1
  -7  -2  -2   -5.41    2.37   1
   7  -2   2    1.78    3.00   3
  -7   2  -2    0.96    2.89   1
   8  -2   2    8.57    4.10   3
  -8  -2  -2    4.46    4.21   1
  -8   2  -2    4.80    3.98   1
   9  -2   2   -1.63    3.27   3
  -9  -2  -2    2.68    4.25   1
  -9   2  -2   -4.36    3.35   1
   9  -3  -2   -4.81    1.95   3
  -9   3   2    0.33    3.76   1
  -9   3   2    0.94    4.70   4
   8  -3  -2   -1.94    2.38   3
  -8   3   2    3.47    3.50   1
  -8   3   2    1.27    4.03   4
   7  -3  -2   17.65    3.57   3
  -7   3   2   11.21    4.97   4
  -7   3   2   19.35    4.52   1
   6  -3  -2    3.85    2.05   3
  -6   3   2    1.60    2.75   1
   5  -3  -2   43.90    3.68   3
  -5   3   2   36.57    4.53   1
   5   3  -2   46.10    4.03   4
   4  -3  -2  284.56    9.96   1
   4  -3  -2  295.58    9.08   3
  -4   3   2  287.84   10.30   1
   3  -3  -2   28.26    2.30   3
   3  -3  -2   31.69    3.29   1
  -3   3   2   30.98    3.33   1
   3   3  -2   29.02    3.44   3
   3   3  -2   30.61    3.69   1
   2  -3  -2    2.19    0.99   3
   2  -3  -2    3.58    1.10   2
   2   3  -2    0.93    1.53   3
  -2   3   2    1.81    0.85   3
  -2   3   2    2.60    1.30   1
   1  -3  -2  165.56    5.28   3
  -1  -3   2  161.62    6.42   3
   1  -3  -2  161.66    4.79   2
   1   3  -2  161.06    6.34   3
  -1   3   2  166.47    4.75   2
  -1   3   2  161.09    5.09   3
  -1   3   2  162.42    5.37   1
   0  -3   2 2599.64   56.50   3
   0   3   2 2570.15   55.34   3
   0   3  -2 2607.40   56.41   3
   0   3  -2 2557.51   55.34   2
   0   3   2 2584.07   54.97   2
   1  -3   2   24.65    2.15   2
   1  -3   2   19.34    2.77   3
  -1   3  -2   22.45    2.29   2
  -1   3  -2   26.39    2.98   3
   1   3   2   24.98    2.06   4
   2  -3   2   90.35    5.07   3
   2  -3   2   95.92    4.24   2
  -2   3  -2   96.08    4.86   1
   2   3   2   84.96    4.37   1
  -2   3  -2   90.94    4.81   3
   3  -3   2   39.36    3.20   2
   3  -3   2   39.43    4.32   3
   3  -3   2   44.35    4.44   1
   3   3   2   42.56    3.50   1
  -3   3  -2   40.91    4.16   1
   4  -3   2   44.84    5.03   3
  -4   3  -2   47.55    5.09   1
  -5  -3  -2   -1.07    2.24   1
   5  -3   2   -1.35    2.00   3
  -5   3  -2    3.61    2.50   1
   6  -3   2  279.64   12.39   3
  -6  -3  -2  275.14   12.43   1
  -6   3  -2  290.29   12.54   1
   7  -3   2    1.84    3.04   3
  -7  -3  -2    1.56    3.13   1
  -7   3  -2    3.79    3.45   1
  -8  -3  -2   -6.51    2.68   1
   8  -3   2    4.48    3.46   3
  -8   3  -2    2.35    3.51   1
   9  -3   2    4.49    3.71   3
  -9   3  -2    4.73    4.51   1
  -9   4   2   -1.59    3.81   1
  -9   4   2    3.86    5.34   4
   8  -4  -2    1.94    2.55   3
  -8   4   2   -4.14    3.90   4
  -8   4   2    5.43    3.96   1
   7  -4  -2    2.28    2.60   3
  -7   4   2    1.94    3.18   1
   6  -4  -2  235.98    9.63   3
  -6   4   2  248.45   11.28   1
   5  -4  -2    5.06    2.19   3
  -5   4   2    1.74    2.32   1
   5   4  -2    4.80    2.10   4
   4  -4  -2   64.65    3.98   3
  -4   4   2   50.71    4.36   1
   3  -4  -2  288.57    8.95   3
   3   4  -2  294.02   10.76   3
  -3   4   2  296.09    9.94   1
  -3   4   2  287.64    8.81   3
   2  -4  -2  458.32   12.24   3
   2  -4  -2  447.68   10.54   2
  -2   4   2  487.13   13.05   1
   2   4  -2  456.21   13.96   3
  -2   4   2  441.52   11.99   3
   1  -4  -2  578.55   14.94   3
  -1  -4   2  579.14   16.38   3
  -1   4   2  584.97   14.79   3
  -1   4   2  588.91   13.29   2
   1   4  -2  577.80   16.27   3
   0  -4   2  543.84   15.36   3
   0   4   2  527.04   13.27   2
   0   4   2  538.90   14.32   3
   0   4  -2  532.86   13.72   2
   0   4  -2  546.57   15.20   3
   1  -4   2  125.69    6.07   3
  -1   4  -2  146.43    6.45   3
  -1   4  -2  139.59    5.00   2
   2  -4   2  125.60    4.85   2
   2  -4   2  130.57    6.48   3
   2   4   2  135.37    5.94   1
  -2   4  -2  114.41    5.89   3
  -2   4  -2  122.09    6.20   1
   3  -4   2    9.83    2.69   3
   3  -4   2    6.42    1.75   2
  -3   4  -2    6.79    2.37   1
   3   4   2    2.61    1.83   1
  -3   4  -2    7.32    2.16   3
   4  -4   2  535.87   16.82   3
   4  -4   2  515.52   14.99   2
  -4   4  -2  529.30   16.90   1
   5  -4   2    2.33    2.57   3
  -5   4  -2    4.78    2.49   1
   6  -4   2    2.03    2.61   3
  -6   4  -2    3.00    3.23   1
   7  -4   2    4.85    3.34   3
  -7   4  -2    4.99    3.77   1
   8  -4   2   12.03    4.59   3
  -8   4  -2   26.23    6.00   1
   9  -4   2   -3.82    3.10   3
  -9   4  -2    0.68    4.05   1
  -9   5   2    3.08    4.37   1
  -9   5   2    2.41    5.93   4
   8  -5  -2   15.99    3.86   3
  -8   5   2   18.54    4.58   1
  -8   5   2   23.08    7.25   4
   7  -5  -2   16.38    3.62   3
  -7   5   2   19.28    4.79   1
   6  -5  -2   10.09    3.03   3
  -6   5   2   14.77    4.04   1
   5  -5  -2   27.31    3.74   3
  -5   5   2   32.17    4.52   1
   4  -5  -2   82.31    4.88   3
  -4   5   2   74.57    5.44   1
   3  -5  -2   14.09    1.09   2
   3  -5  -2   12.65    2.48   3
  -3   5   2   10.56    2.58   1
  -3   5   2   11.40    2.07   3
   2  -5  -2  161.51    6.55   3
  -2   5   2  157.80    6.79   1
  -2   5   2  158.57    6.23   3
  -1  -5   2   96.57    5.94   3
  -1   5   2   96.55    4.89   3
  -1   5   2   99.11    3.10   2
   1   5  -2  107.18    5.98   3
   0  -5   2  139.97    6.94   3
   0   5   2  132.34    4.85   2
   0   5  -2  142.43    6.66   3
   0   5  -2  132.77    5.32   2
   0   5   2  139.98    6.24   3
   1  -5   2   10.51    2.77   3
  -1   5  -2   11.69    1.84   2
   1   5   2   12.30    2.53   3
  -1   5  -2    7.09    2.09   3
   2  -5   2  362.02   12.79   3
  -2   5  -2  395.70   14.11   3
  -2   5  -2  386.40   12.96   1
   3  -5   2  170.74    8.44   3
   3  -5   2  179.59    6.43   2
  -3   5  -2  180.29    8.65   1
   4  -5   2    1.54    2.50   3
   4  -5   2    4.29    1.64   2
  -4   5  -2   -1.46    1.35   1
   5  -5   2   38.18    5.63   3
   5  -5   2   37.99    4.29   2
  -5   5  -2   42.01    5.53   1
   6  -5   2  151.13    9.37   3
  -6   5  -2  131.71    9.04   1
   7  -5   2    1.10    3.17   3
  -7   5  -2    8.09    4.11   1
   8  -5   2    0.43    3.42   3
  -8   5  -2   15.92    5.46   1
  -8   6   2   24.53    6.04   1
   7  -6  -2    3.15    2.64   3
  -7   6   2   -2.22    2.80   1
   6  -6  -2   21.05    3.81   3
  -6   6   2   17.40    4.58   1
   5  -6  -2   31.97    4.36   3
  -5   6   2   32.21    4.85   1
   4  -6  -2  373.95   12.53   3
  -4   6   2  360.58   12.10   3
  -4   6   2  380.00   13.60   1
   3  -6  -2   24.92    3.43   3
  -3   6   2   27.37    4.01   1
  -3   6   2   23.15    3.09   3
   2  -6  -2    4.12    2.01   3
  -2   6   2    7.15    2.31   1
  -2   6   2    6.30    1.96   3
  -1  -6   2   36.16    4.66   3
  -1   6   2   38.81    4.12   3
   0  -6   2   48.23    5.35   3
   0   6   2   49.60    4.06   3
   0   6  -2   44.92    3.19   2
   0   6   2   54.06    2.89   2
   1  -6   2  190.84    8.95   3
  -1   6  -2  186.89    6.13   2
   2  -6   2  349.60   13.19   3
  -2   6  -2  379.23   13.57   1
   3  -6   2    1.88    2.48   3
  -3   6  -2    0.37    2.23   1
   4  -6   2   22.41    4.69   3
   4  -6   2   20.62    2.61   2
  -4   6  -2   25.25    4.59   1
   5  -6   2   79.27    8.08   3
  -5   6  -2   74.18    7.73   1
   6  -6   2  120.83    8.77   3
  -6   6  -2   98.54    7.95   1
   7  -6   2    2.98    3.47   3
  -7   6  -2   -3.03    3.57   1
   8  -6   2    0.13    3.26   3
  -8   6  -2    0.69    3.65   1
  -8   7   2   -1.55    3.49   1
  -7   7   2    1.43    3.38   1
   6  -7  -2   13.10    3.77   3
  -6   7   2    7.97    3.81   1
   5  -7  -2   35.85    4.70   3
  -5   7   2   32.99    5.52   1
   4  -7  -2   65.39    5.47   3
  -4   7   2   56.55    6.33   1
   3  -7  -2   94.46    6.11   3
  -3   7   2  107.31    6.82   1
   2  -7  -2  303.07   11.45   3
  -2   7   2  306.08   12.16   3
  -2   7   2  324.31   12.07   1
  -1  -7   2   -2.66    1.92   3
   0  -7   2    4.82    2.94   3
   0   7   2    1.69    1.13   2
   0   7  -2    1.38    1.48   2
   1  -7   2  136.55    8.11   3
  -1   7  -2  131.83    4.82   2
   2  -7   2  281.15   11.95   3
  -2   7  -2  249.51   11.28   1
   3  -7   2   24.83    4.71   3
  -3   7  -2   15.54    4.05   1
   4  -7   2    6.69    3.40   3
  -4   7  -2    2.41    2.80   1
   5  -7   2   55.92    7.00   3
  -5   7  -2   45.19    6.59   1
   6  -7   2    5.44    3.78   3
  -6   7  -2    3.70    3.73   1
   7  -7   2    0.31    3.89   3
  -7   7  -2   -0.54    2.75   1
  -7   8   2    1.51    3.92   1
  -6   8   2   14.52    4.82   1
   5  -8  -2   15.50    3.99   3
  -5   8   2   16.72    4.62   1
   4  -8  -2   24.77    4.39   3
  -4   8   2   18.09    4.36   1
   3  -8  -2   -3.11    2.22   3
  -3   8   2    0.12    2.39   1
   2  -8  -2   91.10    6.47   3
  -2   8   2   94.38    6.73   1
  -1  -8   2  245.05   11.65   3
   0  -8   2   30.68    5.60   3
   0   8   2   21.30    2.21   2
   0   8  -2   19.62    2.65   2
   1  -8   2    9.66    3.35   3
   2  -8   2   76.04    7.83   3
  -2   8  -2   84.59    6.70   1
   3  -8   2    6.23    3.37   3
  -3   8  -2    0.10    2.64   1
   4  -8   2    1.27    2.99   3
  -4   8  -2   -2.41    1.97   1
   5  -8   2   22.42    5.27   3
  -5   8  -2   24.38    5.52   1
   6  -8   2   -1.31    3.22   3
  -6   8  -2    0.93    3.04   1
   7  -8   2    4.50    4.36   3
  -7   8  -2   -1.87    3.16   1
  -6   9   2    8.45    4.69   1
   5  -9  -2   30.78    5.47   3
  -5   9   2   46.01    6.96   1
   4  -9  -2    7.36    3.45   3
  -4   9   2    5.48    3.55   1
   3  -9  -2    2.16    2.92   3
  -3   9   2   -4.65    2.49   1
  -2   9   2    4.27    3.09   1
   1   9  -2   52.04    4.23   2
   0  -9   2   35.42    5.59   3
   0   9  -2   38.52    3.09   2
   1  -9   2   -0.12    2.15   3
   2  -9   2    1.78    3.36   3
  -2   9  -2    0.00    2.90   1
   3  -9   2   -6.20    2.50   3
  -3   9  -2    0.83    2.56   1
   4  -9   2   29.20    5.85   3
  -4   9  -2   20.79    5.22   1
   5  -9   2   29.22    6.42   3
  -5   9  -2   23.71    5.67   1
   6  -9   2    6.97    4.23   3
  -6   9  -2   12.78    5.20   1
  -5  10   2    1.49    4.00   1
   4 -10  -2    1.92    3.35   3
  -4  10   2   -2.88    2.96   1
  -3  10   2   22.33    5.23   1
  -2  10   2   23.16    5.04   1
   0 -10   2    9.22    4.36   3
   1 -10   2    7.49    4.15   3
   2 -10   2    9.85    4.52   3
  -2  10  -2    8.33    4.43   1
   3 -10   2   -2.08    3.11   3
  -3  10  -2   -0.70    3.56   1
   4 -10   2   35.61    6.63   3
  -4  10  -2   31.90    6.53   1
   5 -10   2   10.47    4.91   3
  -5  10  -2    1.49    3.86   1
  -3  11   2   12.83    4.64   1
  -2  11   2   -2.66    2.80   1
  -1  11   2   12.29    4.77   1
   1 -11   2    6.85    4.42   3
  -1  11  -2   19.38    5.80   1
   2 -11   2   -1.79    3.44   3
  -2  11  -2   -4.20    3.92   1
   3 -11   2   26.98    6.74   3
  -3  11  -2   22.61    6.55   1
 -10   0   3    0.10    4.65   1
  -9   0   3   20.81    5.86   1
  -8   0   3   -1.07    3.09   1
  -7   0   3    3.33    3.12   1
  -6   0   3   -2.45    1.92   1
  -5   0   3   77.29    5.45   1
  -4   0   3    2.31    1.78   1
   4   0  -3    0.73    1.42   1
  -3   0   3  623.71   15.94   1
   3   0  -3  614.73   17.64   4
   3   0  -3  602.72   15.75   1
   2   0  -3    1.21    0.99   1
  -2   0   3    2.14    1.08   1
   2   0  -3    0.99    0.76   3
  -1   0   3 2782.88   61.31   3
   1   0  -3 2876.71   60.96   3
   1   0  -3 2869.80   61.25   2
   0   0  -3   -0.23    1.34   2
   0   0   3    0.24    0.99   2
   0   0  -3    0.89    0.59   1
   0   0   3   -0.97    0.95   3
  -1   0  -3 2673.00   57.15   1
   1   0   3 2690.10   58.87   2
   1   0   3 2764.60   57.16   1
  -2   0  -3    0.69    1.15   1
   2   0   3    1.78    1.20   1
  -3   0  -3   54.10    3.82   1
   3   0   3   62.90    3.99   1
  -4   0  -3    1.73    1.87   1
   4   0   3   -2.08    1.58   1
  -5   0  -3  722.86   21.12   1
  -6   0  -3   -2.36    2.02   1
  -7   0  -3   59.20    7.30   1
  -8   0  -3   -6.43    2.39   1
  -9   0  -3   -1.24    3.67   1
 -10  -1   3    0.51    4.75   1
 -10   1   3    1.28    4.44   1
  -9  -1   3   26.72    6.36   1
  -9   1   3   29.05    6.09   1
  -8  -1   3    9.77    3.93   1
  -8   1   3   10.01    4.20   1
  -7  -1   3   -2.36    2.37   1
  -7   1   3    0.61    2.77   1
  -6  -1   3   -1.40    2.33   1
  -6   1   3   -0.66    1.51   1
  -6   1   3    6.06    3.38   4
  -5  -1   3  133.07    6.96   1
  -5   1   3  119.61    6.62   1
  -5   1   3  122.46    7.83   4
   4  -1  -3   55.47    3.85   1
  -4  -1   3   51.64    4.17   1
   4   1  -3   50.72    4.48   4
   4   1  -3   48.01    3.87   1
  -4   1   3   54.25    3.96   1
  -4   1   3   64.14    6.52   4
   3  -1  -3  101.07    4.53   1
  -3   1   3   98.22    5.84   4
   3   1  -3   91.49    4.70   1
  -3   1   3  103.34    4.59   1
   3   1  -3   96.41    4.39   3
   2  -1  -3  100.61    2.39   3
   2  -1  -3   96.74    3.67   1
   2  -1  -3   94.69    5.41   4
   2   1  -3   94.90    4.25   1
  -2   1   3  100.49    3.75   1
   2   1  -3  101.85    4.02   3
   1  -1  -3 2410.57   51.38   1
   1  -1  -3 2437.15   52.03   2
   1  -1  -3 2429.06   53.25   4
  -1  -1   3 2436.33   51.29   3
  -1   1   3 2397.06   50.82   3
  -1   1   3 2337.93   51.86   2
  -1   1   3 2373.98   52.28   1
   1   1  -3 2439.08   51.28   3
   1   1  -3 2379.57   52.45   2
   0  -1   3  475.28   12.07   3
   0  -1   3  468.01   12.59   2
   0  -1  -3  474.26   12.59   2
   0   1   3  455.90   12.42   2
   0   1   3  470.13    9.89   1
   0   1  -3  478.27   12.69   2
   0   1  -3  472.55   12.04   3
   1  -1   3   49.34    3.33   3
   1  -1   3   47.30    3.28   2
  -1  -1  -3   44.96    2.26   1
  -1   1  -3   45.80    3.31   2
   1   1   3   50.66    3.26   2
  -1   1  -3   47.02    3.16   3
  -1   1  -3   46.62    2.71   1
   1   1   3   42.65    2.27   1
   2  -1   3  581.53   16.11   3
  -2  -1  -3  593.12   14.91   1
   2  -1   3  613.84   15.38   1
   2  -1   3  573.86   15.94   2
   2   1   3  593.53   14.85   1
  -2   1  -3  594.08   15.39   1
   3  -1   3   86.50    5.33   3
  -3  -1  -3   73.17    4.34   1
   3  -1   3   80.32    4.56   1
  -3   1  -3   77.21    4.66   1
   3   1   3   82.43    4.47   1
   4  -1   3   18.44    3.57   3
  -4  -1  -3   18.34    3.30   1
  -4   1  -3   17.34    3.27   1
   4   1   3   17.55    3.04   1
  -5  -1  -3   70.17    5.57   1
   5  -1   3   75.85    5.84   3
  -5   1  -3   76.48    5.83   1
   6  -1   3   13.02    4.02   3
  -6  -1  -3   14.35    3.79   1
  -6   1  -3    9.52    3.57   1
   7  -1   3   32.23    5.97   3
  -7  -1  -3   40.54    6.03   1
  -7   1  -3   32.69    5.72   1
  -8  -1  -3   -0.11    3.34   1
   8  -1   3    3.19    3.66   3
  -8   1  -3    6.33    4.11   1
   9  -1   3    2.64    4.21   3
  -9  -1  -3   -6.08    3.38   1
  -9   1  -3    1.72    4.37   1
 -10   2   3   -3.25    2.80   1
   9  -2  -3    0.96    2.94   3
  -9   2   3    3.51    4.11   1
   8  -2  -3    2.85    2.74   3
  -8   2   3   -0.70    3.48   4
  -8   2   3   -0.08    3.34   1
   7  -2  -3   98.13    6.31   3
  -7   2   3  106.53    7.80   1
  -7   2   3  121.46    9.56   4
   6  -2  -3    0.99    1.61   3
  -6   2   3   -2.13    2.28   1
  -6   2   3   -0.42    3.02   4
   5  -2  -3    7.15    1.88   3
  -5   2   3    7.03    3.06   4
  -5   2   3    5.75    2.48   1
   5   2  -3    6.91    2.86   4
   4  -2  -3  459.61   13.73   1
   4  -2  -3  485.14   12.21   3
   4   2  -3  473.50   14.64   1
  -4   2   3  478.95   14.03   1
  -4   2   3  483.37   16.65   4
   3  -2  -3  218.13    7.26   1
   3  -2  -3  218.11    5.81   3
   3   2  -3  222.18    7.83   3
  -3   2   3  209.75    9.49   4
  -3   2   3  210.79    7.33   1
   3   2  -3  233.91    8.36   1
   2  -2  -3  110.58    4.06   1
   2  -2  -3  102.35    4.57   2
  -2  -2   3  115.48    4.95   3
   2   2  -3  114.32    4.95   3
  -2   2   3  110.54    4.11   1
  -2   2   3  114.02    6.04   4
  -1  -2   3  862.97   21.14   3
   1  -2  -3  869.45   20.81   2
  -1   2   3  883.15   19.12   3
  -1   2   3  916.57   20.95   2
  -1   2   3  897.26   22.61   4
  -1   2   3  897.82   19.35   1
   1   2  -3  893.54   21.19   3
   0  -2   3   23.21    2.71   3
   0  -2   3   27.08    2.87   2
   0  -2  -3   30.01    3.16   4
   0  -2  -3   24.86    2.68   2
   0   2   3   24.39    2.56   2
   0   2  -3   23.10    2.59   3
   0   2  -3   26.51    2.86   2
   1  -2   3  312.79    9.42   2
  -1  -2  -3  307.38    8.65   4
   1  -2   3  304.58    9.65   3
  -1   2  -3  296.47    9.13   1
  -1   2  -3  295.05    9.37   2
   1   2   3  319.75    9.81   2
  -1   2  -3  307.87    9.56   3
   1   2   3  321.51    8.21   1
   2  -2   3    3.87    1.63   3
   2  -2   3    2.61    1.59   1
   2  -2   3    1.69    1.49   2
  -2  -2  -3   -0.53    1.05   1
   2   2   3   -0.23    1.13   1
  -2   2  -3   -1.60    1.25   1
  -2   2  -3    2.06    1.74   3
   3  -2   3  520.38   15.18   2
  -3  -2  -3  523.55   14.75   1
   3  -2   3  524.08   15.80   3
   3  -2   3  500.81   14.93   1
  -3   2  -3  513.27   15.19   1
   3   2   3  539.39   14.69   1
  -4  -2  -3   10.73    2.77   1
   4  -2   3    9.02    2.59   3
  -4   2  -3   13.45    2.76   1
  -5  -2  -3   43.65    5.15   1
   5  -2   3   50.40    6.01   3
  -5   2  -3   40.78    5.18   1
  -6  -2  -3  152.76    5.94   4
   6  -2   3  162.98    9.62   3
  -6  -2  -3  164.04    9.22   1
  -6   2  -3  176.16    9.65   1
  -7  -2  -3   54.62    7.04   1
   7  -2   3   52.14    7.08   3
  -7   2  -3   43.56    6.37   1
   8  -2   3   45.29    7.11   3
  -8  -2  -3   28.94    6.08   1
  -8   2  -3   40.28    6.89   1
   9  -2   3   32.42    6.64   3
  -9  -2  -3   27.07    6.59   1
  -9   2  -3   34.73    7.11   1
  -9   3   3    5.42    5.16   4
  -9   3   3    6.06    4.29   1
   8  -3  -3    3.00    2.33   3
  -8   3   3    6.06    3.92   1
  -8   3   3    3.46    4.43   4
   7  -3  -3  132.80    7.15   3
  -7   3   3  138.93   10.73   4
  -7   3   3  148.09    9.13   1
   6  -3  -3    1.94    1.84   3
  -6   3   3    0.04    2.21   1
  -6   3   3    3.11    3.40   4
   5  -3  -3   37.80    3.54   3
  -5   3   3   27.98    5.68   4
   5   3  -3   36.47    4.92   4
  -5   3   3   32.74    4.34   1
   4  -3  -3   83.70    4.84   1
   4  -3  -3   88.59    3.97   3
   4   3  -3   80.23    5.29   3
  -4   3   3   81.97    5.00   1
  -4   3   3  100.13    6.93   4
   3  -3  -3  890.01   19.87   3
   3  -3  -3  879.81   21.55   1
   3   3  -3  895.80   22.82   3
  -3   3   3  878.51   25.11   4
  -3   3   3  863.19   21.62   1
  -2  -3   3    0.51    1.17   3
   2  -3  -3    1.02    0.78   3
   2  -3  -3    0.58    1.10   2
  -2   3   3   -0.70    0.86   1
  -2   3   3    1.34    2.02   4
  -2   3   3   -0.23    0.60   3
   2   3  -3    1.22    1.56   3
   1  -3  -3  269.67    7.81   2
  -1  -3   3  246.99    8.63   3
  -1   3   3  263.46    7.08   3
  -1   3   3  257.39    7.69   2
  -1   3   3  271.01    9.63   4
  -1   3   3  259.00    7.18   1
   1   3  -3  254.53    8.75   3
   0  -3   3   64.67    3.94   3
   0   3   3   66.02    3.64   2
   0   3  -3   68.71    3.95   2
   0   3   3   63.61    4.15   4
   0   3  -3   68.89    3.97   3
   1  -3   3  346.27   11.26   3
   1  -3   3  365.75   10.56   2
   1   3   3  364.58    9.82   1
  -1   3  -3  344.09   10.45   2
  -1   3  -3  365.75   11.29   3
   2  -3   3  302.81    9.85   2
   2  -3   3  307.66   10.89   3
  -2   3  -3  313.66   10.78   3
  -2   3  -3  314.88   10.49   1
   2   3   3  353.87    9.92   1
   3  -3   3  438.27   14.24   3
   3  -3   3  409.18   12.94   2
  -3   3  -3  442.18   13.76   1
   3   3   3  442.31   13.01   1
  -4  -3  -3    7.02    2.59   1
   4  -3   3    6.02    2.27   2
   4  -3   3   10.32    3.04   3
  -4   3  -3    9.38    2.85   1
   5  -3   3    4.98    3.05   3
  -5  -3  -3    8.57    2.89   1
  -5   3  -3   -0.81    2.12   1
  -6  -3  -3   16.56    4.38   1
   6  -3   3    8.56    3.58   3
  -6   3  -3   21.68    4.63   1
  -7  -3  -3   84.32    8.54   1
   7  -3   3   82.94    8.92   3
  -7   3  -3  103.90    8.51   1
   8  -3   3   -2.47    2.94   3
  -8  -3  -3    3.05    3.87   1
  -8   3  -3    2.64    3.03   1
   9  -3   3   -1.49    3.29   3
  -9   3  -3    1.29    3.81   1
  -9   4   3   -0.69    3.77   1
  -9   4   3   -1.37    4.89   4
   8  -4  -3   12.49    3.69   3
  -8   4   3   22.96    5.45   1
  -8   4   3   17.62    6.95   4
   7  -4  -3  115.03    6.73   3
  -7   4   3  124.39    8.61   1
  -7   4   3  118.28   12.59   4
   6  -4  -3   -0.99    1.64   3
  -6   4   3    3.81    2.73   1
   6   4  -3    4.56    2.60   4
  -6   4   3    3.46    2.97   4
   5  -4  -3   50.63    3.67   3
  -5   4   3   50.69    6.96   4
  -5   4   3   53.03    5.46   1
   4  -4  -3   62.89    3.55   3
   4  -4  -3   63.12    4.40   1
  -4   4   3   61.37    4.51   1
   3  -4  -3   18.63    2.29   2
   3  -4  -3   18.43    2.12   3
  -3   4   3   23.29    3.04   1
  -3   4   3   20.11    2.09   3
   3   4  -3   16.34    3.09   3
   2  -4  -3   90.58    3.93   3
   2  -4  -3   95.85    3.83   2
  -2  -4   3   93.04    5.28   3
  -2   4   3   88.78    3.73   3
   2   4  -3   87.92    5.32   3
  -2   4   3   88.80    4.31   1
  -1  -4   3  271.90    9.93   3
  -1   4   3  281.59    8.19   3
   1   4  -3  278.42    9.91   3
  -1   4   3  280.98    7.98   2
   0  -4   3  118.38    5.95   3
   0   4  -3  119.90    6.06   3
   0   4  -3  124.85    5.37   2
   0   4   3  124.33    5.24   3
   0   4   3  131.75    6.21   4
   0   4   3  120.51    5.04   2
   1  -4   3  290.32   10.29   3
  -1   4  -3  273.52    8.90   2
   1   4   3  285.91    9.02   4
  -1   4  -3  279.50   10.06   3
   2  -4   3   54.97    5.32   3
   2  -4   3   49.25    3.46   2
   2   4   3   49.35    3.55   1
  -2   4  -3   46.48    4.75   3
  -2   4  -3   49.35    4.19   1
   3  -4   3  232.90    8.45   2
   3  -4   3  224.40    9.73   3
  -3   4  -3  221.71    9.36   1
   3   4   3  213.29    8.53   1
   4  -4   3   31.32    4.71   3
   4  -4   3   28.71    3.77   2
  -4   4  -3   21.00    3.73   1
   5  -4   3  136.54    8.61   3
  -5   4  -3  154.90    8.59   1
   6  -4   3   12.77    4.00   3
  -6   4  -3   12.50    4.16   1
   7  -4   3    9.61    4.17   3
  -7   4  -3   14.16    4.91   1
   8  -4   3    0.45    3.15   3
  -8   4  -3   -1.67    2.49   1
   9  -4   3   37.25    7.19   3
  -9   4  -3   24.00    6.64   1
  -9   5   3    1.05    5.33   4
  -9   5   3    4.04    4.51   1
  -8   5   3   -1.46    3.15   1
  -8   5   3   -0.70    5.25   4
   7  -5  -3   24.85    3.92   3
  -7   5   3   33.02    5.73   1
  -7   5   3   27.31    6.66   4
   6  -5  -3   19.97    3.30   3
  -6   5   3   23.12    4.50   1
   6   5  -3   27.60    4.70   4
   5  -5  -3   23.00    3.18   3
  -5   5   3   21.24    4.09   1
   4  -5  -3   14.07    2.11   2
   4  -5  -3   12.04    2.30   3
  -4   5   3    9.12    2.70   1
   3  -5  -3   66.28    3.03   2
   3  -5  -3   67.35    3.96   3
  -3   5   3   67.85    4.53   1
  -3   5   3   71.95    3.83   3
  -2  -5   3  167.61    8.19   3
  -2   5   3  184.15    7.02   1
  -2   5   3  172.21    6.32   3
  -1  -5   3   90.02    5.56   3
  -1   5   3   82.83    4.31   3
  -1   5   3   81.37    3.50   2
   0  -5   3  945.78   25.27   3
   0   5  -3  942.37   23.23   2
   0   5   3  945.44   22.70   2
   0   5  -3  950.17   26.75   3
   0   5   3  956.84   23.67   3
   1  -5   3    7.93    2.63   3
  -1   5  -3    7.15    2.01   2
   1   5   3    7.64    2.22   3
   1   5   3    8.08    2.45   4
   2  -5   3  106.70    6.63   3
   2  -5   3  117.84    5.29   2
   2   5   3  117.64    5.90   1
  -2   5  -3  120.35    6.79   1
   3  -5   3   32.06    3.43   2
   3  -5   3   25.90    4.42   3
  -3   5  -3   26.43    4.28   1
   4  -5   3  396.54   14.62   3
   4  -5   3  347.59   11.85   2
  -4   5  -3  362.14   13.87   1
   5  -5   3    5.17    2.80   3
  -5   5  -3    5.18    2.62   1
   6  -5   3    4.43    3.57   3
  -6   5  -3   11.69    3.99   1
   7  -5   3   -2.68    2.77   3
  -7   5  -3   -0.59    3.51   1
   8  -5   3   -4.31    2.96   3
  -8   5  -3    3.32    4.39   1
  -8   6   3    2.00    6.06   4
  -8   6   3    0.36    3.72   1
  -7   6   3   10.53    4.25   1
  -7   6   3    3.94    5.02   4
   6  -6  -3   -1.55    2.06   3
  -6   6   3    5.82    3.30   1
   5  -6  -3    4.01    2.14   3
   5  -6  -3    4.73    1.54   2
  -5   6   3    7.65    3.05   1
   4  -6  -3    0.51    0.79   2
   4  -6  -3    2.66    2.04   3
  -4   6   3    3.53    1.73   3
  -4   6   3    2.78    2.52   1
   3  -6  -3   36.97    3.88   3
  -3   6   3   38.29    3.19   3
  -3   6   3   30.95    4.00   1
  -2   6   3   15.71    2.45   3
  -2   6   3    9.90    2.46   1
  -1  -6   3   -1.81    1.87   3
  -1   6   3    1.32    1.54   3
  -1   6   3    2.22    1.01   2
   0  -6   3   72.55    5.46   3
   0   6   3   81.60    4.99   3
   0   6   3   84.34    4.15   2
   0   6  -3   80.71    4.57   2
   1  -6   3  789.46   22.85   3
  -1   6  -3  776.70   19.63   2
   2  -6   3    9.41    2.91   3
  -2   6  -3    6.89    2.83   1
   2   6   3    9.08    2.12   4
   3  -6   3   -0.15    1.22   2
   3  -6   3   -2.00    2.13   3
  -3   6  -3   -1.83    1.99   1
   4  -6   3   21.19    4.73   3
   4  -6   3   25.79    4.87   2
  -4   6  -3   17.15    4.18   1
   5  -6   3   39.13    6.10   3
  -5   6  -3   27.07    5.20   1
   6  -6   3    6.14    3.67   3
  -6   6  -3    1.54    2.57   1
   7  -6   3   19.20    5.29   3
  -7   6  -3   18.97    4.93   1
   8  -6   3    1.06    4.20   3
  -8   6  -3   -0.06    3.19   1
  -8   7   3   15.25    7.46   4
  -8   7   3    6.26    4.16   1
  -7   7   3    3.10    3.49   1
  -6   7   3    1.40    3.12   1
   5  -7  -3   81.61    5.76   3
  -5   7   3   74.92    7.54   1
   4  -7  -3    2.50    2.18   3
  -4   7   3    2.22    1.76   3
  -4   7   3    1.67    2.59   1
   3  -7  -3   65.42    4.99   3
  -3   7   3   65.28    5.32   1
  -3   7   3   70.37    4.74   3
  -2   7   3   55.90    4.32   3
  -2   7   3   62.73    5.88   1
  -1  -7   3   82.58    6.38   3
  -1   7   3   91.58    5.53   3
   1   7  -3   87.46    5.37   2
   0  -7   3    8.51    3.01   3
   0   7  -3    4.99    1.89   2
   0   7   3    4.81    1.49   2
   1  -7   3   37.36    5.48   3
  -1   7  -3   41.34    3.34   2
   2  -7   3    9.09    3.70   3
  -2   7  -3   14.47    3.95   1
   2   7   3   11.27    2.61   4
   3  -7   3    9.91    3.28   3
  -3   7  -3    6.59    3.47   1
   4  -7   3    4.01    3.41   3
  -4   7  -3    6.25    3.32   1
   5  -7   3   25.97    5.45   3
  -5   7  -3   19.79    5.01   1
   6  -7   3    7.12    3.82   3
  -6   7  -3    2.09    3.43   1
   7  -7   3    9.60    4.70   3
  -7   7  -3    9.98    4.64   1
  -7   8   3    7.56    4.10   1
  -6   8   3   19.71    4.74   1
   5  -8  -3   11.27    3.27   3
  -5   8   3   18.86    4.48   1
   4  -8  -3   10.61    3.15   3
  -4   8   3   23.67    4.69   1
  -3   8   3   16.14    3.86   1
  -2   8   3   10.60    3.32   1
  -1  -8   3   17.70    4.63   3
   1   8  -3   17.62    3.25   2
   0  -8   3   12.41    4.10   3
   0   8   3   13.13    2.15   2
   0   8  -3   12.89    2.65   2
   1  -8   3  158.85    9.74   3
   1   8   3  164.56    7.29   2
  -1   8  -3  171.62    6.39   2
   2  -8   3   12.99    4.07   3
  -2   8  -3   10.78    3.92   1
   2   8   3    9.98    2.80   4
   3  -8   3   31.64    5.94   3
  -3   8  -3   15.55    4.50   1
   4  -8   3   72.39    8.49   3
  -4   8  -3   59.64    7.30   1
   5  -8   3   11.55    4.77   3
  -5   8  -3   12.12    4.47   1
   6  -8   3    1.50    3.99   3
  -6   8  -3    6.06    3.59   1
  -6   9   3    7.78    4.31   1
  -5   9   3    2.77    3.80   1
   4  -9  -3   -0.10    2.32   3
  -4   9   3   -0.43    2.93   1
  -3   9   3   62.44    6.81   1
  -2   9   3   27.28    4.90   1
  -1  -9   3   -2.83    2.54   3
   1   9  -3    0.76    1.83   2
   0  -9   3    2.78    3.48   3
   0   9  -3    3.92    1.85   2
   1  -9   3   11.21    4.35   3
   2  -9   3    4.61    3.59   3
  -2   9  -3   -1.03    3.21   1
   2   9   3   -2.80    2.32   4
   3  -9   3    8.23    4.11   3
  -3   9  -3    7.07    3.98   1
   4  -9   3    3.89    3.83   3
  -4   9  -3    5.23    3.82   1
   5  -9   3    1.33    3.89   3
  -5   9  -3    0.38    3.67   1
   6  -9   3   -3.27    3.66   3
  -6   9  -3   -1.67    3.64   1
  -5  10   3   -1.68    3.35   1
  -4  10   3    4.79    3.91   1
  -3  10   3   -0.41    2.96   1
  -2  10   3    0.78    3.36   1
  -1  10   3   65.75    7.42   1
   0 -10   3    7.30    3.94   3
   1 -10   3    2.78    3.93   3
   2 -10   3    0.20    3.19   3
  -2  10  -3   -1.62    2.37   1
   3 -10   3   87.15    9.75   3
  -3  10  -3   65.55    8.55   1
   4 -10   3   -0.43    3.96   3
  -4  10  -3    3.92    4.01   1
  -3  11   3   -1.62    2.99   1
  -2  11   3   -2.84    3.25   1
  -1  11   3    6.35    3.77   1
   0 -11   3   46.09    7.91   3
   1 -11   3    0.24    3.74   3
  -1  11  -3    1.29    4.18   1
   2 -11   3    6.39    4.30   3
  -2  11  -3   -1.89    3.57   1
   3 -11   3    1.05    4.20   3
  -3  11  -3    1.46    4.06   1
 -10   0   4   -5.35    4.06   1
  -9   0   4    0.71    4.23   1
  -8   0   4    0.52    3.36   1
  -7   0   4   -2.77    2.43   1
  -6   0   4   20.73    4.11   1
  -5   0   4   -4.12    1.32   1
  -4   0   4   -4.06    1.40   1
   4   0  -4    0.50    2.33   4
   4   0  -4    2.69    1.74   1
  -3   0   4    0.55    1.25   1
   3   0  -4   -0.44    1.98   4
   3   0  -4    0.89    0.95   3
   3   0  -4   -2.60    0.89   1
   2   0  -4  352.61    9.49   1
   2   0  -4  362.84    8.90   3
   1   0  -4    0.47    1.57   2
  -1   0   4   -1.56    0.72   3
   1   0  -4   -0.33    0.82   3
   0   0  -4   23.37    3.13   2
   0   0  -4   21.86    1.43   1
   0   0   4   21.53    2.79   2
   0   0   4   21.05    2.26   3
   1   0   4   -2.05    1.21   3
   1   0   4    1.94    1.58   2
  -1   0  -4    2.32    0.98   1
  -1   0  -4    0.38    1.74   2
   1   0   4   -0.80    0.88   1
   2   0   4   53.73    3.27   1
   2   0   4   49.30    4.10   2
  -2   0  -4   45.16    3.17   1
  -3   0  -4   -2.72    1.19   1
   3   0   4   -0.67    1.32   1
   3   0   4   -1.24    1.27   2
  -4   0  -4    5.42    2.42   1
  -5   0  -4   -2.57    1.11   1
  -6   0  -4    7.84    3.49   1
  -7   0  -4   -0.65    2.86   1
  -8   0  -4   -0.56    3.41   1
   9   0   4    0.14    3.81   3
  -9   0  -4    2.48    4.11   1
 -10   1   4   -4.02    3.88   1
  -9  -1   4    0.46    3.29   1
  -9   1   4   -2.41    3.37   1
  -8  -1   4   44.78    7.02   1
  -8   1   4   47.96    6.89   1
  -7  -1   4   -1.42    2.94   1
  -7   1   4    3.63    3.30   1
  -6  -1   4  223.49   10.47   1
  -6   1   4  217.12    9.95   1
  -5   1   4  101.61    6.02   1
   4  -1  -4 1542.39   35.70   1
   4   1  -4 1532.29   38.49   4
   4   1  -4 1507.74   35.08   3
   4   1  -4 1561.34   36.48   1
  -4   1   4 1528.68   35.81   1
   3  -1  -4 1256.91   26.70   3
   3  -1  -4 1268.40   28.75   1
   3  -1  -4 1258.23   32.32   4
   3   1  -4 1233.33   29.57   1
  -3   1   4 1262.57   28.86   1
   2  -1  -4   58.34    4.73   4
  -2  -1   4   67.60    3.29   3
   2  -1  -4   66.44    4.20   2
   2  -1  -4   65.53    2.80   1
  -2   1   4   60.94    2.82   1
   2   1  -4   62.71    3.30   3
  -1  -1   4  214.12    6.71   3
   1  -1  -4  203.18    4.76   1
   1  -1  -4  210.18    7.57   2
   1   1  -4  213.85    7.80   2
   1   1  -4  204.12    6.58   3
  -1   1   4  208.80    7.43   2
  -1   1   4  214.40    5.52   3
   0  -1   4 1562.74   36.28   2
   0  -1  -4 1591.86   36.31   2
   0  -1  -4 1568.47   33.21   1
   0  -1   4 1580.80   35.33   3
   0   1  -4 1564.05   35.27   3
   0   1   4 1563.82   36.14   2
   0   1  -4 1584.50   36.39   2
   1  -1   4 1304.55   30.81   3
   1  -1   4 1331.39   31.33   2
  -1  -1  -4 1295.85   28.60   1
  -1   1  -4 1352.49   29.66   1
   1   1   4 1331.51   28.60   1
  -1   1  -4 1312.83   31.35   2
   1   1   4 1273.42   31.28   2
   2  -1   4  406.06   12.70   3
  -2  -1  -4  400.72   11.14   1
   2  -1   4  400.27   12.79   2
   2  -1   4  422.32   11.75   1
   2   1   4  412.94   11.15   1
  -2   1  -4  411.83   11.80   1
   3  -1   4   80.06    5.38   2
   3  -1   4   76.67    4.61   1
  -3  -1  -4   81.89    4.58   1
   3  -1   4   68.77    5.21   3
  -3   1  -4   76.57    4.72   1
   3   1   4   77.85    4.41   1
  -4  -1  -4 1063.96   27.55   1
   4  -1   4 1079.71   29.08   3
  -4   1  -4 1101.97   28.07   1
   5  -1   4   25.86    4.72   3
  -5  -1  -4   30.26    4.62   1
  -5   1  -4   24.56    4.11   1
  -6  -1  -4  165.62    9.30   1
   6  -1   4  145.64    9.61   3
  -6   1  -4  173.51    9.56   1
   7  -1   4   63.89    7.87   3
  -7  -1  -4   56.50    7.06   1
  -7   1  -4   65.13    7.74   1
  -8  -1  -4   21.40    5.46   1
   8  -1   4   26.36    6.23   3
  -8   1  -4   22.71    5.67   1
   9  -1   4   -4.94    3.58   3
  -9  -1  -4   -1.09    3.66   1
  -9   1  -4   -2.75    3.40   1
 -10   2   4    3.01    4.58   1
  -9   2   4    6.90    4.77   1
   8  -2  -4    5.28    2.59   3
  -8   2   4   -5.32    2.59   1
   7  -2  -4   41.96    4.41   3
  -7   2   4   29.02    5.07   1
   6  -2  -4   11.23    2.28   3
  -6   2   4   10.01    4.20   4
  -6   2   4   10.36    3.35   1
   5  -2  -4  183.76    6.36   3
   5   2  -4  202.51    8.27   3
  -5   2   4  182.66    8.22   1
  -5   2   4  195.16   10.64   4
   4  -2  -4   62.02    2.70   3
   4  -2  -4   59.57    4.15   1
  -4   2   4   58.81    6.77   4
   4   2  -4   57.50    4.46   1
  -4   2   4   68.61    4.34   1
   3  -2  -4  527.27   13.59   1
  -3   2   4  499.57   16.95   4
   3   2  -4  513.56   14.93   1
   3   2  -4  523.00   14.45   3
  -3   2   4  537.93   13.77   1
   2  -2  -4   10.14    1.37   1
   2  -2  -4   11.56    2.79   4
  -2  -2   4    8.65    1.95   3
   2  -2  -4   14.86    2.46   2
   2   2  -4   12.78    2.18   3
  -2   2   4   10.35    1.45   1
   1  -2  -4    6.00    1.79   2
   1  -2  -4    2.52    1.85   4
  -1  -2   4    1.77    1.42   3
  -1   2   4    4.43    1.66   2
   1   2  -4    1.87    1.33   3
  -1   2   4    4.29    0.65   1
   1   2  -4    1.56    1.80   2
   0  -2  -4   38.85    3.76   2
   0  -2   4   31.69    3.33   3
   0  -2   4   35.82    3.84   2
   0  -2  -4   34.75    3.11   4
   0   2   4   31.32    1.27   1
   0   2  -4   31.65    3.20   3
   0   2   4   33.23    3.47   2
   0   2  -4   34.35    3.67   2
   1  -2   4  607.81   16.98   3
   1  -2   4  615.15   16.92   2
  -1   2  -4  627.10   16.94   3
  -1   2  -4  635.14   16.22   1
   1   2   4  649.04   17.40   2
  -1   2  -4  631.22   17.15   2
   1   2   4  621.49   14.61   1
  -2  -2  -4   11.15    1.98   1
   2  -2   4   14.36    2.97   3
   2  -2   4    9.56    2.36   2
   2   2   4   13.92    2.79   2
   2   2   4   15.23    2.04   1
  -2   2  -4   11.64    2.28   1
   3  -2   4  117.65    6.54   2
   3  -2   4  134.35    7.20   3
   3  -2   4  131.17    6.41   1
  -3  -2  -4  134.61    6.08   1
  -3   2  -4  144.98    6.77   1
   3   2   4  139.23    6.07   1
  -4  -2  -4   34.80    4.26   1
   4  -2   4   21.60    3.90   3
  -4   2  -4   26.42    3.80   1
  -5  -2  -4  155.35    8.15   1
   5  -2   4  147.34    8.55   3
  -5   2  -4  147.11    8.34   1
   6  -2   4    1.69    3.04   3
  -6  -2  -4    4.52    2.97   1
  -6   2  -4    1.44    2.79   1
   7  -2   4   43.15    6.52   3
  -7  -2  -4   51.19    7.13   1
  -7   2  -4   41.47    6.41   1
   8  -2   4   14.95    5.14   3
  -8  -2  -4    9.67    4.45   1
  -8   2  -4   13.41    4.90   1
  -9  -2  -4   -2.03    3.80   1
   9  -2   4    7.42    4.82   3
  -9   2  -4    8.84    4.98   1
  -9   3   4   28.14    6.32   1
  -8   3   4   35.68    6.18   1
  -8   3   4   38.08    7.97   4
   7  -3  -4   -1.21    1.68   3
  -7   3   4   -3.95    3.66   4
  -7   3   4    1.63    2.79   1
   6  -3  -4   13.53    2.40   3
  -6   3   4   10.56    4.63   4
  -6   3   4   17.47    3.75   1
   5  -3  -4   13.09    1.93   3
  -5   3   4   18.59    5.02   4
  -5   3   4   12.89    3.11   1
   4  -3  -4  341.60    8.59   3
   4  -3  -4  344.11   10.92   1
  -4   3   4  329.46   14.14   4
  -4   3   4  347.03   11.13   1
   4   3  -4  342.18   11.79   3
   3  -3  -4    1.12    1.12   1
   3  -3  -4    2.92    1.76   2
   3   3  -4    2.38    1.77   3
  -3   3   4    2.64    1.39   1
  -3   3   4    1.08    1.86   4
   2  -3  -4  418.23   11.82   2
  -2  -3   4  394.96   12.45   3
  -2   3   4  403.84    9.25   3
   2   3  -4  429.60   12.69   3
  -2   3   4  406.27   14.31   4
  -2   3   4  416.49   10.68   1
   1  -3  -4   13.65    2.30   2
  -1  -3   4   13.03    2.62   3
  -1   3   4   15.36    2.42   2
   1   3  -4   12.53    2.65   2
  -1   3   4   14.83    1.61   3
  -1   3   4   12.74    1.38   1
   1   3  -4   11.32    2.39   3
   0  -3   4   23.05    3.23   3
   0   3  -4   20.87    3.00   3
   0   3  -4   27.84    3.36   2
   0   3   4   21.56    2.96   2
   1  -3   4  370.49   12.37   3
   1  -3   4  397.05   12.03   2
   1   3   4  391.62   10.17   1
  -1   3  -4  387.58   11.87   1
  -1   3  -4  381.50   12.29   3
  -1   3  -4  393.57   12.10   2
   1   3   4  378.42   12.16   2
   2  -3   4  977.41   25.58   3
   2  -3   4  964.22   24.61   2
  -2   3  -4  976.67   24.74   1
  -2   3  -4  962.75   25.25   3
   2   3   4  974.64   23.20   1
   3  -3   4   -0.57    1.44   3
   3  -3   4    0.10    1.54   2
  -3   3  -4    3.28    2.04   1
   3   3   4    0.54    1.46   1
  -4  -3  -4   40.68    4.65   1
   4  -3   4   24.93    4.23   3
  -4   3  -4   33.38    4.65   1
   5  -3   4    7.85    3.54   3
  -5  -3  -4    7.17    3.19   1
  -5   3  -4   13.75    3.86   1
  -6  -3  -4  117.18    8.20   1
   6  -3   4  146.82    9.58   3
  -6   3  -4  120.42    8.58   1
  -7  -3  -4    3.29    3.62   1
   7  -3   4    7.09    3.63   3
  -7   3  -4    3.29    3.62   1
   8  -3   4   30.79    6.26   3
  -8  -3  -4   28.28    6.40   1
  -8   3  -4   40.05    6.68   1
  -9   4   4    3.84    4.29   1
  -9   4   4   -2.73    4.71   4
  -8   4   4   14.97    4.69   1
  -8   4   4   18.85    6.65   4
   7  -4  -4    1.75    2.01   3
  -7   4   4   -2.80    4.15   4
  -7   4   4    4.04    3.30   1
   6  -4  -4    3.03    1.72   3
  -6   4   4    3.70    2.70   1
  -6   4   4    2.70    3.71   4
   5  -4  -4   -0.42    1.05   3
  -5   4   4    1.80    2.12   1
  -5   4   4    0.02    2.42   4
   4  -4  -4   95.55    5.18   2
   4  -4  -4   93.36    3.76   3
   4  -4  -4   78.37    4.91   1
  -4   4   4   93.23    5.40   1
  -4   4   4   80.28    7.18   4
   3  -4  -4   54.92    3.64   2
  -3   4   4   59.88    3.77   1
  -3   4   4   59.94    7.05   4
   3   4  -4   57.17    4.42   3
   2  -4  -4   93.06    4.49   2
  -2  -4   4   90.27    5.61   3
  -2   4   4   93.24    6.53   4
   2   4  -4   98.23    5.76   3
  -2   4   4   99.02    4.33   1
  -2   4   4   95.77    3.62   3
  -1  -4   4    7.28    2.42   3
  -1   4   4    6.84    1.44   3
  -1   4   4    8.07    1.47   1
   1   4  -4    9.09    2.42   3
  -1   4   4    8.51    1.96   2
   1   4  -4    9.94    2.44   2
  -1   4   4   12.91    3.00   4
   0  -4   4    4.56    2.07   3
   0   4  -4    2.77    2.04   3
   0   4   4    4.19    1.75   2
   0   4  -4    8.68    2.32   2
   1  -4   4  117.86    6.49   3
   1  -4   4  111.52    5.55   2
   1   4   4  115.69    4.87   1
  -1   4  -4  113.00    6.12   3
   1   4   4  111.19    5.95   2
  -1   4  -4  120.95    5.94   2
   2  -4   4   77.81    4.84   2
   2  -4   4   73.62    5.63   3
  -2   4  -4   93.76    5.67   1
   2   4   4   79.70    4.43   1
   3  -4   4   66.21    5.66   3
   3  -4   4   73.44    4.86   2
   3   4   4   65.67    4.41   1
  -3   4  -4   67.18    5.22   1
   4  -4   4  134.51    8.01   3
  -4   4  -4  133.81    7.93   1
   5  -4   4   37.05    5.92   3
  -5   4  -4   30.46    4.83   1
   6  -4   4   39.72    6.30   3
  -6   4  -4   31.79    5.70   1
   7  -4   4   -0.58    3.12   3
  -7   4  -4    0.91    3.54   1
   8  -4   4   19.17    5.76   3
  -8   4  -4   20.16    5.37   1
  -9   5   4   -1.01    3.83   1
  -9   5   4   -2.41    5.04   4
  -8   5   4   25.73    5.73   1
  -8   5   4   31.25    8.51   4
  -7   5   4   -0.53    2.74   1
  -7   5   4   -2.57    4.07   4
  -6   5   4  127.39   11.16   4
  -6   5   4  144.32    8.48   1
   5  -5  -4   15.06    2.85   2
   5  -5  -4   16.00    2.35   3
  -5   5   4   17.38    3.60   1
  -5   5   4   17.84    5.41   4
   4  -5  -4   97.13    4.33   3
   4  -5  -4   87.45    4.60   2
  -4   5   4   93.06    5.59   1
  -4   5   4   84.53    7.84   4
   3  -5  -4   61.70    3.50   2
  -3   5   4   70.20    4.42   1
  -3   5   4   57.75    3.17   3
  -3   5   4   61.78    7.37   4
  -2  -5   4  193.05    8.86   3
  -2   5   4  174.66    6.73   1
  -2   5   4  175.05    6.18   3
  -2   5   4  193.11    9.88   4
  -1  -5   4  568.85   17.54   3
  -1   5   4  576.19   18.22   4
   1   5  -4  547.35   16.53   2
  -1   5   4  572.29   15.01   3
  -1   5   4  577.23   14.98   2
   0  -5   4  286.49   11.04   3
   0   5   4  294.58   11.10   4
   0   5   4  293.32    9.61   2
   0   5   4  275.06    9.46   3
   0   5  -4  271.26    9.87   2
   1  -5   4  112.20    6.81   3
  -1   5  -4   94.57    5.40   2
   1   5   4  105.18    5.88   2
   2  -5   4  139.27    7.90   3
   2  -5   4  131.51    6.33   2
  -2   5  -4  143.45    7.38   1
   2   5   4  133.76    6.30   1
   3  -5   4   58.02    6.52   3
   3  -5   4   60.73    4.50   2
  -3   5  -4   64.44    5.20   1
   4  -5   4  298.84   13.05   3
  -4   5  -4  280.32   12.30   1
   5  -5   4    7.83    3.25   3
  -5   5  -4    1.33    2.44   1
   6  -5   4    7.38    3.73   3
  -6   5  -4    6.41    3.47   1
   7  -5   4    5.91    4.06   3
  -7   5  -4   -3.26    3.43   1
   8  -5   4   46.35    7.81   3
  -8   5  -4   31.04    7.20   1
  -8   6   4    1.69    3.58   1
  -8   6   4    2.66    6.22   4
  -7   6   4    4.67    5.25   4
  -7   6   4    1.66    3.36   1
  -6   6   4   63.86    9.86   4
  -6   6   4   70.28    7.27   1
   5  -6  -4   42.79    4.10   3
   5  -6  -4   45.83    3.39   2
  -5   6   4   37.07    5.02   1
  -5   6   4   43.22    7.81   4
   4  -6  -4   93.84    4.90   3
   4  -6  -4   96.38    4.18   2
  -4   6   4   93.62   10.15   4
  -4   6   4  113.70    6.51   1
  -3   6   4   -1.50    1.01   3
  -3   6   4   -1.62    1.99   4
  -3   6   4    1.38    1.71   1
  -2  -6   4  125.82    7.77   3
  -2   6   4  135.16    6.24   1
  -2   6   4  137.82    5.80   3
  -2   6   4  126.36    8.41   4
  -1  -6   4    2.14    2.44   3
  -1   6   4   -1.65    0.87   3
  -1   6   4   -1.10    2.40   4
   1   6  -4   -1.10    1.86   2
  -1   6   4    0.07    0.85   2
   0  -6   4   79.92    6.13   3
   0   6  -4   74.04    4.79   2
   0   6   4   61.34    4.49   3
   0   6   4   67.36    5.70   4
   0   6   4   62.24    4.18   2
   1  -6   4   11.18    3.30   3
   1   6   4    2.36    1.79   2
  -1   6  -4    5.68    2.25   2
   1   6   4    1.40    2.40   4
   2  -6   4  233.67   10.89   3
  -2   6  -4  243.93   10.86   1
   3  -6   4   98.79    7.53   3
  -3   6  -4  103.45    7.37   1
   4  -6   4    1.18    2.34   3
  -4   6  -4    2.00    2.28   1
   5  -6   4   47.59    6.99   3
  -5   6  -4   35.19    5.91   1
   6  -6   4   36.86    6.47   3
  -6   6  -4   29.30    5.39   1
   7  -6   4    4.98    4.32   3
  -7   6  -4    7.76    4.70   1
  -8   7   4    5.30    6.85   4
  -8   7   4    4.59    4.18   1
  -7   7   4   10.71    4.14   1
  -7   7   4    9.09    6.15   4
  -6   7   4   26.84    6.89   4
  -6   7   4   13.81    4.26   1
  -5   7   4   35.93    7.70   4
  -5   7   4   33.83    5.04   1
   4  -7  -4   24.66    3.36   3
  -4   7   4   30.06    5.13   3
  -4   7   4   16.66    3.64   1
  -3   7   4   20.57    2.94   3
  -3   7   4   27.21    4.03   1
  -2  -7   4   61.76    7.00   3
  -2   7   4   61.90    4.68   1
  -2   7   4   68.22    4.56   3
  -1  -7   4   29.35    5.14   3
  -1   7   4   29.96    2.56   2
   1   7  -4   35.91    4.50   2
  -1   7   4   35.88    4.13   3
  -1   7   4   33.59    5.53   4
   0  -7   4  323.58   13.68   3
   0   7  -4  322.90   11.30   2
   0   7   4  349.07   13.63   4
   1  -7   4    3.38    2.48   3
   1   7   4    3.31    2.69   4
   1   7   4    3.59    2.16   2
  -1   7  -4    3.94    2.17   2
   2  -7   4    0.24    2.54   3
  -2   7  -4    1.69    2.10   1
   3  -7   4   77.68    8.35   3
  -3   7  -4   80.91    6.60   1
   4  -7   4   95.69    7.66   3
  -4   7  -4   87.20    7.18   1
   5  -7   4    4.19    3.71   3
  -5   7  -4    9.02    4.13   1
   6  -7   4    7.78    4.57   3
  -6   7  -4    1.88    3.42   1
   7  -7   4    0.17    3.66   3
  -7   7  -4    8.23    4.10   1
  -7   8   4   16.84    4.93   1
  -7   8   4    8.06    6.75   4
  -6   8   4    1.38    5.72   4
  -6   8   4    4.96    3.61   1
  -5   8   4    8.77    4.95   4
  -5   8   4   18.89    4.57   1
  -4   8   4    2.86    2.61   1
  -3   8   4   -0.52    2.34   1
  -2   8   4    8.95    3.00   1
  -1  -8   4    1.60    3.03   3
   1   8  -4    4.17    2.44   2
   0  -8   4    8.44    3.89   3
   0   8   4   11.53    3.66   4
   0   8  -4   11.83    2.83   2
   1  -8   4   14.73    4.29   3
  -1   8  -4   13.65    2.64   2
   1   8   4   19.19    4.14   4
   2  -8   4   -5.59    2.37   3
  -2   8  -4   -1.14    2.85   1
   3  -8   4   35.35    5.87   3
  -3   8  -4   47.59    6.64   1
   4  -8   4    4.95    3.73   3
  -4   8  -4   -2.42    2.93   1
   5  -8   4   17.06    5.31   3
  -5   8  -4   16.97    5.05   1
   6  -8   4   11.92    4.93   3
  -6   8  -4   -0.22    2.64   1
  -6   9   4    2.68    3.63   1
  -6   9   4    1.77    6.30   4
  -5   9   4    1.48    3.27   1
  -4   9   4   25.39    4.88   1
  -3   9   4   56.70    6.40   1
   2   9  -4   -2.85    2.08   2
  -2   9   4    1.38    2.57   1
  -1  -9   4   15.31    4.66   3
  -1   9   4   15.18    4.01   1
   1   9  -4   13.54    3.21   2
   0  -9   4    1.71    3.34   3
   0   9  -4   -2.56    1.47   2
   0   9   4    0.07    3.51   4
   1  -9   4    6.05    4.09   3
   1   9   4   14.09    4.03   4
   2  -9   4   65.43    8.33   3
  -2   9  -4   73.28    8.33   1
   3  -9   4   16.60    5.18   3
  -3   9  -4   15.63    4.61   1
   4  -9   4    1.25    4.06   3
  -4   9  -4   -1.00    2.30   1
   5  -9   4    1.98    4.30   3
  -5   9  -4   -4.79    3.18   1
  -5  10   4    0.30    3.99   1
  -5  10   4   -4.34    5.15   4
  -4  10   4    8.86    3.94   1
  -3  10   4   11.07    4.00   1
  -2  10   4    7.46    3.40   1
  -1 -10   4   17.91    5.06   3
  -1  10   4    4.30    3.24   1
  -1  10   4   14.96    5.19   4
   0 -10   4   28.47    5.95   3
   0  10   4   28.22    5.81   4
   1 -10   4    0.64    3.61   3
  -1  10  -4   -0.82    2.64   1
   2 -10   4    7.26    4.14   3
  -2  10  -4    1.07    3.65   1
   3 -10   4   -1.59    2.66   3
  -3  10  -4   -1.83    3.47   1
   4 -10   4   -0.16    3.60   3
  -4  10  -4   -1.83    2.47   1
  -3  11   4    7.50    4.06   1
  -2  11   4    9.07    4.12   1
  -2  11   4    8.04    5.15   4
  -1  11   4    9.88    3.96   1
  -1  11   4    4.46    5.11   4
   0 -11   4    6.67    4.80   3
   1 -11   4    0.96    4.03   3
  -1  11  -4    7.29    4.36   1
   2 -11   4   10.34    5.15   3
  -2  11  -4   18.22    5.09   1
 -10   0   5   -2.25    4.17   1
  -9   0   5   -2.48    3.48   1
  -8   0   5   -0.04    3.35   1
  -7   0   5  145.02    8.98   1
  -6   0   5   -3.79    1.83   1
   5   0  -5   43.74    3.10   3
  -5   0   5   45.31    4.96   1
   4   0  -5    1.31    1.12   3
   4   0  -5   -2.69    1.11   1
   3   0  -5  308.71    8.40   3
   3   0  -5  326.82    9.63   1
   2   0  -5   -0.20    0.85   1
  -2   0   5    1.85    0.97   3
   2   0  -5    1.21    1.93   2
   2   0  -5   -0.65    0.76   3
   1   0  -5   90.77    3.81   3
  -1   0   5   91.29    5.22   2
   1   0  -5   89.79    5.26   2
  -1   0   5   87.81    3.79   3
   0   0  -5    0.91    1.89   2
   0   0   5    0.22    1.31   3
   0   0  -5    0.57    0.70   1
   0   0   5    1.01    1.32   2
  -1   0  -5    1.95    1.11   1
   1   0   5    0.74    1.52   3
   1   0   5    1.03    1.75   2
  -1   0  -5    2.51    2.02   2
  -2   0  -5   -0.60    1.16   1
   2   0   5   -0.04    1.71   2
   2   0   5   -3.01    1.48   3
   2   0   5   -1.34    0.94   1
   3   0   5 1235.12   31.90   3
  -3   0  -5 1275.15   30.22   1
   3   0   5 1222.36   29.80   1
  -4   0  -5   -1.84    1.53   1
  -5   0  -5   57.85    6.22   1
  -6   0  -5    0.50    2.63   1
  -7   0  -5   49.49    6.93   1
   7   0   5   45.20    7.21   3
   8   0   5    0.93    3.07   3
  -8   0  -5   -5.74    3.02   1
 -10   1   5   -1.07    4.58   1
  -9   1   5   -2.51    3.64   1
  -8   1   5    4.03    3.85   1
  -7   1   5   10.03    3.93   1
  -6   1   5   16.64    3.59   1
   6   1  -5    9.96    2.45   3
   5   1  -5    3.61    1.67   3
  -5   1   5    7.19    2.43   1
   4  -1  -5  257.68    8.86   1
   4  -1  -5  255.77    6.91   3
  -4   1   5  264.62    9.11   1
   4   1  -5  272.74    8.73   3
   4   1  -5  266.68    9.63   1
   3  -1  -5  564.69   16.82   2
   3  -1  -5  557.08   12.25   3
   3  -1  -5  576.91   14.52   1
   3  -1  -5  590.64   19.91   4
   3   1  -5  553.09   14.63   3
   3   1  -5  582.42   15.58   1
  -3   1   5  576.52   14.67   1
   2  -1  -5  169.17    7.45   2
   2  -1  -5  178.55    8.63   4
   2  -1  -5  172.65    5.11   1
  -2  -1   5  176.82    6.15   3
  -2   1   5  180.31    4.45   3
   2   1  -5  178.98    7.95   2
   2   1  -5  171.73    6.14   3
  -1  -1   5  346.68   10.05   3
   1  -1  -5  356.67   11.40   2
   1   1  -5  335.36    9.94   3
   1   1  -5  348.72   11.65   2
  -1   1   5  346.99    8.90   3
  -1   1   5  350.05   11.39   2
   0  -1  -5    0.86    0.38   1
   0  -1   5    1.23    1.38   3
   0  -1  -5   -0.83    1.67   2
   0  -1   5    2.94    1.99   2
   0   1  -5   -0.88    1.66   2
   0   1  -5    1.03    1.38   3
   0   1   5    2.31    1.21   3
   0   1   5   -0.73    1.41   2
  -1  -1  -5   26.72    1.89   1
   1  -1   5   25.91    3.59   2
   1  -1   5   22.73    3.05   3
   1   1   5   21.35    1.73   1
  -1   1  -5   27.44    2.75   1
  -1   1  -5   19.75    3.45   2
   1   1   5   25.86    3.66   2
   2  -1   5    6.58    2.45   3
  -2  -1  -5    6.63    1.68   1
   2  -1   5    4.65    1.91   2
   2  -1   5    3.92    1.59   1
  -2   1  -5    9.28    2.16   1
   2   1   5    6.44    1.56   1
   3  -1   5  140.12    7.70   3
   3  -1   5  136.34    6.46   1
  -3  -1  -5  141.52    6.41   1
   3   1   5  137.92    6.15   1
  -3   1  -5  143.70    6.72   1
  -4  -1  -5   27.43    3.79   1
   4  -1   5   24.93    4.28   3
  -4   1  -5   26.34    3.83   1
   5  -1   5   19.04    4.68   3
  -5  -1  -5   22.60    4.29   1
  -5   1  -5   20.98    3.97   1
   6  -1   5   98.23    9.50   3
  -6  -1  -5  107.88    7.66   1
  -6   1  -5  114.07    7.99   1
  -7  -1  -5   11.52    4.14   1
   7  -1   5    8.03    3.61   3
  -7   1  -5   15.85    4.40   1
   8  -1   5    0.96    4.11   3
  -8  -1  -5   -3.49    2.96   1
  -8   1  -5    2.49    3.82   1
  -8   2   5   12.10    4.44   1
   7  -2  -5    3.03    1.83   3
  -7   2   5    5.37    3.43   1
   6  -2  -5    1.15    1.31   3
  -6   2   5    0.34    2.43   1
   5  -2  -5  348.36    9.01   3
  -5   2   5  343.24   11.98   1
   5   2  -5  353.46   11.89   3
   4  -2  -5   11.40    2.29   1
   4   2  -5    5.44    2.12   3
  -4   2   5    8.39    2.13   1
   3  -2  -5  748.83   20.39   2
   3  -2  -5  749.79   17.94   1
   3   2  -5  707.62   19.07   3
   3   2  -5  736.49   19.80   1
  -3   2   5  768.34   18.15   1
   2  -2  -5   81.69    4.86   2
  -2  -2   5   68.60    4.29   3
   2  -2  -5   70.97    2.74   1
   2  -2  -5   87.99    6.03   4
  -2   2   5   77.86    2.91   1
   2   2  -5   71.61    4.35   3
   2   2  -5   80.16    5.44   2
   1  -2  -5  538.48   15.54   2
   1  -2  -5  553.13   16.79   4
  -1  -2   5  550.28   14.96   3
  -1   2   5  556.48   15.65   2
   1   2  -5  538.98   14.89   3
   1   2  -5  516.04   15.90   2
   0  -2   5  628.45   17.11   3
   0  -2   5  623.22   17.74   2
   0  -2  -5  609.96   17.55   2
   0   2  -5  645.97   17.99   2
   0   2   5  617.36   17.46   2
   0   2  -5  646.66   17.13   3
   1  -2   5  481.67   14.48   3
   1  -2   5  472.27   14.57   2
   1   2   5  479.27   11.51   1
   1   2   5  467.61   14.67   2
  -1   2  -5  486.19   13.44   1
  -1   2  -5  490.62   14.95   2
  -1   2  -5  473.26   14.25   3
  -2  -2  -5  382.32   10.87   1
   2  -2   5  377.08   12.88   2
   2  -2   5  377.10   12.92   3
   2   2   5  405.65   10.79   1
  -2   2  -5  366.57   11.77   1
   3  -2   5   77.78    5.82   3
  -3  -2  -5   68.58    4.41   1
  -3   2  -5   60.23    4.61   1
   3   2   5   58.45    4.03   1
   4  -2   5   -1.63    1.65   3
  -4  -2  -5    3.47    2.21   1
  -4   2  -5   -0.71    1.88   1
  -5  -2  -5  365.73   13.52   1
   5  -2   5  346.06   14.51   3
  -5   2  -5  359.08   13.91   1
  -6  -2  -5    7.86    3.62   1
   6  -2   5    6.94    3.77   3
  -6   2  -5    4.09    3.20   1
   7  -2   5   44.76    7.21   3
  -7  -2  -5   35.16    6.02   1
  -7   2  -5   46.66    6.62   1
   8  -2   5    9.12    4.71   3
  -8  -2  -5    1.86    3.98   1
  -8   2  -5   -3.56    3.23   1
  -9   3   5   -0.45    3.53   1
  -8   3   5   -2.38    3.33   1
  -7   3   5   -1.00    2.65   1
   6  -3  -5   33.89    2.65   3
  -6   3   5   41.88    5.18   1
   5  -3  -5    8.46    1.17   3
  -5   3   5    9.00    3.03   1
  -5   3   5   13.80    4.14   4
   4  -3  -5    0.22    1.22   1
   4  -3  -5    1.99    1.91   2
  -4   3   5    0.19    1.59   1
  -4   3   5   -0.76    1.81   4
   4   3  -5    1.81    1.97   3
   3  -3  -5   -0.35    1.00   1
   3  -3  -5    0.91    1.76   2
  -3   3   5   -0.08    1.10   1
   3   3  -5    0.86    1.68   3
  -2  -3   5    8.19    2.33   3
   2  -3  -5    9.42    2.30   2
  -2   3   5    5.89    1.27   1
   2   3  -5    7.90    2.19   3
   2   3  -5   17.06    3.15   2
  -1  -3   5  136.81    6.52   3
   1  -3  -5  134.56    6.33   2
   1   3  -5  146.06    6.60   3
  -1   3   5  141.54    3.80   1
  -1   3   5  148.43    6.55   2
   1   3  -5  132.42    6.88   2
   0  -3   5   26.35    3.57   3
   0  -3  -5   32.88    4.06   4
   0   3  -5   34.13    3.91   3
   0   3   5   40.14    4.21   2
   0   3  -5   25.43    3.71   2
   0   3   5   31.34    1.56   1
  -1  -3  -5   93.55    5.07   4
   1  -3   5  105.04    5.81   2
   1  -3   5   92.78    5.78   3
  -1   3  -5   94.42    5.22   1
  -1   3  -5   95.71    5.78   2
  -1   3  -5   99.47    5.82   3
   1   3   5   93.88    5.66   2
   1   3   5   89.81    3.68   1
   2  -3   5    1.72    1.96   2
   2  -3   5   -1.10    1.82   3
  -2  -3  -5    0.58    1.17   4
   2   3   5   -0.99    1.17   1
  -2   3  -5    2.19    1.78   1
   3  -3   5   39.61    5.16   3
   3   3   5   38.65    3.89   1
  -3   3  -5   38.89    4.70   1
  -4  -3  -5  101.09    6.14   1
   4  -3   5   97.73    7.32   3
  -4   3  -5   84.58    5.96   1
   5  -3   5    2.14    3.13   3
  -5  -3  -5    9.54    3.23   1
  -5   3  -5    5.43    2.99   1
   6  -3   5    6.64    3.41   3
  -6  -3  -5   11.34    4.04   1
  -6   3  -5   14.40    4.11   1
  -7  -3  -5   13.46    4.54   1
   7  -3   5   14.49    5.09   3
  -7   3  -5   11.72    4.59   1
   8  -3   5   -0.08    3.68   3
  -8  -3  -5    0.46    3.62   1
  -8   3  -5    0.67    3.93   1
  -9   4   5   36.34    6.71   1
  -8   4   5   15.95    6.35   4
  -8   4   5    8.37    4.20   1
  -7   4   5    2.63    3.28   1
  -7   4   5    6.62    4.44   4
   6  -4  -5   15.64    2.18   3
  -6   4   5    7.10    4.67   4
  -6   4   5    7.39    2.95   1
   5  -4  -5  234.35    9.62   2
   5  -4  -5  208.56    5.87   3
  -5   4   5  231.01    9.46   1
  -5   4   5  229.65   12.67   4
   4  -4  -5   18.21    3.17   2
   4  -4  -5   12.21    2.46   1
  -4   4   5   13.09    2.49   1
  -4   4   5   20.82    4.63   4
   3  -4  -5   26.62    3.46   2
  -3   4   5   28.76    2.99   1
  -3   4   5   27.61    5.19   4
   2  -4  -5  320.23   10.36   2
  -2  -4   5  291.15   11.17   3
  -2   4   5  324.98    8.92   1
  -2   4   5  306.11    7.88   3
  -2   4   5  312.71   12.94   4
   2   4  -5  319.04   11.44   3
  -1  -4   5  730.06   20.65   3
   1  -4  -5  728.38   19.45   2
  -1   4   5  741.17   19.46   2
  -1   4   5  767.11   17.76   3
  -1   4   5  739.67   17.00   1
   1   4  -5  717.83   20.62   2
   1   4  -5  715.21   20.50   3
   0  -4   5    0.64    2.11   3
   0   4   5   -0.54    1.47   2
   0   4  -5   -1.51    1.57   2
   1  -4   5  245.78   10.26   3
   1  -4   5  253.32    9.66   2
  -1   4  -5  254.22    9.82   1
   1   4   5  250.74    7.68   1
   1   4   5  244.03    9.83   2
  -1   4  -5  260.83    9.96   2
   2  -4   5  197.60    9.22   3
   2  -4   5  199.44    8.49   2
   2   4   5  191.94    7.08   1
  -2   4  -5  192.86    8.61   1
   3  -4   5  129.93    8.04   3
   3   4   5  123.36    6.11   1
  -3   4  -5  123.30    7.22   1
   4  -4   5   -1.87    2.47   3
  -4   4  -5   -0.03    2.42   1
   5  -4   5  191.72   10.75   3
  -5   4  -5  195.78   10.47   1
   6  -4   5   17.21    5.07   3
  -6   4  -5    3.96    3.55   1
   7  -4   5   13.51    4.84   3
  -7   4  -5   14.78    5.06   1
   8  -4   5   10.00    4.80   3
  -8   4  -5    4.72    4.85   1
  -9   5   5    1.50    5.38   4
  -9   5   5   -5.47    3.38   1
  -8   5   5    0.62    3.38   1
  -8   5   5    7.04    5.86   4
  -7   5   5    1.10    4.88   4
  -7   5   5    5.41    3.66   1
   6  -5  -5    5.55    2.59   2
  -6   5   5    6.10    3.72   4
  -6   5   5    2.69    2.59   1
   5  -5  -5    7.73    2.57   2
   5  -5  -5   14.26    1.67   3
  -5   5   5   15.19    5.11   4
  -5   5   5   16.03    3.47   1
   4  -5  -5   25.29    3.34   2
  -4   5   5   19.56    5.41   4
  -4   5   5   27.51    3.65   1
   3  -5  -5    2.69    1.56   2
  -3   5   5    2.05    1.58   1
  -3   5   5    5.73    3.52   4
  -3   5   5    2.02    0.93   3
  -2  -5   5    5.52    2.66   3
   2  -5  -5    2.29    1.71   2
  -2   5   5    3.59    2.89   4
   2   5  -5    5.68    2.50   2
  -2   5   5    3.82    1.16   3
  -2   5   5    3.48    1.45   1
  -1  -5   5  134.82    7.56   3
  -1   5   5  133.01    5.16   1
  -1   5   5  137.50    5.49   3
  -1   5   5  122.63    5.95   2
   1   5  -5  135.60    7.19   2
  -1   5   5  131.52    7.99   4
   0  -5   5    5.83    2.41   3
   0   5   5    4.45    1.66   3
   0   5   5    5.01    2.18   2
   0   5  -5    0.92    2.16   2
   1  -5   5    7.02    2.91   3
  -1   5  -5   12.74    2.95   2
   1   5   5    6.69    1.77   1
   1   5   5    7.53    2.61   2
   2  -5   5  250.07   11.34   3
   2  -5   5  256.44   10.05   2
  -2   5  -5  260.15   10.83   1
   2   5   5  248.88    8.91   1
   3  -5   5   23.50    4.85   3
  -3   5  -5   26.27    4.53   1
   4  -5   5   72.47    7.74   3
  -4   5  -5   60.61    6.83   1
   5  -5   5    0.97    2.93   3
  -5   5  -5   -3.72    2.39   1
   6  -5   5   16.93    5.21   3
  -6   5  -5   29.95    5.77   1
   7  -5   5   22.26    6.17   3
  -7   5  -5   26.22    6.20   1
  -8   6   5    2.34    6.04   4
  -8   6   5    3.61    4.11   1
  -7   6   5    5.68    5.84   4
  -7   6   5    0.97    3.37   1
  -6   6   5    3.49    3.78   4
  -6   6   5    2.90    2.98   1
   5  -6  -5    3.11    2.10   2
  -5   6   5    2.34    4.18   4
  -5   6   5    6.20    2.69   1
   4  -6  -5    7.14    2.02   2
  -4   6   5   12.12    2.95   1
  -4   6   5    2.73    3.87   4
  -3   6   5  258.64    8.14   3
  -3   6   5  285.68   13.98   4
  -3   6   5  276.67    9.87   1
  -2  -6   5  141.56    8.48   3
  -2   6   5  146.55    6.22   1
   2   6  -5  134.89    7.88   2
  -2   6   5  139.08    5.70   3
  -2   6   5  139.07    9.00   4
  -1  -6   5   70.75    7.09   3
  -1   6   5   69.88    4.36   2
  -1   6   5   81.98    4.43   1
  -1   6   5   66.11    4.17   3
  -1   6   5   69.65    7.54   4
   1   6  -5   67.92    5.59   2
   0  -6   5   23.81    4.41   3
   0   6  -5   19.54    3.54   2
   0   6   5   15.99    2.88   2
   0   6   5   19.81    3.14   3
   1  -6   5   66.46    7.17   3
  -1   6  -5   60.52    5.00   2
   1   6   5   64.16    4.34   1
   2  -6   5   50.76    6.42   3
   2   6   5   52.94    4.26   1
  -2   6  -5   56.88    6.19   1
   3  -6   5   38.78    5.92   3
  -3   6  -5   34.60    5.21   1
   4  -6   5    1.19    3.01   3
  -4   6  -5   -1.35    2.58   1
   5  -6   5   -1.30    2.95   3
  -5   6  -5    2.71    2.75   1
   6  -6   5    7.20    4.40   3
  -6   6  -5    5.79    3.90   1
   7  -6   5   56.90    8.42   3
  -7   6  -5   51.96    8.38   1
  -7   7   5    1.89    3.45   1
  -7   7   5   -1.02    5.62   4
  -6   7   5   10.60    3.85   1
  -6   7   5   13.78    5.86   4
  -5   7   5    7.65    2.97   1
  -5   7   5    3.43    4.58   4
  -4   7   5    7.79    4.86   4
  -4   7   5    2.53    2.30   1
  -3   7   5    8.29    2.08   3
  -3   7   5   15.68    3.17   1
  -3   7   5   11.44    5.14   4
  -2  -7   5    1.27    2.22   3
   2   7  -5   -1.07    2.26   2
  -2   7   5   -1.84    2.65   4
  -2   7   5    0.18    1.65   1
  -2   7   5   -1.05    1.36   3
  -1  -7   5  116.20    7.89   3
  -1   7   5  102.87    8.03   4
  -1   7   5  117.67    6.04   1
  -1   7   5  102.39    5.16   2
   1   7  -5  113.02    7.05   2
  -1   7   5  111.75    5.87   3
   0  -7   5    2.51    3.15   3
   0   7   5   -2.11    1.44   2
   0   7  -5   -1.25    1.93   2
   0   7   5   -0.07    2.82   4
   1  -7   5   92.67    7.25   3
  -1   7  -5  104.07    6.23   2
   2  -7   5    8.77    4.09   3
  -2   7  -5    1.59    2.77   1
   3  -7   5   37.93    6.10   3
  -3   7  -5   28.78    5.19   1
   4  -7   5   21.43    5.17   3
  -4   7  -5   28.87    5.59   1
   5  -7   5    7.30    4.45   3
  -5   7  -5    0.89    3.35   1
   6  -7   5   -5.71    3.04   3
  -6   7  -5    2.17    3.71   1
  -7   8   5    2.27    3.86   1
  -7   8   5    7.46    6.65   4
  -6   8   5    8.20    5.75   4
  -6   8   5    1.24    3.12   1
  -5   8   5    1.91    5.53   4
  -5   8   5   14.00    4.08   1
  -4   8   5   13.25    6.27   4
  -4   8   5    6.25    3.14   1
  -3   8   5   42.95    5.13   1
  -3   8   5   36.03    7.53   4
  -2  -8   5    4.71    3.76   3
  -2   8   5   19.71    5.23   4
   2   8  -5   17.08    4.10   2
  -1  -8   5  109.52    8.64   3
   1   8  -5  101.48    6.75   2
  -1   8   5  103.08    6.26   1
  -1   8   5   97.00    8.67   4
   0  -8   5   29.98    5.56   3
   0   8   5   23.99    5.34   4
   0   8  -5   27.48    4.24   2
   1  -8   5   19.35    5.20   3
  -1   8  -5   22.19    3.67   2
   2  -8   5   -3.19    2.53   3
  -2   8  -5    0.62    3.17   1
   3  -8   5   28.64    6.11   3
  -3   8  -5   37.20    6.34   1
   4  -8   5   32.90    6.38   3
  -4   8  -5   27.24    5.51   1
   5  -8   5   10.77    4.41   3
  -5   8  -5   13.38    4.90   1
   6  -8   5    5.96    4.48   3
  -6   8  -5    5.98    4.55   1
  -6   9   5    6.78    6.60   4
  -6   9   5   -1.19    3.41   1
  -5   9   5    2.09    3.45   1
  -5   9   5   11.38    6.10   4
  -4   9   5    5.36    2.93   1
  -4   9   5   -3.19    4.56   4
  -3   9   5    4.83    2.83   1
  -3   9   5   -0.63    3.82   4
   3   9  -5    5.05    3.26   2
  -2   9   5   26.47    4.59   1
   2   9  -5   29.80    5.00   2
  -2   9   5   33.20    6.75   4
  -1  -9   5    3.31    3.56   3
  -1   9   5   -2.26    1.88   1
   1   9  -5   -0.34    2.27   2
  -1   9   5    1.52    4.02   4
   0  -9   5    1.28    3.43   3
   0   9  -5    0.62    2.21   2
   0   9   5    2.37    3.32   4
   1  -9   5   41.30    7.07   3
  -1   9  -5   44.53    6.54   1
   2  -9   5    4.18    3.39   3
  -2   9  -5   -0.21    3.06   1
   3  -9   5    1.01    3.37   3
  -3   9  -5    2.08    2.72   1
   4  -9   5   16.37    5.59   3
  -4   9  -5   16.84    5.17   1
   5  -9   5    1.69    4.01   3
  -5   9  -5    0.20    4.05   1
  -4  10   5   -0.10    4.80   4
  -4  10   5   11.27    4.25   1
   3  10  -5   -2.20    2.89   2
  -3  10   5   -4.14    3.26   4
  -3  10   5   -0.21    2.75   1
  -2  10   5   23.37    6.33   4
  -2  10   5   23.53    4.81   1
  -1 -10   5   22.18    5.91   3
  -1  10   5   13.44    3.94   1
  -1  10   5    8.31    4.88   4
   0 -10   5   -1.34    2.56   3
   0  10   5    5.85    3.87   4
   1 -10   5   19.17    5.71   3
  -1  10  -5   19.28    5.60   1
   2 -10   5   20.52    5.96   3
  -2  10  -5    8.57    3.66   1
   3 -10   5   -3.32    3.44   3
  -3  10  -5   -4.43    2.92   1
  -2  11   5    3.08    4.87   4
  -1  11   5   -4.68    4.16   4
   0 -11   5   -0.88    4.26   3
  -1  11  -5    9.19    5.15   1
   6   0  -6   14.24    2.34   3
   5   0  -6    0.07    1.08   3
   4   0  -6   21.25    2.14   3
   4   0  -6   21.75    3.02   1
   3   0  -6   -0.89    0.88   3
   3   0  -6    0.82    1.17   1
   3   0  -6    0.34    2.13   2
   2   0  -6  137.74    4.94   3
   2   0  -6  136.39    4.85   1
   2   0  -6  135.86    7.24   2
  -2   0   6  132.03    4.82   3
  -1   0   6    0.82    1.40   2
  -1   0   6    1.60    1.26   3
   1   0  -6   -0.10    1.82   2
   0   0  -6  277.25    7.36   1
   0   0   6  268.87    9.00   3
   0   0  -6  273.83   10.67   2
   0   0   6  283.69   10.57   2
  -1   0  -6    0.37    2.05   2
   1   0   6   -0.26    1.59   3
  -1   0  -6   -0.01    0.94   1
   2   0   6  978.28   26.06   3
   2   0   6  996.31   23.73   1
  -2   0  -6  981.41   23.83   1
   3   0   6    0.94    2.26   3
  -3   0  -6   -1.87    1.28   1
   3   0   6    0.09    1.53   1
  -4   0  -6   28.64    4.17   1
   4   0   6   30.16    4.98   3
  -5   0  -6   -1.19    2.05   1
   5   0   6   -2.14    1.94   3
  -6   0  -6   36.19    5.61   1
   6   0   6   44.00    6.54   3
  -7   0  -6   -2.04    3.09   1
   7   0   6    1.28    3.86   3
   8   0   6    5.32    4.84   3
  -8   0  -6    4.63    4.18   1
  -9   1   6   -1.00    3.72   1
  -8   1   6   33.04    6.05   1
  -7   1   6    2.84    2.99   1
   6  -1  -6  116.99    5.19   3
   6   1  -6  118.67    6.19   3
  -6   1   6  127.96    7.43   1
   5  -1  -6    7.83    2.35   1
   5  -1  -6    6.69    1.29   3
  -5   1   6   11.37    3.01   1
   5   1  -6    3.89    1.68   3
   4  -1  -6   98.12    2.94   3
   4  -1  -6   92.57    4.79   1
   4   1  -6  104.95    5.69   1
   4   1  -6  102.04    4.91   3
   3  -1  -6   14.13    3.36   2
   3  -1  -6   18.24    2.17   1
   3   1  -6   21.74    2.91   1
   3   1  -6   15.40    3.48   2
   3   1  -6   17.40    2.33   3
  -2  -1   6   86.16    4.29   3
   2  -1  -6   87.40    3.03   1
   2  -1  -6   84.93    5.58   2
  -2   1   6   84.30    3.00   3
   2   1  -6   76.08    4.15   3
   2   1  -6   78.78    5.50   2
  -1  -1   6  493.25   13.90   3
   1  -1  -6  511.37   15.87   2
  -1   1   6  522.55   15.89   2
   1   1  -6  522.14   14.12   3
  -1   1   6  526.01   12.95   3
   1   1  -6  503.61   16.02   2
   0  -1   6  529.65   15.35   3
   0  -1   6  574.59   18.29   2
   0  -1  -6  545.24   16.91   2
   0  -1  -6  553.74   11.97   1
   0   1  -6  545.62   16.99   2
   0   1  -6  530.42   13.92   1
   0   1   6  598.66   15.04   3
   0   1   6  557.54   16.77   2
   0   1  -6  560.93   15.52   3
   1  -1   6  304.44   10.68   3
  -1  -1  -6  292.07    7.98   1
  -1   1  -6  314.45   11.58   2
  -1   1  -6  285.13    8.98   1
   1   1   6  293.96   10.25   3
   2  -1   6  251.94   10.29   3
  -2  -1  -6  269.79    8.35   1
   2   1   6  245.23    7.99   1
  -2   1  -6  258.67    8.98   1
   3  -1   6  100.61    6.84   3
   3  -1   6  100.55    6.36   1
  -3  -1  -6  102.25    5.41   1
   3   1   6  107.25    5.34   1
  -3   1  -6  105.98    5.83   1
  -4  -1  -6  227.68    9.49   1
   4  -1   6  237.69   11.44   3
  -4   1  -6  249.97   10.24   1
  -5  -1  -6    6.75    3.07   1
   5  -1   6    8.58    3.48   3
  -5   1  -6    1.37    2.46   1
   6  -1   6   30.44    5.67   3
  -6  -1  -6   26.52    4.96   1
  -6   1  -6   20.16    4.60   1
   7  -1   6   10.17    4.40   3
  -7  -1  -6   17.43    4.76   1
  -7   1  -6    5.53    3.52   1
   8  -1   6    9.69    5.34   3
  -8  -1  -6   10.23    4.77   1
  -8   1  -6   18.07    5.51   1
   8   1   6   12.94    4.78   3
  -9   2   6   -0.66    3.54   1
  -8   2   6   -1.24    2.95   1
  -7   2   6   12.28    3.76   1
   6  -2  -6  199.90    6.03   3
  -6   2   6  215.50    9.70   1
   5  -2  -6  235.71    9.26   1
   5   2  -6  259.74    9.76   3
  -5   2   6  276.78   10.00   1
   4  -2  -6   -1.50    1.08   1
   4  -2  -6    1.10    2.37   2
  -4   2   6    0.21    1.46   1
   4   2  -6   -0.70    1.40   3
  -3  -2   6  174.30    7.14   3
   3  -2  -6  180.49    8.39   2
   3  -2  -6  178.81    5.84   1
   3   2  -6  186.37    7.74   1
   3   2  -6  194.51    7.48   3
  -3   2   6  180.52    6.05   1
   2  -2  -6   29.28    4.15   2
  -2  -2   6   22.33    3.14   3
   2   2  -6   26.13    4.01   2
   2   2  -6   30.32    3.48   3
   1  -2  -6  301.52   11.84   4
  -1  -2   6  293.35    9.99   3
   1  -2  -6  284.70   10.74   2
   1   2  -6  282.36   11.09   2
   1   2  -6  276.65    9.72   3
  -1   2   6  289.66    8.04   3
  -1   2   6  311.02   10.99   2
   0  -2  -6  173.13    8.17   2
   0  -2   6  176.26    7.57   3
   0   2  -6  167.41    8.26   2
   0   2   6  192.21    8.32   2
   0   2  -6  170.17    7.42   3
   1  -2   6  126.24    6.71   3
   1   2   6  124.21    3.96   1
  -1   2  -6  109.96    5.42   1
  -1   2  -6  122.17    6.50   3
  -1   2  -6  128.52    7.17   2
   2  -2   6  145.93    7.55   3
  -2  -2  -6  140.99    5.63   1
   2   2   6  146.86    5.46   1
  -2   2  -6  138.88    6.57   1
  -3  -2  -6   17.06    2.78   1
   3  -2   6   11.68    3.49   3
  -3   2  -6   12.81    2.82   1
   3   2   6   13.02    2.53   1
  -4  -2  -6  210.95    9.08   1
   4  -2   6  214.42   10.67   3
  -4   2  -6  216.68    9.82   1
  -5  -2  -6  143.59    8.06   1
   5  -2   6  146.46    9.63   3
  -5   2  -6  153.93    8.74   1
  -6  -2  -6   23.72    4.75   1
   6  -2   6   23.36    5.48   3
  -6   2  -6   21.34    4.85   1
   7  -2   6   36.69    6.53   3
  -7  -2  -6   32.15    5.83   1
  -7   2  -6   34.64    6.24   1
  -8  -2  -6   26.40    6.21   1
   8  -2   6   27.96    6.75   3
  -8   2  -6   16.45    5.50   1
  -9   3   6    2.23    4.31   1
  -8   3   6    9.01    4.00   1
  -7   3   6   20.42    4.46   1
  -6   3   6   35.83    4.79   1
   5  -3  -6   71.88    5.19   1
   5  -3  -6   68.06    6.05   2
  -5   3   6   82.56    5.29   1
   4  -3  -6    1.33    1.28   1
   4  -3  -6    0.61    2.07   2
  -4   3   6    4.77    1.69   1
   4   3  -6    0.78    1.73   3
   3  -3  -6   -0.60    1.74   2
  -3  -3   6   -1.94    1.66   3
   3   3  -6    1.21    1.53   3
  -3   3   6    0.28    1.09   1
   2  -3  -6  233.21    9.23   2
  -2  -3   6  218.68    8.78   3
   2   3  -6  206.31    9.80   2
  -2   3   6  216.31    5.66   1
   2   3  -6  222.92    8.80   3
   1  -3  -6  146.90    7.35   2
   1  -3  -6  141.45    7.88   4
  -1  -3   6  145.74    7.04   3
   1   3  -6  151.76    7.80   2
  -1   3   6  141.99    7.03   2
   1   3  -6  154.68    7.10   3
   0  -3   6   65.00    4.84   3
   0  -3  -6   62.60    4.90   4
   0   3   6   59.31    4.68   2
   0   3  -6   59.82    4.67   3
   0   3  -6   63.53    5.15   2
  -1  -3  -6   23.50    3.53   4
   1  -3   6   29.05    4.23   3
   1   3   6   24.13    1.76   1
  -1   3  -6   27.27    4.29   2
  -1   3  -6   24.12    3.38   1
   2  -3   6   43.46    5.39   3
  -2  -3  -6   34.66    3.86   4
   2   3   6   36.75    2.71   1
  -2   3  -6   35.66    4.22   1
   3  -3   6   71.91    7.25   3
   3   3   6   66.63    4.34   1
  -3   3  -6   67.09    5.33   1
   4  -3   6   75.22    8.03   3
  -4   3  -6   75.22    6.19   1
  -5  -3  -6   28.53    4.67   1
   5  -3   6   14.74    4.57   3
  -5   3  -6   19.19    4.52   1
   6  -3   6    3.26    3.61   3
  -6  -3  -6   -1.26    2.95   1
  -6   3  -6   -2.83    2.55   1
  -7  -3  -6   11.19    4.29   1
   7  -3   6    8.42    4.72   3
  -7   3  -6   11.23    4.58   1
  -8  -3  -6   39.17    7.11   1
   8  -3   6   31.55    7.27   3
  -8   3  -6   32.35    6.54   1
  -9   4   6    1.76    4.16   1
  -8   4   6    1.15    3.28   1
  -7   4   6   -4.53    2.91   1
   6  -4  -6   17.87    4.24   2
  -6   4   6   12.30    3.53   1
   5  -4  -6    2.31    2.60   2
  -5   4   6    0.95    1.82   1
   4  -4  -6    4.25    2.49   2
  -4   4   6    6.24    2.06   1
  -3  -4   6  154.01    7.75   3
   3  -4  -6  140.91    6.90   2
  -3   4   6  132.54    5.36   1
   2  -4  -6  104.05    5.88   2
  -2  -4   6   89.92    5.98   3
   2   4  -6   92.59    6.57   2
  -2   4   6   92.55    3.62   1
  -2   4   6   95.72    3.02   3
  -1  -4   6   12.49    3.16   3
   1  -4  -6    9.83    2.89   2
   1   4  -6   11.35    3.19   2
  -1   4   6    8.84    2.54   2
  -1   4   6   10.83    1.16   1
   0  -4   6   40.64    4.93   3
   0   4   6   41.42    2.02   1
   0   4  -6   49.80    5.50   2
   0   4   6   43.28    5.36   2
   1  -4   6   16.82    3.84   3
  -1   4  -6   28.56    4.29   2
   1   4   6   25.58    2.37   1
  -1   4  -6   25.90    3.84   1
   2  -4   6  113.17    7.47   3
   2   4   6  102.37    4.86   1
  -2   4  -6  105.13    6.44   1
   3  -4   6    1.09    2.66   3
   3   4   6   -1.74    1.37   1
  -3   4  -6   -0.40    1.61   1
   4  -4   6   18.88    4.83   3
  -4   4  -6   19.91    4.33   1
   5  -4   6   -1.75    3.13   3
  -5   4  -6    7.45    3.81   1
   6  -4   6   38.46    7.09   3
  -6   4  -6   62.64    7.91   1
   7  -4   6   10.00    4.88   3
  -7   4  -6    7.94    4.56   1
  -8   5   6   35.80    6.06   1
  -7   5   6   15.11    4.15   1
   6  -5  -6    4.99    2.90   2
  -6   5   6    3.32    2.58   1
  -6   5   6    5.13    5.10   4
   5  -5  -6    4.44    2.44   2
  -5   5   6    3.99    2.44   1
  -5   5   6   -0.24    3.91   4
   4  -5  -6   69.28    4.99   2
  -4   5   6   63.03    4.46   1
  -4   5   6   78.70    9.37   4
   3  -5  -6   14.19    2.90   2
  -3  -5   6   11.31    3.51   3
  -3   5   6    8.02    2.01   1
   2  -5  -6   37.04    4.28   2
  -2  -5   6   29.71    4.64   3
  -2   5   6   39.27    2.34   3
   2   5  -6   37.17    5.42   2
  -2   5   6   39.15    2.86   1
  -1  -5   6   66.37    6.71   3
  -1   5   6   56.35    4.52   2
  -1   5   6   62.61    3.65   3
   1   5  -6   56.42    5.96   2
  -1   5   6   60.43    3.05   1
   0  -5   6  377.95   14.06   3
   0   5   6  350.93    9.80   1
   0   5  -6  360.56   13.35   2
   1  -5   6  220.10   10.63   3
  -1   5  -6  208.97    9.50   1
  -1   5  -6  230.65   10.09   2
   1   5   6  208.13    7.19   1
   2  -5   6   85.31    8.06   3
  -2   5  -6   77.80    6.06   1
   2   5   6   72.68    4.42   1
   3  -5   6  277.01   13.03   3
  -3   5  -6  275.48   11.96   1
   4  -5   6   19.27    4.79   3
  -4   5  -6   17.36    4.14   1
   5  -5   6   93.65    9.65   3
  -5   5  -6   83.92    8.60   1
   6  -5   6   32.61    6.68   3
  -6   5  -6   17.58    5.25   1
   7  -5   6   -1.13    3.48   3
  -7   5  -6   -0.98    3.37   1
  -8   6   6   -0.62    3.40   1
  -8   6   6   11.70    6.70   4
  -7   6   6   13.10    4.01   1
  -7   6   6   20.90    7.50   4
  -6   6   6   26.93    4.76   1
  -6   6   6   15.47    6.15   4
   5  -6  -6   -1.72    2.37   2
  -5   6   6    2.13    2.47   1
  -5   6   6   -3.32    3.60   4
   4  -6  -6   12.92    2.79   2
  -4   6   6   15.18    3.03   1
  -4   6   6    7.45    4.85   4
   3  -6  -6   66.82    4.66   2
  -3   6   6   60.39    8.61   4
  -3   6   6   65.62    4.46   1
  -3   6   6   69.06    3.06   3
  -2  -6   6   79.00    6.74   3
   2   6  -6   71.26    6.37   2
  -2   6   6   71.72    3.82   3
  -2   6   6   79.19    4.36   1
  -1  -6   6   58.39    6.72   3
  -1   6   6   60.68    4.02   3
  -1   6   6   55.17    3.53   1
   1   6  -6   65.01    5.64   2
  -1   6   6   61.76    4.66   2
   0  -6   6   69.53    7.43   3
   0   6  -6   67.50    5.84   2
   0   6   6   56.78    4.34   3
   1  -6   6   11.80    3.65   3
  -1   6  -6    9.03    3.49   1
   1   6   6   11.91    2.34   1
  -1   6  -6   13.09    3.45   2
   2  -6   6  169.53    9.74   3
   2   6   6  153.99    6.98   1
  -2   6  -6  159.66    9.15   1
   3  -6   6   22.08    5.10   3
  -3   6  -6   24.21    4.82   1
   4  -6   6    3.88    3.48   3
  -4   6  -6    3.52    2.82   1
   5  -6   6    1.30    3.76   3
  -5   6  -6    4.32    3.75   1
   6  -6   6   19.92    6.05   3
  -6   6  -6   30.80    6.21   1
  -7   7   6   11.05    4.19   1
  -7   7   6    7.40    6.98   4
  -6   7   6   12.01    3.90   1
  -6   7   6    3.51    5.15   4
  -5   7   6    5.79    4.98   4
  -5   7   6    0.55    2.31   1
  -4   7   6   91.11    6.06   1
  -4   7   6   78.03   10.45   4
  -3   7   6   23.22    5.98   4
   3   7  -6   19.91    4.65   2
  -3   7   6   11.39    2.90   1
  -2  -7   6   18.80    4.54   3
  -2   7   6   11.98    2.47   1
  -2   7   6   18.04    5.17   4
   2   7  -6   12.49    3.83   2
  -1  -7   6    4.28    3.27   3
   1   7  -6   -1.10    2.12   2
  -1   7   6    1.30    1.58   3
  -1   7   6    2.97    1.97   2
  -1   7   6    7.02    2.10   1
   0  -7   6  179.62   10.51   3
   0   7  -6  170.80    9.00   2
   1  -7   6   24.12    5.22   3
  -1   7  -6   35.89    4.96   2
  -1   7  -6   23.23    4.82   1
   2  -7   6    5.46    3.54   3
  -2   7  -6    6.92    3.37   1
   3  -7   6   10.24    4.39   3
  -3   7  -6   18.14    4.43   1
   4  -7   6   -0.44    3.44   3
  -4   7  -6   -1.25    2.24   1
   5  -7   6    2.50    3.93   3
  -5   7  -6    3.91    4.03   1
   6  -7   6   19.42    6.10   3
  -6   7  -6   21.50    5.77   1
  -6   8   6   -9.79    3.62   4
  -6   8   6    5.64    3.13   1
  -5   8   6    7.86    3.28   1
  -5   8   6    0.14    5.23   4
  -4   8   6    7.31    2.92   1
  -4   8   6    4.39    5.09   4
  -3   8   6    1.91    2.40   1
  -3   8   6   -3.44    3.39   4
   3   8  -6    3.21    3.27   2
  -2  -8   6   -1.31    2.92   3
   2   8  -6   -0.43    2.42   2
  -2   8   6   -2.45    2.55   4
  -2   8   6    2.23    1.91   1
  -1  -8   6   51.00    7.24   3
  -1   8   6   52.30    5.07   1
   1   8  -6   45.37    5.95   2
   0  -8   6   11.24    4.66   3
   0   8  -6    8.69    3.40   2
   1  -8   6   13.24    4.60   3
  -1   8  -6    7.98    3.04   2
  -1   8  -6    9.41    3.84   1
   2  -8   6    9.96    4.39   3
  -2   8  -6    2.78    3.14   1
   3  -8   6    4.12    3.07   3
  -3   8  -6    1.12    2.87   1
   4  -8   6    9.35    4.94   3
  -4   8  -6   11.51    4.49   1
   5  -8   6    0.57    3.89   3
  -5   8  -6    2.70    4.37   1
  -5   9   6   -1.90    5.06   4
  -4   9   6   15.68    6.39   4
  -4   9   6   13.74    3.73   1
  -3   9   6   -3.55    4.17   4
  -3   9   6   -1.87    2.23   1
   3   9  -6   -1.21    3.10   2
  -2  -9   6   46.06    7.35   3
  -2   9   6   53.26    5.49   1
  -2   9   6   61.10    9.42   4
   2   9  -6   52.07    6.68   2
  -1  -9   6    2.71    3.55   3
  -1   9   6    2.54    2.40   1
  -1   9   6    6.18    4.32   4
   1   9  -6    4.64    3.26   2
   0  -9   6   -0.95    3.21   3
   0   9  -6    3.13    2.72   2
   1  -9   6   -2.74    3.14   3
  -1   9  -6    2.82    2.62   1
   2  -9   6   13.66    5.39   3
  -2   9  -6    6.62    3.93   1
   3  -9   6   21.98    6.45   3
  -3   9  -6   16.21    5.21   1
   4  -9   6    5.86    5.24   3
  -4   9  -6    1.60    2.79   1
   4  10  -6    8.12    4.20   2
  -4  10   6    0.51    4.61   4
  -3  10   6   -3.17    3.50   4
   3  10  -6    0.62    3.45   2
  -2  10   6   -1.39    4.96   4
  -1 -10   6   -1.46    2.30   3
  -1  10   6   -7.01    3.08   4
   0 -10   6   26.63    6.61   3
   1 -10   6   -2.73    3.55   3
  -1  10  -6    5.30    4.50   1
   2 -10   6    9.79    5.18   3
  -2  10  -6    2.52    4.27   1
   5   0  -7  137.60    5.32   3
   4   0  -7   -0.08    1.43   1
   4   0  -7   -2.65    2.18   2
   4   0  -7    0.68    1.01   3
   3   0  -7   15.54    3.78   2
   3   0  -7   13.57    1.83   3
   3   0  -7   21.19    2.54   1
   2   0  -7    1.63    0.99   1
  -2   0   7    0.80    1.14   3
   2   0  -7    1.75    2.26   2
   2   0  -7    2.67    1.22   3
   1   0  -7  307.56   12.11   2
  -1   0   7  308.26    9.62   3
   0   0  -7   -0.63    2.08   2
   0   0  -7   -0.29    0.78   1
   0   0   7   -0.37    1.40   3
  -1   0  -7   44.88    2.92   1
   1   0   7   41.53    4.57   3
  -1   0  -7   55.19    6.22   2
  -2   0  -7    1.12    1.47   1
   2   0   7    3.42    2.41   3
  -3   0  -7  449.48   13.92   1
   3   0   7  450.97   16.18   3
   3   0   7  465.64   13.89   1
  -4   0  -7   -3.42    1.47   1
   4   0   7    0.05    2.66   3
   5   0   7    0.28    3.24   3
  -5   0  -7   -0.11    2.22   1
  -6   0  -7    2.73    2.96   1
   6   0   7    1.17    3.57   3
   7   0   7   -3.35    2.22   3
  -7   0  -7   -4.23    2.89   1
  -8   0  -7    2.14    3.55   1
   5  -1  -7   18.63    1.26   3
   5  -1  -7   20.61    3.31   1
   5   1  -7   19.39    2.79   3
   4  -1  -7   52.72    3.58   1
   4  -1  -7   73.68    6.35   2
   4   1  -7   58.96    3.77   3
   4   1  -7   52.25    4.20   1
   4   1  -7   49.10    6.17   2
  -3  -1   7   67.47    3.99   3
   3  -1  -7   60.43    5.52   2
   3  -1  -7   57.54    3.10   1
   3   1  -7   67.13    3.94   3
   3   1  -7   57.51    6.44   2
   3   1  -7   64.25    4.09   1
   2  -1  -7   95.45    6.41   2
  -2  -1   7   88.29    4.69   3
   2  -1  -7   96.62    3.04   1
   2   1  -7   87.55    6.49   2
   2   1  -7   94.57    4.81   3
  -2   1   7   99.08    3.71   3
  -1  -1   7   94.60    4.94   3
   1  -1  -7   87.63    6.21   2
   1   1  -7   86.96    4.83   3
   1   1  -7   88.92    6.37   2
  -1   1   7   90.43    4.27   3
   0  -1   7  395.72   12.78   3
   0  -1  -7  400.29    8.85   1
   0  -1  -7  396.74   14.39   2
   0   1   7  419.59   12.27   3
   0   1  -7  407.61   11.15   1
   0   1  -7  409.19   14.49   2
   1  -1   7  303.12   11.25   3
  -1  -1  -7  306.22    8.26   1
  -1   1  -7  301.58    9.45   1
  -1   1  -7  286.04   12.14   2
   1   1   7  316.75   10.94   3
   2  -1   7   79.02    5.98   3
  -2  -1  -7   70.88    3.98   1
   2   1   7   79.75    4.02   1
  -2   1  -7   74.91    4.63   1
   2   1   7   75.76    5.69   3
  -3  -1  -7   16.91    3.00   1
   3  -1   7   19.87    4.21   3
   3   1   7   17.85    4.15   3
  -3   1  -7   17.91    3.37   1
   3   1   7   21.99    3.04   1
  -4  -1  -7   18.34    3.53   1
   4  -1   7   17.13    4.18   3
  -4   1  -7   15.06    3.44   1
   5  -1   7  101.44    8.66   3
  -5  -1  -7  115.86    7.48   1
  -5   1  -7  107.94    7.62   1
   6  -1   7    3.01    3.60   3
  -6  -1  -7    6.31    3.30   1
  -6   1  -7    5.55    3.53   1
   6   1   7    1.44    3.45   3
   7  -1   7    5.36    4.34   3
  -7  -1  -7   10.81    4.46   1
  -7   1  -7   15.53    4.75   1
   7   1   7    7.94    4.57   3
  -9   2   7    3.97    4.12   1
  -8   2   7    2.41    3.53   1
  -7   2   7   60.85    6.84   1
  -6   2   7   71.44    5.77   1
   5  -2  -7  321.04   10.84   1
  -5   2   7  325.28   11.19   1
   4  -2  -7   85.19    6.56   2
   4  -2  -7   68.68    3.90   1
   4   2  -7   69.17    4.73   3
   3  -2  -7   97.46    3.77   1
  -3  -2   7  111.16    5.71   3
   3  -2  -7  111.72    7.06   2
   3   2  -7  105.95    5.77   1
   3   2  -7  104.88    5.60   3
   3   2  -7  108.32    7.60   2
  -2  -2   7   -1.23    1.28   3
   2  -2  -7   -2.58    1.87   2
  -2   2   7    0.60    0.57   3
   2   2  -7    0.44    2.48   2
   2   2  -7   -0.28    1.50   3
  -1  -2   7  117.99    6.08   3
   1  -2  -7  109.82    6.84   2
  -1   2   7  126.31    4.75   3
   1   2  -7  103.85    5.87   3
   1   2  -7  113.96    7.25   2
   0  -2   7   21.47    3.57   3
   0  -2  -7   30.47    4.62   2
   0   2  -7   20.02    3.33   3
   0   2  -7   23.92    4.45   2
   0   2   7   25.99    3.12   3
   0   2  -7   21.88    2.95   1
   1  -2   7   94.35    6.18   3
  -1   2  -7  108.91    5.34   1
  -1   2  -7  101.62    7.01   2
   2  -2   7   29.47    4.75   3
  -2  -2  -7   29.96    3.08   1
  -2   2  -7   36.58    4.19   1
   2   2   7   29.59    2.80   1
   3  -2   7  227.39   11.12   3
  -3  -2  -7  231.61    8.63   1
  -3   2  -7  223.83    9.49   1
   3   2   7  220.33    8.19   1
  -4  -2  -7   80.79    5.49   1
   4  -2   7   84.04    8.34   3
  -4   2  -7   81.89    6.26   1
  -5  -2  -7   23.23    4.20   1
   5  -2   7   13.41    4.77   3
  -5   2  -7   18.84    4.26   1
   6  -2   7   22.52    5.32   3
  -6  -2  -7   35.82    5.62   1
  -6   2  -7   28.22    5.34   1
  -7  -2  -7   32.19    6.03   1
   7  -2   7   23.02    5.87   3
  -7   2  -7   21.88    5.55   1
  -9   3   7   -0.03    3.95   1
  -8   3   7   -4.10    3.03   1
  -7   3   7   60.91    6.56   1
   6  -3  -7    6.88    3.51   2
  -6   3   7    9.23    2.98   1
   5  -3  -7    0.67    3.02   2
   5  -3  -7    2.78    1.78   1
  -5   3   7    6.77    2.43   1
   4  -3  -7   54.41    6.13   2
   4  -3  -7   44.07    3.13   1
  -4   3   7   47.83    3.46   1
  -3  -3   7  214.01    9.02   3
   3  -3  -7  221.89    9.84   2
   3   3  -7  221.16   11.04   2
   3   3  -7  223.53    9.24   3
   2  -3  -7   18.90    3.73   2
  -2  -3   7   14.48    3.20   3
   2   3  -7   15.57    3.91   2
   2   3  -7   13.46    2.89   3
  -1  -3   7   37.66    4.57   3
   1  -3  -7   37.03    4.98   2
  -1   3   7   36.90    2.66   3
   1   3  -7   39.65    5.39   2
   0  -3   7    4.96    2.44   3
   0   3  -7    7.58    2.60   2
  -1  -3  -7   31.46    4.48   4
   1  -3   7   22.65    4.04   3
   1   3   7   25.66    1.57   1
  -1   3  -7   31.83    4.87   2
  -1   3  -7   22.67    3.37   1
   2  -3   7   23.85    4.56   3
   2   3   7   24.76    2.53   1
  -2   3  -7   24.35    3.76   1
   3  -3   7  345.30   14.27   3
  -3   3  -7  364.01   13.23   1
   3   3   7  346.50   11.09   1
   4  -3   7    9.85    4.03   3
  -4   3  -7   15.84    3.91   1
   5  -3   7    5.46    3.81   3
  -5  -3  -7    6.21    2.74   1
  -5   3  -7    0.90    2.98   1
  -6  -3  -7    2.94    3.05   1
   6  -3   7   -1.21    3.30   3
  -6   3  -7    0.58    3.08   1
  -7  -3  -7   61.69    7.93   1
   7  -3   7   46.29    7.96   3
  -7   3  -7   71.64    8.75   1
  -8   4   7   -2.55    3.26   1
   7  -4  -7   22.50    5.25   2
  -7   4   7   27.47    4.71   1
   6  -4  -7    3.53    3.44   2
  -6   4   7    3.56    2.50   1
   5  -4  -7   25.99    4.71   2
  -5   4   7   19.15    3.33   1
   4  -4  -7    4.74    2.95   2
  -4   4   7    4.01    1.77   1
   3  -4  -7  166.74    8.33   2
  -3  -4   7  188.44    8.91   3
   3   4  -7  181.36    9.93   2
  -3   4   7  178.02    5.83   1
   2  -4  -7   73.12    5.69   2
  -2  -4   7   76.35    5.77   3
   2   4  -7   80.68    6.62   2
  -2   4   7   64.42    2.21   3
  -2   4   7   65.61    2.19   3
   1  -4  -7   18.84    4.03   2
  -1  -4   7   16.23    3.55   3
   1   4  -7   12.51    3.62   2
   0  -4   7  125.12    7.60   3
   0   4  -7  112.57    7.42   2
   1  -4   7  336.93   13.66   3
  -1   4  -7  346.80   13.81   2
  -1   4  -7  393.12   13.07   1
   1   4   7  346.07    8.99   1
   2  -4   7   -2.61    2.53   3
   2   4   7   -0.38    1.34   1
  -2   4  -7   -0.64    2.23   1
   3  -4   7   27.91    4.99   3
   3   4   7   21.58    3.05   1
  -3   4  -7   29.79    4.87   1
   4  -4   7   48.64    7.11   3
  -4   4  -7   58.26    6.65   1
   5  -4   7    9.12    4.25   3
  -5   4  -7    5.90    3.56   1
   6  -4   7   -5.86    2.98   3
  -6   4  -7    1.87    3.42   1
   7  -4   7   22.79    6.48   3
  -7   4  -7   19.72    5.49   1
  -8   5   7    3.41    3.42   1
  -7   5   7    1.42    3.15   1
   6  -5  -7    8.97    3.42   2
  -6   5   7   14.91    3.45   1
   5  -5  -7   33.82    4.95   2
  -5   5   7   28.15    3.93   1
   4  -5  -7   34.57    4.71   2
  -4   5   7   33.96    3.59   1
  -3  -5   7  115.16    7.64   3
   3  -5  -7  121.94    6.86   2
  -3   5   7  113.78    4.84   1
   3   5  -7  103.46    8.15   2
   2  -5  -7   46.10    5.19   2
  -2  -5   7   33.71    5.27   3
  -2   5   7   36.60    2.14   3
  -2   5   7   38.64    2.26   1
   2   5  -7   37.67    5.59   2
  -1  -5   7   35.50    5.07   3
  -1   5   7   22.92    2.69   3
  -1   5   7   20.56    1.38   1
  -1   5   7   23.43    1.46   1
   1   5  -7   18.71    4.30   2
   0  -5   7   36.89    5.65   3
   0   5   7   33.86    1.99   1
   0   5   7   36.14    1.97   1
   0   5  -7   36.10    5.39   2
   1  -5   7   55.39    6.74   3
  -1   5  -7   39.09    5.16   1
   1   5   7   47.83    2.89   1
  -1   5  -7   54.42    6.40   2
   2  -5   7   13.28    4.21   3
  -2   5  -7    8.97    3.34   1
   2   5   7   10.24    2.16   1
   3  -5   7   39.00    6.11   3
  -3   5  -7   30.93    5.18   1
   4  -5   7   15.53    4.87   3
  -4   5  -7   17.48    4.38   1
   5  -5   7   80.37    9.19   3
  -5   5  -7   76.73    8.48   1
   6  -5   7   -0.36    3.72   3
  -6   5  -7    1.60    3.67   1
  -7   6   7    5.22    3.64   1
  -6   6   7   28.42    4.61   1
  -5   6   7   79.87    5.59   1
   4  -6  -7    0.76    2.09   2
  -4   6   7    5.16    2.16   1
  -3  -6   7    7.09    3.65   3
   3  -6  -7   13.90    3.14   2
   3   6  -7    8.64    4.32   2
  -3   6   7    5.03    1.94   1
  -2  -6   7   17.40    4.40   3
   2   6  -7    5.55    3.53   2
  -2   6   7    6.96    1.51   3
  -2   6   7    8.99    1.88   1
  -1  -6   7  218.94   11.19   3
   1   6  -7  196.88   10.40   2
  -1   6   7  219.85    6.72   1
  -1   6   7  212.77    7.90   3
   0  -6   7   26.81    4.91   3
   0   6   7   17.88    2.18   1
   0   6  -7   28.88    4.82   2
   0   6   7   15.48    3.01   3
   1  -6   7   46.92    6.66   3
  -1   6  -7   47.28    5.98   2
  -1   6  -7   42.10    5.78   1
   2  -6   7    2.64    2.70   3
  -2   6  -7    3.28    2.26   1
   3  -6   7   25.62    5.42   3
  -3   6  -7   34.51    5.20   1
   4  -6   7   53.29    7.54   3
  -4   6  -7   39.16    6.38   1
   5  -6   7    7.03    4.67   3
  -5   6  -7    5.33    3.85   1
   6  -6   7    2.70    4.40   3
  -6   6  -7    4.18    4.09   1
  -6   7   7    3.71    5.16   1
  -5   7   7   30.04    4.25   1
   4   7  -7   -3.22    3.07   2
  -4   7   7    6.41    2.49   1
  -3  -7   7    4.04    3.52   3
   3   7  -7    8.97    4.29   2
  -3   7   7    5.37    2.15   1
  -2  -7   7    1.49    3.17   3
  -2   7   7   -0.42    1.49   1
   2   7  -7    1.93    3.37   2
  -1  -7   7    3.63    3.46   3
  -1   7   7    3.46    1.62   1
   1   7  -7    3.96    3.16   2
   0  -7   7   -2.32    2.81   3
   0   7  -7    2.86    2.60   2
   1  -7   7   34.51    6.15   3
  -1   7  -7   33.64    5.69   1
  -1   7  -7   41.52    5.91   2
   2  -7   7   -2.46    3.17   3
  -2   7  -7   -1.38    2.37   1
   3  -7   7   -1.62    3.45   3
  -3   7  -7   13.65    4.32   1
   4  -7   7   -1.31    3.58   3
  -4   7  -7   -3.96    3.05   1
   5  -7   7   95.61   10.65   3
  -5   7  -7   73.01    8.70   1
  -6   8   7    6.29    5.28   4
  -5   8   7   -2.77    4.96   4
  -4   8   7   10.02    5.75   4
   4   8  -7   11.46    4.57   2
   3   8  -7   14.60    4.52   2
  -2  -8   7    2.30    3.36   3
   2   8  -7    5.29    3.45   2
  -1  -8   7    2.85    3.74   3
   1   8  -7   11.97    3.81   2
   0  -8   7    3.61    3.14   3
   0   8  -7    4.76    3.00   2
   1  -8   7   12.77    4.71   3
  -1   8  -7    6.16    3.23   2
  -1   8  -7    5.98    3.82   1
   2  -8   7   67.57    8.44   3
  -2   8  -7   51.37    7.30   1
   3  -8   7    4.22    4.02   3
  -3   8  -7   -1.76    3.04   1
   4  -8   7   -1.01    4.03   3
  -4   8  -7    0.72    3.84   1
  -5   9   7    4.08    5.33   4
  -4   9   7   -1.66    4.50   4
   4   9  -7   -1.65    3.41   2
   3   9  -7   29.74    5.98   2
  -2  -9   7    4.43    4.18   3
   2   9  -7    8.71    3.84   2
  -1  -9   7   17.97    5.55   3
   1   9  -7   13.04    4.28   2
   0  -9   7   -1.18    2.75   3
   0   9  -7    3.44    3.12   2
   1  -9   7   -3.79    3.42   3
  -1   9  -7   -1.64    3.23   1
   2  -9   7    5.12    4.58   3
  -2   9  -7    2.94    3.72   1
   3  -9   7   20.83    6.40   3
  -3   9  -7   27.56    6.31   1
   3  10  -7    4.82    4.11   2
  -2 -10   7   -2.38    2.94   3
  -1 -10   7   -0.25    3.77   3
   0 -10   7   12.10    5.04   3
  -1  10  -7    9.83    4.85   1
   5   0  -8   -5.28    2.82   2
   4   0  -8    5.32    1.44   3
   4   0  -8   10.79    4.08   2
   4   0  -8    7.38    2.00   1
   3   0  -8   -0.97    0.96   1
   3   0  -8    0.04    1.07   3
   3   0  -8   -3.18    2.30   2
  -2   0   8  863.77   21.39   3
   2   0  -8  865.24   20.35   1
   2   0  -8  918.22   26.18   2
   1   0  -8   -1.55    1.49   2
   1   0  -8    0.07    0.77   1
  -1   0   8   -0.74    1.35   3
   0   0  -8  149.73    4.99   1
   0   0  -8  149.38    8.83   2
   0   0   8  147.23    7.02   3
   1   0   8   -0.42    2.06   3
  -1   0  -8   -1.14    1.03   1
  -1   0  -8    0.09    2.49   2
  -2   0  -8  133.69    5.99   1
   2   0   8  133.66    7.92   3
  -3   0  -8    2.85    1.91   1
   3   0   8   -0.71    2.63   3
   4   0   8   67.50    7.78   3
  -4   0  -8   68.22    5.30   1
  -5   0  -8   -2.32    1.87   1
   5   0   8    0.27    3.41   3
  -6   0  -8   20.92    4.87   1
   6   0   8   18.09    5.53   3
   7   0   8   -5.48    3.48   3
  -7   0  -8   -0.36    3.38   1
   6  -1  -8    3.01    3.80   2
   5  -1  -8   41.51    6.49   2
   5  -1  -8   44.32    5.89   1
   5   1  -8   37.64    6.49   2
   4  -1  -8   28.85    5.47   2
   4  -1  -8   22.70    2.80   1
   4   1  -8   21.55    3.23   1
   4   1  -8   25.62    4.93   2
   4   1  -8   16.19    2.58   3
   3  -1  -8    0.51    0.93   1
   3  -1  -8    3.54    2.89   2
  -3  -1   8    2.47    1.67   3
   3   1  -8    1.60    1.57   3
   3   1  -8    2.56    1.64   1
   3   1  -8    3.95    2.99   2
   2  -1  -8    9.50    0.63   1
  -2  -1   8   15.81    2.61   3
   2  -1  -8   17.60    4.18   2
  -2   1   8   12.63    1.77   3
   2   1  -8   15.45    2.65   3
   2   1  -8   16.82    4.10   2
  -1  -1   8    7.48    2.35   3
   1  -1  -8    9.59    3.33   2
   1   1  -8   12.30    3.61   2
   1   1  -8   15.69    2.80   3
  -1   1   8   10.17    2.11   3
   0  -1   8    5.77    2.27   3
   0  -1  -8    9.90    3.45   2
   0   1   8   11.62    2.53   3
   0   1  -8   12.78    2.13   1
   0   1  -8   15.37    4.03   2
   1  -1   8   -0.34    2.00   3
  -1  -1  -8    0.39    0.91   1
  -1   1  -8    2.97    2.28   2
   1   1   8    1.59    2.08   3
  -1   1  -8    1.65    1.52   1
   2  -1   8  220.23   10.33   3
  -2  -1  -8  216.23    7.49   1
  -2   1  -8  200.72    8.14   1
   2   1   8  202.54    9.78   3
  -3  -1  -8    9.23    2.39   1
   3  -1   8    6.98    3.44   3
   3   1   8   10.62    3.74   3
   3   1   8    4.77    1.97   1
  -3   1  -8    4.51    2.32   1
  -4  -1  -8   13.90    3.26   1
   4  -1   8   11.36    4.20   3
   4   1   8   11.08    4.05   3
  -4   1  -8   12.40    3.51   1
   5  -1   8   70.72    8.67   3
  -5  -1  -8   84.33    6.57   1
  -5   1  -8   66.89    6.86   1
   5   1   8   64.64    8.12   3
  -6  -1  -8    7.53    3.61   1
   6  -1   8   10.63    4.80   3
  -6   1  -8   12.31    4.35   1
   6   1   8    8.72    4.99   3
   7  -1   8   -2.21    3.45   3
  -7  -1  -8    3.25    3.80   1
  -7   1  -8   -2.52    3.09   1
   7   1   8    3.26    4.39   3
   7  -2  -8    4.98    4.08   2
   6  -2  -8    1.13    3.37   2
   5  -2  -8   -0.41    3.29   2
   4  -2  -8   41.38    6.03   2
   4  -2  -8   36.74    2.74   1
   4   2  -8   47.75    6.78   2
   4   2  -8   35.74    4.03   3
   3  -2  -8   94.35    7.10   2
   3  -2  -8   90.00    3.06   1
  -3  -2   8   94.25    5.40   3
   3   2  -8   94.26    5.45   1
   3   2  -8   89.09    7.63   2
   3   2  -8   97.11    5.62   3
   2  -2  -8   84.93    6.59   2
  -2  -2   8   85.45    5.47   3
  -2   2   8   82.31    3.12   3
   2   2  -8   77.79    6.70   2
   2   2  -8   76.33    5.19   3
   1  -2  -8  164.47    9.00   2
  -1  -2   8  164.12    7.71   3
   1   2  -8  165.77    7.76   3
   1   2  -8  159.15    9.20   2
  -1   2   8  156.70    6.01   3
   0  -2  -8  164.26    9.23   2
   0  -2   8  169.51    8.40   3
   0   2   8  167.88    7.13   3
   0   2  -8  162.20    6.77   1
   0   2  -8  193.23    9.93   2
   1  -2   8  115.64    7.25   3
  -1   2  -8  122.46    5.99   1
   1   2   8  117.46    6.70   3
  -1   2  -8  127.22    8.01   2
   2  -2   8  306.67   12.73   3
  -2   2  -8  286.56   10.55   1
   2   2   8  286.02   11.84   3
   2   2   8  282.37    8.54   1
   3  -2   8   -2.41    2.49   3
  -3  -2  -8    3.91    1.91   1
   3   2   8    0.87    1.62   1
  -3   2  -8    4.60    2.49   1
  -4  -2  -8   16.72    3.52   1
   4  -2   8   14.70    4.68   3
  -4   2  -8   25.62    4.42   1
   5  -2   8    3.44    3.52   3
  -5  -2  -8    4.91    2.72   1
  -5   2  -8    0.08    2.86   1
  -6  -2  -8  100.80    7.98   1
   6  -2   8   80.75    9.78   3
  -6   2  -8  112.02    8.75   1
  -7  -2  -8    5.99    4.23   1
   7  -2   8    8.91    4.50   3
   7   2   8    9.64    5.11   3
  -7   2  -8    5.08    4.20   1
   8  -3  -8    0.85    3.55   2
  -8   3   8   -0.63    3.17   1
   7  -3  -8   27.45    5.88   2
  -7   3   8   28.08    4.73   1
   6  -3  -8   41.73    6.64   2
  -6   3   8   26.94    4.05   1
   5  -3  -8   -1.84    2.41   2
  -5   3   8    2.01    1.91   1
   4  -3  -8   -0.30    2.68   2
   4   3  -8    0.11    2.95   2
  -3  -3   8    4.07    2.23   3
   3  -3  -8    1.65    2.63   2
   3   3  -8    3.43    3.23   2
   2  -3  -8    2.10    2.69   2
  -2  -3   8    5.33    2.42   3
  -2   3   8    2.88    0.66   3
   2   3  -8    0.11    2.65   2
   1  -3  -8   -1.42    2.31   2
  -1  -3   8    0.46    1.98   3
   1   3  -8    0.27    2.40   2
  -1   3   8    0.11    1.22   3
   0  -3   8   -3.66    1.83   3
   0   3  -8    7.72    3.21   2
   0   3   8    0.97    1.62   3
   0   3  -8    1.76    1.76   1
   1  -3   8   26.15    4.66   3
  -1   3  -8   34.37    4.26   1
  -1   3  -8   28.85    5.21   2
   2  -3   8   41.91    5.92   3
   2   3   8   34.36    2.53   1
  -2   3  -8   42.49    4.90   1
   3  -3   8   87.27    8.75   3
  -3   3  -8   96.67    6.54   1
   4  -3   8   26.12    5.83   3
  -4   3  -8   24.39    4.87   1
   5  -3   8   30.82    6.45   3
  -5   3  -8   24.71    5.00   1
   6  -3   8    6.68    4.47   3
  -6   3  -8   -3.03    2.96   1
  -7   3  -8   -2.15    3.60   1
   8  -4  -8   -2.91    6.56   2
  -8   4   8    3.70    3.78   1
   7  -4  -8    0.65    3.32   2
  -7   4   8    1.29    2.81   1
   6  -4  -8    5.76    3.80   2
  -6   4   8    7.46    2.74   1
   5  -4  -8    3.43    2.95   2
  -5   4   8    9.69    2.36   1
   4  -4  -8  128.07    8.16   2
  -4   4   8  121.64    5.14   1
   4   4  -8  130.90    9.86   2
  -3  -4   8   -2.19    2.21   3
   3  -4  -8   -0.64    2.42   2
   3   4  -8   -4.57    2.58   2
  -2  -4   8    9.15    3.37   3
   2  -4  -8   13.67    3.97   2
   2   4  -8   13.48    4.30   2
  -2   4   8   12.60    0.88   3
  -2   4   8   11.29    0.81   3
   1  -4  -8   32.43    5.15   2
  -1  -4   8   33.69    5.17   3
   1   4  -8   20.40    4.72   2
   0  -4   8  268.14   11.78   3
   0   4  -8  243.63   11.79   2
   1  -4   8   95.75    7.39   3
  -1   4  -8   90.91    7.40   2
  -1   4  -8   81.61    6.05   1
   2  -4   8    5.46    3.55   3
  -2   4  -8    0.56    2.21   1
   3  -4   8   47.65    6.93   3
  -3   4  -8   54.35    6.23   1
   4  -4   8   63.04    8.00   3
  -4   4  -8   55.37    6.70   1
   5  -4   8   -4.74    2.06   3
  -5   4  -8   -1.57    2.50   1
   6  -4   8   62.68    9.05   3
  -6   4  -8   60.57    8.08   1
   6  -5  -8    9.95    3.83   2
  -6   5   8    3.43    2.52   1
   5  -5  -8   12.25    3.80   2
  -5   5   8   17.72    2.96   1
   4  -5  -8    1.63    2.56   2
   4   5  -8   -1.99    3.63   2
  -4   5   8   -0.17    1.25   1
   3  -5  -8   24.90    4.42   2
  -3  -5   8   27.11    4.79   3
  -3   5   8   28.23    1.87   1
   3   5  -8   29.00    5.70   2
   2  -5  -8  151.33    8.25   2
  -2  -5   8  141.05    8.73   3
   2   5  -8  141.65    9.39   2
  -2   5   8  141.12    4.19   3
  -2   5   8  140.32    4.20   3
  -1  -5   8   10.94    3.78   3
  -1   5   8    9.52    2.02   3
   1   5  -8   18.12    4.68   2
   0  -5   8   -2.62    2.39   3
   0   5  -8   -0.31    2.97   2
   1  -5   8   42.18    6.32   3
  -1   5  -8   50.90    6.58   2
  -1   5  -8   47.49    5.69   1
   2  -5   8    7.75    3.82   3
  -2   5  -8    5.16    2.92   1
   3  -5   8   33.16    6.27   3
  -3   5  -8   37.07    5.68   1
   4  -5   8    0.98    3.44   3
  -4   5  -8    2.96    3.22   1
   5  -5   8   14.42    5.28   3
  -5   5  -8   20.90    5.05   1
   6  -5   8   -0.01    3.97   3
  -6   5  -8    1.64    3.84   1
   4  -6  -8    6.54    3.10   2
   4   6  -8    6.86    4.37   2
   3  -6  -8    7.44    3.05   2
  -3  -6   8   16.24    4.79   3
   3   6  -8   13.07    4.62   2
  -2  -6   8  104.81    8.15   3
   2   6  -8  106.21    8.46   2
  -1  -6   8   50.45    6.67   3
   1   6  -8   56.49    7.21   2
   0  -6   8   10.04    4.05   3
   0   6  -8   16.05    4.43   2
   1  -6   8    5.59    3.75   3
  -1   6  -8    7.01    3.75   2
  -1   6  -8   11.98    3.77   1
   2  -6   8   46.71    7.21   3
  -2   6  -8   51.73    6.42   1
   3  -6   8   20.77    5.01   3
  -3   6  -8   28.67    5.30   1
   4  -6   8   77.72    9.51   3
  -4   6  -8   68.13    8.09   1
   5  -6   8    3.16    4.28   3
  -5   6  -8    1.25    3.44   1
   5   7  -8   -1.33    3.94   2
   4   7  -8    7.38    4.62   2
  -3  -7   8    1.16    3.30   3
   3   7  -8   -3.75    3.43   2
  -2  -7   8   52.11    7.22   3
   2   7  -8   33.05    5.79   2
  -1  -7   8   17.55    4.48   3
   1   7  -8    5.41    3.44   2
   0  -7   8   25.10    5.69   3
   0   7  -8   32.90    5.76   2
   1  -7   8   -2.09    2.56   3
  -1   7  -8   -0.54    2.81   2
  -1   7  -8    0.58    2.68   1
   2  -7   8   24.57    5.71   3
  -2   7  -8   14.50    4.11   1
   3  -7   8    0.05    4.43   3
  -3   7  -8   -0.55    2.79   1
   4  -7   8   -0.60    3.69   3
  -4   7  -8    0.10    3.40   1
   5   8  -8   11.40    5.40   2
   4   8  -8    0.97    4.09   2
   3   8  -8    3.41    3.54   2
  -2  -8   8   22.06    5.48   3
   2   8  -8   30.47    6.03   2
  -1  -8   8   -0.73    3.64   3
   1   8  -8    5.16    4.02   2
   0  -8   8   -1.81    3.63   3
   0   8  -8    0.75    3.16   2
   1  -8   8   21.84    5.74   3
  -1   8  -8   15.15    4.83   1
  -1   8  -8   21.41    4.79   2
   2  -8   8   10.23    5.02   3
  -2   8  -8   19.61    5.11   1
   3  -8   8    3.66    4.25   3
  -3   8  -8    6.05    4.02   1
   4   9  -8    5.37    4.23   2
   3   9  -8    6.03    3.80   2
  -2  -9   8    1.25    3.75   3
   2   9  -8    3.57    4.10   2
  -1  -9   8   -2.90    3.27   3
   1   9  -8    0.73    3.19   2
   0  -9   8   21.07    5.92   3
   0   9  -8   12.80    4.59   2
   1  -9   8   -1.30    3.56   3
  -1   9  -8    3.51    3.50   1
  -2   9  -8    4.60    3.96   1
   7   0  -9   -1.49    4.12   2
   6   0  -9   -2.76    3.30   2
   5   0  -9    0.32    3.27   2
   4   0  -9   -1.76    2.91   2
  -3   0   9    8.20    1.73   3
   3   0  -9    6.63    1.59   1
   3   0  -9    4.11    3.28   2
   2   0  -9    0.70    0.95   1
  -2   0   9   -1.85    1.22   3
   2   0  -9   -1.67    2.93   2
   1   0  -9   10.12    1.33   1
   1   0  -9   11.93    4.08   2
  -1   0   9    8.75    2.38   3
   0   0  -9   -3.37    2.60   2
   0   0   9    0.55    1.87   3
   0   0  -9    0.94    0.91   1
   1   0   9  116.32    7.18   3
  -1   0  -9  126.79    8.87   2
   2   0   9   -1.12    2.54   3
  -2   0  -9   -1.92    1.33   1
   3   0   9  141.70    9.19   3
   4   0   9    2.99    3.47   3
  -4   0  -9   -2.44    1.88   1
  -5   0  -9   -0.35    2.65   1
   5   0   9   -0.03    3.52   3
   6   0   9    0.53    4.11   3
  -6   0  -9   -1.23    2.95   1
   8  -1  -9   -2.34    3.73   2
   7  -1  -9   27.63    6.58   2
   6  -1  -9    0.28    4.03   2
   6   1  -9   -1.27    2.43   2
   5  -1  -9   19.29    5.43   2
   5   1  -9   13.84    4.45   2
   4  -1  -9    7.65    3.83   2
   4   1  -9    5.30    4.22   2
  -3  -1   9  173.64    7.15   3
   3  -1  -9  167.19    5.74   1
   3  -1  -9  183.36   10.50   2
   3   1  -9  187.70   10.85   2
   3   1  -9  167.13    6.95   1
  -2  -1   9   36.86    4.01   3
   2  -1  -9   54.65    7.01   2
  -2   1   9   42.83    3.00   3
   2   1  -9   38.60    3.13   1
   2   1  -9   43.21    6.47   2
   2   1  -9   40.01    4.19   3
   1  -1  -9  101.33    7.38   2
  -1  -1   9   99.78    5.85   3
  -1   1   9   88.45    4.95   3
   1   1  -9   86.28    4.24   1
   1   1  -9   93.40    7.65   2
   0  -1  -9   26.91    5.24   2
   0  -1   9   32.78    4.53   3
   0   1  -9   32.56    3.23   1
   0   1  -9   36.18    6.11   2
   0   1   9   32.09    3.98   3
   1  -1   9  375.08   14.19   3
  -1  -1  -9  391.29   10.00   1
  -1   1  -9  392.56   16.21   2
   1   1   9  406.80   13.96   3
  -2  -1  -9    9.10    2.08   1
   2  -1   9    8.70    3.48   3
  -2   1  -9    6.64    2.36   1
   2   1   9    6.83    3.47   3
  -3  -1  -9   23.42    3.44   1
   3  -1   9   36.13    5.94   3
  -3   1  -9   17.94    3.34   1
   3   1   9   31.16    5.49   3
   4  -1   9   16.75    4.59   3
  -4  -1  -9   22.13    3.85   1
  -4   1  -9   16.39    3.75   1
   4   1   9   21.64    5.38   3
  -5  -1  -9   46.91    5.82   1
   5  -1   9   51.96    8.00   3
   5   1   9   50.52    7.71   3
  -5   1  -9   59.58    6.78   1
  -6  -1  -9   -2.49    4.73   1
   6  -1   9   -3.70    2.16   3
   6   1   9    4.26    4.34   3
  -6   1  -9    0.90    3.32   1
   8  -2  -9   -0.06    4.31   2
   7  -2  -9   44.73    7.72   2
   6  -2  -9   -0.38    3.85   2
   6   2  -9   -2.60    3.68   2
   5  -2  -9   11.36    4.36   2
   5   2  -9    5.01    4.44   2
   4  -2  -9   18.97    4.93   2
   4   2  -9   15.30    4.80   2
  -3  -2   9   21.80    3.40   3
   3  -2  -9   19.01    4.77   2
   3   2  -9   20.04    3.41   3
   3   2  -9   17.02    2.98   1
   3   2  -9   30.90    5.71   2
  -2  -2   9   63.70    4.94   3
   2  -2  -9   65.81    7.46   2
  -2   2   9   64.03    3.11   3
   2   2  -9   63.25    7.65   2
   1  -2  -9    1.46    2.47   2
  -1  -2   9   -0.07    1.83   3
   1   2  -9   -0.71    2.82   2
  -1   2   9    0.70    1.50   3
   0  -2   9   59.18    6.11   3
   0  -2  -9   69.70    7.78   2
   0   2  -9   48.45    3.91   1
   0   2  -9   55.53    7.44   2
   0   2   9   58.34    4.62   3
   1  -2   9   10.67    3.35   3
  -1   2  -9   10.92    2.57   1
  -1   2  -9    7.46    3.66   2
   1   2   9    0.43    2.65   3
   2  -2   9   -1.90    2.15   3
   2   2   9   -0.64    2.54   3
  -2   2  -9    0.37    1.91   1
   3  -2   9    8.57    3.30   3
  -3  -2  -9    6.87    2.28   1
  -3   2  -9    5.95    2.75   1
   3   2   9    7.50    3.54   3
   4  -2   9    9.79    4.24   3
  -4  -2  -9    2.59    4.05   1
  -4   2  -9    9.10    3.15   1
   4   2   9    7.51    4.20   3
   5  -2   9   -0.04    3.87   3
   5   2   9    1.97    3.83   3
  -5   2  -9   -0.87    2.58   1
   6  -2   9    3.15    4.31   3
  -6   2  -9    0.37    3.44   1
   6   2   9   -2.61    3.58   3
   8  -3  -9   -1.18    4.17   2
   7  -3  -9   40.78    7.01   2
   6  -3  -9   47.17    7.16   2
   6   3  -9   32.03    6.91   2
   5  -3  -9   93.62    8.06   2
   5   3  -9   79.79    9.61   2
   4  -3  -9   -0.99    2.79   2
   4   3  -9    0.29    3.93   2
  -3  -3   9   26.02    4.34   3
   3  -3  -9   22.78    4.97   2
   3   3  -9   11.10    4.42   2
   2  -3  -9   11.21    4.02   2
  -2  -3   9   10.65    3.33   3
  -2   3   9   10.36    1.18   3
   2   3  -9    4.36    3.44   2
   1  -3  -9  326.46   14.00   2
  -1  -3   9  317.68   12.64   3
   1   3  -9  335.52   14.74   2
   0  -3   9    0.51    2.43   3
   0   3   9    4.88    2.18   3
   0   3  -9    3.27    2.20   1
   0   3  -9    1.69    3.08   2
   1  -3   9  138.16    8.67   3
  -1   3  -9  125.88    9.12   2
   1   3   9  124.99    7.20   3
  -1   3  -9  137.16    7.06   1
   2  -3   9    2.51    2.95   3
  -2   3  -9   -0.85    2.17   1
   3  -3   9  120.79    9.20   3
  -3   3  -9  112.35    7.48   1
   4  -3   9   12.95    4.87   3
  -4   3  -9   32.83    5.32   1
   5  -3   9   84.42   10.10   3
  -5   3  -9   91.02    7.68   1
   6  -3   9    1.55    4.00   3
  -6   3  -9    0.74    3.21   1
   7  -4  -9    1.45    4.08   2
   6  -4  -9    5.63    4.10   2
   6   4  -9   -1.52    3.38   2
   5  -4  -9    2.47    3.41   2
   5   4  -9   -0.18    3.96   2
   4  -4  -9   31.91    5.65   2
   4   4  -9   30.33    6.35   2
  -3  -4   9   20.68    4.16   3
   3  -4  -9   24.25    4.68   2
   3   4  -9   23.76    5.32   2
   2  -4  -9    6.26    3.51   2
  -2  -4   9   -0.99    2.17   3
   2   4  -9   -0.29    3.37   2
   1  -4  -9   47.60    6.31   2
  -1  -4   9   22.35    4.51   3
  -1   4   9   35.82    3.30   3
   1   4  -9   40.49    6.54   2
   0  -4   9   70.18    7.53   3
   0   4  -9   68.13    6.46   1
   0   4  -9   71.45    8.26   2
   1  -4   9    9.98    3.80   3
  -1   4  -9   14.16    3.66   1
  -1   4  -9    7.09    3.54   2
   2  -4   9    2.69    3.53   3
  -2   4  -9    5.75    2.98   1
   3  -4   9    6.24    3.87   3
  -3   4  -9    6.77    3.15   1
   4  -4   9    4.90    4.13   3
  -4   4  -9    4.37    3.46   1
   5  -4   9   13.41    5.35   3
  -5   4  -9   15.10    4.58   1
  -6   4  -9   12.39    4.64   1
   6  -5  -9   -0.96    3.23   2
   6   5  -9   -5.32    4.01   2
   5  -5  -9   28.35    5.50   2
   5   5  -9   35.72    7.29   2
   4  -5  -9   31.67    5.36   2
   4   5  -9   15.22    5.74   2
  -3  -5   9   55.35    6.77   3
   3  -5  -9   71.49    7.45   2
   3   5  -9   61.85    8.30   2
   2  -5  -9    7.54    3.53   2
  -2  -5   9    5.33    3.24   3
   2   5  -9    2.86    3.51   2
  -1  -5   9   16.56    4.29   3
   1   5  -9   26.70    5.70   2
   0  -5   9   -0.50    2.90   3
   0   5  -9   -3.20    2.40   1
   0   5  -9    0.64    3.05   2
   1  -5   9   50.92    7.05   3
  -1   5  -9   57.68    6.46   1
  -1   5  -9   56.80    7.45   2
   2  -5   9   92.73    7.95   3
  -2   5  -9  103.15    7.35   1
   3  -5   9   49.24    7.21   3
  -3   5  -9   57.43    6.99   1
   4  -5   9    5.54    4.75   3
  -4   5  -9    9.30    3.96   1
   5  -5   9   44.71    7.93   3
  -5   5  -9   55.10    7.58   1
   6   6  -9    2.01    5.25   2
   5   6  -9   -9.45    3.44   2
   4  -6  -9    6.37    3.36   2
   4   6  -9   13.56    5.65   2
   3  -6  -9   12.36    3.96   2
  -3  -6   9    6.25    3.60   3
   3   6  -9    8.14    4.45   2
  -2  -6   9    5.04    3.50   3
   2   6  -9    5.63    4.01   2
  -1  -6   9   15.91    4.74   3
   1   6  -9   18.82    5.43   2
   0  -6   9   -3.66    2.55   3
   0   6  -9    3.11    3.56   2
   0   6  -9    0.96    2.92   1
   1  -6   9    8.23    4.34   3
  -1   6  -9    5.19    3.14   1
  -1   6  -9    2.17    3.66   2
   2  -6   9   -1.42    3.41   3
  -2   6  -9    2.37    3.17   1
   3  -6   9   36.36    7.05   3
  -3   6  -9   45.96    6.75   1
   4  -6   9    2.30    3.71   3
  -4   6  -9    7.25    4.03   1
   6   7  -9    4.46    5.18   2
   5   7  -9   -5.60    4.12   2
   4   7  -9   -4.27    3.46   2
  -3  -7   9   22.41    5.36   3
   3   7  -9   31.14    6.81   2
  -2  -7   9   21.30    5.19   3
   2   7  -9   13.56    4.78   2
  -1  -7   9   -8.19    2.70   3
   1   7  -9    2.69    3.93   2
   0  -7   9    8.67    4.38   3
   0   7  -9   -1.79    2.50   1
   0   7  -9    1.49    3.61   2
   1  -7   9   88.50    9.71   3
  -1   7  -9  111.32    8.56   1
  -1   7  -9   92.75    8.09   2
   2  -7   9    5.99    4.49   3
  -2   7  -9   -1.72    3.11   1
   3  -7   9    9.19    4.77   3
  -3   7  -9   26.88    5.77   1
  -4   7  -9    9.30    4.45   1
   4   8  -9    5.99    4.95   2
  -3  -8   9   -7.80    2.80   3
   3   8  -9    5.34    4.01   2
  -2  -8   9    4.33    4.22   3
   2   8  -9   10.69    5.07   2
  -1  -8   9   -0.12    3.77   3
   1   8  -9   -0.73    3.20   2
   0  -8   9    3.37    3.88   3
   0   8  -9   -0.85    3.38   1
   0   8  -9   -1.42    3.28   2
   1  -8   9    6.55    4.41   3
  -1   8  -9   -0.15    2.88   2
  -1   8  -9   -5.48    2.39   1
   2  -8   9    0.98    4.19   3
  -2   8  -9   -1.31    3.06   1
  -2  -9   9   12.62    5.29   3
   2   9  -9    4.89    4.53   2
  -1  -9   9   23.29    5.83   3
   1   9  -9   23.60    5.86   2
   0   9  -9   13.38    4.65   1
   8   0 -10    9.05    5.91   2
   7   0 -10   -0.66    4.40   2
   6   0 -10   42.78    7.97   2
   5   0 -10    0.19    4.06   2
   4   0 -10  159.59   10.52   2
   3   0 -10   -2.75    2.18   2
  -3   0  10    0.45    1.35   3
  -2   0  10   19.20    2.99   3
   2   0 -10   14.44    4.78   2
   1   0 -10   -3.20    2.84   2
  -1   0  10    0.86    1.79   3
   0   0  10  349.85   12.94   3
   0   0 -10  385.64   16.45   2
   1   0  10    0.41    2.41   3
   2   0  10   11.52    3.80   3
   3   0  10   -2.60    2.69   3
   4   0  10  159.18   10.77   3
   5   0  10   -1.01    3.82   3
   8  -1 -10   -4.17    4.09   2
   8   1 -10   -1.60    4.95   2
   7  -1 -10   -1.34    4.22   2
   7   1 -10    7.73    4.79   2
   6  -1 -10    1.71    4.43   2
   6   1 -10   -2.90    4.09   2
   5  -1 -10    6.47    4.35   2
   5   1 -10    7.84    4.95   2
   4  -1 -10   57.30    8.03   2
   4   1 -10   60.92    8.17   2
   3  -1 -10   11.66    4.83   2
  -3  -1  10    9.55    2.42   3
   3   1 -10   12.30    4.68   2
  -2  -1  10    0.41    1.83   3
   2  -1 -10   -3.08    2.55   2
   2   1 -10   -3.12    2.73   2
  -2   1  10    1.71    1.47   3
   1  -1 -10   42.71    7.00   2
  -1  -1  10   41.44    4.89   3
  -1   1  10   45.62    4.33   3
   1   1 -10   50.08    7.31   2
   0  -1 -10    1.31    2.65   2
   0  -1  10    2.27    2.44   3
   0   1  10    1.28    2.19   3
   0   1 -10    4.86    1.71   1
   0   1 -10    7.87    4.13   2
   1  -1  10   20.55    4.36   3
  -1   1 -10   20.07    5.36   2
  -1   1 -10   18.76    2.83   1
   1   1  10   29.84    4.53   3
   2  -1  10    8.07    3.53   3
   2   1  10    9.09    3.67   3
  -2   1 -10    3.88    2.16   1
   3  -1  10   -3.62    2.82   3
  -3   1 -10   -2.01    1.99   1
   3   1  10   -0.65    2.78   3
   4  -1  10   -1.36    3.67   3
  -4   1 -10    1.90    2.69   1
   4   1  10    2.35    3.90   3
   5  -1  10    7.86    4.39   3
   5   1  10    2.86    3.88   3
   8  -2 -10    4.33    5.53   2
   8   2 -10    2.77    5.02   2
   7  -2 -10    1.47    4.69   2
   7   2 -10    2.22    4.93   2
   6  -2 -10    2.00    4.24   2
   6   2 -10    3.31    4.74   2
   5  -2 -10    3.45    4.26   2
   5   2 -10   -3.98    3.60   2
   4  -2 -10   34.19    6.53   2
   4   2 -10   37.60    7.18   2
   3  -2 -10    3.23    3.58   2
  -3  -2  10   -1.52    1.85   3
   3   2 -10   -0.79    2.69   2
   2  -2 -10   33.68    5.98   2
  -2  -2  10   27.44    4.07   3
   2   2 -10   22.52    5.49   2
  -2   2  10   30.06    2.49   3
   1  -2 -10    2.40    3.08   2
  -1  -2  10    3.55    2.71   3
   1   2 -10    4.60    1.79   1
  -1   2  10    3.83    1.80   3
   1   2 -10    2.27    3.27   2
   0  -2 -10  120.28    9.27   2
   0  -2  10  133.34    8.09   3
   0   2 -10  131.95    6.26   1
   0   2 -10  123.34    9.61   2
   0   2  10  144.49    7.14   3
   1  -2  10   -1.89    2.30   3
  -1   2 -10   -3.20    3.07   2
  -1   2 -10   -0.83    1.55   1
   1   2  10    1.47    2.33   3
   2  -2  10   35.96    6.00   3
  -2   2 -10   25.91    3.98   1
   2   2  10   22.21    4.36   3
   3  -2  10   44.79    7.17   3
   3   2  10   54.02    7.18   3
  -3   2 -10   45.64    5.51   1
   4  -2  10   43.42    7.04   3
  -4   2 -10   49.09    6.04   1
   4   2  10   60.11    7.93   3
   5  -2  10    4.86    3.99   3
   5   2  10    2.38    3.88   3
  -5   2 -10    2.56    3.00   1
   7  -3 -10    4.67    4.31   2
   7   3 -10    6.05    5.49   2
   6  -3 -10   18.91    5.98   2
   6   3 -10    7.00    5.35   2
   5  -3 -10   -2.81    3.43   2
   5   3 -10   -7.02    3.61   2
   4  -3 -10    1.98    3.59   2
   4   3 -10    4.98    4.35   2
  -3  -3  10    3.59    2.54   3
   3  -3 -10    3.12    3.47   2
   3   3 -10    0.40    3.59   2
  -2  -3  10  120.85    7.78   3
   2  -3 -10  112.53    8.82   2
   2   3 -10  125.62    9.96   2
  -1  -3  10   10.45    3.60   3
   1  -3 -10    9.55    4.15   2
   1   3 -10   16.39    5.21   2
   1   3 -10    9.63    2.69   1
  -1   3  10    9.37    2.15   3
   0  -3  10   -2.02    2.54   3
   0   3 -10   -0.52    2.78   2
   0   3 -10    0.58    1.89   1
   0   3  10    1.37    2.11   3
   1  -3  10   49.32    6.62   3
  -1   3 -10   53.95    5.46   1
   1   3  10   50.06    5.57   3
  -1   3 -10   53.83    7.59   2
   2  -3  10    0.44    2.99   3
   2   3  10    4.10    2.97   3
  -2   3 -10    2.84    2.57   1
   3  -3  10    6.83    4.18   3
   3   3  10    3.58    3.25   3
  -3   3 -10    3.70    2.73   1
   4  -3  10   48.11    7.73   3
   4   3  10   63.27    8.11   3
  -4   3 -10   66.36    7.30   1
   5  -3  10   -1.75    3.93   3
   5   3  10    9.25    4.91   3
  -5   3 -10   -2.82    2.56   1
   7  -4 -10    4.92    4.17   2
   7   4 -10   -5.80    2.87   2
   6  -4 -10   11.46    4.68   2
   6   4 -10    6.87    5.51   2
   5  -4 -10   10.90    4.73   2
   5   4 -10   23.52    6.59   2
   4  -4 -10   38.49    6.31   2
   4   4 -10   37.61    7.47   2
  -3  -4  10    2.94    3.14   3
   3  -4 -10    4.42    3.64   2
   3   4 -10   -1.24    3.84   2
  -2  -4  10   63.75    6.96   3
   2  -4 -10   64.85    7.86   2
   2   4 -10   51.51    7.63   2
  -1  -4  10    7.79    3.50   3
  -1   4  10    7.84    2.02   3
   1   4 -10    9.55    4.26   2
   0  -4  10   21.43    4.85   3
   0   4 -10   20.50    3.91   1
   0   4  10   13.27    2.93   3
   0   4 -10   16.91    5.20   2
   1  -4  10   -1.09    2.92   3
  -1   4 -10   -0.99    2.20   1
   1   4  10    3.10    2.56   3
  -1   4 -10    0.62    3.45   2
   2  -4  10  146.88   10.40   3
  -2   4 -10  152.79    8.83   1
   3  -4  10   -0.26    3.22   3
  -3   4 -10   -0.58    2.76   1
   4  -4  10    8.07    4.65   3
  -4   4 -10   10.50    3.86   1
  -5   4 -10   13.50    4.65   1
   6   5 -10    8.65    5.95   2
   5  -5 -10    4.77    3.71   2
   5   5 -10   -4.91    3.94   2
   4  -5 -10    3.63    3.52   2
   4   5 -10   -0.15    4.21   2
  -3  -5  10    4.31    3.30   3
   3  -5 -10   13.97    4.27   2
   3   5 -10    7.77    4.99   2
  -2  -5  10    5.60    3.61   3
   2   5 -10    7.26    4.59   2
  -1  -5  10    4.66    3.59   3
   1   5 -10   -4.08    2.88   2
   0  -5  10   -1.66    2.74   3
   0   5 -10    1.69    3.78   2
   0   5  10   -1.10    1.97   3
   0   5 -10   -1.69    2.47   1
   1  -5  10   11.59    4.62   3
  -1   5 -10    2.22    3.40   2
  -1   5 -10   10.26    3.33   1
   2  -5  10   21.81    5.73   3
  -2   5 -10   14.32    3.98   1
   3  -5  10    1.03    3.83   3
  -3   5 -10    3.05    3.45   1
   4  -5  10    1.80    4.13   3
  -4   5 -10    1.55    3.37   1
   6   6 -10   10.14    6.04   2
   5   6 -10    7.66    5.43   2
   4   6 -10   49.10    8.38   2
  -3  -6  10   -0.04    3.17   3
   3   6 -10    3.46    4.06   2
  -2  -6  10    0.08    2.99   3
   2   6 -10   -9.31    2.85   2
  -1  -6  10    8.04    4.17   3
   1   6 -10   -0.98    3.63   2
   0  -6  10   91.94    9.74   3
   0   6 -10  104.96    7.93   1
   0   6 -10  118.77    9.64   2
   1  -6  10   12.28    4.72   3
  -1   6 -10   14.91    5.14   2
  -1   6 -10   14.07    4.23   1
   2  -6  10    0.48    3.56   3
  -2   6 -10    4.04    3.67   1
   3  -6  10    1.12    3.05   3
  -3   6 -10   -2.99    2.70   1
   5   7 -10   -1.50    4.37   2
   4   7 -10    2.54    4.38   2
  -3  -7  10    3.89    4.00   3
   3   7 -10    1.00    4.59   2
  -2  -7  10   -3.65    2.89   3
   2   7 -10   -3.79    3.84   2
  -1  -7  10   -2.34    3.20   3
   1   7 -10   -0.54    3.35   2
   0  -7  10   16.23    5.17   3
   0   7 -10    7.97    4.31   2
   0   7 -10   11.81    4.37   1
   1  -7  10    7.37    4.69   3
  -1   7 -10    1.20    3.44   2
  -1   7 -10    2.00    3.36   1
   2  -7  10    9.58    4.49   3
  -2   7 -10    3.28    3.38   1
  -3  -8  10   12.02    5.03   3
   3   8 -10   23.64    6.55   2
  -2  -8  10    0.97    3.90   3
   2   8 -10   -0.33    3.71   2
  -1  -8  10   -0.98    3.75   3
   1   8 -10   -3.21    2.86   2
   0  -8  10   10.21    5.29   3
   0   8 -10    9.34    5.00   2
   0   8 -10    6.35    4.03   1
   7   0 -11    1.76    5.27   2
   6   0 -11   -0.33    4.06   2
   5   0 -11   27.92    7.02   2
   4   0 -11    6.40    4.55   2
   3   0 -11    6.00    4.48   2
  -2   0  11   -1.99    1.63   3
   2   0 -11    1.84    3.03   2
   1   0 -11  119.25    9.92   2
  -1   0  11  109.52    6.53   3
   0   0  11    0.16    2.34   3
   0   0 -11    4.80    4.02   2
   1   0  11   10.03    3.70   3
   2   0  11    3.00    3.12   3
   3   0  11   52.93    7.46   3
   4   0  11   -1.07    3.46   3
   5   0  11   80.96    9.71   3
   7  -1 -11    1.54    4.88   2
   7   1 -11   -7.39    4.46   2
   6  -1 -11   -0.27    4.12   2
   6   1 -11    0.15    4.84   2
   5  -1 -11   20.81    5.84   2
   5   1 -11   16.01    5.69   2
   4  -1 -11    5.79    4.63   2
   4   1 -11   -1.58    3.79   2
  -3  -1  11   54.24    4.64   3
   3  -1 -11   76.89    9.22   2
   3   1 -11   67.54    9.12   2
   2  -1 -11    5.90    4.36   2
  -2  -1  11    5.85    2.54   3
   2   1 -11    5.01    4.11   2
  -2   1  11    8.11    2.02   3
  -1  -1  11  139.01    7.91   3
   1  -1 -11  140.75   10.67   2
   1   1 -11  147.06   10.86   2
   0  -1 -11   11.36    4.85   2
   0  -1  11    8.19    3.32   3
   0   1 -11    7.02    4.52   2
   0   1  11   11.87    3.17   3
   1  -1  11    0.62    2.60   3
   1   1  11   -3.47    1.98   3
   2  -1  11    2.06    3.62   3
   2   1  11   -1.60    2.76   3
   3  -1  11   63.49    8.19   3
   3   1  11   57.04    7.46   3
   4  -1  11    3.16    4.50   3
   4   1  11    2.82    3.60   3
   7  -2 -11   11.02    5.70   2
   7   2 -11   15.26    7.05   2
   6  -2 -11   -8.05    3.52   2
   6   2 -11    0.56    4.94   2
   5  -2 -11    1.52    4.23   2
   5   2 -11   -3.09    4.08   2
   4  -2 -11   -2.03    3.30   2
   4   2 -11   -7.53    3.64   2
   3  -2 -11   83.49    9.59   2
  -3  -2  11   71.97    5.75   3
   3   2 -11   74.80    9.79   2
   2  -2 -11    0.48    3.56   2
  -2  -2  11    6.90    3.06   3
   2   2 -11   10.76    4.94   2
  -1  -2  11   23.44    4.24   3
   1  -2 -11   36.52    6.68   2
  -1   2  11   19.34    3.10   3
   1   2 -11   31.92    6.58   2
   0  -2  11   -1.65    2.31   3
   0   2 -11   -5.26    3.39   2
   0   2  11   -5.43    1.66   3
   1  -2  11    4.60    3.35   3
   1   2  11    7.91    3.37   3
  -1   2 -11    7.49    4.77   2
   2  -2  11    7.51    4.02   3
   2   2  11   15.44    4.03   3
   3  -2  11   21.60    5.55   3
   3   2  11   19.84    5.08   3
   4  -2  11    5.38    4.34   3
   4   2  11   10.91    4.50   3
   6  -3 -11   -2.04    3.98   2
   6   3 -11   -0.68    4.46   2
   5  -3 -11   45.86    7.82   2
   5   3 -11   45.79    8.26   2
   4  -3 -11    8.50    4.80   2
   4   3 -11   18.52    5.59   2
  -3  -3  11   45.91    5.47   3
   3  -3 -11   45.62    7.31   2
   3   3 -11   45.64    8.08   2
  -2  -3  11    0.87    2.79   3
   2  -3 -11    9.40    4.47   2
   2   3 -11    2.46    4.13   2
   1  -3 -11   75.84    9.18   2
  -1  -3  11   64.45    6.83   3
   1   3 -11   74.70    9.26   2
   1   3 -11   55.99    4.75   1
   0  -3  11    0.46    2.64   3
   0   3 -11    0.09    1.90   1
   0   3  11   -0.32    1.96   3
   0   3 -11    1.81    4.31   2
   1  -3  11  100.73    8.35   3
   1   3  11   96.44    7.06   3
  -1   3 -11  118.79   12.15   2
  -1   3 -11  109.11    6.90   1
   2  -3  11   14.61    5.05   3
  -2   3 -11   10.77    4.62   1
   2   3  11   17.32    4.44   3
   3  -3  11    3.99    3.63   3
   3   3  11   -3.48    3.22   3
   4  -3  11    9.38    4.61   3
   4   3  11    8.09    4.47   3
   6  -4 -11    3.61    4.06   2
   6   4 -11    0.78    5.24   2
   5  -4 -11    5.09    4.16   2
   5   4 -11    1.95    4.73   2
   4  -4 -11   -1.32    3.19   2
   4   4 -11    3.78    4.39   2
  -3  -4  11   11.85    3.94   3
   3  -4 -11    8.68    4.66   2
   3   4 -11    4.56    4.86   2
  -2  -4  11   -3.18    2.38   3
   2  -4 -11    9.46    4.51   2
   2   4 -11    6.36    4.66   2
  -1  -4  11   17.54    4.54   3
   1   4 -11   10.32    3.39   1
   1   4 -11   15.16    5.56   2
   0  -4  11   41.10    6.44   3
   0   4 -11   18.60    3.79   1
   0   4 -11   25.92    6.12   2
   1  -4  11   50.26    7.23   3
   1   4  11   58.67    6.25   3
  -1   4 -11   66.33    9.13   2
  -1   4 -11   71.69    6.82   1
   2  -4  11    2.55    3.82   3
  -2   4 -11    4.65    3.17   1
   2   4  11    4.36    3.41   3
   3  -4  11   26.30    6.41   3
   3   4  11   19.26    5.22   3
  -3   4 -11   25.77    4.98   1
   4  -4  11    0.92    4.30   3
   4   4  11    6.16    4.15   3
   5  -5 -11   32.82    6.29   2
   5   5 -11   23.53    7.12   2
   4  -5 -11   -2.22    3.51   2
   4   5 -11   -3.60    3.85   2
  -3  -5  11    6.60    3.69   3
   3  -5 -11    2.61    3.67   2
   3   5 -11   -0.91    4.56   2
  -2  -5  11   30.97    5.90   3
   2   5 -11   47.78    8.46   2
  -1  -5  11    6.71    4.02   3
   1   5 -11    9.45    3.69   1
   1   5 -11    6.86    4.70   2
   0  -5  11    1.52    3.59   3
   0   5 -11    4.87    4.21   2
   0   5 -11   -1.34    2.43   1
   1  -5  11    0.06    3.74   3
  -1   5 -11    9.60    5.04   2
  -1   5 -11    0.52    2.79   1
   2  -5  11    8.95    4.46   3
   2   5  11    7.55    3.69   3
  -2   5 -11    6.10    3.70   1
   3  -5  11   34.73    7.27   3
  -3   5 -11   20.20    4.92   1
   4   6 -11    7.36    4.95   2
  -3  -6  11    1.41    3.43   3
   3   6 -11   -4.47    3.77   2
  -2  -6  11    2.72    3.78   3
   2   6 -11   -5.90    3.46   2
  -1  -6  11   30.55    6.23   3
   1   6 -11   47.29    7.84   2
   1   6 -11   36.59    5.73   1
   0  -6  11    5.68    4.14   3
   0   6 -11    8.03    3.59   1
   0   6 -11    5.73    4.54   2
   1  -6  11    5.68    4.34   3
  -1   6 -11    6.47    3.74   1
  -1   6 -11    4.12    4.01   2
   2  -6  11   -3.21    4.28   3
  -2   6 -11   -0.25    3.00   1
  -3  -7  11    0.46    3.60   3
   3   7 -11    0.25    4.36   2
  -2  -7  11    8.82    4.58   3
   2   7 -11   -1.54    3.74   2
  -1  -7  11   30.11    6.54   3
   1   7 -11   19.92    5.00   1
   1   7 -11   24.20    6.53   2
   0  -7  11    0.07    3.46   3
   0   7 -11   -2.29    3.50   2
   0   7 -11    0.20    3.45   1
   6   0 -12   -4.60    4.01   2
   5   0 -12    2.74    4.66   2
   4   0 -12   38.09    7.95   2
   3   0 -12   -2.21    4.21   2
   2   0 -12   19.77    6.18   2
  -1   0  12    0.07    2.19   3
   1   0 -12   -5.04    3.49   2
   0   0  12   -0.10    2.41   3
   0   0 -12    0.59    3.94   2
   1   0  12    1.54    2.97   3
   2   0  12   56.28    7.30   3
   3   0  12    3.86    3.88   3
   6  -1 -12   24.19    7.01   2
   6   1 -12   20.42    7.15   2
   5  -1 -12   -1.60    4.32   2
   5   1 -12    5.26    4.40   2
   4  -1 -12    7.88    5.06   2
   4   1 -12    1.07    4.83   2
   3  -1 -12   -4.86    3.32   2
   3   1 -12   -0.68    4.23   2
   2  -1 -12   61.17    8.74   2
  -2  -1  12   50.78    5.41   3
   2   1 -12   80.32   10.00   2
  -1  -1  12    1.54    2.67   3
   1  -1 -12   -4.19    3.59   2
   1   1 -12   -9.60    3.25   2
   0  -1  12    1.51    2.75   3
   0  -1 -12    1.16    3.85   2
   0   1  12    1.19    2.47   3
   0   1 -12    3.45    4.13   2
   1  -1  12   -4.22    2.81   3
   1   1  12   -1.02    2.62   3
   2  -1  12   92.58    9.34   3
   2   1  12   95.81    9.27   3
   3  -1  12   -1.35    3.57   3
   3   1  12    4.73    3.81   3
   6  -2 -12   -1.10    4.68   2
   6   2 -12   -9.34    4.51   2
   5  -2 -12    5.98    4.99   2
   5   2 -12   -3.13    4.39   2
   4  -2 -12    7.15    4.93   2
   4   2 -12  -10.05    3.87   2
   3  -2 -12    2.14    4.49   2
   3   2 -12   -5.40    2.58   2
   2  -2 -12   51.40    8.45   2
  -2  -2  12   60.26    6.26   3
   2   2 -12   68.02    9.73   2
  -1  -2  12    1.96    2.70   3
   1  -2 -12    6.96    4.62   2
   1   2 -12   -5.70    3.70   2
   0  -2  12    6.49    3.26   3
   0   2  12    6.36    3.00   3
   0   2 -12    8.18    4.21   2
   1  -2  12    2.38    3.53   3
   1   2  12    1.10    2.52   3
   2  -2  12    6.17    3.81   3
   2   2  12   -3.08    2.98   3
   3  -2  12    6.01    4.34   3
   3   2  12    4.41    3.90   3
   5  -3 -12    4.37    4.76   2
   5   3 -12    4.26    5.11   2
   4  -3 -12   33.07    6.92   2
   4   3 -12   32.04    7.00   2
   3  -3 -12    4.64    4.54   2
  -3  -3  12    8.49    3.37   3
   3   3 -12    3.81    5.23   2
  -2  -3  12   -3.32    2.13   3
   2  -3 -12    2.67    4.38   2
   2   3 -12    8.91    5.17   2
  -1  -3  12   20.25    4.52   3
   1  -3 -12   15.30    5.86   2
   1   3 -12   19.27    6.40   2
   0  -3  12   50.60    6.90   3
   0   3 -12   41.12    7.80   2
   1  -3  12    4.38    4.00   3
   1   3  12    2.42    3.17   3
  -1   3 -12    0.78    4.18   2
   2  -3  12    7.36    4.36   3
   2   3  12   10.69    4.03   3
   3  -3  12    4.96    4.35   3
   3   3  12    2.56    3.65   3
   5  -4 -12    0.88    3.84   2
   5   4 -12   -1.79    4.58   2
   4  -4 -12   -0.14    3.63   2
   4   4 -12    2.57    5.18   2
   3  -4 -12    0.51    3.78   2
  -3  -4  12   -1.35    2.96   3
   3   4 -12   -4.49    4.19   2
   2  -4 -12   -4.19    3.58   2
  -2  -4  12    0.74    2.56   3
   2   4 -12   -1.74    3.20   2
  -1  -4  12    7.21    3.89   3
   1   4 -12   13.59    5.21   2
   0  -4  12   20.77    5.15   3
   0   4 -12   25.48    6.83   2
   1  -4  12   11.83    4.77   3
  -1   4 -12    1.37    4.51   2
   2  -4  12    3.67    3.49   3
   4  -5 -12    7.67    4.63   2
   4   5 -12    0.83    4.88   2
   3  -5 -12    1.26    3.91   2
  -3  -5  12    3.17    3.62   3
   3   5 -12    9.77    5.87   2
  -2  -5  12    2.73    3.53   3
   2   5 -12    9.20    5.25   2
  -1  -5  12   -3.01    2.96   3
   1   5 -12    0.15    3.94   2
   0  -5  12   31.00    6.55   3
   0   5 -12   31.69    7.15   2
   1  -5  12    3.81    4.24   3
  -1   5 -12    3.60    4.25   2
  -2  -6  12    2.25    4.03   3
   2   6 -12    5.76    4.86   2
  -1  -6  12   -6.29    2.92   3
   1   6 -12   -0.65    3.81   2
   5   0 -13   18.92    6.67   2
   4   0 -13    1.14    4.13   2
   3   0 -13   57.57    9.48   2
   2   0 -13   -3.49    2.91   2
   1   0 -13   11.54    5.56   2
   0   0  13    7.02    4.53   3
   0   0 -13   -0.78    4.00   2
   2   0  13    1.02    3.45   3
   5  -1 -13    2.97    5.57   2
   5   1 -13    1.58    4.46   2
   4  -1 -13   -0.38    4.66   2
   4   1 -13   -3.51    4.46   2
   3  -1 -13   -1.19    4.32   2
   3   1 -13   -0.99    4.42   2
   2  -1 -13    5.50    5.19   2
   2   1 -13    3.55    4.78   2
   1  -1 -13    8.78    5.21   2
   1   1 -13   -3.15    4.29   2
   0  -1  13    1.13    3.20   3
   0   1 -13    0.75    4.47   2
   1  -1  13    5.94    3.69   3
   1   1  13    9.21    4.78   3
   2  -1  13    4.43    3.73   3
   2   1  13    1.26    3.51   3
   4  -2 -13    6.44    5.31   2
   4   2 -13    2.09    5.63   2
   3  -2 -13   51.61    9.06   2
   3   2 -13   44.84    8.86   2
   2  -2 -13    1.43    4.71   2
   2   2 -13   -0.58    4.78   2
   1  -2 -13   11.98    5.61   2
  -1  -2  13    3.82    3.18   3
   1   2 -13   13.69    6.15   2
   0  -2  13   -1.29    2.75   3
   0   2 -13   -1.30    4.17   2
   1  -2  13   16.79    4.92   3
   4  -3 -13    6.15    4.77   2
   4   3 -13   -2.34    4.71   2
   3  -3 -13   19.95    6.57   2
   3   3 -13   20.68    7.07   2
   2  -3 -13    8.90    5.20   2
  -2  -3  13   -1.47    4.26   3
   2   3 -13    6.01    4.99   2
  -1  -3  13   -2.15    3.02   3
   1   3 -13   -2.35    4.75   2
   0  -3  13    3.01    3.38   3
   0   3 -13    9.43    5.51   2
   1  -3  13   -1.11    3.32   3
   3  -4 -13   21.65    6.52   2
   3   4 -13   27.51    8.07   2
  -2  -4  13    8.00    4.16   3
   2   4 -13    1.63    4.87   2
  -1  -4  13   32.64    5.91   3
   1   4 -13   35.30    8.03   2
   0  -4  13    6.20    4.29   3
   0   4 -13   -0.23    4.56   2
   0   0   0    0.00    0.00
;
_shelx_hkl_checksum              33470
loop_
_symmetry_equiv_pos_as_xyz
'x, y, z'
'-x+1/2, y+1/2, -z+1/2'
'-x, -y, -z'
'x-1/2, -y-1/2, z-1/2'
loop_
_atom_site_label
_atom_site_type_symbol
_atom_site_fract_x
_atom_site_fract_y
_atom_site_fract_z
_atom_site_U_iso_or_equiv
_atom_site_adp_type
_atom_site_occupancy
_atom_site_site_symmetry_order
_atom_site_calc_flag
_atom_site_refinement_flags_posn
_atom_site_refinement_flags_adp
_atom_site_refinement_flags_occupancy
_atom_site_disorder_assembly
_atom_site_disorder_group
C1 C 0.4621(3) 0.0070(3) 0.7045(2) 0.0429(6) Uani 1 1 d . . . . .
C2 C 0.4747(4) -0.1283(3) 0.7617(3) 0.0549(7) Uani 1 1 d . . . . .
H2 H 0.5524 -0.1448 0.8341 0.066 Uiso 1 1 calc R U . . .
C3 C 0.3698(4) -0.2367(3) 0.7089(3) 0.0627(8) Uani 1 1 d . . . . .
H3 H 0.3763 -0.3277 0.7464 0.075 Uiso 1 1 calc R U . . .
C4 C 0.2534(4) -0.2136(3) 0.6000(3) 0.0640(9) Uani 1 1 d . . . . .
H4 H 0.1846 -0.29 0.5664 0.077 Uiso 1 1 calc R U . . .
C5 C 0.2377(4) -0.0806(3) 0.5410(3) 0.0554(8) Uani 1 1 d . . . . .
H5 H 0.16 -0.0645 0.4684 0.066 Uiso 1 1 calc R U . . .
C6 C 0.3441(3) 0.0269(3) 0.5960(2) 0.0413(6) Uani 1 1 d . . . . .
C7 C 0.4869(3) 0.2277(3) 0.6546(2) 0.0443(6) Uani 1 1 d . . . . .
N1 N 0.5503(3) 0.1339(2) 0.73843(19) 0.0476(6) Uani 1 1 d . . . . .
N2 N 0.3631(3) 0.1711(2) 0.56586(17) 0.0435(5) Uani 1 1 d . . . . .
Cl1 Cl 0.24518(8) 0.25870(8) 0.44486(5) 0.0512(2) Uani 1 1 d . . . . .
Cl2 Cl 0.54339(11) 0.40350(8) 0.64964(7) 0.0662(3) Uani 1 1 d . . . . .
loop_
_atom_site_aniso_label
_atom_site_aniso_U_11
_atom_site_aniso_U_22
_atom_site_aniso_U_33
_atom_site_aniso_U_23
_atom_site_aniso_U_13
_atom_site_aniso_U_12
C1 0.0400(15) 0.0483(17) 0.0401(13) -0.0011(12) 0.0056(11) 0.0024(13)
C2 0.0536(18) 0.059(2) 0.0529(16) 0.0090(14) 0.0105(14) 0.0107(15)
C3 0.071(2) 0.0509(19) 0.073(2) 0.0037(16) 0.0319(18) 0.0020(17)
C4 0.068(2) 0.059(2) 0.070(2) -0.0148(17) 0.0265(17) -0.0163(17)
C5 0.0481(17) 0.068(2) 0.0504(16) -0.0107(15) 0.0079(14) -0.0046(15)
C6 0.0393(14) 0.0477(17) 0.0377(13) -0.0032(12) 0.0087(11) 0.0004(13)
C7 0.0431(15) 0.0467(17) 0.0417(13) -0.0045(12) 0.0021(12) 0.0009(13)
N1 0.0470(13) 0.0531(15) 0.0384(11) 0.0024(10) -0.0071(10) 0.0019(11)
N2 0.0400(13) 0.0521(14) 0.0359(11) 0.0013(10) -0.0023(9) 0.0039(11)
Cl1 0.0464(4) 0.0646(5) 0.0395(3) 0.0057(3) -0.0031(3) 0.0083(3)
Cl2 0.0784(6) 0.0494(5) 0.0658(5) 0.0006(4) -0.0052(4) -0.0084(4)
loop_
_atom_type_symbol
_atom_type_description
_atom_type_scat_dispersion_real
_atom_type_scat_dispersion_imag
_atom_type_scat_source
C C 0.0033 0.0016 'International Tables Vol C Tables 4.2.6.8 and 6.1.1.4'
H H 0 0 'International Tables Vol C Tables 4.2.6.8 and 6.1.1.4'
N N 0.0061 0.0033 'International Tables Vol C Tables 4.2.6.8 and 6.1.1.4'
Cl Cl 0.1484 0.1585 'International Tables Vol C Tables 4.2.6.8 and 6.1.1.4'
loop_
_geom_angle_atom_site_label_1
_geom_angle_atom_site_label_2
_geom_angle_atom_site_label_3
_geom_angle
_geom_angle_site_symmetry_1
_geom_angle_site_symmetry_3
_geom_angle_publ_flag
N1 C1 C2 130.1(2) . . ?
N1 C1 C6 111.0(2) . . ?
C2 C1 C6 119.0(3) . . ?
C3 C2 C1 118.3(3) . . ?
C3 C2 H2 120.9 . . ?
C1 C2 H2 120.9 . . ?
C2 C3 C4 121.5(3) . . ?
C2 C3 H3 119.3 . . ?
C4 C3 H3 119.3 . . ?
C5 C4 C3 121.7(3) . . ?
C5 C4 H4 119.2 . . ?
C3 C4 H4 119.2 . . ?
C6 C5 C4 115.8(3) . . ?
C6 C5 H5 122.1 . . ?
C4 C5 H5 122.1 . . ?
C5 C6 N2 132.3(2) . . ?
C5 C6 C1 123.8(3) . . ?
N2 C6 C1 103.9(2) . . ?
N1 C7 N2 113.2(2) . . ?
N1 C7 Cl2 126.0(2) . . ?
N2 C7 Cl2 120.8(2) . . ?
C7 N1 C1 104.7(2) . . ?
C7 N2 C6 107.2(2) . . ?
C7 N2 Cl1 127.72(19) . . ?
C6 N2 Cl1 125.00(17) . . ?
loop_
_geom_bond_atom_site_label_1
_geom_bond_atom_site_label_2
_geom_bond_distance
_geom_bond_site_symmetry_2
_geom_bond_publ_flag
C1 N1 1.384(3) . ?
C1 C2 1.388(4) . ?
C1 C6 1.393(3) . ?
C2 C3 1.368(4) . ?
C2 H2 0.93 . ?
C3 C4 1.393(4) . ?
C3 H3 0.93 . ?
C4 C5 1.379(4) . ?
C4 H4 0.93 . ?
C5 C6 1.377(4) . ?
C5 H5 0.93 . ?
C6 N2 1.383(3) . ?
C7 N1 1.295(3) . ?
C7 N2 1.365(3) . ?
C7 Cl2 1.685(3) . ?
N2 Cl1 1.689(2) . ?
loop_
_geom_torsion_atom_site_label_1
_geom_torsion_atom_site_label_2
_geom_torsion_atom_site_label_3
_geom_torsion_atom_site_label_4
_geom_torsion
_geom_torsion_site_symmetry_1
_geom_torsion_site_symmetry_2
_geom_torsion_site_symmetry_3
_geom_torsion_site_symmetry_4
_geom_torsion_publ_flag
N1 C1 C2 C3 179.3(3) . . . . ?
C6 C1 C2 C3 -0.1(4) . . . . ?
C1 C2 C3 C4 0.4(4) . . . . ?
C2 C3 C4 C5 -0.4(4) . . . . ?
C3 C4 C5 C6 0.2(4) . . . . ?
C4 C5 C6 N2 -178.9(3) . . . . ?
C4 C5 C6 C1 0.1(4) . . . . ?
N1 C1 C6 C5 -179.6(2) . . . . ?
C2 C1 C6 C5 -0.1(4) . . . . ?
N1 C1 C6 N2 -0.4(3) . . . . ?
C2 C1 C6 N2 179.1(2) . . . . ?
N2 C7 N1 C1 -0.7(3) . . . . ?
Cl2 C7 N1 C1 178.9(2) . . . . ?
C2 C1 N1 C7 -178.8(3) . . . . ?
C6 C1 N1 C7 0.6(3) . . . . ?
N1 C7 N2 C6 0.4(3) . . . . ?
Cl2 C7 N2 C6 -179.11(18) . . . . ?
N1 C7 N2 Cl1 177.54(18) . . . . ?
Cl2 C7 N2 Cl1 -2.0(3) . . . . ?
C5 C6 N2 C7 179.1(3) . . . . ?
C1 C6 N2 C7 0.0(3) . . . . ?
C5 C6 N2 Cl1 1.9(4) . . . . ?
C1 C6 N2 Cl1 -177.21(17) . . . . ?
