#------------------------------------------------------------------------------
#$Date: 2022-05-03 01:05:46 +0300 (Tue, 03 May 2022) $
#$Revision: 274802 $
#$URL: file:///home/coder/svn-repositories/cod/cif/7/13/00/7130038.cif $
#------------------------------------------------------------------------------
#
# This file is available in the Crystallography Open Database (COD),
# http://www.crystallography.net/
#
# All data on this site have been placed in the public domain by the
# contributors.
#
data_7130038
loop_
_publ_author_name
'Liang, Ren-Xiao'
'Chen, Jian-Fei'
'Huang, Ying-Ying'
'Yu, Ya-Ping'
'Zhang, Han-Yue'
'Song, Yu-Feng'
'Tsui, Gavin Chit'
'Jia, Yi-Xia'
_publ_section_title
;
 Enantioselective Pd-Catalyzed Dearomative Reductive Heck and Domino
 Heck-Suzuki Reactions of 2-CF3-Indoles
;
_journal_name_full               'Chemical Communications'
_journal_paper_doi               10.1039/D2CC01435A
_journal_year                    2022
_chemical_absolute_configuration ad
_chemical_formula_moiety         'C17 H9 F6 N O'
_chemical_formula_sum            'C17 H9 F6 N O'
_chemical_formula_weight         357.25
_space_group_crystal_system      monoclinic
_space_group_IT_number           4
_space_group_name_Hall           'P 2yb'
_space_group_name_H-M_alt        'P 1 21 1'
_atom_sites_solution_hydrogens   geom
_atom_sites_solution_primary     dual
_audit_creation_date             2021-03-18
_audit_creation_method
;
Olex2 1.2
(compiled 2018.05.29 svn.r3508 for OlexSys, GUI svn.r5506)
;
_audit_update_record
;
2021-07-08 deposited with the CCDC.	2022-04-27 downloaded from the CCDC.
;
_cell_angle_alpha                90
_cell_angle_beta                 107.532(2)
_cell_angle_gamma                90
_cell_formula_units_Z            2
_cell_length_a                   10.5776(5)
_cell_length_b                   6.1725(3)
_cell_length_c                   12.0797(6)
_cell_measurement_reflns_used    9802
_cell_measurement_temperature    170(2)
_cell_measurement_theta_max      68.13
_cell_measurement_theta_min      3.84
_cell_volume                     752.05(6)
_computing_cell_refinement       'SAINT V8.40B (Bruker Nano, Inc., 2019)'
_computing_data_collection       'Bruker Instrument Service vV6.2.14'
_computing_data_reduction        'SAINT V8.40B (Bruker Nano, Inc., 2019)'
_computing_molecular_graphics    'Olex2 (Dolomanov et al., 2009)'
_computing_publication_material  'Olex2 (Dolomanov et al., 2009)'
_computing_structure_refinement  'ShelXL (Sheldrick, 2015)'
_computing_structure_solution    'ShelXT (Sheldrick, 2015)'
_diffrn_ambient_temperature      170.0
_diffrn_measured_fraction_theta_full 1.000
_diffrn_measured_fraction_theta_max 0.999
_diffrn_measurement_device_type  'zju Bruker D8 Venture Ims3.0'
_diffrn_measurement_method       '\f and \w scans'
_diffrn_radiation_type           CuK\a
_diffrn_radiation_wavelength     1.54178
_diffrn_reflns_av_R_equivalents  0.0411
_diffrn_reflns_av_unetI/netI     0.0414
_diffrn_reflns_Laue_measured_fraction_full 1.000
_diffrn_reflns_Laue_measured_fraction_max 0.999
_diffrn_reflns_limit_h_max       12
_diffrn_reflns_limit_h_min       -12
_diffrn_reflns_limit_k_max       7
_diffrn_reflns_limit_k_min       -7
_diffrn_reflns_limit_l_max       13
_diffrn_reflns_limit_l_min       -14
_diffrn_reflns_number            11014
_diffrn_reflns_point_group_measured_fraction_full 0.998
_diffrn_reflns_point_group_measured_fraction_max 0.996
_diffrn_reflns_theta_full        67.679
_diffrn_reflns_theta_max         68.124
_diffrn_reflns_theta_min         3.837
_diffrn_standards_number         0
_exptl_absorpt_coefficient_mu    1.329
_exptl_absorpt_correction_T_max  0.7531
_exptl_absorpt_correction_T_min  0.5889
_exptl_absorpt_correction_type   multi-scan
_exptl_absorpt_process_details
;
SADABS-2016/2 (Bruker,2016/2) was used for absorption correction.
wR2(int) was 0.1828 before and 0.0991 after correction.
The Ratio of minimum to maximum transmission is 0.7820.
The \l/2 correction factor is Not present.
;
_exptl_crystal_colour            colourless
_exptl_crystal_colour_primary    colourless
_exptl_crystal_density_diffrn    1.578
_exptl_crystal_description       block
_exptl_crystal_F_000             360
_exptl_crystal_size_max          0.39
_exptl_crystal_size_mid          0.34
_exptl_crystal_size_min          0.3
_refine_diff_density_max         0.244
_refine_diff_density_min         -0.246
_refine_diff_density_rms         0.044
_refine_ls_abs_structure_details
;
 Flack x determined using 1189 quotients [(I+)-(I-)]/[(I+)+(I-)]
 (Parsons, Flack and Wagner, Acta Cryst. B69 (2013) 249-259).
;
_refine_ls_abs_structure_Flack   0.04(4)
_refine_ls_extinction_method     none
_refine_ls_goodness_of_fit_ref   1.075
_refine_ls_hydrogen_treatment    constr
_refine_ls_matrix_type           full
_refine_ls_number_parameters     226
_refine_ls_number_reflns         2740
_refine_ls_number_restraints     1
_refine_ls_restrained_S_all      1.074
_refine_ls_R_factor_all          0.0321
_refine_ls_R_factor_gt           0.0317
_refine_ls_shift/su_max          0.000
_refine_ls_shift/su_mean         0.000
_refine_ls_structure_factor_coef Fsqd
_refine_ls_weighting_details
'w=1/[\s^2^(Fo^2^)+(0.0350P)^2^+0.1522P] where P=(Fo^2^+2Fc^2^)/3'
_refine_ls_weighting_scheme      calc
_refine_ls_wR_factor_gt          0.0786
_refine_ls_wR_factor_ref         0.0790
_reflns_Friedel_coverage         0.812
_reflns_Friedel_fraction_full    0.995
_reflns_Friedel_fraction_max     0.994
_reflns_number_gt                2694
_reflns_number_total             2740
_reflns_threshold_expression     'I > 2\s(I)'
_cod_data_source_file            d2cc01435a2.cif
_cod_data_source_block           cu_210317_cjf_1_4_cf3_0m
_cod_database_code               7130038
_shelx_shelxl_version_number     2018/3
_shelx_space_group_comment
;
The symmetry employed for this shelxl refinement is uniquely defined
by the following loop, which should always be used as a source of
symmetry information in preference to the above space-group names.
They are only intended as comments.
;
_shelx_estimated_absorpt_t_max   0.691
_shelx_estimated_absorpt_t_min   0.625
_olex2_refinement_description
;
1. Fixed Uiso
 At 1.2 times of:
  All C(H) groups, All C(H,H) groups
2.a Secondary CH2 refined with riding coordinates:
 C8(H8A,H8B)
2.b Aromatic/amide H refined with riding coordinates:
 C1(H1), C2(H2), C3(H3), C4(H4), C12(H12), C14(H14), C15(H15)
;
_shelx_res_file
;
TITL cu_210317_cjf_1_4_cf3_0m_a.res in P2(1)
    cu_210317_cjf_1_4_cf3_0m.res
    created by SHELXL-2018/3 at 14:24:31 on 18-Mar-2021
REM Old TITL cu_210317_CJF_1_4_CF3_0m in P2(1)
REM SHELXT solution in P2(1): R1 0.115, Rweak 0.031, Alpha 0.004
REM <I/s> 1.050 for 4 systematic absences, Orientation as input
REM Flack x = 0.106 ( 0.039 ) from 1203 Parsons' quotients
REM Formula found by SHELXT: C17 F7 N
CELL 1.54178 10.5776 6.1725 12.0797 90 107.532 90
ZERR 2 0.0005 0.0003 0.0006 0 0.002 0
LATT -1
SYMM -X,0.5+Y,-Z
SFAC C H F N O
UNIT 34 18 12 2 2

L.S. 4 0 0
PLAN  20
SIZE 0.3 0.34 0.39
TEMP -103.15
BOND $h
htab
list 4
fmap 2 53
acta
REM <olex2.extras>
REM <HklSrc "%.\\cu_210317_CJF_1_4_CF3_0m.hkl">
REM </olex2.extras>

WGHT    0.035000    0.152200
FVAR       1.08228
F1    3    0.346883    0.598954    0.871604    11.00000    0.04965    0.07926 =
         0.03918   -0.01772    0.02382   -0.01079
F2    3    0.188998    0.420328    0.752668    11.00000    0.03080    0.05997 =
         0.04535    0.00130    0.01801   -0.00483
F3    3    0.370686    0.259373    0.843338    11.00000    0.04858    0.06734 =
         0.04801    0.02178    0.02322    0.00917
F4    3    0.860611    0.637780    1.057969    11.00000    0.06186    0.09554 =
         0.02773   -0.00841    0.00296   -0.00072
F5    3    0.960337    0.733546    0.938932    11.00000    0.04248    0.12691 =
         0.05264   -0.03261    0.01454   -0.03385
F6    3    0.794938    0.919020    0.959013    11.00000    0.06148    0.05839 =
         0.08241   -0.02143   -0.01839   -0.00553
O1    5    0.479371    0.081774    0.537186    11.00000    0.03596    0.03023 =
         0.03671   -0.00548    0.01205    0.00097
N1    4    0.355467    0.323137    0.609396    11.00000    0.02663    0.02848 =
         0.03009   -0.00178    0.00840   -0.00160
C1    1    0.178440    0.230892    0.424442    11.00000    0.02930    0.03261 =
         0.03522   -0.00380    0.01235   -0.00420
AFIX  43
H1    2    0.210384    0.088672    0.419000    11.00000   -1.20000
AFIX   0
C2    1    0.065536    0.310408    0.342628    11.00000    0.03080    0.04580 =
         0.03095   -0.00438    0.00922   -0.00785
AFIX  43
H2    2    0.019596    0.221363    0.279097    11.00000   -1.20000
AFIX   0
C3    1    0.018792    0.517120    0.352047    11.00000    0.02525    0.04721 =
         0.03169    0.00590    0.00808    0.00021
AFIX  43
H3    2   -0.060151    0.565823    0.296283    11.00000   -1.20000
AFIX   0
C4    1    0.085745    0.654545    0.441985    11.00000    0.02711    0.03583 =
         0.03703    0.00411    0.01369    0.00095
AFIX  43
H4    2    0.053603    0.796396    0.448029    11.00000   -1.20000
AFIX   0
C5    1    0.200400    0.579512    0.522494    11.00000    0.02420    0.03183 =
         0.03257   -0.00068    0.01277   -0.00255
C6    1    0.241748    0.368371    0.513795    11.00000    0.02361    0.03035 =
         0.02882    0.00222    0.01040   -0.00277
C7    1    0.378696    0.503329    0.692396    11.00000    0.02586    0.03376 =
         0.02825   -0.00435    0.00961   -0.00286
C8    1    0.300422    0.695173    0.622236    11.00000    0.02833    0.03020 =
         0.03489   -0.00305    0.01094   -0.00002
AFIX  23
H8A   2    0.255848    0.780732    0.668960    11.00000   -1.20000
H8B   2    0.358692    0.791682    0.593816    11.00000   -1.20000
AFIX   0
C9    1    0.471318    0.222996    0.604563    11.00000    0.02734    0.02651 =
         0.03065    0.00440    0.01116    0.00033
C10   1    0.579405    0.328591    0.696686    11.00000    0.02830    0.03279 =
         0.02478    0.00380    0.00922   -0.00052
C11   1    0.529464    0.503790    0.741877    11.00000    0.02598    0.03598 =
         0.02577    0.00010    0.00791   -0.00039
C12   1    0.611777    0.636200    0.824977    11.00000    0.03009    0.04158 =
         0.02891   -0.00358    0.00860   -0.00102
AFIX  43
H12   2    0.578165    0.756384    0.856432    11.00000   -1.20000
AFIX   0
C13   1    0.747290    0.585106    0.860811    11.00000    0.03112    0.05057 =
         0.02457    0.00339    0.00456   -0.00235
C14   1    0.796932    0.405822    0.817237    11.00000    0.02722    0.05172 =
         0.03032    0.00612    0.00677    0.00305
AFIX  43
H14   2    0.888841    0.372907    0.845055    11.00000   -1.20000
AFIX   0
C15   1    0.712786    0.275450    0.733534    11.00000    0.02986    0.04133 =
         0.02978    0.00697    0.01033    0.00614
AFIX  43
H15   2    0.745475    0.153768    0.702483    11.00000   -1.20000
AFIX   0
C16   1    0.321048    0.443577    0.790652    11.00000    0.02982    0.04927 =
         0.03288   -0.00043    0.01164   -0.00236
C17   1    0.840159    0.719928    0.952380    11.00000    0.03198    0.06116 =
         0.03761   -0.00517    0.00336    0.00001
HKLF 4




REM  cu_210317_cjf_1_4_cf3_0m_a.res in P2(1)
REM wR2 = 0.0790, GooF = S = 1.075, Restrained GooF = 1.074 for all data
REM R1 = 0.0317 for 2694 Fo > 4sig(Fo) and 0.0321 for all 2740 data
REM 226 parameters refined using 1 restraints

END

WGHT      0.0350      0.1522

REM Instructions for potential hydrogen bonds
EQIV $1 x, y+1, z
HTAB C8 O1_$1

REM Highest difference peak  0.244,  deepest hole -0.246,  1-sigma level  0.044
Q1    1   0.8277  0.9272  0.8951  11.00000  0.05    0.24
Q2    1   0.9182  0.8653  0.8981  11.00000  0.05    0.23
Q3    1   0.2910  0.8458  0.6637  11.00000  0.05    0.13
Q4    1   0.2349  0.9353  0.5442  11.00000  0.05    0.13
Q5    1   0.3493  0.6155  0.6683  11.00000  0.05    0.12
Q6    1   0.4360  0.0616  0.4453  11.00000  0.05    0.12
Q7    1   0.2867  0.1685  0.6623  11.00000  0.05    0.11
Q8    1   0.7672  0.0473  0.8193  11.00000  0.05    0.11
Q9    1   0.1675  0.9069  0.5042  11.00000  0.05    0.11
Q10   1   0.4313  0.9432  0.8070  11.00000  0.05    0.11
Q11   1   0.7747  0.1807  0.8607  11.00000  0.05    0.11
Q12   1   0.7965  0.9727  0.9828  11.00000  0.05    0.11
Q13   1   0.5360  0.2624  0.6583  11.00000  0.05    0.11
Q14   1   0.2977  0.8333  0.7380  11.00000  0.05    0.10
Q15   1   0.9188  0.6775  1.1361  11.00000  0.05    0.10
Q16   1   0.6860  1.0665  0.8628  11.00000  0.05    0.10
Q17   1   0.3346  0.2128  0.7638  11.00000  0.05    0.10
Q18   1   0.7460  0.9604  0.8688  11.00000  0.05    0.10
Q19   1   0.0251  0.9923  0.4634  11.00000  0.05    0.10
Q20   1   0.3184  1.0754  0.7044  11.00000  0.05    0.10
;
_shelx_res_checksum              19955
_shelx_hkl_file
;
   1   0   0  193.08   11.50
  -1   0   0  227.88   11.20
  -1   0   0  181.88   11.20
  -1   0   0  187.98   11.50
   2   0   0 1225.48   71.09
  -2   0   0 1290.57   70.39
  -3   0   0   40.80    2.70
   3   0   0   43.40    4.40
  -3   0   0   38.20    2.80
  -3   0   0   39.70    2.40
   4   0   0   18.80    3.50
  -4   0   0   14.70    1.10
  -4   0   0   16.20    1.40
  -4   0   0   15.50    1.50
   5   0   0  836.62   50.29
  -5   0   0  800.92   45.60
  -5   0   0  823.62   46.10
  -5   0   0  784.12   46.30
  -6   0   0  815.52   39.80
  -6   0   0  622.24   37.50
  -6   0   0  636.14   36.90
  -6   0   0  546.45   38.50
  -7   0   0  784.52   43.10
  -7   0   0  776.92   43.90
   7   0   0  715.43   43.10
  -7   0   0  794.72   43.80
   7   0   0  719.23   43.30
  -7   0   0  784.72   44.30
  -8   0   0   20.20    1.40
  -8   0   0   21.40    1.80
  -8   0   0   18.30    2.30
   8   0   0   18.00    2.00
  -8   0   0   20.00    2.10
  -8   0   0   21.80    2.60
   8   0   0   18.10    1.70
   8   0   0   19.20    4.00
  -9   0   0   65.69    4.50
   9   0   0   61.59    4.80
  -9   0   0   59.99    5.50
  -9   0   0   68.99    4.10
   9   0   0   64.89    4.50
   9   0   0   63.09    7.40
  -9   0   0   70.79    5.20
  -9   0   0   77.99    6.20
  10   0   0    1.80    0.60
  10   0   0    2.00    0.80
 -10   0   0    2.40    0.70
 -10   0   0    1.80    0.70
  10   0   0    0.80    1.40
  11   0   0   47.60    3.80
 -11   0   0   45.90    2.90
  11   0   0   48.70    3.40
 -11   0   0   45.10    3.30
 -12   0   0   15.30    1.40
 -12   0   0   15.50    1.00
  12   0   0   17.50    1.50
  12   0   0   17.00    1.70
   0  -1   0   -0.10    0.20
   0   1   0    2.30    0.30
   0   1   0    0.10    0.10
   0   1   0    0.30    0.30
   0   1   0    0.10    0.50
   1   1   0 4021.40  194.68
  -1   1   0 2919.01  194.28
  -2  -1   0  492.75   29.60
  -2  -1   0  501.45   29.80
  -2  -1   0  519.05   29.80
   2   1   0  617.04   32.20
  -2   1   0  502.95   29.60
  -2   1   0  524.75   29.90
   2   1   0  529.15   30.70
  -3  -1   0 1056.19   61.19
  -3  -1   0 1050.29   60.79
   3   1   0 1073.29   62.39
  -3   1   0 1041.80   60.99
  -3   1   0 1131.99   61.19
  -3   1   0 1079.19   61.69
   3   1   0 1161.98   64.19
   4  -1   0  814.72   49.99
  -4  -1   0  891.01   48.40
  -4  -1   0  868.71   47.90
  -4  -1   0  808.52   48.50
   4   1   0  880.01   52.19
  -4   1   0  801.72   48.30
  -4   1   0  903.61   48.40
  -5  -1   0  467.35   25.90
  -5  -1   0  466.85   26.50
  -5  -1   0  458.15   26.70
   5  -1   0  437.86   29.50
   5   1   0  452.45   31.10
  -5   1   0  454.05   26.40
  -5   1   0  464.35   26.40
  -5   1   0  447.96   25.80
  -6  -1   0 1666.13   94.59
  -6  -1   0 1696.33   93.99
  -6  -1   0 1693.93   93.59
  -6  -1   0 1698.63   94.29
  -6   1   0 1644.74   94.09
  -6   1   0 1591.04   94.79
  -6   1   0 1684.93   93.39
   6   1   0 1612.54  100.69
  -6   1   0 1695.43   94.69
  -7  -1   0  156.88   10.20
  -7  -1   0  157.08    9.30
   7  -1   0  146.29    9.20
  -7  -1   0  157.68    9.00
  -7  -1   0  157.78   10.40
  -7  -1   0  156.38   10.20
   7  -1   0  126.09    9.60
  -7   1   0  164.48    9.80
  -7   1   0  159.88    9.90
   7   1   0  148.19    9.10
  -7   1   0  153.48   10.00
   7   1   0  139.49    9.20
   7   1   0  151.08   17.30
   7   1   0  185.28   11.90
  -7   1   0  154.38    9.10
  -8  -1   0   38.70    3.00
   8  -1   0   44.40    5.80
  -8  -1   0   41.50    4.00
  -8  -1   0   41.60    3.10
  -8  -1   0   43.90    3.40
   8  -1   0   34.40    3.40
  -8  -1   0   43.80    2.70
   8  -1   0   41.80    3.10
  -8  -1   0   40.00    4.00
  -8   1   0   43.90    3.40
   8   1   0   39.40    3.10
   8   1   0   42.60    2.90
   8   1   0   38.50    2.60
   8   1   0   44.00    5.50
  -8   1   0   41.10    2.90
  -8   1   0   43.70    3.80
  -8   1   0   43.50    3.80
  -9  -1   0  495.95   26.90
  -9  -1   0  460.65   29.00
   9  -1   0  460.05   30.70
  -9  -1   0  470.45   27.40
  -9  -1   0  474.45   27.60
  -9  -1   0  426.46   27.00
   9  -1   0  454.45   27.90
  -9  -1   0  477.95   28.90
   9  -1   0  463.85   27.40
  -9  -1   0  477.75   29.00
  -9   1   0  475.55   26.80
  -9   1   0  530.05   29.30
  -9   1   0  488.55   27.80
  -9   1   0  485.95   27.20
  -9   1   0  473.15   28.80
   9   1   0  471.95   27.20
   9   1   0  480.65   31.20
   9   1   0  459.65   27.50
  10  -1   0   80.19    7.70
  10  -1   0   70.49    5.60
  10  -1   0   91.99    6.10
 -10  -1   0   82.39    5.60
 -10  -1   0   81.09    5.50
 -10  -1   0   90.19    5.00
 -10   1   0   79.79    4.80
  10   1   0   78.59    6.20
  10   1   0   83.49    5.40
 -10   1   0   82.79    5.40
 -10   1   0   86.39    5.70
  10   1   0   72.69    7.90
  11  -1   0    7.40    1.40
 -11  -1   0    7.30    0.60
 -11  -1   0    6.60    0.80
  11  -1   0    6.20    1.00
 -11   1   0    7.10    1.00
  11   1   0    6.90    0.90
 -11   1   0    7.10    0.60
  11   1   0    6.80    1.20
  11   1   0    3.50    1.90
  12  -1   0   56.29    3.90
 -12  -1   0   42.90    2.90
  12   1   0   51.19    3.50
  12   1   0   49.40    3.40
 -12   1   0   48.30    3.10
   0  -2   0  758.72   43.00
   0   2   0  790.72   43.70
   0   2   0  722.03   43.00
   0   2   0  788.62   44.90
  -1  -2   0  107.39    6.40
  -1  -2   0  100.39    6.00
  -1   2   0   93.59    7.30
   1   2   0  104.19    7.00
   1   2   0  111.39    8.30
  -1   2   0   93.49    5.90
  -2  -2   0  640.84   37.90
  -2  -2   0  632.84   37.30
  -2  -2   0  637.24   37.40
  -2  -2   0  638.44   37.40
   2   2   0  727.13   40.70
  -2   2   0  646.94   37.20
   2   2   0  696.63   38.80
  -2   2   0  658.63   37.50
  -3  -2   0  425.56   25.60
  -3  -2   0  417.66   25.20
  -3  -2   0  416.16   25.00
  -3  -2   0  409.56   25.40
   3   2   0  476.15   29.40
  -3   2   0  442.96   25.00
   3   2   0  460.95   27.20
  -3   2   0  479.15   25.60
  -4  -2   0  392.66   23.20
  -4  -2   0  392.26   22.90
  -4  -2   0  393.16   23.60
  -4  -2   0  390.16   23.40
  -4   2   0  407.36   23.30
   4   2   0  450.05   28.60
  -4   2   0  399.46   22.90
  -4   2   0  382.96   23.70
  -5  -2   0  590.64   34.00
  -5  -2   0  578.34   34.20
  -5  -2   0  548.05   33.50
  -5  -2   0  611.34   35.00
  -5  -2   0  597.64   33.50
   5   2   0  599.04   33.50
   5   2   0  595.54   40.30
  -5   2   0  604.24   34.00
  -5   2   0  571.84   33.70
  -6  -2   0  114.39    7.50
  -6  -2   0  119.59    8.10
  -6  -2   0  110.69    8.20
  -6  -2   0  122.59    7.50
  -6  -2   0  122.69    8.50
  -6   2   0  121.19    8.00
  -6   2   0  118.69    7.20
  -6   2   0  138.99    8.80
  -6   2   0  119.89    7.80
   6   2   0  120.89   14.10
   6   2   0  122.49    7.60
   7  -2   0   92.99    7.20
  -7  -2   0  101.69    6.70
  -7  -2   0  103.79    7.70
   7  -2   0  107.09    6.70
  -7  -2   0  106.49    6.20
  -7  -2   0  102.29    7.90
  -7  -2   0   95.79    7.40
   7  -2   0  103.19    9.70
  -7  -2   0  108.29    6.80
  -7  -2   0  106.19    6.60
  -7   2   0  107.19    6.40
   7   2   0  105.99    6.10
  -7   2   0  108.89    7.00
   7   2   0   99.99    6.40
   7   2   0  100.59    6.30
   7   2   0  106.29   15.20
   7   2   0  113.79    8.30
  -7   2   0  106.19    7.10
  -7   2   0  108.69    7.20
  -8  -2   0  167.38   11.10
   8  -2   0  127.19   11.40
  -8  -2   0  167.08    9.90
   8  -2   0  158.68   12.80
  -8  -2   0  176.68   11.60
  -8  -2   0  156.18    9.70
  -8  -2   0  172.58    9.20
   8  -2   0  175.38   10.10
  -8  -2   0  163.58   11.30
  -8   2   0  157.78   10.40
   8   2   0  156.38    9.50
   8   2   0   99.19   14.20
  -8   2   0  161.08   10.30
  -8   2   0  160.28    9.40
   8   2   0  138.69   22.10
  -8   2   0  164.58   10.00
   9  -2   0  131.99   11.10
   9  -2   0  133.69    8.50
  -9  -2   0  138.99    7.90
  -9  -2   0  137.49    8.20
   9  -2   0  147.29    9.30
  -9  -2   0  141.29    9.10
  -9  -2   0  124.59    8.30
   9   2   0  131.49    8.10
  -9   2   0  147.59    8.30
   9   2   0  125.79    7.80
   9   2   0  134.39    8.40
  -9   2   0  144.29    8.70
   9   2   0  118.39   11.00
  10  -2   0   32.90    2.70
  10  -2   0   32.90    3.10
 -10  -2   0   34.80    2.20
 -10  -2   0   34.70    3.20
 -10  -2   0   31.50    2.30
  10   2   0   34.80    2.40
  10   2   0   35.70    2.80
 -10   2   0   27.20    3.00
  10   2   0   30.50    4.60
 -10   2   0   33.70    2.60
  11  -2   0    1.60    0.70
  11   2   0    0.40    0.40
  11   2   0    1.10    0.60
 -11   2   0    0.90    0.40
  11   2   0    0.70    1.40
   0  -3   0   -0.10    0.30
   0   3   0    1.30    1.70
  -1  -3   0   89.69    5.30
  -1   3   0   86.09    5.30
  -1   3   0   77.29    7.70
   1   3   0   91.79    8.70
  -2  -3   0   13.50    1.30
  -2  -3   0   13.50    1.80
   2   3   0   16.30    3.90
  -2   3   0   14.90    2.40
  -2   3   0   13.30    1.30
  -2   3   0   12.50    1.30
  -3  -3   0  640.94   37.60
  -3  -3   0  628.84   38.50
  -3  -3   0  656.83   37.50
  -3   3   0  666.63   37.80
   3   3   0  708.13   44.00
   3   3   0  676.43   37.40
  -4  -3   0  325.17   19.10
  -4  -3   0  303.57   18.40
  -4  -3   0  301.97   19.50
   4   3   0  319.67   25.10
   4   3   0  330.67   18.10
  -4   3   0  311.97   19.00
  -5  -3   0  161.48    9.60
  -5  -3   0  150.98   10.20
  -5  -3   0  150.48    9.30
  -5  -3   0  156.88   10.70
   5   3   0  150.68    9.00
   5   3   0  163.58   16.90
  -5   3   0  160.88    9.20
   5   3   0  150.48    9.20
  -5   3   0  154.38    9.90
   5   3   0  145.99    8.80
  -6  -3   0  250.67   14.80
  -6  -3   0  239.58   15.70
  -6  -3   0  242.18   14.50
   6  -3   0  236.78   15.50
  -6  -3   0  253.57   16.40
   6  -3   0  250.57   14.80
  -6  -3   0  242.88   14.00
   6  -3   0  244.28   17.90
   6   3   0  246.68   24.00
  -6   3   0  242.08   15.20
  -6   3   0  257.07   14.50
   6   3   0  241.48   14.20
  -6   3   0  248.28   14.30
   6   3   0  246.38   14.60
   6   3   0  248.48   14.00
   7  -3   0   22.30    4.90
  -7  -3   0   26.00    2.00
  -7  -3   0   26.30    2.80
  -7  -3   0   26.40    3.80
   7  -3   0   28.20    3.10
  -7  -3   0   27.30    2.50
  -7  -3   0   25.30    3.30
   7  -3   0   29.30    2.70
   7   3   0   26.10    3.60
   7   3   0   24.60    1.80
  -7   3   0   26.30    2.90
   7   3   0   23.70    2.60
  -7   3   0   26.40    2.20
  -7   3   0   25.80    2.00
   7   3   0   27.00    2.20
   7   3   0   20.60    8.40
   7   3   0   18.70    2.00
  -8  -3   0  241.48   13.30
  -8  -3   0  219.78   16.10
   8  -3   0  246.28   14.90
  -8  -3   0  235.88   13.70
  -8  -3   0  240.68   14.20
   8  -3   0  223.58   14.00
  -8  -3   0  267.67   17.60
   8  -3   0  247.58   19.40
   8   3   0  221.08   13.20
   8   3   0  222.58   13.40
  -8   3   0  227.18   13.80
  -8   3   0  233.48   13.50
   8   3   0  250.67   39.20
   8   3   0  216.38   15.90
  -8   3   0  206.68   14.70
   8   3   0  225.18   13.60
  -9  -3   0   13.00    1.80
  -9  -3   0   11.10    0.90
   9  -3   0   12.00    1.90
  -9  -3   0   11.70    1.20
   9   3   0   11.80    1.30
   9   3   0   10.60    1.10
  -9   3   0   10.50    1.30
   9   3   0   10.80    0.90
   9   3   0    7.90    2.50
  -9   3   0    9.10    1.40
 -10  -3   0   25.20    1.70
 -10  -3   0   28.10    2.10
  10  -3   0   29.50    2.90
  10   3   0   28.30    2.20
  10   3   0   20.50    1.60
 -10   3   0   26.60    2.00
  10   3   0   21.60    3.90
  10   3   0   25.20    1.90
 -11  -3   0   30.80    1.80
 -11  -3   0   25.90    1.90
  11   3   0   36.00    2.40
  11   3   0   23.00    3.10
 -11   3   0   34.80    2.10
   0  -4   0   13.70    1.30
   0   4   0    7.50    4.30
  -1  -4   0  257.17   14.20
  -1  -4   0  255.57   14.20
   1  -4   0  263.67   14.20
   1   4   0  238.98   19.80
   1   4   0  229.88   13.80
  -1   4   0  199.58   17.40
   2  -4   0  438.36   24.30
  -2  -4   0  416.96   24.40
  -2  -4   0  439.36   24.40
   2   4   0  412.36   24.10
   2   4   0  407.86   31.10
  -3  -4   0  246.28   14.80
  -3  -4   0  256.47   16.20
  -3  -4   0  238.58   15.00
   3   4   0  283.97   14.70
   3   4   0  243.18   22.20
   3   4   0  251.77   14.70
   4  -4   0    3.00    3.20
  -4  -4   0    4.00    1.70
  -4  -4   0    3.40    0.80
  -4  -4   0    3.30    0.50
  -4  -4   0    3.20    0.80
   4   4   0    3.50    0.40
   4   4   0    3.30    0.70
   4   4   0    3.20    0.60
   4   4   0    6.90    4.50
  -5  -4   0   10.70    1.70
  -5  -4   0   10.40    0.90
  -5  -4   0   13.60    3.10
   5  -4   0   11.90    3.80
  -5  -4   0   14.40    1.40
  -5   4   0   10.90    2.10
   5   4   0   11.30    1.10
   5   4   0   12.10    0.90
   5   4   0    1.40    5.00
   5   4   0   11.30    1.30
   6  -4   0  139.39    9.10
  -6  -4   0  133.29    7.90
   6  -4   0  126.99   11.10
  -6  -4   0  123.59   10.10
  -6  -4   0  128.39    7.50
  -6  -4   0  126.59    8.40
   6   4   0  129.79    7.60
   6   4   0  134.29    8.10
   6   4   0  129.39    7.50
   6   4   0  103.19   17.90
  -6   4   0  117.09    8.70
  -6   4   0  125.79    7.80
  -7  -4   0   55.39    3.80
  -7  -4   0   53.89    3.30
  -7  -4   0   60.49    4.70
   7  -4   0   52.69    7.30
   7   4   0   54.99    3.30
   7   4   0   49.00    5.00
   7   4   0   53.29    3.50
  -7   4   0   53.19    3.70
   7   4   0   55.09    4.20
  -7   4   0   55.49    3.60
  -8  -4   0   70.39    4.30
  -8  -4   0   73.09    4.70
  -8  -4   0   77.09    5.30
  -8   4   0   74.79    4.70
  -8   4   0   73.69    4.70
   8   4   0   63.99    6.30
   8   4   0   73.29    4.30
   8   4   0   71.79    4.60
  -9  -4   0   39.00    2.40
  -9  -4   0   38.60    2.60
   9   4   0   38.90    2.40
   9   4   0   29.60    4.10
   9   4   0   42.00    2.70
 -10  -4   0   42.40    2.60
 -10  -4   0   39.40    2.40
 -10   4   0   43.50    2.60
  10   4   0   30.60    3.90
  10   4   0   39.10    2.50
  10   4   0   45.80    2.80
   0  -5   0    0.70    0.70
   0   5   0    0.20    0.20
   0   5   0   -3.70    5.00
   1  -5   0   46.00    3.80
  -1  -5   0   43.30    3.00
   1   5   0   49.70    3.10
  -1   5   0   63.19   11.00
   1   5   0   39.70    9.90
  -1   5   0   45.30    3.00
  -2  -5   0   40.10    2.80
   2  -5   0   40.50    3.50
   2   5   0   27.70    7.80
   2   5   0   39.90    2.70
   2   5   0   41.20    2.50
  -3  -5   0   61.99    4.30
  -3  -5   0   60.09    4.30
   3   5   0   50.29   13.00
   3   5   0   60.99    4.00
  -4  -5   0  151.88    9.10
  -4  -5   0  153.08    9.60
   4  -5   0  138.19    9.50
  -4   5   0  154.88   11.10
   4   5   0  161.88    9.30
   4   5   0  154.98    8.80
   4   5   0  120.79   31.70
   4   5   0  156.78    9.00
  -5  -5   0    1.70    0.50
  -5  -5   0    3.90    1.10
  -5  -5   0    2.40    0.40
   5   5   0    2.20    0.50
   5   5   0    2.50    0.40
   5   5   0    2.10    0.70
  -6  -5   0    9.10    1.40
  -6  -5   0   10.70    1.30
  -6  -5   0    6.40    0.70
   6   5   0    6.70    1.20
   6   5   0    7.60    0.80
   6   5   0    8.80    0.90
  -6   5   0    5.00    1.50
  -7  -5   0   98.59    6.00
  -7  -5   0   94.69    6.40
  -7  -5   0   93.19    5.60
  -7  -5   0  108.29    7.20
   7   5   0   88.09    7.30
   7   5   0   97.49    6.50
   7   5   0  100.89    5.70
   7   5   0   97.29    5.80
  -8  -5   0    8.80    0.90
  -8  -5   0    7.20    0.60
   8   5   0    7.60    0.70
   8   5   0    8.50    0.80
   8   5   0    4.10    1.80
   0  -6   0   34.80    3.10
   0   6   0   37.20    2.50
   1  -6   0    2.00    0.90
  -1  -6   0    2.20    0.80
   1   6   0    2.80    0.60
  -1   6   0    2.70    0.50
  -2  -6   0   92.99    6.60
  -2  -6   0   89.89    5.60
   2  -6   0   99.69    6.80
   2   6   0   94.69    5.60
   2   6   0   94.39    5.90
   2   6   0   93.59    5.50
  -2   6   0   94.59    5.70
  -3  -6   0  159.18    9.10
   3  -6   0  146.19    9.60
  -3  -6   0  156.28    9.90
   3   6   0  157.88    8.90
   3   6   0  154.88    9.00
   3   6   0  156.88    9.40
  -4  -6   0  114.49    7.60
  -4  -6   0  120.59    7.00
   4   6   0  112.09    6.80
   4   6   0  115.99    6.70
  -5  -6   0   12.50    1.70
  -5  -6   0   14.10    1.20
   5   6   0   12.80    0.90
   5   6   0   12.20    1.00
   5   6   0   11.90    1.40
  -6  -6   0   52.79    3.60
  -6  -6   0   57.09    3.20
   6   6   0   52.89    3.10
   6   6   0   52.29    4.00
   6   6   0   22.20    4.20
   6   6   0   58.89    3.00
  -7  -6   0   11.00    1.30
  -7  -6   0   14.00    1.00
   7   6   0   12.50    1.00
   7   6   0   13.90    0.90
   7   6   0   11.00    1.80
   0  -7   0    0.80    0.60
   0   7   0   -0.20    0.20
  -1  -7   0    7.00    1.20
   1  -7   0    4.60    1.00
   1   7   0    2.30    0.60
  -1   7   0    7.30    0.70
  -2  -7   0    1.70    0.70
   2  -7   0    1.80    0.60
   2   7   0    0.00    0.40
  -2   7   0    1.60    0.40
  -3  -7   0    1.70    0.60
   3   7   0    1.10    0.40
   3   7   0    0.80    0.20
  -4  -7   0   13.70    1.40
   4   7   0   12.90    0.80
   4   7   0   11.30    1.50
   4   7   0   10.50    1.20
  12   0  -1    9.60    1.40
 -12   0   1   10.70    1.00
 -12   0   1   10.70    0.80
  12   0  -1   11.70    1.20
 -11   0   1   38.10    3.20
 -11   0   1   42.70    2.60
  11   0  -1   44.20    3.20
 -11   0   1   43.90    3.20
  11   0  -1   40.40    5.00
  11   0  -1   43.50    3.60
 -10   0   1   20.20    1.40
  10   0  -1   19.50    1.80
  10   0  -1   19.00    2.20
 -10   0   1   19.30    1.90
  10   0  -1   20.30    3.90
  -9   0   1   37.60    3.00
   9   0  -1   34.00    2.60
  -9   0   1   33.20    2.20
   9   0  -1   34.70    5.40
  -9   0   1   33.30    3.60
  -9   0   1   33.70    2.60
   9   0  -1   31.30    2.90
  -9   0   1   29.90    3.50
  -8   0   1  447.16   22.30
  -8   0   1  302.37   19.40
   8   0  -1  289.57   18.40
  -8   0   1  317.87   18.90
  -8   0   1  303.47   18.10
  -8   0   1  301.77   18.30
   8   0  -1  273.07   18.60
   8   0  -1  326.57   22.50
  -7   0   1    6.40    0.80
   7   0  -1    2.20    6.10
  -7   0   1    4.70    1.20
  -7   0   1    5.80    1.00
  -7   0   1    5.20    1.20
  -6   0   1    0.80    0.50
  -6   0   1    3.20    0.90
  -6   0   1   -0.10    0.40
  -6   0   1    0.30    0.40
   6   0  -1   -1.70    2.80
   5   0  -1 5725.83  324.17
   4   0  -1 1683.23   95.79
  -3   0   1  137.79    9.60
   3   0  -1  147.29   10.20
  -3   0   1  180.98    9.30
  -3   0   1  181.88    9.60
   2   0  -1  361.76   23.40
  -2   0   1  493.75   23.00
  -2   0   1  362.16   23.00
   1   0  -1  247.28   14.00
  -1   0   1  238.18   13.80
   0   0   1  155.38    8.30
   0   0   1  121.29    9.00
   0   0  -1  149.39    8.40
   0   0  -1  158.88    8.30
   1   0   1 1532.75   87.19
   2   0   1 4444.96  250.57
   3   0   1   25.10    4.00
  -3   0  -1   23.80    1.80
  -3   0  -1   24.00    1.90
  -3   0  -1   24.20    1.50
  -4   0  -1  424.66   24.40
  -4   0  -1  437.26   24.80
  -4   0  -1  428.66   25.00
   4   0   1  440.36   28.60
  -5   0  -1  879.41   50.39
   5   0   1  845.12   55.09
  -5   0  -1  916.91   50.19
  -5   0  -1  890.01   49.70
   6   0   1  114.79   14.50
  -6   0  -1  126.39    8.00
  -6   0  -1  122.19    7.30
  -6   0  -1  125.29    8.00
  -6   0  -1  124.39    8.20
  -7   0  -1  135.39    8.80
   7   0   1  115.29    8.20
  -7   0  -1  133.39    7.90
  -7   0  -1  133.69    9.00
  -7   0  -1  139.99    8.70
  -8   0  -1   97.19    7.00
   8   0   1   90.59    5.90
  -8   0  -1   94.79    7.00
  -8   0  -1   92.09    5.90
   8   0   1   90.49    6.20
  -8   0  -1  100.99    6.60
   8   0   1   90.79    9.10
   9   0   1    7.60    1.40
   9   0   1    2.50    2.30
  -9   0  -1   11.40    2.30
  -9   0  -1    2.80    1.30
  -9   0  -1   10.00    1.40
  -9   0  -1    9.60    1.20
   9   0   1    8.30    1.10
  -9   0  -1   10.40    2.20
  -9   0  -1    9.30    0.80
  10   0   1   73.69    5.40
 -10   0  -1   76.99    5.30
  10   0   1   78.19    5.00
 -10   0  -1   76.59    4.50
 -10   0  -1   70.99    5.10
  11   0   1   32.10    2.40
 -11   0  -1   29.90    2.40
 -11   0  -1   30.40    2.00
  11   0   1   34.40    2.90
 -12  -1   1   20.60    1.30
  12  -1  -1   21.60    2.00
  12   1  -1   22.40    2.00
  12   1  -1   14.70    3.20
 -12   1   1   22.70    1.60
  12   1  -1   21.50    1.70
 -11  -1   1   50.89    3.70
 -11  -1   1   56.89    3.40
  11  -1  -1   55.09    5.60
  11  -1  -1   60.09    4.50
  11  -1  -1   57.19    4.00
 -11   1   1   58.29    3.40
  11   1  -1   56.89    4.30
 -11   1   1   60.49    4.00
  11   1  -1   59.39    3.90
  11   1  -1   53.89    6.00
  10  -1  -1   45.00    4.00
 -10  -1   1   50.39    3.60
 -10  -1   1   49.40    3.00
 -10  -1   1   46.10    3.50
  10  -1  -1   48.60    3.60
  10  -1  -1   49.60    7.50
  10   1  -1   46.60    3.70
  10   1  -1   47.60    3.40
 -10   1   1   43.10    2.90
 -10   1   1   44.80    3.40
  10   1  -1   45.80    6.80
 -10   1   1   50.39    3.70
  -9  -1   1    7.50    2.00
  -9  -1   1    8.50    1.40
  -9  -1   1    6.40    0.70
  -9  -1   1    6.00    1.00
  -9  -1   1    6.20    1.90
   9  -1  -1    6.50    1.10
   9  -1  -1    5.80    1.40
  -9  -1   1    7.20    1.00
   9  -1  -1    7.40    2.80
   9   1  -1    4.80    0.90
   9   1  -1    6.00    0.90
  -9   1   1    5.50    1.60
   9   1  -1    8.00    2.90
  -9   1   1    5.30    0.70
  -9   1   1    7.90    1.90
  -9   1   1    6.70    1.00
  -9   1   1    6.10    1.30
   9   1  -1    5.60    1.10
   8  -1  -1  441.56   27.70
  -8  -1   1  489.25   26.70
   8  -1  -1  492.85   31.40
   8  -1  -1  450.05   27.10
  -8  -1   1  478.65   27.40
  -8  -1   1  463.15   28.20
  -8  -1   1  442.46   26.90
  -8  -1   1  486.35   28.50
  -8  -1   1  483.35   27.20
   8   1  -1  544.75   31.00
  -8   1   1  486.25   27.50
   8   1  -1  453.25   26.90
  -8   1   1  469.25   27.80
   8   1  -1  448.46   27.10
   8   1  -1  459.25   38.00
  -8   1   1  463.95   27.70
   8   1  -1  440.46   26.60
  -8   1   1  481.75   28.20
  -8   1   1  475.35   26.60
   7  -1  -1   11.80    1.60
  -7  -1   1   12.70    1.90
  -7  -1   1   13.20    1.10
  -7  -1   1   17.30    2.00
  -7  -1   1   12.30    1.20
  -7  -1   1   12.70    1.50
   7  -1  -1   12.10    1.30
   7   1  -1   11.60    1.20
  -7   1   1   13.30    1.20
  -7   1   1   12.80    1.70
  -7   1   1   11.20    1.70
   7   1  -1   11.90    3.70
   7   1  -1   10.30    5.50
  -7   1   1   13.50    1.50
  -6  -1   1   73.69    6.50
  -6  -1   1   83.39    5.00
  -6  -1   1   85.59    5.30
  -6  -1   1   46.40    5.90
  -6   1   1   84.39    4.90
  -6   1   1   93.09    5.80
   6   1  -1   75.09    9.40
  -6   1   1   83.29    5.30
  -6   1   1   83.09    5.90
  -5  -1   1  161.28   10.40
  -5  -1   1  163.58   10.20
   5  -1  -1  155.18   12.70
  -5  -1   1  162.68    9.70
  -5   1   1  174.38    9.70
   5   1  -1  171.48   14.00
  -5   1   1  178.88   10.30
   5   1  -1  161.38   12.10
  -5   1   1  169.78   10.30
  -4  -1   1  414.56   23.60
  -4  -1   1  391.76   23.10
  -4  -1   1  375.66   23.70
   4   1  -1  403.36   25.00
  -4   1   1  411.56   23.60
  -4   1   1  458.25   23.70
  -3  -1   1   38.40    2.80
  -3  -1   1   40.50    2.70
  -3  -1   1   39.90    2.40
   3   1  -1   41.80    3.70
  -3   1   1   37.20    3.30
  -3   1   1   39.50    2.70
  -2   1   1 3109.89  187.18
   2   1  -1 3566.94  187.58
   1   1  -1 3915.51  203.28
  -1   1   1 3340.47  204.18
   0   1   1 4485.25  252.57
   1   1   1 3155.18  178.78
  -2  -1  -1  868.51   49.20
  -2  -1  -1  835.72   49.20
  -2  -1  -1  839.62   48.90
  -2   1  -1  869.01   49.00
  -2   1  -1  876.51   48.90
   2   1   1  937.41   52.19
  -3  -1  -1  463.35   26.40
  -3  -1  -1  475.55   26.80
  -3   1  -1  465.65   26.60
  -3   1  -1  463.65   26.50
   3   1   1  489.15   30.50
  -3   1  -1  447.36   27.30
  -4  -1  -1  211.88   12.40
  -4  -1  -1  204.78   12.40
  -4  -1  -1  203.68   11.80
  -4   1  -1  210.18   11.70
   4   1   1  203.98   16.40
  -4   1  -1  210.88   12.10
  -4   1  -1  207.98   12.10
  -4   1  -1  183.68   13.50
  -5  -1  -1  183.68   11.20
  -5  -1  -1  187.58   10.80
  -5  -1  -1  183.28   11.40
  -5  -1  -1  183.18   11.50
  -5   1  -1  184.08   11.20
   5   1   1  177.88   16.40
  -5   1  -1  183.88   11.10
  -5   1  -1  187.08   10.60
  -6  -1  -1  127.29    8.20
  -6  -1  -1  122.59    8.10
  -6  -1  -1  117.69    7.70
  -6  -1  -1  119.09    7.20
  -6   1  -1  115.69    7.60
  -6   1  -1  116.59    7.80
   6   1   1  118.79   14.10
  -6   1  -1  114.89    7.70
  -6   1  -1  117.59    7.00
  -7  -1  -1  340.77   20.60
  -7  -1  -1  333.07   19.50
   7  -1   1  364.36   20.50
  -7  -1  -1  329.57   19.50
   7  -1   1  328.07   19.40
  -7  -1  -1  341.47   20.00
  -7  -1  -1  336.27   20.60
   7   1   1  302.07   29.60
   7   1   1  300.17   18.90
  -7   1  -1  348.47   20.20
  -7   1  -1  351.16   20.20
  -7   1  -1  332.77   20.10
   7   1   1  379.06   22.10
  -7   1  -1  349.57   19.30
   7   1   1  315.77   19.20
   7   1   1  304.67   19.30
   8  -1   1  132.39    8.50
   8  -1   1  133.39    9.00
  -8  -1  -1  132.59    9.80
  -8  -1  -1  138.69    9.50
  -8  -1  -1  138.99    8.60
  -8  -1  -1  134.19    8.50
  -8  -1  -1  144.79    9.90
  -8  -1  -1  140.29    9.00
  -8  -1  -1  147.09    8.20
  -8   1  -1  150.98    9.20
  -8   1  -1  138.99    9.40
  -8   1  -1  134.99    9.40
   8   1   1  149.09   11.50
  -8   1  -1  142.19    8.40
   8   1   1  134.49    8.60
   8   1   1  132.29    8.30
  -9  -1  -1   48.20    6.60
  -9  -1  -1   57.79    6.30
  -9  -1  -1   62.79    4.50
   9  -1   1   62.09    4.30
  -9  -1  -1   58.69    4.00
   9  -1   1   62.99    4.70
  -9  -1  -1   61.89    4.40
  -9  -1  -1   63.49    3.80
   9   1   1   61.59    4.40
   9   1   1   62.49    4.10
  -9   1  -1   63.69    3.80
  -9   1  -1   64.19    4.60
   9   1   1   55.59    6.60
  -9   1  -1   63.89    4.40
 -10  -1  -1   15.60    2.00
 -10  -1  -1   17.10    1.90
 -10  -1  -1   16.50    1.20
  10  -1   1   16.20    1.90
 -10  -1  -1   14.70    1.40
  10  -1   1   14.30    1.60
 -10   1  -1   16.30    1.20
  10   1   1    8.70    3.20
  10   1   1   17.00    1.50
  10   1   1   17.80    1.90
 -10   1  -1   19.30    2.20
 -10   1  -1   16.40    1.80
  11  -1   1    8.90    1.30
  11  -1   1    6.60    1.00
 -11  -1  -1    6.00    0.80
 -11  -1  -1    4.00    0.60
 -11   1  -1    5.20    0.50
 -11   1  -1    6.00    0.90
  11   1   1    6.00    1.40
  11   1   1    3.00    1.00
 -11  -2   1   49.50    3.10
  11  -2  -1   57.29    4.20
 -11   2   1   56.39    3.60
  11   2  -1   40.90    5.30
  11   2  -1   53.19    3.80
  11   2  -1   52.39    3.40
 -10  -2   1  292.47   17.80
  10  -2  -1  293.77   17.80
 -10  -2   1  311.07   17.10
  10  -2  -1  303.07   20.40
 -10  -2   1  295.87   17.30
  10  -2  -1  304.57   18.40
 -10   2   1  320.47   17.80
  10   2  -1  319.67   17.80
  10   2  -1  307.37   17.40
  10   2  -1  294.67   17.10
 -10   2   1  307.27   17.50
  10   2  -1  247.78   20.60
   9  -2  -1  219.48   14.60
  -9  -2   1  227.88   15.70
   9  -2  -1  229.28   13.90
  -9  -2   1  223.68   13.50
  -9  -2   1  214.28   13.50
  -9  -2   1  245.88   13.30
  -9  -2   1  241.88   14.00
  -9  -2   1  230.78   15.40
   9  -2  -1  235.58   17.10
  -9   2   1  236.18   14.80
  -9   2   1  238.68   13.60
  -9   2   1  227.68   14.60
  -9   2   1  251.57   14.00
   9   2  -1  225.68   13.20
   9   2  -1  231.48   13.80
   9   2  -1  210.98   16.80
   9   2  -1  229.68   13.50
  -8  -2   1  393.86   24.20
  -8  -2   1  424.96   23.80
  -8  -2   1  425.76   26.00
  -8  -2   1  417.36   24.20
   8  -2  -1  422.76   24.40
   8  -2  -1  445.26   28.60
  -8  -2   1  425.66   24.50
  -8  -2   1  415.76   25.60
   8  -2  -1  374.66   25.10
   8   2  -1  456.95   27.40
  -8   2   1  434.86   25.10
  -8   2   1  431.06   24.10
   8   2  -1  412.06   24.10
   8   2  -1  406.16   36.00
   8   2  -1  410.66   23.70
  -8   2   1  434.66   24.60
   8   2  -1  402.36   23.90
  -8   2   1  416.86   25.10
   7  -2  -1   65.29    7.40
  -7  -2   1   61.49    4.10
   7  -2  -1   53.19    4.00
   7  -2  -1   55.89    4.70
  -7  -2   1   58.59    5.00
  -7  -2   1   61.19    4.10
  -7  -2   1   56.79    4.00
  -7  -2   1   59.19    5.20
  -7  -2   1   58.69    3.60
  -7   2   1   63.09    4.60
   7   2  -1   58.99    4.90
   7   2  -1   62.49    5.60
   7   2  -1   64.39   11.20
   7   2  -1   56.99    3.70
  -7   2   1   58.19    4.60
   7   2  -1   56.19    3.50
   7   2  -1   54.49    3.80
  -7   2   1   56.79    4.30
  -7   2   1   58.89    3.80
  -6  -2   1   90.09    6.70
  -6  -2   1   95.29    7.00
  -6  -2   1   85.79    5.90
  -6  -2   1  100.29    6.10
  -6   2   1   98.89    7.10
  -6   2   1   94.89    6.40
  -6   2   1   94.79    5.80
   6   2  -1   99.59    6.20
  -6   2   1   94.79    6.60
   6   2  -1  101.89   11.80
  -5  -2   1   44.90    3.80
  -5  -2   1   41.70    3.60
   5   2  -1   40.40    5.40
  -5   2   1   44.90    3.30
  -5   2   1   45.80    3.50
   5   2  -1   44.60    7.00
   5   2  -1   43.70    3.00
  -4  -2   1  557.84   32.00
  -4  -2   1  522.65   31.40
  -4  -2   1  520.35   32.00
  -4   2   1  546.45   32.40
   4   2  -1  577.14   33.90
  -4   2   1  528.25   31.60
   4   2  -1  632.64   36.70
  -3  -2   1  342.87   20.60
  -3  -2   1  339.87   21.10
  -3  -2   1  367.66   21.00
  -3   2   1  366.26   21.20
   3   2  -1  388.66   22.50
  -3   2   1  367.16   20.90
  -2  -2   1 1250.87   70.89
  -2  -2   1 1216.48   71.09
  -2  -2   1 1259.07   71.29
   2   2  -1 1423.36   72.39
  -2   2   1 1218.18   72.29
  -2   2   1 1211.18   71.19
  -1  -2   1  441.16   24.60
  -1  -2   1  461.35   25.00
  -1  -2   1  424.66   24.70
   1   2  -1  487.25   25.60
  -1   2   1  393.76   27.00
  -1   2   1  403.06   24.80
   0  -2   1   10.30    0.80
   0  -2  -1   10.70    0.90
   0   2   1   10.00    2.70
   0   2  -1    9.90    1.10
   0   2  -1   10.50    0.90
  -1  -2  -1    5.30    0.90
  -1  -2  -1    5.40    0.60
  -1  -2  -1    4.80    0.90
   1   2   1    2.30    1.60
  -2  -2  -1  162.68    9.70
  -2  -2  -1  164.88   10.20
  -2  -2  -1  164.28   10.10
  -2  -2  -1  162.18   10.00
   2   2   1  179.48   13.70
  -3  -2  -1 1055.49   58.79
  -3  -2  -1  987.20   58.59
  -3  -2  -1  984.60   58.39
  -3  -2  -1 1032.40   58.09
   3   2   1 1135.59   64.09
  -3   2  -1 1028.30   58.39
  -3   2  -1 1009.50   58.39
  -3   2  -1 1028.80   57.89
  -4  -2  -1  253.67   16.60
  -4  -2  -1  278.67   16.90
  -4  -2  -1  276.87   16.10
  -4  -2  -1  260.67   16.60
  -4   2  -1  321.57   18.00
   4   2   1  271.17   21.90
  -4   2  -1  289.07   16.40
  -4   2  -1  271.47   16.00
  -5  -2  -1  141.29    9.40
  -5  -2  -1  149.29    8.50
  -5  -2  -1  139.29    8.90
  -5   2  -1  137.29    8.10
  -5   2  -1  136.69    8.70
   5   2   1  133.19    8.30
  -5   2  -1  141.29    8.50
   5   2   1  115.99   17.70
  -6  -2  -1   94.99    6.90
  -6  -2  -1   93.49    6.10
  -6  -2  -1   90.49    6.70
  -6  -2  -1   94.89    5.60
  -6  -2  -1   91.89    7.10
   6  -2   1   95.49    6.00
  -6  -2  -1   90.79    6.10
  -6  -2  -1   93.39    6.00
  -6   2  -1   97.69    6.30
   6   2   1   99.49    7.70
   6   2   1   90.89    5.60
  -6   2  -1   95.89    6.30
  -6   2  -1   94.09    6.40
   6   2   1   92.29    5.50
   6   2   1  101.59    6.20
   6   2   1   94.89    5.70
   6   2   1   88.69   13.60
  -6   2  -1   96.19    5.70
  -7  -2  -1  145.79    9.30
  -7  -2  -1  145.99    9.10
   7  -2   1  152.28    9.90
  -7  -2  -1  138.69   10.00
  -7  -2  -1  150.78   10.60
  -7  -2  -1  147.69    8.70
  -7  -2  -1  148.69    9.20
  -7  -2  -1  153.28   10.40
   7  -2   1  139.69    9.10
   7   2   1  143.89    8.70
  -7   2  -1  151.68    9.50
   7   2   1  132.89   19.50
  -7   2  -1  154.88    8.90
  -7   2  -1  164.18   11.00
  -7   2  -1  152.88    9.50
   7   2   1  139.09    8.80
   7   2   1  145.79    8.60
   7   2   1  165.38   10.90
  -8  -2  -1  104.59    8.40
  -8  -2  -1  102.29    6.90
  -8  -2  -1  110.19    6.80
  -8  -2  -1  113.49    8.30
  -8  -2  -1  111.79   10.00
   8  -2   1  113.39    7.60
   8  -2   1  103.79    6.90
  -8  -2  -1  106.99    7.00
  -8  -2  -1  111.19    6.40
   8   2   1   98.59    6.20
   8   2   1  107.39    6.70
  -8   2  -1  112.59    7.30
  -8   2  -1  109.19    7.40
   8   2   1   62.99   18.90
   8   2   1  100.89    8.90
  -8   2  -1  104.89    6.50
   8   2   1  107.59    6.50
  -8   2  -1  103.49    7.50
  -9  -2  -1   56.39    4.10
  -9  -2  -1   51.19    3.80
  -9  -2  -1   57.89    3.50
   9  -2   1   61.19    4.60
  -9  -2  -1   53.79    3.80
   9  -2   1   51.39    4.00
  -9   2  -1   57.09    3.80
   9   2   1   49.10    3.60
  -9   2  -1   54.29    3.40
   9   2   1   57.99    3.70
  -9   2  -1   57.99    4.20
   9   2   1   48.90    6.70
   9   2   1   60.69    4.00
 -10  -2  -1  105.39    7.20
 -10  -2  -1   99.89    6.20
  10  -2   1  111.89    7.00
 -10  -2  -1  112.89    6.10
  10  -2   1  103.39    6.60
 -10   2  -1  108.79    6.70
  10   2   1   73.79    8.70
  10   2   1  105.99    6.70
  10   2   1  108.39    6.40
  11  -2   1   11.70    1.50
 -11  -2  -1    9.90    0.80
  11   2   1   10.60    1.30
 -11   2  -1   10.30    1.10
  11   2   1   11.20    1.00
 -11  -3   1    5.20    0.50
 -11  -3   1    4.80    0.50
  11  -3  -1    4.40    1.00
 -11   3   1    5.50    0.70
  11   3  -1    5.70    0.90
  11   3  -1    2.80    1.50
  10  -3  -1   28.30    2.70
 -10  -3   1   26.50    1.70
 -10  -3   1   25.40    1.80
  10   3  -1   22.60    2.10
  10   3  -1   20.70    3.80
 -10   3   1   26.20    2.00
  10   3  -1   25.00    2.20
  10   3  -1   23.20    1.70
  -9  -3   1   40.80    3.40
   9  -3  -1   46.40    4.50
  -9  -3   1   45.80    3.50
   9  -3  -1   44.50    5.40
  -9  -3   1   43.70    2.70
   9   3  -1   42.10    2.70
   9   3  -1   41.30    3.20
  -9   3   1   42.10    2.90
  -9   3   1   43.20    3.10
   9   3  -1   29.90    2.70
   9   3  -1   24.20    6.20
  -8  -3   1  214.28   13.10
  -8  -3   1  214.28   12.20
  -8  -3   1  219.98   15.10
  -8  -3   1  212.68   12.70
   8  -3  -1  217.08   13.10
  -8  -3   1  211.08   14.50
   8  -3  -1  193.38   13.70
   8  -3  -1  209.88   16.20
  -8   3   1  211.38   13.70
   8   3  -1  211.48   25.50
  -8   3   1  224.78   12.80
   8   3  -1  199.58   12.30
   8   3  -1  213.28   15.10
   8   3  -1  219.38   12.20
  -8   3   1  217.88   12.60
   8   3  -1  216.88   12.60
  -7  -3   1  113.49    9.20
   7  -3  -1  117.39    7.60
   7  -3  -1  109.59    8.30
  -7  -3   1  116.99    6.90
  -7  -3   1  123.59    7.80
  -7  -3   1  113.19    8.60
  -7  -3   1  117.49    7.30
   7  -3  -1  118.89   10.80
  -7   3   1  112.99    8.10
   7   3  -1  109.99    6.90
  -7   3   1  117.89    7.40
   7   3  -1  116.09    7.10
   7   3  -1  115.49    6.80
   7   3  -1  119.09    7.90
  -7   3   1  117.09    7.60
  -7   3   1  118.19    7.20
   7   3  -1  121.89   16.90
   7   3  -1  124.59    9.00
  -6  -3   1   84.49    5.30
   6  -3  -1   84.49   11.40
  -6  -3   1   78.99    5.60
  -6  -3   1   81.39    4.90
  -6  -3   1   82.99    6.40
   6  -3  -1   81.99    5.50
  -6  -3   1   80.99    6.80
   6  -3  -1   72.39    6.20
  -6   3   1   89.99    5.70
  -6   3   1   78.49    5.30
  -6   3   1   82.39    6.10
   6   3  -1   80.19    4.80
   6   3  -1   81.79   12.30
   6   3  -1   82.69    5.00
   6   3  -1   84.79    5.50
  -5  -3   1  167.18   11.00
  -5  -3   1  168.18   12.00
  -5  -3   1  205.18   11.10
  -5  -3   1  174.58   11.70
  -5   3   1  183.18   11.20
   5   3  -1  190.28   10.90
   5   3  -1  183.88   17.40
  -5   3   1  182.58   11.70
  -4  -3   1  129.39    8.90
  -4  -3   1  152.58    9.90
  -4  -3   1  138.69    9.40
  -4   3   1  146.69    9.00
   4   3  -1  152.78    8.70
   4   3  -1  163.28   12.60
   4   3  -1  154.98   14.30
  -3  -3   1  933.91   54.49
  -3  -3   1  912.61   54.89
  -3  -3   1  975.60   55.29
   3   3  -1 1085.09   60.29
   3   3  -1 1006.60   57.19
  -3   3   1  897.81   54.89
  -3   3   1  962.70   54.89
   3   3  -1  961.40   54.29
  -2  -3   1  659.03   37.80
  -2  -3   1  669.13   38.40
   2   3  -1  705.73   39.90
  -2   3   1  606.04   40.00
  -2   3   1  628.64   38.00
   2   3  -1  742.93   42.20
  -1  -3   1 1386.66   74.89
   1   3  -1 1448.36   76.49
  -1   3   1 1224.28   75.19
   1   3  -1 1412.26   78.29
  -1   3   1 1190.78   78.69
   0  -3  -1   57.99    3.70
   0   3  -1   55.89    4.40
   0   3  -1   58.59    5.70
   0   3   1   54.69    7.10
  -1  -3  -1  587.24   33.30
  -1  -3  -1  615.54   34.20
  -1   3  -1  611.64   33.70
  -1   3  -1  517.85   34.80
  -1   3  -1  594.64   33.20
   1   3   1  592.84   38.50
  -2  -3  -1  315.27   19.00
  -2  -3  -1  290.17   18.10
  -2  -3  -1  313.17   18.10
   2   3   1  342.37   18.30
   2   3   1  328.57   24.00
  -2   3  -1  295.87   17.70
  -3  -3  -1  270.27   16.10
  -3  -3  -1  266.37   17.10
  -3  -3  -1  284.07   16.20
   3   3   1  282.27   15.80
  -4  -3  -1  428.46   23.70
  -4  -3  -1  415.26   25.00
  -4   3  -1  348.27   24.40
  -4   3  -1  428.26   24.00
   4   3   1  410.86   23.40
   4   3   1  425.76   32.10
   5  -3   1   78.39    5.60
  -5  -3  -1   81.39    6.60
  -5  -3  -1   75.39    4.70
  -5  -3  -1   85.19    5.40
   5   3   1   76.89   12.50
   5   3   1   70.99    4.90
   5   3   1   80.39    5.10
   5   3   1   89.49    5.00
  -5   3  -1   75.59    5.60
   6  -3   1   25.70    3.00
  -6  -3  -1   22.70    2.20
  -6  -3  -1   21.40    3.30
  -6  -3  -1   23.80    1.60
  -6  -3  -1   21.20    2.00
   6  -3   1   25.80    2.30
  -6   3  -1   21.40    2.40
  -6   3  -1   22.40    1.80
   6   3   1   21.30    1.60
   6   3   1   23.80    2.10
   6   3   1   22.70    1.80
   6   3   1   22.50    1.60
   6   3   1   29.20    9.90
  -7  -3  -1   19.30    1.80
   7  -3   1   22.60    2.70
  -7  -3  -1   19.40    2.00
   7  -3   1   20.70    2.00
  -7  -3  -1   19.70    3.40
  -7  -3  -1   20.10    1.40
  -7   3  -1   17.80    2.50
   7   3   1   21.30   11.30
   7   3   1   18.50    2.80
  -7   3  -1   18.70    1.90
   7   3   1   16.90    1.40
  -7   3  -1   17.60    1.60
   7   3   1   18.60    1.30
   7   3   1   17.00    1.50
   7   3   1   11.70    2.70
   8  -3   1   94.79    6.40
  -8  -3  -1   86.59    5.50
   8  -3   1   77.69    5.70
  -8  -3  -1   83.69    5.80
  -8  -3  -1   86.59    5.10
   8   3   1   87.19    5.40
   8   3   1   79.19    7.40
  -8   3  -1   85.99    5.70
  -8   3  -1   89.09    5.40
   8   3   1   84.69    5.20
   8   3   1   83.89    5.00
  -9  -3  -1   63.69    4.20
  -9  -3  -1   67.39    4.00
  -9  -3  -1   64.79    4.80
   9  -3   1   69.39    4.90
   9   3   1   70.09    4.30
   9   3   1   64.79    4.10
   9   3   1   52.69    6.10
   9   3   1   62.09    3.90
  -9   3  -1   68.29    4.50
  10  -3   1   29.90    2.60
 -10  -3  -1   29.20    2.00
 -10  -3  -1   29.60    1.90
  10   3   1   28.50    2.00
  10   3   1   30.60    2.30
 -10   3  -1   31.00    2.50
  10   3   1   20.50    3.30
 -10  -4   1    1.40    0.30
 -10  -4   1    1.30    0.30
  10   4  -1    1.20    1.20
  10   4  -1    1.60    0.50
  10   4  -1    1.30    0.30
 -10   4   1    1.80    0.40
  -9  -4   1   36.00    2.30
  -9  -4   1   37.80    2.60
   9   4  -1   37.60    2.40
  -9   4   1   39.00    2.60
   9   4  -1   30.60    4.30
   9   4  -1   40.30    2.70
  -8  -4   1   28.90    2.20
  -8  -4   1   25.60    2.70
   8  -4  -1   28.70    3.00
   8  -4  -1   25.70    4.30
  -8  -4   1   26.30    1.70
  -8  -4   1   17.80    2.70
   8   4  -1   17.40    3.50
   8   4  -1   26.60    1.90
  -8   4   1   23.90    2.10
   8   4  -1   25.50    2.00
   8   4  -1   23.90    3.80
  -8   4   1   28.10    2.40
  -7  -4   1  126.69    7.90
   7  -4  -1  127.89   11.10
  -7  -4   1  127.29    7.50
   7  -4  -1  130.39    9.20
  -7  -4   1  129.39    8.50
   7   4  -1  123.19    7.70
   7   4  -1  129.99    9.60
  -7   4   1  124.59    7.90
  -7   4   1  141.39   11.50
   7   4  -1  155.08   29.00
   7   4  -1  129.99    7.50
   7   4  -1  132.69    8.50
  -7   4   1  123.59    7.80
  -6  -4   1  339.47   22.00
   6  -4  -1  340.27   21.10
  -6  -4   1  349.77   19.70
  -6  -4   1  334.47   20.20
   6  -4  -1  328.87   28.10
  -6  -4   1  344.47   19.30
   6   4  -1  337.37   19.30
  -6   4   1  337.07   20.90
   6   4  -1  341.27   19.50
   6   4  -1  344.27   20.00
   6   4  -1  336.57   30.80
  -5  -4   1    3.10    0.40
  -5  -4   1    1.70    0.60
   5  -4  -1    1.90    1.80
  -5  -4   1    1.10    0.60
  -5  -4   1    3.00    1.80
   5   4  -1    1.40    0.50
   5   4  -1    2.30    0.50
  -5   4   1    2.10    1.20
   5   4  -1   -3.00    4.00
   5   4  -1    1.40    0.30
  -4  -4   1   36.80    3.90
   4  -4  -1   38.40    5.90
   4  -4  -1   33.80    2.60
  -4  -4   1   37.00    2.90
  -4  -4   1   34.10    2.30
  -4  -4   1   34.80    2.60
   4   4  -1   38.70    2.70
   4   4  -1   39.90    2.40
   4   4  -1   36.60    8.30
  -3  -4   1   35.50    3.60
  -3  -4   1   37.50    2.80
   3  -4  -1   37.80    5.70
   3  -4  -1   35.40    2.70
  -3  -4   1   37.10    2.70
  -3   4   1   38.60    3.30
   3   4  -1   37.20    7.40
   3   4  -1   37.70    2.60
   2  -4  -1  204.78   12.10
  -2  -4   1  213.78   12.10
  -2   4   1  194.18   14.40
   2   4  -1  205.38   11.90
   2   4  -1  206.48   17.70
  -1  -4   1   19.90    1.70
   1  -4  -1   23.00    1.80
   1   4  -1   20.50    1.50
  -1   4   1   19.40    1.50
   1   4  -1   27.80    5.40
   0  -4  -1  332.57   18.60
   0   4   1  346.97   18.70
   0   4  -1  298.97   22.60
   0   4   1  290.27   24.20
  -1  -4  -1   81.79    5.00
  -1  -4  -1   79.09    4.90
   1   4   1   79.39   10.40
  -1   4  -1   58.19    7.00
   1   4   1   76.79    4.60
  -2  -4  -1   55.79    3.80
  -2  -4  -1   54.99    3.80
   2   4   1   52.79    3.50
   2   4   1   49.50    8.90
   3  -4   1  149.39   10.00
  -3  -4  -1  151.08    9.80
  -3  -4  -1  159.68    9.90
  -3  -4  -1  166.88   10.30
  -3  -4  -1  157.48   11.10
   3   4   1  154.98   17.30
   3   4   1  164.38    9.20
   3   4   1  171.78    9.50
  -4  -4  -1   37.30    2.60
  -4  -4  -1   34.30    2.60
  -4  -4  -1   29.60    4.10
  -4  -4  -1   36.40    3.10
   4   4   1   33.20    2.20
   4   4   1   35.90    2.40
   4   4   1   34.90    2.50
  -4   4  -1   32.70    3.20
   4   4   1   19.70   10.50
  -5  -4  -1  275.47   16.00
  -5  -4  -1  273.17   15.50
  -5  -4  -1  255.97   17.60
  -5  -4  -1  262.27   15.00
   5   4   1  241.38   15.00
   5   4   1  263.67   15.20
   5   4   1  259.47   26.80
  -5   4  -1  264.97   16.30
   5   4   1  270.47   15.00
   5   4   1  272.17   15.50
  -6  -4  -1    3.00    2.90
  -6  -4  -1    3.60    1.00
  -6  -4  -1    2.10    0.40
  -6  -4  -1    2.80    0.80
  -6   4  -1    1.90    0.60
  -6   4  -1    2.30    1.60
   6   4   1    2.70    0.70
   6   4   1    2.80    0.50
   6   4   1    2.40    0.50
   6   4   1    3.60    0.60
   6   4   1    2.90    6.30
  -7  -4  -1  194.38   11.30
  -7  -4  -1  194.78   11.70
  -7  -4  -1  184.88   10.80
   7   4   1  178.78   12.60
   7   4   1  186.28   11.60
   7   4   1  184.48   11.00
   7   4   1  189.38   10.80
  -8  -4  -1   15.50    1.20
  -8  -4  -1   16.70    1.50
   8   4   1   18.10    1.40
   8   4   1   15.30    2.60
   8   4   1   14.20    1.30
   8   4   1   15.50    1.20
  -8   4  -1   16.10    1.50
  -9  -4  -1   13.50    1.00
  -9  -4  -1   13.80    1.20
   9   4   1    8.50    2.20
  -9   4  -1   12.70    1.10
   9   4   1   15.20    1.30
   9   4   1   13.10    1.00
  -9  -5   1   20.70    1.40
  -9  -5   1   18.20    1.20
   9   5  -1   17.90    1.60
   9   5  -1   16.00    2.50
   9   5  -1   21.30    1.30
  -8  -5   1    3.70    0.60
  -8  -5   1    4.00    0.40
   8   5  -1    3.80    0.60
   8   5  -1    4.00    0.50
   8   5  -1    2.90    1.40
  -8   5   1    3.90    0.60
  -7  -5   1    1.40    1.20
  -7  -5   1    1.90    0.30
  -7  -5   1    2.40    0.60
  -7  -5   1    2.60    0.90
   7   5  -1    1.40    1.20
  -7   5   1    1.90    0.40
   7   5  -1    1.70    0.30
   7   5  -1    1.70    0.40
   7   5  -1    1.40    0.80
  -6  -5   1  135.79    8.20
  -6  -5   1  143.69    9.20
  -6  -5   1  145.79    8.60
   6   5  -1  138.19    9.00
   6   5  -1  155.58    8.60
   6   5  -1  137.99    8.30
  -5  -5   1   -0.10    1.00
  -5  -5   1    1.80    0.60
  -5  -5   1    1.80    0.80
   5   5  -1    1.30    0.30
   5   5  -1    1.60    0.60
   5   5  -1    1.50    0.40
   4  -5  -1   91.39    8.00
  -4  -5   1   97.39    5.90
  -4  -5   1  105.09    6.70
  -4  -5   1  101.49    6.30
   4   5  -1   96.19   17.40
   4   5  -1  105.59    6.00
   4   5  -1  107.29    6.10
   4   5  -1  108.49    6.60
   3  -5  -1   12.50    2.10
  -3  -5   1   12.50    1.60
  -3  -5   1   12.70    1.70
   3   5  -1   18.60    1.50
   3   5  -1   12.10    7.20
  -3   5   1   12.10    1.20
   3   5  -1   17.70    1.30
   3   5  -1   13.30    1.10
   2  -5  -1   53.79    3.70
  -2  -5   1   51.29    3.50
   2  -5  -1   51.39    4.10
  -2   5   1   51.79    3.30
   2   5  -1   53.99   11.10
   2   5  -1   52.49    3.20
   2   5  -1   56.09    3.50
  -1  -5   1  133.79    8.70
  -1  -5   1  125.59    7.70
   1  -5  -1  129.39    8.50
   1  -5  -1  135.89    8.00
   1   5  -1  132.59    7.70
  -1   5   1  131.89    7.70
   1   5  -1  108.29   15.20
   0  -5   1   24.00    2.60
   0  -5  -1   24.60    2.10
   0   5  -1   17.90    5.90
   0   5  -1   23.80    1.70
   0   5   1   22.50    7.50
   0   5   1   23.80    1.80
  -1  -5  -1  113.59    7.00
   1  -5   1  108.79    7.40
  -1  -5  -1  106.59    6.60
   1   5   1  115.29    6.60
   1   5   1   90.79   14.50
   1   5   1  109.69    6.30
   2  -5   1    6.30    1.50
  -2  -5  -1    6.70    0.90
   2   5   1    4.70    5.90
   2   5   1    5.20    0.60
   2   5   1    5.90    0.80
  -3  -5  -1  194.18   11.10
  -3  -5  -1  180.48   11.50
   3  -5   1  181.18   11.60
   3   5   1  161.78   21.10
   3   5   1  195.98   11.10
   3   5   1  193.78   10.70
   4  -5   1   13.00    1.80
  -4  -5  -1   12.00    1.80
  -4  -5  -1   15.50    1.40
   4   5   1   14.50    1.10
   4   5   1   13.90    1.20
   4   5   1   14.00    1.40
   4   5   1    4.20    7.60
  -5  -5  -1   44.60    3.60
  -5  -5  -1   43.70    3.10
   5   5   1   43.70    2.70
   5   5   1   41.80    2.90
   5   5   1   43.90    3.20
  -6  -5  -1    7.00    0.70
  -6  -5  -1   10.70    1.70
  -6  -5  -1    9.50    1.10
   6   5   1    8.40    0.80
   6   5   1    8.90    0.90
   6   5   1    8.40    1.30
  -7  -5  -1   57.49    3.50
  -7  -5  -1   63.69    3.90
   7   5   1   64.49    3.60
   7   5   1   51.39    4.70
   7   5   1   61.59    3.80
   7   5   1   56.59    5.10
  -8  -5  -1    5.90    1.20
  -8  -5  -1    5.20    0.50
  -8  -5  -1    6.30    0.70
   8   5   1    4.00    1.50
   8   5   1    6.10    0.50
   8   5   1    6.30    0.70
  -7  -6   1   21.70    1.90
  -7  -6   1   25.70    1.60
   7   6  -1   21.10    2.70
   7   6  -1   24.60    1.50
   7   6  -1   23.20    1.60
   7   6  -1   20.40    2.50
  -6  -6   1   10.10    1.40
   6   6  -1    8.40    1.40
   6   6  -1   13.10    0.90
   6   6  -1    7.80    1.80
   6   6  -1    8.70    0.90
  -5  -6   1   23.10    2.20
  -5  -6   1   20.20    1.60
   5   6  -1   19.90    1.50
   5   6  -1   20.30    2.00
   5   6  -1   22.10    1.40
  -4  -6   1   23.00    1.80
  -4  -6   1   23.00    2.40
   4   6  -1   25.30    1.70
  -4   6   1   22.50    1.70
   4   6  -1   24.80    1.60
   4   6  -1   23.10    2.30
   3  -6  -1    5.30    1.10
  -3  -6   1    5.30    0.80
  -3  -6   1    5.00    1.20
   3   6  -1   14.90    1.00
   3   6  -1   12.70    0.80
  -3   6   1    6.20    0.80
  -2  -6   1   33.20    3.10
   2  -6  -1   37.50    3.30
  -2  -6   1   29.90    2.30
  -2   6   1   33.90    2.40
   2   6  -1   36.10    2.30
   2   6  -1   35.10    2.20
   2   6  -1   39.30    2.60
  -1  -6   1   19.90    2.20
  -1  -6   1   17.40    1.40
   1  -6  -1   20.80    2.20
  -1   6   1   19.30    1.50
   1   6  -1   19.50    1.60
   0  -6   1   61.49    4.80
   0  -6  -1   63.89    4.80
   0   6  -1   64.89    4.00
   0   6   1   64.09    4.10
   1  -6   1   20.70    2.20
  -1  -6  -1   17.90    2.20
   1   6   1   20.60    1.70
   1   6   1   19.80    1.30
  -1   6  -1   19.90    1.50
  -2  -6  -1   21.90    1.70
   2  -6   1   19.70    2.30
   2   6   1   24.10    1.90
   2   6   1   22.10    1.50
  -3  -6  -1  239.58   13.30
  -3  -6  -1  221.68   14.10
   3  -6   1  223.18   13.80
   3   6   1  229.48   13.10
   3   6   1  233.58   13.20
   3   6   1  232.08   13.50
  -4  -6  -1   45.70    2.90
  -4  -6  -1   42.20    3.60
   4   6   1   43.30    2.80
   4   6   1   44.30    3.20
   4   6   1   43.70    2.70
  -5  -6  -1   37.30    2.50
  -5  -6  -1   35.90    3.00
   5   6   1   34.50    2.70
   5   6   1   35.90    2.20
   5   6   1   36.40    2.40
  -6  -6  -1   28.60    1.90
  -6  -6  -1   26.40    2.30
   6   6   1   27.70    1.80
   6   6   1   25.80    2.80
   6   6   1   28.70    1.70
   6   6   1   27.40    2.30
  -4  -7   1    7.30    1.10
   4   7  -1    8.00    0.60
   4   7  -1    6.40    1.00
   4   7  -1    6.90    1.30
  -3  -7   1   20.40    1.90
   3   7  -1   19.40    1.70
   2  -7  -1   55.39    3.90
  -2  -7   1   55.59    4.00
   2   7  -1   58.89    3.90
  -2   7   1   58.49    3.50
   1  -7  -1   67.89    4.70
  -1  -7   1   77.69    5.10
   1   7  -1   70.99    4.50
  -1   7   1   73.39    4.40
  -1   7   1   64.39    4.20
   0  -7   1    0.60    0.60
   0  -7  -1    0.60    0.50
   0   7  -1    0.60    0.30
   0   7   1    1.00    0.30
   0   7   1    0.80    0.50
   1  -7   1    9.80    1.30
  -1  -7  -1   10.00    1.40
  -1   7  -1   11.70    1.00
   1   7   1   10.70    1.10
   1   7   1    9.20    0.90
   2  -7   1   26.70    2.10
  -2  -7  -1   29.40    2.40
   2   7   1   29.10    1.70
   2   7   1   30.50    2.50
   2   7   1   26.00    1.80
  -3  -7  -1    4.50    1.00
   3   7   1    4.20    0.40
   3   7   1    3.70    0.40
   3   7   1    3.90    0.70
  12   0  -2   -0.20    1.20
 -12   0   2    0.10    0.20
  12   0  -2    0.70    0.40
  12   0  -2   -0.20    0.50
 -12   0   2    0.40    0.20
 -11   0   2   18.00    1.30
  11   0  -2   17.60    1.70
 -11   0   2   18.80    2.10
  11   0  -2   18.10    2.10
  11   0  -2   18.00    3.60
 -11   0   2   19.90    1.70
 -10   0   2  142.59    8.60
  10   0  -2  137.39   12.10
  10   0  -2  134.49    8.40
 -10   0   2  136.59    7.90
  10   0  -2  128.89    8.90
 -10   0   2  131.89    8.50
  -9   0   2   45.20    4.60
  -9   0   2   58.39    3.90
  -9   0   2   48.00    3.50
  -9   0   2   48.10    4.30
  -9   0   2   45.80    3.30
   9   0  -2   48.30    4.00
   9   0  -2   51.69    4.20
  -8   0   2   17.10    1.20
  -8   0   2   13.60    1.90
  -8   0   2   15.70    2.20
   8   0  -2   13.90    1.40
  -8   0   2   15.10    1.40
   8   0  -2   14.10    1.70
   8   0  -2   16.40    3.70
  -8   0   2   14.60    1.60
  -7   0   2   26.90    2.00
  -7   0   2   25.90    2.50
   7   0  -2   28.20    7.00
  -7   0   2   27.20    2.30
  -7   0   2   25.30    2.80
  -6   0   2   17.40    2.00
  -6   0   2   18.00    1.80
  -6   0   2   17.30    1.70
  -6   0   2   19.30    1.50
  -5   0   2  325.37   17.70
  -5   0   2  256.77   17.90
  -5   0   2  325.77   17.20
  -4   0   2   38.60    3.20
  -4   0   2   49.50    3.00
  -4   0   2   52.09    3.20
   4   0  -2   40.70    4.10
   3   0  -2 6220.38  349.37
  -2   0   2   72.09    4.40
   2   0  -2   66.09    4.70
  -1   0   2 3768.32  212.38
   1   0  -2 3400.36  212.88
   0   0  -2   23.90    1.70
   0   0  -2   27.90    1.60
   0   0   2   20.30    2.70
   1   0   2  851.21   54.49
  -1   0  -2 1013.60   52.49
   2   0   2  103.09    9.20
  -2   0  -2  113.39    6.70
  -2   0  -2  115.59    6.70
  -2   0  -2  113.59    6.40
  -3   0  -2  188.48   11.00
  -3   0  -2  188.18   10.80
   3   0   2  172.48   14.10
  -3   0  -2  186.18   10.50
  -4   0  -2  699.43   39.00
   4   0   2  639.84   43.50
  -4   0  -2  684.93   38.60
  -4   0  -2  713.43   39.20
  -5   0  -2  485.95   26.70
  -5   0  -2  491.15   27.50
  -5   0  -2  481.05   27.30
  -5   0  -2  464.35   27.40
   5   0   2  423.96   32.70
  -6   0  -2    4.50    1.00
  -6   0  -2    3.80    0.60
  -6   0  -2    5.10    1.20
  -7   0  -2   32.70    3.20
  -7   0  -2   31.90    2.40
  -7   0  -2   32.10    2.90
  -7   0  -2   30.00    2.50
  -7   0  -2   32.50    3.20
   7   0   2   29.40    2.50
   7   0   2   30.40    2.20
   8   0   2   26.10    2.20
  -8   0  -2   28.50    2.30
   8   0   2   31.80    2.70
  -8   0  -2   27.60    3.20
  -8   0  -2   29.70    2.80
  -8   0  -2   26.80    3.30
  -8   0  -2   27.30    3.10
  -8   0  -2   29.30    2.30
   9   0   2    6.00    1.10
  -9   0  -2    6.60    1.20
   9   0   2    5.90    1.20
  -9   0  -2    5.50    1.10
  -9   0  -2    4.90    0.60
 -10   0  -2    5.20    0.90
 -10   0  -2    4.30    0.50
  10   0   2    4.00    1.00
  10   0   2    2.90    0.70
 -11   0  -2   95.79    6.20
 -11   0  -2  120.69    6.90
  11   0   2  103.99    6.80
  11   0   2  110.69    6.60
 -12  -1   2   24.90    1.60
  12  -1  -2   24.80    3.30
  12  -1  -2   28.20    2.50
 -12   1   2   26.50    1.90
  12   1  -2   23.40    3.40
  12   1  -2   26.60    2.00
  12   1  -2   26.90    2.30
 -11  -1   2    1.50    0.30
  11  -1  -2    1.30    0.70
 -11  -1   2    2.80    0.90
 -11  -1   2    1.50    0.40
  11  -1  -2    4.60    1.00
  11  -1  -2    0.30    1.30
 -11   1   2    1.40    0.70
  11   1  -2    1.10    0.70
  11   1  -2    0.80    1.40
 -11   1   2    1.90    0.50
  11   1  -2    2.50    0.70
  10  -1  -2   92.49    9.10
 -10  -1   2   86.49    5.90
 -10  -1   2   86.39    5.80
  10  -1  -2   86.19    6.50
  10  -1  -2   89.09    6.00
 -10  -1   2   92.79    5.40
  10   1  -2   89.99    9.20
 -10   1   2   92.29    6.10
 -10   1   2   87.79    5.70
  10   1  -2   90.49    6.20
  10   1  -2   89.49    5.80
 -10   1   2   95.29    5.50
   9  -1  -2   25.90    2.30
  -9  -1   2   27.20    2.30
  -9  -1   2   25.90    1.80
  -9  -1   2   22.30    3.20
   9  -1  -2   25.90    2.70
  -9  -1   2   26.50    3.40
  -9  -1   2   25.00    2.20
   9  -1  -2   24.40    4.60
  -9   1   2   29.30    3.30
  -9   1   2   29.00    2.10
  -9   1   2   26.90    2.40
   9   1  -2   26.40    4.80
  -9   1   2   23.20    2.80
   9   1  -2   19.90    2.20
   9   1  -2   25.80    2.40
   9   1  -2   25.40    2.10
  -8  -1   2   41.50    2.60
   8  -1  -2   44.80    6.00
   8  -1  -2   41.10    3.10
  -8  -1   2   47.20    4.50
  -8  -1   2   46.10    4.60
  -8  -1   2   34.20    3.00
  -8  -1   2   43.80    3.20
  -8  -1   2   39.70    3.10
   8  -1  -2   39.50    3.50
   8   1  -2   44.50    5.50
  -8   1   2   43.80    4.20
  -8   1   2   42.40    3.30
  -8   1   2   40.70    2.90
  -8   1   2   33.90    2.60
   8   1  -2   42.20    3.10
   8   1  -2   39.10    2.60
   8   1  -2   38.60    2.80
   8   1  -2   38.80   10.10
  -7  -1   2  364.36   22.50
   7  -1  -2  385.46   22.80
  -7  -1   2  382.96   23.30
  -7  -1   2  406.06   22.20
  -7  -1   2  394.96   22.40
   7  -1  -2  394.46   22.60
  -7  -1   2  413.16   23.10
  -7   1   2  418.56   22.90
   7   1  -2  407.46   29.60
  -7   1   2  392.56   23.20
  -7   1   2  400.26   22.50
   7   1  -2  217.48   28.60
  -7   1   2  418.26   22.10
  -6  -1   2  155.58    9.70
  -6  -1   2  145.89   10.10
  -6  -1   2  157.88    9.20
   6  -1  -2  164.08   14.10
  -6  -1   2  152.08    9.80
  -6   1   2  156.58    9.60
  -6   1   2  163.08    9.20
  -6   1   2  158.78   10.10
   6   1  -2  151.98   12.50
   6   1  -2  165.58   14.40
  -5  -1   2  340.47   19.50
  -5  -1   2  350.86   20.00
  -5  -1   2  328.97   20.30
  -5   1   2  361.76   20.10
   5   1  -2  326.07   21.70
  -5   1   2  340.67   20.20
  -4  -1   2  520.65   31.60
  -4  -1   2  550.94   31.00
  -4  -1   2  557.34   31.40
  -4   1   2  550.84   31.50
   4   1  -2  568.64   33.00
  -3  -1   2  304.27   18.20
  -3  -1   2  320.97   18.00
  -3  -1   2  300.17   17.70
   3  -1  -2  318.47   18.60
   3   1  -2  322.77   19.10
  -3   1   2  314.57   18.30
   2  -1  -2  329.37   21.30
  -2  -1   2  349.77   20.70
  -2  -1   2  374.66   21.10
  -2  -1   2  367.06   20.90
  -2   1   2  400.36   21.90
   2   1  -2  390.16   21.70
   1  -1  -2 2270.07  121.49
  -1   1   2 1923.81  123.09
   1   1  -2 2292.47  121.49
   0  -1  -2 1109.69   64.39
   0   1  -2 1318.07   63.99
   0   1  -2 1105.09   64.09
   0   1  -2 1106.99   64.49
   0   1   2 1067.99   66.89
  -1  -1  -2  101.39    6.00
  -1  -1  -2  100.49    5.70
  -1  -1  -2  107.39    6.10
  -1   1  -2   98.89    5.70
  -1   1  -2   78.09    7.00
   1   1   2  100.89    8.90
  -2  -1  -2 1181.68   65.69
  -2  -1  -2 1172.88   65.99
  -2   1  -2 1193.68   65.79
  -2   1  -2 1094.29   65.49
  -2   1  -2 1173.48   65.79
   2   1   2 1214.78   70.29
  -3  -1  -2  793.12   45.40
  -3  -1  -2  814.72   45.00
  -3  -1  -2  816.62   45.50
  -3  -1  -2  837.62   45.50
  -3   1  -2  820.32   45.10
   3   1   2  790.82   52.19
  -3   1  -2  780.02   44.80
  -3   1  -2  734.63   45.80
  -4  -1  -2  373.96   21.20
  -4  -1  -2  370.96   21.80
  -4  -1  -2  374.46   21.60
  -4  -1  -2  386.36   21.80
  -4   1  -2  367.56   21.00
  -4   1  -2  369.46   21.40
  -4   1  -2  360.36   21.40
   4   1   2  363.36   27.20
  -5  -1  -2  488.35   29.50
  -5  -1  -2  468.55   28.80
  -5  -1  -2  474.95   26.80
  -5  -1  -2  463.75   27.30
  -5  -1  -2  469.35   27.30
  -5   1  -2  472.35   27.10
  -5   1  -2  472.75   27.10
   5   1   2  453.15   34.10
  -5   1  -2  451.65   26.50
  -6  -1  -2   88.69    6.20
  -6  -1  -2   96.39    6.70
  -6  -1  -2   92.49    5.70
   6  -1   2   94.89    6.00
  -6  -1  -2   89.19    6.50
  -6  -1  -2   92.09    6.30
   6   1   2   80.99    5.40
  -6   1  -2   86.59    6.10
  -6   1  -2   88.59    5.50
  -6   1  -2   88.29    6.10
   6   1   2   96.99    5.70
   6   1   2   79.89   13.70
  -6   1  -2   90.89    6.20
  -7  -1  -2   20.40    2.50
  -7  -1  -2   24.80    3.60
  -7  -1  -2   21.00    1.80
   7  -1   2   16.90    1.70
   7  -1   2   22.90    2.20
  -7  -1  -2   19.10    2.10
  -7  -1  -2   20.40    1.90
   7   1   2   20.10    1.60
  -7   1  -2   20.60    1.70
  -7   1  -2   20.60    2.20
  -7   1  -2   19.80    2.40
  -7   1  -2   21.30    2.40
   7   1   2   18.40    1.70
  -8  -1  -2  197.28   12.10
  -8  -1  -2  213.78   12.30
  -8  -1  -2  205.38   12.70
  -8  -1  -2  194.98   13.40
   8  -1   2  217.58   12.70
  -8  -1  -2  200.98   13.70
  -8  -1  -2  201.18   13.30
   8  -1   2  194.38   12.10
  -8   1  -2  208.18   12.90
  -8   1  -2  207.38   13.10
   8   1   2  210.68   12.20
   8   1   2  164.78   17.00
   8   1   2  202.68   11.90
  -8   1  -2  209.58   12.80
  -8   1  -2  208.58   13.20
  -8   1  -2  207.18   12.00
  -9  -1  -2   85.29    5.90
  -9  -1  -2   88.59    5.30
   9  -1   2   85.99    5.80
  -9  -1  -2   84.99    6.00
  -9  -1  -2   87.59    5.70
   9  -1   2   90.19    6.20
  -9   1  -2   90.09    5.80
  -9   1  -2   87.49    5.30
   9   1   2   90.19    5.90
  -9   1  -2   92.39    6.30
   9   1   2   91.59    5.60
  10  -1   2   12.60    1.70
 -10  -1  -2   12.00    1.20
 -10  -1  -2   12.40    1.00
  10  -1   2   12.00    1.40
 -10  -1  -2   11.30    1.30
  10   1   2   12.90    1.30
 -10   1  -2   13.70    1.00
  10   1   2   11.60    1.50
 -10   1  -2   13.10    1.50
 -11  -1  -2    0.20    0.40
  11  -1   2    0.40    0.80
  11  -1   2    0.30    0.40
 -11  -1  -2    0.10    0.20
  11   1   2    0.10    0.30
 -11   1  -2    0.20    0.30
 -11   1  -2    0.10    0.20
  11   1   2    0.60    0.50
  12  -2  -2   47.70    3.40
 -12  -2   2   45.00    2.60
  12   2  -2   40.20    4.50
  12   2  -2   45.20    3.20
 -12   2   2   44.40    2.90
  11  -2  -2   43.00    4.80
 -11  -2   2   42.30    2.70
  11  -2  -2   44.90    3.80
 -11   2   2   46.20    3.10
  11   2  -2   46.20    3.50
  11   2  -2   41.30    5.40
  11   2  -2   45.30    3.00
 -10  -2   2   33.60    2.80
  10  -2  -2   32.80    3.10
  10  -2  -2   30.70    3.20
 -10  -2   2   29.60    2.20
  10  -2  -2   32.60    4.80
  10   2  -2   30.90    2.70
 -10   2   2   29.10    2.40
  10   2  -2   29.60    2.10
  10   2  -2   24.60    4.80
  10   2  -2   31.80    2.30
 -10   2   2   32.90    2.60
  -9  -2   2   31.10    3.90
  -9  -2   2   29.30    2.30
   9  -2  -2   33.80    5.30
   9  -2  -2   30.50    2.60
  -9  -2   2   34.70    2.10
  -9  -2   2   26.90    2.20
  -9  -2   2   32.90    2.70
  -9  -2   2   29.10    4.20
   9  -2  -2   29.80    3.20
  -9   2   2   29.30    2.30
   9   2  -2   28.90    4.80
   9   2  -2    8.70   14.80
  -9   2   2   32.00    2.60
  -9   2   2   30.70    3.30
   9   2  -2   27.50    2.30
  -9   2   2   30.00    3.50
   9   2  -2   31.00    2.60
   9   2  -2   28.70    2.00
   8  -2  -2    3.10    1.10
  -8  -2   2    2.40    0.60
   8  -2  -2    3.90    2.30
  -8  -2   2    2.50    1.30
  -8  -2   2    3.20    0.80
  -8  -2   2    2.90    0.70
   8  -2  -2    2.80    0.70
  -8  -2   2    2.00    0.40
  -8  -2   2    3.00    1.60
   8   2  -2    2.50    0.50
  -8   2   2    2.20    0.60
   8   2  -2    6.90    2.50
   8   2  -2    7.20    6.20
   8   2  -2    3.50    0.60
   8   2  -2    2.90    0.70
  -8   2   2    3.50    1.20
  -8   2   2    1.90    0.70
  -8   2   2    1.80    1.00
  -7  -2   2  162.18    9.20
  -7  -2   2  141.29    9.40
   7  -2  -2  153.38    9.70
   7  -2  -2  155.78   10.40
  -7  -2   2  148.39   10.60
  -7  -2   2  163.78    9.70
  -7  -2   2  154.18    9.80
   7  -2  -2  150.98   17.20
  -7  -2   2  162.18   10.90
   7   2  -2  155.38    9.10
   7   2  -2  164.68    9.50
  -7   2   2  161.68   10.40
   7   2  -2  158.38   10.50
  -7   2   2  161.58    9.80
   7   2  -2  165.58   11.50
  -7   2   2  158.08   10.30
   7   2  -2  169.88   17.00
  -7   2   2  158.78    9.40
  -6  -2   2   32.80    2.60
  -6  -2   2   34.20    3.30
  -6  -2   2   33.70    3.20
  -6  -2   2   31.80    2.40
   6   2  -2   32.50    5.40
   6   2  -2   36.30    2.90
  -6   2   2   33.50    3.00
  -6   2   2   34.50    3.10
  -6   2   2   34.40    2.60
   6   2  -2   37.10    7.00
  -5  -2   2  388.06   23.50
  -5  -2   2  401.86   24.20
  -5  -2   2  397.16   24.20
   5   2  -2  447.36   23.60
  -5   2   2  406.16   23.90
   5   2  -2  417.96   26.40
  -4  -2   2  158.18    9.70
  -4  -2   2  161.58   10.20
  -4  -2   2  156.38   10.20
   4   2  -2  182.08   12.00
  -4   2   2  167.28   10.10
  -3  -2   2  654.53   36.80
  -3  -2   2  663.33   36.80
  -3  -2   2  605.84   36.30
  -3   2   2  581.84   37.20
   3   2  -2  690.23   38.10
  -3   2   2  664.53   37.20
  -2  -2   2   30.90    2.10
  -2  -2   2   35.50    2.60
  -2  -2   2   31.20    2.40
  -2   2   2   30.40    5.70
   2   2  -2   32.90    3.10
  -1  -2   2   59.59    3.70
  -1  -2   2   62.39    3.90
  -1   2   2   62.99    6.80
   1   2  -2   62.49    4.80
   0  -2  -2 1625.54   93.79
   0   2  -2 1592.64   93.29
   0   2  -2 1773.32   93.49
  -1  -2  -2  813.02   46.50
  -1  -2  -2  828.72   46.70
  -1  -2  -2  829.02   46.10
   1   2   2  795.72   50.79
  -2  -2  -2  565.74   32.80
  -2  -2  -2  578.04   33.10
  -2  -2  -2  546.85   32.30
   2   2   2  597.84   38.20
  -2   2  -2  570.64   32.40
  -3  -2  -2  497.15   29.20
  -3  -2  -2  493.25   28.50
  -3  -2  -2  486.25   29.00
  -3  -2  -2  498.95   28.90
  -3   2  -2  498.65   28.20
  -3   2  -2  498.85   28.60
   3   2   2  532.35   35.40
  -4  -2  -2  303.77   18.20
  -4  -2  -2  317.47   18.70
  -4  -2  -2  302.27   17.90
  -4  -2  -2  323.67   18.50
   4   2   2  294.57   17.50
  -4   2  -2  314.27   17.90
  -4   2  -2  309.97   17.60
   4   2   2  305.97   25.00
  -4   2  -2  278.37   18.90
  -4   2  -2  306.07   17.40
  -5  -2  -2  464.15   26.10
  -5  -2  -2  473.75   27.10
  -5  -2  -2  441.66   26.70
  -5  -2  -2  469.75   27.30
  -5  -2  -2  450.45   26.30
  -5   2  -2  448.36   25.80
  -5   2  -2  450.75   26.10
   5   2   2  426.06   34.60
  -6  -2  -2  562.54   33.90
  -6  -2  -2  558.04   33.60
  -6  -2  -2  573.94   32.90
  -6  -2  -2  562.84   33.70
  -6  -2  -2  579.84   32.90
   6  -2   2  610.04   33.50
  -6  -2  -2  570.44   34.20
  -6   2  -2  583.94   32.40
   6   2   2  571.94   32.30
  -6   2  -2  576.84   33.20
   6   2   2  565.94   32.50
  -6   2  -2  575.54   33.00
   6   2   2  526.55   32.40
   6   2   2  612.94   34.00
   6   2   2  548.25   43.50
  -6   2  -2  583.34   33.20
  -7  -2  -2  154.38   10.90
  -7  -2  -2  155.38    9.90
  -7  -2  -2  156.68   11.00
  -7  -2  -2  163.08   11.30
  -7  -2  -2  157.68    9.70
   7  -2   2  172.08   10.40
  -7  -2  -2  162.48    9.90
   7  -2   2  142.99    9.70
  -7  -2  -2  167.48    9.30
  -7   2  -2  154.98   10.20
  -7   2  -2  162.18   10.10
   7   2   2  148.39   23.00
   7   2   2  154.48    9.10
   7   2   2  163.98   11.50
   7   2   2  155.98    9.40
  -7   2  -2  160.08    9.40
  -7   2  -2  159.18   10.10
   7   2   2  156.18    9.30
  -8  -2  -2  340.27   19.40
   8  -2   2  310.37   19.40
  -8  -2  -2  323.17   21.20
   8  -2   2  361.36   20.10
  -8  -2  -2  335.07   19.60
  -8  -2  -2  347.77   19.00
  -8  -2  -2  321.37   19.60
  -8   2  -2  337.67   19.90
   8   2   2  336.37   19.10
  -8   2  -2  342.67   19.90
   8   2   2  317.97   21.80
   8   2   2  305.77   18.80
  -8   2  -2  316.37   20.20
  -8   2  -2  341.97   19.20
   8   2   2  345.07   19.30
   9  -2   2   55.59    4.20
  -9  -2  -2   56.09    3.40
  -9  -2  -2   50.89    4.00
  -9  -2  -2   51.79    3.60
  -9  -2  -2   46.50    4.20
   9  -2   2   55.89    3.90
   9   2   2   44.20    5.70
   9   2   2   58.49    3.90
  -9   2  -2   57.99    4.10
  -9   2  -2   53.99    3.30
   9   2   2   56.89    3.60
  10  -2   2  130.29    7.90
 -10  -2  -2  117.69    7.60
  10  -2   2  124.39    8.10
 -10  -2  -2  129.59    7.50
  10   2   2  135.19    8.00
  10   2   2  133.09    7.70
 -10   2  -2  127.79    8.00
 -11  -2  -2    1.00    0.20
 -11   2  -2    0.70    0.30
  11   2   2    1.10    0.50
  11   2   2    0.50    0.50
 -11  -3   2   16.70    1.20
 -11  -3   2   17.90    1.20
  11  -3  -2   19.30    2.00
  11   3  -2   14.60    2.90
 -11   3   2   19.70    1.40
  11   3  -2   18.80    1.70
 -10  -3   2   14.60    1.00
 -10  -3   2   14.00    1.20
  10  -3  -2   11.70    1.90
  10  -3  -2   11.40    3.10
 -10  -3   2   11.70    2.10
  10   3  -2   13.30    1.10
  10   3  -2   10.90    3.10
 -10   3   2   13.70    1.30
  10   3  -2   13.90    1.50
   9  -3  -2  187.18   13.30
  -9  -3   2  211.48   11.90
   9  -3  -2  217.18   19.30
  -9  -3   2  210.38   12.20
  -9  -3   2  206.68   12.80
   9   3  -2  211.48   12.40
   9   3  -2  190.68   15.20
  -9   3   2  214.48   12.20
   9   3  -2  207.28   11.90
  -9   3   2  210.98   12.40
  -8  -3   2  183.98   15.60
  -8  -3   2  207.88   12.40
  -8  -3   2  214.78   13.00
   8  -3  -2  224.58   17.00
  -8  -3   2  213.98   12.00
   8  -3  -2  188.38   13.50
  -8   3   2  238.78   14.90
   8   3  -2  190.08   14.70
  -8   3   2  210.48   12.60
   8   3  -2  211.68   12.00
   8   3  -2  208.58   12.40
  -8   3   2  210.08   12.40
   8   3  -2  214.28   15.10
   7  -3  -2  356.76   24.00
   7  -3  -2  409.06   27.80
  -7  -3   2  439.16   26.10
  -7  -3   2  397.76   23.30
  -7  -3   2  383.56   22.40
  -7  -3   2  393.96   22.90
  -7  -3   2  390.16   24.80
  -7   3   2  394.76   24.00
  -7   3   2  405.16   23.60
   7   3  -2  376.56   22.60
   7   3  -2  394.86   33.00
   7   3  -2  424.86   25.00
   7   3  -2  408.96   23.70
   7   3  -2  390.96   22.40
  -7   3   2  382.66   22.90
  -7   3   2  391.66   22.80
  -6  -3   2    6.00    1.70
  -6  -3   2    6.30    1.70
   6  -3  -2    7.40    3.30
  -6  -3   2    4.00    0.90
  -6  -3   2    6.10    0.60
  -6  -3   2    6.30    1.00
   6  -3  -2    4.00    1.20
   6   3  -2    4.50    3.80
  -6   3   2    5.60    1.30
  -6   3   2    7.10    1.60
  -6   3   2    5.50    0.80
   6   3  -2    8.70    1.20
   6   3  -2    5.10    0.60
   6   3  -2    4.60    1.00
  -5  -3   2    6.60    1.60
  -5  -3   2    7.10    1.10
  -5  -3   2    6.50    1.60
  -5  -3   2    9.50    1.30
  -5   3   2    7.60    1.30
  -5   3   2    6.70    1.00
   5   3  -2    7.80    4.00
   5   3  -2    4.40    2.50
   5   3  -2   10.80    1.20
  -4  -3   2   15.30    2.10
  -4  -3   2   15.40    2.10
  -4  -3   2   15.30    2.00
   4   3  -2   19.90    4.60
   4   3  -2   17.50    3.50
  -4   3   2   16.20    1.80
   4   3  -2   16.20    1.40
  -3  -3   2  133.49    8.10
  -3  -3   2  135.39    8.70
  -3  -3   2  129.79    8.50
   3   3  -2  133.89   10.10
   3   3  -2  155.98   12.40
  -3   3   2  130.19    9.30
   3   3  -2  136.49    8.00
  -2  -3   2   86.99    5.30
  -2  -3   2   87.49    5.70
   2   3  -2   92.09    6.90
  -2   3   2   74.79    7.90
  -1  -3   2   87.19    5.10
  -1   3   2   73.99    8.90
   1   3  -2   88.89    6.30
   0  -3  -2  367.36   21.10
   0   3  -2  381.76   21.80
   0   3   2  326.67   26.10
   0   3  -2  392.16   22.90
  -1  -3  -2  479.95   27.60
  -1  -3  -2  472.35   27.70
  -1  -3  -2  488.25   28.50
  -1   3  -2  501.95   27.70
   1   3   2  474.95   33.80
  -2  -3  -2  634.14   35.50
  -2  -3  -2  614.74   36.40
   2   3   2  613.94   42.70
   2   3   2  627.44   35.20
  -3  -3  -2  198.58   11.50
  -3  -3  -2  192.88   12.50
  -3  -3  -2  181.58   11.30
  -3   3  -2  188.88   11.60
   3   3   2  195.98   11.10
   3   3   2  192.58   18.70
  -4  -3  -2  108.59    8.10
  -4  -3  -2   97.99    6.60
  -4  -3  -2  141.69    7.50
  -4  -3  -2  108.49    6.80
  -4   3  -2   98.99    7.00
   4   3   2  102.39   14.10
  -4   3  -2  103.29    6.90
   4   3   2  102.39    6.30
   4   3   2  106.59    6.50
  -5  -3  -2   45.20    3.30
  -5  -3  -2   43.90    4.50
  -5  -3  -2   42.20    3.10
   5  -3   2   43.60    3.50
  -5  -3  -2   45.90    2.80
   5   3   2   42.50    2.70
   5   3   2   41.60    2.70
   5   3   2   42.30    2.80
  -5   3  -2   42.30    2.80
   5   3   2   42.90    3.00
   5   3   2   42.00   10.10
  -5   3  -2   41.40    3.40
  -6  -3  -2  143.59    8.70
   6  -3   2  148.19    9.50
   6  -3   2  131.09    8.80
  -6  -3  -2  146.09   10.60
  -6  -3  -2  138.49    8.20
  -6  -3  -2  144.19    8.90
   6   3   2  138.89    8.10
   6   3   2  145.89    8.40
   6   3   2  134.29   19.10
   6   3   2  138.69    8.70
  -6   3  -2  140.69    9.20
  -6   3  -2  137.49    8.30
   6   3   2  133.19    8.20
  -7  -3  -2  167.08    9.80
   7  -3   2  146.89    9.90
  -7  -3  -2  171.28   10.10
  -7  -3  -2  168.88    9.30
   7  -3   2  175.28   10.50
   7   3   2  158.88    9.10
  -7   3  -2  153.28    9.90
   7   3   2  153.48    9.30
  -7   3  -2  160.38    9.40
   7   3   2  165.38    9.40
   7   3   2  157.28   11.20
  -7   3  -2  119.79   10.70
   7   3   2  188.08   36.90
   8  -3   2    6.70    1.40
  -8  -3  -2    3.20    0.90
  -8  -3  -2    6.80    0.70
  -8  -3  -2    6.90    1.00
   8   3   2    5.70    0.90
   8   3   2    5.90    1.00
   8   3   2    6.40    2.40
   8   3   2    6.50    0.80
  -8   3  -2    7.20    1.10
  -9  -3  -2   15.40    1.10
   9  -3   2   13.10    2.00
  -9  -3  -2   15.90    1.40
  -9  -3  -2   23.90    3.30
   9   3   2   16.70    1.50
  -9   3  -2   15.70    1.50
   9   3   2   15.40    1.30
   9   3   2   14.10    1.10
   9   3   2    8.10    2.70
 -10  -3  -2    3.80    0.60
 -10  -3  -2    3.60    0.40
  10   3   2    3.10    0.60
  10   3   2    3.30    0.60
 -10   3  -2    3.40    0.60
 -10  -4   2    3.30    0.50
 -10  -4   2    3.10    0.40
  10   4  -2    2.10    1.50
  10   4  -2    2.90    0.50
  10   4  -2    3.30    0.60
 -10   4   2    3.40    0.50
   9  -4  -2   26.50    5.20
  -9  -4   2   27.80    2.00
  -9  -4   2   25.10    1.70
  -9   4   2   26.40    1.90
   9   4  -2   28.10    1.80
   9   4  -2   20.00    3.50
   9   4  -2   25.70    2.00
   8  -4  -2  111.99    8.10
  -8  -4   2  103.69    6.90
  -8  -4   2   62.09    5.90
   8  -4  -2  109.59    9.60
  -8   4   2  102.79    6.20
   8   4  -2  106.19    6.30
  -8   4   2  103.49    6.30
   8   4  -2  102.49    9.40
   8   4  -2  114.89    6.10
   8   4  -2   94.79    7.50
  -7  -4   2  134.39   11.30
   7  -4  -2  132.29    9.80
  -7  -4   2  138.09    8.50
  -7  -4   2  139.69    8.10
  -7  -4   2  135.69    8.90
  -7  -4   2  141.59    9.10
   7  -4  -2  158.28   12.80
   7   4  -2  132.09   19.30
   7   4  -2  141.69    8.40
   7   4  -2  145.29    8.20
  -7   4   2  133.59    9.80
  -7   4   2  142.99    8.60
   7   4  -2  141.09   10.30
   7   4  -2  141.59    9.30
  -7   4   2  139.09    8.50
  -6  -4   2   83.49    4.80
  -6  -4   2   83.39    7.20
  -6  -4   2   83.19    5.60
   6  -4  -2   86.49   12.30
  -6  -4   2   85.49    5.20
   6  -4  -2   81.69    6.50
   6   4  -2   48.80    5.10
   6   4  -2   86.29    4.80
   6   4  -2   74.09   13.60
  -6   4   2   77.49    5.00
   6   4  -2   91.79    5.60
  -6   4   2   80.59    6.40
   5  -4  -2   70.59    8.00
  -5  -4   2   59.99    3.70
  -5  -4   2   62.99    5.60
  -5  -4   2   61.19    4.10
   5   4  -2   63.19    3.80
   5   4  -2   61.09    3.90
   5   4  -2   66.59    4.30
   5   4  -2   57.29   10.60
  -5   4   2   63.79    4.60
  -5   4   2   57.99    4.00
  -4  -4   2   15.30    2.50
  -4  -4   2   14.30    1.60
   4  -4  -2   14.40    1.50
  -4  -4   2   14.90    1.40
   4  -4  -2   15.00    3.90
   4   4  -2   14.80    1.20
   4   4  -2   11.50    5.00
   4   4  -2   17.40    4.20
  -4   4   2   13.90    1.20
  -4   4   2   16.70    2.00
   4   4  -2   16.40    1.50
  -3  -4   2  100.39    6.20
   3  -4  -2  101.99    6.40
  -3  -4   2   97.39    6.30
   3  -4  -2  104.89   10.00
  -3   4   2   99.59    7.50
   3   4  -2  104.89    6.20
  -3   4   2   94.69    6.00
   3   4  -2  101.89    9.10
   3   4  -2  110.69   11.70
   2  -4  -2   20.40    4.50
  -2  -4   2   18.30    2.30
   2  -4  -2   19.90    1.80
  -2  -4   2   17.90    1.60
  -2   4   2   15.70    1.30
   2   4  -2   18.10    3.20
   2   4  -2   16.80    1.30
  -2   4   2   17.80    4.50
   2   4  -2   20.00    5.10
   1  -4  -2  122.99    7.30
   1   4  -2  121.29    9.00
  -1   4   2  102.69   11.90
   1   4  -2  118.39   11.00
   1   4  -2  114.09    6.80
  -1   4   2  112.69    6.80
   0  -4  -2  198.58   11.60
   0   4  -2  174.38   14.40
   0   4   2  177.78   17.60
   0   4  -2  205.58   12.90
   0   4   2  197.28   11.10
  -1  -4  -2  108.19    6.70
  -1  -4  -2  106.29    6.60
   1   4   2  102.79    6.30
   1   4   2  101.39   12.80
  -2  -4  -2   18.60    1.70
  -2  -4  -2   18.20    1.80
   2  -4   2   21.60    2.30
   2   4   2   14.00    6.40
   2   4   2   16.50    1.20
   2   4   2   17.40    1.70
  -3  -4  -2   24.50    3.40
  -3  -4  -2   28.30    2.30
  -3  -4  -2   28.60    2.20
  -3  -4  -2   34.50    2.50
   3   4   2   27.80    1.90
  -3   4  -2   27.50    2.70
   3   4   2   28.60    8.60
   3   4   2   26.80    1.80
   3   4   2   27.60    2.10
  -4  -4  -2   52.89    5.30
   4  -4   2   42.10    3.70
  -4  -4  -2   49.90    3.10
  -4  -4  -2   52.89    3.60
  -4  -4  -2   56.49    3.90
   4   4   2   51.79    3.40
   4   4   2   51.29    3.10
   4   4   2   54.19    3.30
   4   4   2   47.90    3.10
   4   4   2   45.00   11.50
  -4   4  -2   48.10    4.00
  -5  -4  -2   56.39    4.20
   5  -4   2   58.99    4.00
  -5  -4  -2   52.99    5.80
  -5  -4  -2   56.09    3.90
   5   4   2   57.09    3.60
   5   4   2   54.49    3.80
   5   4   2   56.59    3.40
   5   4   2   34.80   12.60
  -6  -4  -2  123.29    7.20
  -6  -4  -2  128.49    7.70
  -6  -4  -2  133.09    8.10
  -6  -4  -2  115.79   10.10
   6   4   2  121.89    7.20
   6   4   2  111.79   21.80
   6   4   2  123.59    7.80
   6   4   2  124.89    7.40
   6   4   2  119.39    7.20
  -7  -4  -2    3.90    0.90
  -7  -4  -2    5.40    0.60
   7   4   2    5.40    1.70
   7   4   2    4.80    0.80
   7   4   2    5.00    0.60
  -8  -4  -2   30.10    2.20
  -8  -4  -2   27.60    1.80
   8   4   2   29.60    1.80
   8   4   2   22.30    3.20
   8   4   2   28.50    2.10
   8   4   2   30.50    2.10
  -9  -4  -2    5.20    0.50
  -9  -4  -2    5.70    0.70
   9   4   2    4.70    0.50
   9   4   2    4.80    0.70
   9   4   2    2.40    1.50
  -9   4  -2    6.30    0.90
   9   4   2    5.80    0.80
  -9  -5   2    1.30    0.40
  -9  -5   2    1.30    0.20
   9   5  -2    0.90    0.20
   9   5  -2    1.70    0.50
   9   5  -2    0.40    1.00
  -8  -5   2    4.10    0.50
  -8  -5   2    3.10    0.60
   8   5  -2    2.60    1.50
   8   5  -2    3.70    0.50
   8   5  -2    3.30    0.60
  -8   5   2    3.70    0.60
   8   5  -2    1.60    1.10
  -7  -5   2   29.70    2.10
  -7  -5   2   25.20    2.50
  -7  -5   2   27.50    3.10
  -7  -5   2   26.20    1.80
  -7   5   2   30.00    2.00
   7   5  -2   28.10    2.80
   7   5  -2   27.90    2.00
  -7   5   2   25.80    2.20
   7   5  -2   28.30    1.80
   7   5  -2   27.10    3.30
  -6  -5   2  150.48    9.10
  -6  -5   2  135.69    8.60
  -6  -5   2  134.29    8.30
   6   5  -2  142.69    8.30
   6   5  -2  159.48    9.20
   6   5  -2  135.99    8.40
  -6   5   2  147.49    8.50
  -5  -5   2   45.70    3.30
  -5  -5   2   48.30    2.90
  -5  -5   2   46.20    3.90
   5   5  -2   47.80    3.10
   5   5  -2   50.29    3.60
   5   5  -2   49.90    3.00
  -5   5   2   48.80    3.10
  -4  -5   2   97.29    6.90
  -4  -5   2   95.69    6.10
  -4  -5   2   90.29    5.70
  -4  -5   2   96.79    6.40
   4   5  -2   92.59   17.90
   4   5  -2   99.59    5.90
   4   5  -2  104.89    5.80
   4   5  -2  111.89    6.40
  -3  -5   2   95.19    6.80
   3  -5  -2  120.29    7.40
   3  -5  -2   94.59    6.10
  -3  -5   2   96.19    6.00
   3   5  -2   92.29   14.30
  -3   5   2   93.49    5.80
   3   5  -2   93.99    5.70
   3   5  -2   93.59    6.00
   3   5  -2   91.79    5.70
   2  -5  -2   10.10    1.80
  -2  -5   2   10.80    1.10
   2  -5  -2   10.90    1.30
  -2  -5   2   13.20    1.80
  -2   5   2   10.30    1.00
   2   5  -2   11.20    1.10
  -2   5   2   13.30    3.20
   2   5  -2    8.50    6.30
  -1  -5   2  103.19    6.40
  -1  -5   2  109.69    7.40
   1  -5  -2  115.59    6.90
  -1   5   2  101.69   12.00
  -1   5   2  110.19    6.40
   1   5  -2   83.29   13.30
   1   5  -2  107.59    6.40
   0  -5   2   61.29    3.80
   0  -5   2   63.79    4.80
   0  -5  -2   66.39    4.40
   0   5   2   57.59    3.70
   0   5  -2   60.19    3.80
   0   5   2   64.89    4.00
   0   5   2   55.59   11.20
  -1  -5  -2  229.58   12.70
  -1  -5  -2  203.98   12.20
   1  -5   2  221.98   13.20
   1   5   2  195.48   11.90
   1   5   2  207.28   11.90
   1   5   2  219.88   12.20
   1   5   2  173.08   20.50
   2  -5   2  219.78   13.80
  -2  -5  -2  226.88   13.20
   2   5   2  200.78   12.50
   2   5   2  195.88   22.80
   2   5   2  245.48   12.90
   2   5   2  219.58   12.90
  -3  -5  -2   77.19    5.30
   3  -5   2   73.29    5.40
  -3  -5  -2   81.29    4.90
   3   5   2   53.09   16.10
   3   5   2   76.29    4.50
   3   5   2   70.39    4.50
   3   5   2   80.29    4.90
   4  -5   2  122.09    8.30
  -4  -5  -2  140.29    8.20
  -4  -5  -2  128.59    9.00
   4   5   2  141.99    8.30
   4   5   2  128.19    7.80
   4   5   2  139.69    7.80
   4   5   2  137.69    8.00
  -5  -5  -2    2.00    1.00
  -5  -5  -2    3.20    0.80
   5  -5   2    2.00    0.60
   5   5   2    3.00    0.60
   5   5   2    3.00    0.50
   5   5   2    2.10    0.40
   5   5   2    1.60    0.60
  -6  -5  -2   79.69    5.20
  -6  -5  -2   82.19    6.10
   6   5   2   82.19    5.00
   6   5   2   73.19    5.30
   6   5   2   85.29    5.20
   6   5   2   83.79    4.80
  -7  -5  -2   20.60    1.30
  -7  -5  -2   20.20    1.70
   7   5   2   22.40    1.40
   7   5   2   16.60    2.50
   7   5   2   21.80    1.50
  -8  -5  -2    3.10    0.50
  -8  -5  -2    2.00    0.80
   8   5   2    3.00    0.50
   8   5   2    2.10    1.10
   8   5   2    3.50    0.40
  -7  -6   2   11.70    1.30
  -7  -6   2   12.80    1.00
   7   6  -2   10.70    1.80
   7   6  -2   13.30    0.90
   7   6  -2    8.70    1.90
  -6  -6   2   22.90    1.60
  -6  -6   2   22.00    2.00
  -6   6   2   19.50    1.50
   6   6  -2   20.40    2.10
   6   6  -2   19.90    2.60
   6   6  -2   21.10    1.40
  -5  -6   2  182.88   10.50
  -5  -6   2  180.68   11.10
  -5   6   2  172.68   10.50
   5   6  -2  182.08   11.00
   5   6  -2  185.98   10.30
  -4  -6   2   23.90    2.40
  -4  -6   2   23.70    1.80
   4   6  -2   24.90    1.60
   4   6  -2   25.90    2.40
  -4   6   2   24.30    1.80
  -3  -6   2   36.10    3.20
  -3  -6   2   36.40    2.50
   3  -6  -2   36.50    3.10
   3   6  -2   40.20    2.30
   3   6  -2   39.30    2.80
  -2  -6   2  261.17   15.30
  -2  -6   2  227.68   13.60
   2  -6  -2  225.78   14.30
  -2   6   2  234.38   13.70
   2   6  -2  238.48   13.90
  -1  -6   2   56.29    3.50
  -1  -6   2   61.09    4.60
  -1   6   2   59.09    3.80
   1   6  -2   58.89    3.80
   0  -6   2   80.19    5.90
   0  -6  -2   84.59    5.90
   0   6   2   88.09    5.20
   0   6   2   79.69    4.80
   0   6  -2   83.19    5.10
   1  -6   2   30.00    4.20
   1   6   2   51.99    3.20
   1   6   2   51.29    2.80
  -2  -6  -2   19.00    1.50
   2  -6   2   16.40    2.00
   2   6   2   18.90    1.30
   2   6   2   19.40    1.60
   3  -6   2   25.30    2.40
  -3  -6  -2   26.40    2.00
   3   6   2   27.90    1.90
   3   6   2   29.10    2.30
   3   6   2   28.40    1.80
  -4  -6  -2   39.50    2.70
   4  -6   2   40.10    2.80
   4   6   2   42.20    2.50
   4   6   2   39.50    2.90
   4   6   2   40.50    2.60
  -5  -6  -2   40.60    2.60
  -5  -6  -2   42.50    3.30
   5   6   2   40.40    2.40
   5   6   2   32.90    2.70
   5   6   2   38.50    2.80
  -6  -6  -2   27.60    1.80
  -6  -6  -2   27.60    2.30
   6   6   2   21.70    2.50
   6   6   2   27.50    1.70
   6   6   2   27.40    1.80
  -4  -7   2    9.70    1.20
  -4  -7   2    8.70    0.80
   4   7  -2    7.40    1.50
   4   7  -2    7.80    1.10
  -3  -7   2   23.30    2.10
  -3   7   2   24.80    2.00
   3   7  -2   25.50    2.30
   3   7  -2   27.60    2.10
  -2  -7   2   13.30    1.60
   2  -7  -2   10.90    1.50
   2   7  -2   17.90    1.40
  -2   7   2   13.00    1.10
   1  -7  -2   27.90    2.40
  -1  -7   2   30.70    2.50
   1   7  -2   31.70    2.20
  -1   7   2   28.90    2.10
   0  -7  -2    5.30    1.10
   0  -7   2    5.10    1.00
   0   7  -2    4.60    0.70
   0   7   2    4.50    0.90
   0   7   2    4.50    0.60
   1  -7   2    8.30    1.10
  -1  -7  -2   10.30    1.30
   1   7   2    7.30    1.10
   1   7   2    8.40    0.70
   1   7   2    8.90    0.60
  -2  -7  -2   10.40    1.40
   2  -7   2   10.00    1.10
   2   7   2    8.80    0.80
   2   7   2   10.10    1.00
   2   7   2   10.40    0.70
  -3  -7  -2    3.20    0.80
   3   7   2    2.20    0.30
   3   7   2    1.90    0.40
   3   7   2    2.00    0.50
 -12   0   3    8.10    0.70
 -12   0   3    8.10    0.80
  12   0  -3    6.80    2.30
  11   0  -3   54.29    6.40
  11   0  -3   48.60    4.20
 -11   0   3   52.59    3.20
 -11   0   3   60.19    4.30
 -11   0   3   47.60    3.80
  11   0  -3   53.39    3.80
  10   0  -3    0.50    0.40
 -10   0   3    0.30    0.70
 -10   0   3    0.30    0.20
  10   0  -3    0.10    1.30
  10   0  -3   -0.20    0.50
 -10   0   3   -0.20    0.30
   9   0  -3  300.97   28.10
   9   0  -3  450.15   27.40
  -9   0   3  538.55   27.20
  -9   0   3  504.65   26.70
  -9   0   3  490.25   28.80
  -9   0   3  540.05   27.50
  -8   0   3    8.70    1.00
   8   0  -3    2.20    7.70
   8   0  -3    6.20    1.00
   8   0  -3    7.10    1.30
   8   0  -3    7.10    2.70
   8   0  -3    6.80    1.10
  -8   0   3    7.00    1.40
  -8   0   3    7.20    1.70
  -8   0   3    7.30    1.10
  -8   0   3    6.70    0.90
  -7   0   3 1069.79   58.39
  -7   0   3  994.70   58.79
  -7   0   3  968.80   59.59
  -7   0   3 1115.89   59.29
  -6   0   3 1349.16   86.09
  -6   0   3 1582.24   85.19
  -6   0   3 1620.04   85.79
  -5   0   3   26.00    2.10
  -5   0   3   22.40    2.30
   5   0  -3   20.90    3.40
  -5   0   3   25.40    1.70
   4   0  -3    1.00    1.00
  -4   0   3    0.90    0.40
  -4   0   3    0.70    0.20
  -4   0   3    0.90    0.40
  -3   0   3   51.89    3.30
   3   0  -3   47.30    4.00
  -3   0   3   45.90    3.40
  -2   0   3 9999.00  567.74
   2   0  -3 9691.33  571.54
   1   0  -3 1520.45   85.69
  -1   0   3 1519.35   86.09
   0   0  -3  100.29    6.00
   0   0   3   97.89    7.70
   0   0  -3  105.89    6.30
   1   0   3  990.90   65.09
  -1   0  -3 1162.38   62.79
  -1   0  -3 1187.48   62.69
  -2   0  -3  799.62   42.70
  -2   0  -3  792.62   42.70
  -2   0  -3  767.92   42.40
   2   0   3  653.53   45.70
  -3   0  -3  132.79    7.80
   3   0   3  105.89   11.20
  -3   0  -3  129.49    7.90
  -3   0  -3  127.39    7.40
  -3   0  -3  133.29    7.80
  -4   0  -3   34.50    2.70
   4   0   3   22.70    6.10
  -4   0  -3   29.40    2.50
  -4   0  -3   30.20    2.40
  -4   0  -3   29.90    2.00
  -5   0  -3   50.89    3.30
  -5   0  -3   51.09    4.40
  -5   0  -3   50.59    3.80
  -5   0  -3   50.29    3.90
   5   0   3   39.50    9.30
  -5   0  -3   50.39    4.00
  -6   0  -3  609.04   34.10
   6   0   3  499.55   33.40
  -6   0  -3  585.34   34.40
   6   0   3  560.94   33.40
  -6   0  -3  627.14   34.10
  -6   0  -3  572.64   34.30
  -6   0  -3  602.14   33.40
  -6   0  -3  641.34   35.80
   7   0   3  104.09    6.50
  -7   0  -3  105.09    7.50
  -7   0  -3   96.19    7.10
  -7   0  -3  101.29    6.50
  -7   0  -3   99.89    7.10
   7   0   3   98.49    6.20
  -7   0  -3  100.19    7.10
  -7   0  -3  104.09    7.40
  -8   0  -3  217.28   13.20
   8   0   3  226.48   13.40
  -8   0  -3  212.08   13.10
  -8   0  -3  222.78   13.80
   8   0   3  206.18   12.90
  -8   0  -3  211.08   14.30
  -8   0  -3  255.97   16.00
  -9   0  -3   38.20    3.00
  -9   0  -3   43.80    3.50
   9   0   3   46.00    3.50
  -9   0  -3   44.40    3.60
  -9   0  -3   51.59    3.00
 -10   0  -3    7.80    1.10
 -10   0  -3    8.40    0.70
  10   0   3    8.20    1.10
  10   0   3    9.50    1.50
  11   0   3    7.90    1.20
  11   0   3   12.60    1.10
 -11   0  -3   11.20    0.80
 -11   0  -3    9.50    1.00
  12  -1  -3    8.30    2.10
 -12  -1   3    8.30    0.60
  12  -1  -3    6.80    1.30
 -12   1   3    9.70    1.10
  12   1  -3    9.00    1.30
  12   1  -3    6.90    2.20
 -11  -1   3   39.20    2.40
  11  -1  -3   40.10    5.40
 -11  -1   3   39.60    3.10
  11  -1  -3   39.30    3.50
 -11  -1   3   35.90    2.60
  11  -1  -3   37.10    3.00
 -11   1   3   42.50    3.00
  11   1  -3   39.10    2.90
  11   1  -3   37.50    5.40
 -11   1   3   40.80    3.00
  11   1  -3   38.80    3.30
 -10  -1   3  174.58   11.10
 -10  -1   3  187.08   11.40
  10  -1  -3  182.88   11.40
 -10  -1   3  191.78   10.70
  10  -1  -3  183.38   12.00
  10  -1  -3  197.68   15.50
  10   1  -3  189.78   15.50
  10   1  -3  187.28   11.20
  10   1  -3  182.58   11.20
 -10   1   3  183.88   11.10
  10   1  -3  185.88   11.70
 -10   1   3  192.48   11.40
   9  -1  -3   72.89    8.30
   9  -1  -3   65.59    5.20
   9  -1  -3   63.99    4.60
  -9  -1   3   69.19    4.10
  -9  -1   3   67.99    4.60
  -9  -1   3   68.29    5.80
  -9  -1   3   63.49    5.80
  -9  -1   3   64.59    4.50
   9   1  -3   67.39    4.80
   9   1  -3   72.69    8.10
  -9   1   3   62.69    5.30
  -9   1   3   70.49    4.40
  -9   1   3   64.59    5.70
   9   1  -3   59.29    4.70
  -9   1   3   70.49    4.80
  -8  -1   3  253.27   16.30
  -8  -1   3  262.47   14.90
  -8  -1   3  246.78   15.30
   8  -1  -3  232.38   15.30
  -8  -1   3  250.07   15.30
   8  -1  -3  254.37   15.90
  -8  -1   3  254.87   16.60
   8  -1  -3  239.48   19.40
   8   1  -3  258.37   23.60
  -8   1   3  272.97   16.40
   8   1  -3  263.27   14.90
   8   1  -3  234.88   15.40
  -8   1   3  360.86   19.70
  -8   1   3  267.57   15.20
  -8   1   3  271.37   15.60
   8   1  -3  246.28   15.10
   8   1  -3  274.67   18.90
   7  -1  -3   85.59   11.70
  -7  -1   3   96.99    7.20
  -7  -1   3   96.99    6.30
  -7  -1   3   97.29    6.90
   7  -1  -3   87.29    6.60
  -7  -1   3   98.89    6.10
  -7   1   3  101.39    6.80
   7   1  -3   96.19   10.80
  -7   1   3   95.49    7.10
  -7   1   3  104.89    6.10
  -7   1   3  102.69    6.40
   7   1  -3  116.89    9.00
  -6  -1   3    3.10    0.60
  -6  -1   3    3.40    1.00
  -6  -1   3    5.00    1.20
  -6  -1   3    4.60    1.00
  -6   1   3    3.40    0.70
  -6   1   3    3.30    0.60
   6   1  -3    2.10    2.10
  -6   1   3    4.60    1.50
  -5  -1   3  567.34   31.90
  -5  -1   3  555.34   32.30
  -5  -1   3  558.64   31.40
  -5   1   3  564.34   32.10
  -5   1   3  523.05   32.10
   5   1  -3  565.94   34.00
  -4  -1   3  230.38   14.00
   4  -1  -3  214.68   14.60
  -4  -1   3  251.97   14.70
  -4  -1   3  234.08   13.30
  -4   1   3  234.28   14.00
   3  -1  -3 1509.25   84.49
  -3  -1   3 1503.05   84.09
  -3  -1   3 1475.75   83.69
  -3  -1   3 1421.06   83.39
   3   1  -3 1518.05   84.89
  -3   1   3 1517.25   84.59
   2   1  -3 7259.87  406.56
  -1  -1   3  570.44   32.80
  -1   1   3  564.54   35.50
   1   1  -3  600.14   33.20
   0  -1   3 2605.34  141.29
   0   1  -3 2679.33  141.39
   0   1   3 2279.97  144.79
  -1  -1  -3  206.78   11.90
  -1  -1  -3  199.38   11.40
  -1  -1  -3  204.28   11.90
   1   1   3  175.58   15.20
  -1   1  -3  199.88   11.30
  -1   1  -3  200.78   11.40
  -2  -1  -3  260.27   15.10
  -2  -1  -3  265.57   15.60
  -2  -1  -3  262.27   15.50
  -2   1  -3  274.97   15.20
   2   1   3  260.37   20.20
  -2   1  -3  270.57   15.10
  -2   1  -3  256.67   14.90
  -3  -1  -3  957.80   54.49
  -3  -1  -3  942.91   53.89
  -3  -1  -3  980.20   54.39
  -3  -1  -3  941.01   54.49
  -3   1  -3  953.40   53.69
  -3   1  -3  991.40   54.09
   3   1   3  927.91   60.39
  -3   1  -3  963.30   54.09
  -4  -1  -3  195.78   11.40
  -4  -1  -3  192.98   12.10
  -4  -1  -3  196.68   12.00
  -4  -1  -3  191.48   11.90
  -4  -1  -3  193.38   12.10
   4   1   3  182.68   17.80
  -4   1  -3  198.38   11.80
  -4   1  -3  196.48   11.20
  -4   1  -3  202.58   11.60
  -5  -1  -3  191.38   12.10
  -5  -1  -3  189.38   12.00
  -5  -1  -3  185.68   11.80
  -5  -1  -3  196.28   11.90
  -5  -1  -3  195.58   11.20
  -5   1  -3  190.18   11.00
  -5   1  -3  191.28   11.60
  -5   1  -3  190.98   11.70
  -5   1  -3  185.18   12.30
   5   1   3  167.28   18.90
  -6  -1  -3  291.17   18.10
   6  -1   3  315.37   17.60
  -6  -1  -3  305.77   17.30
  -6  -1  -3  300.37   18.40
  -6  -1  -3  291.37   18.30
  -6  -1  -3  293.67   17.90
  -6   1  -3  303.07   17.00
  -6   1  -3  291.97   17.80
   6   1   3  219.48   35.10
  -6   1  -3  295.57   18.00
   6   1   3  273.77   16.90
  -6   1  -3  308.07   17.80
  -6   1  -3  304.87   17.70
  -7  -1  -3  284.07   18.20
  -7  -1  -3  297.17   18.00
  -7  -1  -3  280.97   16.90
  -7  -1  -3  293.47   16.90
   7  -1   3  258.87   16.60
  -7  -1  -3  285.17   17.50
   7  -1   3  305.67   17.20
  -7   1  -3  297.07   17.60
   7   1   3  276.37   16.50
  -7   1  -3  293.87   17.70
  -7   1  -3  293.07   17.40
  -7   1  -3  272.17   16.70
   7   1   3  288.67   16.70
  -8  -1  -3  381.76   22.00
   8  -1   3  393.36   22.20
  -8  -1  -3  365.96   21.80
  -8  -1  -3  369.16   22.30
   8  -1   3  372.66   21.70
  -8  -1  -3  371.06   23.50
  -8  -1  -3  357.16   23.10
  -8   1  -3  361.06   23.00
  -8   1  -3  377.56   21.70
  -8   1  -3  394.46   22.50
  -8   1  -3  365.96   22.60
   8   1   3  386.96   21.80
   8   1   3  379.06   21.60
  -9  -1  -3   53.69    4.00
  -9  -1  -3   52.59    3.60
   9  -1   3   55.69    4.10
  -9  -1  -3   54.19    3.40
   9  -1   3   54.39    3.80
  -9  -1  -3   53.89    4.00
  -9   1  -3   54.39    4.20
   9   1   3   50.79    3.60
   9   1   3   54.79    3.90
  10  -1   3   11.30    1.20
 -10  -1  -3   10.30    0.90
 -10  -1  -3   10.50    1.20
 -10  -1  -3    9.50    1.00
  10  -1   3    8.70    1.40
  10   1   3   10.40    1.40
 -10   1  -3   10.50    1.30
 -10   1  -3   10.40    0.80
  10   1   3   10.90    1.10
 -12  -2   3    3.50    0.40
  12  -2  -3    3.10    0.90
  12  -2  -3    3.40    1.90
  12   2  -3    3.60    0.80
  12   2  -3    1.80    1.30
 -12   2   3    3.90    0.50
  11  -2  -3  133.69   10.80
 -11  -2   3  130.99    7.50
  11  -2  -3  127.79    8.70
 -11   2   3  132.29    7.90
  11   2  -3  124.39   11.20
  11   2  -3  126.19    8.20
  10  -2  -3    5.60    1.80
  10  -2  -3    8.30    2.80
 -10  -2   3   11.50    1.60
 -10  -2   3    6.90    0.90
 -10   2   3    8.30    1.10
  10   2  -3   10.50    1.20
 -10   2   3    8.40    1.10
  10   2  -3    6.90    0.90
  10   2  -3    7.40    1.50
  -9  -2   3   37.80    2.70
  -9  -2   3   37.70    4.70
   9  -2  -3   43.40    6.20
  -9  -2   3   43.10    4.60
  -9  -2   3   38.40    3.20
   9  -2  -3   38.30    3.70
  -9  -2   3   42.40    2.60
   9  -2  -3   40.50    3.20
  -9   2   3   35.50    3.80
   9   2  -3   40.40    2.60
  -9   2   3   37.60    4.00
  -9   2   3   39.80    2.90
   9   2  -3   37.20    3.10
  -9   2   3   40.30    3.00
   9   2  -3   36.80    5.50
   9   2  -3   38.00    2.80
   9   2  -3   25.60   12.40
   8  -2  -3  190.48   12.30
  -8  -2   3  191.58   12.90
  -8  -2   3  182.78   11.10
   8  -2  -3  189.08   16.00
  -8  -2   3  198.38   11.60
  -8  -2   3  168.68   11.10
   8  -2  -3  183.78   11.50
  -8  -2   3  195.88   10.90
  -8  -2   3  183.18   12.70
  -8   2   3  178.68   12.10
  -8   2   3  193.18   12.50
   8   2  -3  190.98   10.90
   8   2  -3  176.68   19.90
   8   2  -3  203.48   14.40
  -8   2   3  191.48   11.50
  -8   2   3  199.58   11.20
   8   2  -3  180.98   11.30
  -7  -2   3   78.69    4.70
  -7  -2   3   78.39    5.20
  -7  -2   3   69.19    4.80
  -7  -2   3   76.49    5.00
  -7  -2   3   75.29    6.10
  -7  -2   3   79.49    6.20
   7  -2  -3   76.79    5.80
   7  -2  -3   71.39    5.10
   7  -2  -3   64.29    8.30
  -7   2   3   82.49    5.90
  -7   2   3   87.19    5.60
   7   2  -3   81.29    5.20
   7   2  -3   76.19    6.20
  -7   2   3   79.29    6.00
   7   2  -3   77.99    4.60
   7   2  -3   64.39    9.30
   7   2  -3   89.39    7.10
   7   2  -3   81.19   11.40
  -7   2   3   78.79    5.00
  -6  -2   3   51.49    4.40
  -6  -2   3   51.29    3.70
  -6  -2   3   56.79    4.70
  -6   2   3   52.79    4.30
   6   2  -3   56.89    4.20
  -6   2   3   55.99    3.70
   6   2  -3   52.89    6.70
  -6   2   3   52.29    4.30
  -5  -2   3  121.99    8.10
  -5  -2   3  121.59    8.00
  -5  -2   3  122.69    7.30
  -5   2   3  122.09    7.90
   5   2  -3  121.79    7.50
  -5   2   3  109.19    7.70
   5   2  -3  123.59    9.80
  -4  -2   3  507.05   29.00
  -4  -2   3  494.55   29.20
  -4  -2   3  488.15   28.50
  -4   2   3  509.15   29.30
   4   2  -3  513.45   30.80
  -3  -2   3    5.80    1.10
  -3  -2   3    6.10    0.90
  -3  -2   3    9.00    0.80
   3   2  -3    7.20    1.60
  -3   2   3    7.30    1.80
  -2  -2   3  574.64   32.40
  -2  -2   3  558.64   32.20
  -2  -2   3  561.24   32.60
  -2   2   3  586.64   35.60
   2   2  -3  579.74   33.40
   1  -2  -3  221.88   13.70
  -1  -2   3  221.08   12.80
  -1   2   3  218.08   17.10
   1   2  -3  237.88   13.60
   0  -2  -3  755.62   40.50
   0  -2  -3  715.23   39.70
   0  -2  -3  683.63   40.40
   0   2   3  643.94   44.70
   0   2  -3  714.33   40.00
  -1  -2  -3 1545.75   83.29
  -1  -2  -3 1463.15   83.19
  -1  -2  -3 1548.25   82.49
  -1   2  -3 1132.39   83.89
  -1   2  -3 1518.15   82.29
   1   2   3 1516.25   89.09
  -1   2  -3 1558.44   82.39
  -2  -2  -3  726.43   40.10
  -2  -2  -3  743.03   41.00
  -2  -2  -3  721.53   40.80
  -2   2  -3  727.63   39.90
  -2   2  -3  678.43   41.70
  -2   2  -3  692.73   40.00
  -2   2  -3  695.13   39.80
   2   2   3  685.73   46.90
  -3  -2  -3  487.45   27.80
  -3  -2  -3  480.45   28.50
  -3  -2  -3  488.45   28.70
  -3   2  -3  495.45   27.80
  -3   2  -3  486.05   27.40
   3   2   3  485.05   35.70
  -4  -2  -3  206.58   12.90
  -4  -2  -3  196.28   12.50
  -4  -2  -3  206.28   12.30
  -4  -2  -3  205.98   11.90
   4   2   3  201.08   26.90
  -4   2  -3  203.78   11.50
  -4   2  -3  201.68   11.90
   4   2   3  183.98   11.60
  -5  -2  -3  412.26   25.30
  -5  -2  -3  429.46   25.70
  -5  -2  -3  434.46   24.50
  -5  -2  -3  436.16   24.50
  -5  -2  -3  433.16   24.90
   5   2   3  409.96   24.00
   5   2   3  391.06   34.30
  -5   2  -3  426.36   24.60
   5   2   3  442.76   24.10
   5   2   3  413.86   23.90
  -6  -2  -3    0.10    0.50
   6  -2   3    1.00    0.60
  -6  -2  -3    0.60    0.50
  -6  -2  -3    1.50    1.10
  -6  -2  -3    0.80    1.10
  -6  -2  -3    0.50    0.60
   6   2   3    0.20    0.20
  -6   2  -3    1.50    0.70
   6   2   3    0.30    0.30
  -6   2  -3    0.80    0.40
   6   2   3    0.60    0.40
  -6   2  -3    0.90    0.80
  -6   2  -3   -0.20    0.60
   6   2   3   -8.90    8.50
   6   2   3    0.90    1.20
  -7  -2  -3  341.77   21.00
  -7  -2  -3  361.16   20.90
  -7  -2  -3  368.36   20.80
   7  -2   3  336.07   20.70
   7   2   3  356.36   20.40
  -7   2  -3  358.06   20.40
   7   2   3  350.96   20.30
  -7   2  -3  344.77   21.40
   7   2   3  352.76   20.10
   7   2   3  356.96   50.09
  -7   2  -3  370.36   21.30
  -7   2  -3  367.76   21.10
   8  -2   3   86.89    6.00
  -8  -2  -3   82.69    5.40
  -8  -2  -3   86.39    5.00
   8  -2   3   86.99    5.50
  -8  -2  -3   84.19    5.70
  -8  -2  -3   80.39    5.60
   8   2   3   65.59   10.00
  -8   2  -3   84.69    5.90
   8   2   3   76.09    4.90
   8   2   3   88.59    5.30
   8   2   3   84.69    5.20
  -9  -2  -3    8.80    0.80
  -9  -2  -3    8.60    1.00
  -9  -2  -3    7.40    1.20
   9  -2   3    8.10    1.70
   9  -2   3   10.80    1.20
  -9  -2  -3    7.30    1.30
   9   2   3   11.00    1.20
  -9   2  -3    9.70    0.80
   9   2   3   10.50    1.00
  -9   2  -3    9.10    1.30
  10  -2   3    2.20    0.60
 -10  -2  -3    2.40    0.50
 -10  -2  -3    1.50    0.30
  10   2   3    1.70    0.60
 -10   2  -3    1.70    0.50
  10   2   3    2.40    0.50
  11  -3  -3    4.70    1.10
 -11  -3   3    7.10    0.70
 -11  -3   3    6.20    0.60
  11  -3  -3    6.40    2.30
  11   3  -3    4.60    1.80
  11   3  -3    7.70    1.00
 -11   3   3    7.10    0.80
  11   3  -3    6.20    0.80
  10  -3  -3   31.40    3.30
  10  -3  -3   37.60    5.00
 -10  -3   3   35.10    2.40
 -10  -3   3   35.00    3.30
 -10  -3   3   36.90    2.20
  10   3  -3   35.30    2.80
  10   3  -3   30.70    4.80
 -10   3   3   31.40    2.60
 -10   3   3   37.20    2.60
  10   3  -3   35.20    2.30
   9  -3  -3  284.47   18.20
   9  -3  -3  309.97   21.70
  -9  -3   3  305.07   16.60
  -9  -3   3  291.27   16.80
  -9  -3   3  286.47   17.40
   9   3  -3  248.58   19.90
  -9   3   3  296.37   17.00
  -9   3   3  295.47   16.90
   9   3  -3  295.77   17.10
   8  -3  -3    1.90    0.90
  -8  -3   3    2.40    4.60
  -8  -3   3    2.60    1.00
  -8  -3   3    3.00    0.50
  -8  -3   3    2.80    2.20
  -8  -3   3    2.60    0.60
   8  -3  -3    4.70    2.30
  -8   3   3    1.90    1.60
   8   3  -3    3.80    0.80
  -8   3   3    3.40    0.60
   8   3  -3    3.00    0.50
   8   3  -3    1.40    1.40
   8   3  -3    3.10    1.70
  -8   3   3    4.70    2.40
  -8   3   3    3.10    0.80
   7  -3  -3  162.88   14.50
   7  -3  -3  165.18   11.00
  -7  -3   3  160.68   11.50
  -7  -3   3  156.08    9.70
  -7  -3   3  181.38   13.60
  -7  -3   3  161.58    9.40
  -7  -3   3  160.58   10.20
  -7   3   3  171.28   10.80
  -7   3   3  159.38   10.90
   7   3  -3  158.78    9.40
   7   3  -3  167.58   11.80
  -7   3   3  159.78    9.80
   7   3  -3  160.48   10.70
   7   3  -3  165.58   17.90
   7   3  -3  155.28    9.60
  -6  -3   3  224.38   13.60
  -6  -3   3  229.18   14.70
   6  -3  -3  229.68   14.40
  -6  -3   3  221.88   13.20
   6  -3  -3  211.58   17.70
  -6  -3   3  228.38   12.90
  -6  -3   3  225.18   14.50
   6   3  -3  214.48   17.40
   6   3  -3  236.28   14.70
  -6   3   3  227.28   14.10
   6   3  -3  243.18   13.80
   6   3  -3  231.48   20.50
   6   3  -3  205.98   13.00
   6   3  -3  214.78   12.80
  -6   3   3  235.38   13.50
  -6   3   3  225.68   14.50
   5  -3  -3  787.82   46.90
   5  -3  -3  745.83   51.29
  -5  -3   3  785.72   45.90
  -5  -3   3  801.52   47.00
  -5  -3   3  824.32   45.60
  -5  -3   3  808.02   47.00
  -5  -3   3  799.62   46.10
  -5   3   3  826.32   46.80
   5   3  -3  929.41   53.69
  -5   3   3  776.52   45.90
   5   3  -3  853.61   46.10
   5   3  -3  813.72   49.70
   4  -3  -3  136.39    8.20
  -4  -3   3  131.39    8.60
  -4  -3   3  127.09    8.70
  -4  -3   3  132.69    8.00
   4   3  -3  132.99   10.60
  -4   3   3  126.99    7.80
   4   3  -3  136.79    8.00
  -3  -3   3   43.60    3.20
   3  -3  -3   40.20    3.00
  -3  -3   3   36.40    2.60
   3   3  -3   38.30    2.60
   3   3  -3   41.00    5.30
  -3   3   3   37.20    4.20
  -2  -3   3  229.48   13.60
   2  -3  -3  235.28   13.90
  -2   3   3  237.98   17.70
   2   3  -3  241.98   15.30
   1  -3  -3  666.73   38.00
   1   3  -3  711.23   39.00
  -1   3   3  616.04   43.40
   0  -3  -3  118.59    7.50
   0  -3  -3  128.49    7.40
   0   3  -3  124.09    7.80
   0   3   3  120.09    7.10
   0   3   3  111.09   12.50
  -1  -3  -3   62.29    5.10
  -1  -3  -3   98.09    6.00
  -1  -3  -3   57.49    5.10
   1   3   3   47.70    8.60
  -1   3  -3   57.89    4.60
   1   3   3   97.69    4.70
  -2  -3  -3  252.57   15.10
  -2  -3  -3  267.57   16.20
  -2  -3  -3  271.17   15.10
   2   3   3  261.67   14.70
   2   3   3  249.08   22.60
  -2   3  -3  232.98   15.10
  -3  -3  -3  214.48   12.40
  -3  -3  -3  203.08   13.50
  -3  -3  -3  192.68   12.30
  -3   3  -3  215.68   11.90
  -3   3  -3  206.78   11.90
  -3   3  -3  207.28   12.30
   3   3   3  213.78   12.10
   3   3   3  206.48   20.90
  -4  -3  -3   37.60    2.80
  -4  -3  -3   33.10    2.60
  -4  -3  -3   35.60    3.70
  -4  -3  -3   30.50    2.60
   4  -3   3   30.70    3.60
  -4   3  -3   37.10    2.40
  -4   3  -3   35.90    2.70
  -4   3  -3   34.60    2.30
   4   3   3   32.30    2.90
   4   3   3   39.90   11.10
   4   3   3   36.00    2.50
   4   3   3   34.50    2.20
  -5  -3  -3   47.40    4.70
  -5  -3  -3   49.30    3.60
  -5  -3  -3   49.70    3.50
   5  -3   3   44.50    3.10
   5  -3   3   46.40    3.70
  -5  -3  -3   49.20    3.00
   5   3   3   46.10    2.90
  -5   3  -3   47.40    3.20
   5   3   3   46.90    3.30
  -5   3  -3   45.40    3.60
   5   3   3   49.00    3.10
   5   3   3   47.20    2.90
   5   3   3   16.60    7.70
  -6  -3  -3  210.18   12.40
  -6  -3  -3  220.08   13.00
  -6  -3  -3  211.38   13.10
   6   3   3  222.68   12.60
   6   3   3  200.48   26.30
   6   3   3  207.98   12.40
   6   3   3  222.58   12.30
  -6   3  -3  221.58   12.90
  -7  -3  -3  104.69    6.20
  -7  -3  -3   68.89    7.10
   7  -3   3  112.69    6.90
  -7  -3  -3  108.29    6.70
   7   3   3  111.59    6.40
  -7   3  -3  111.39    7.00
   7   3   3   95.49    7.80
   7   3   3  110.89    6.30
   7   3   3  105.39    6.10
  -8  -3  -3   44.40    3.60
  -8  -3  -3   47.00    2.90
   8  -3   3   54.29    3.50
  -8  -3  -3   50.19    3.40
   8   3   3   45.90    2.80
  -8   3  -3   47.40    3.50
   8   3   3   51.49    3.20
   8   3   3   32.00    4.50
   8   3   3   46.50    3.00
  -9  -3  -3   22.80    1.60
  -9  -3  -3   22.10    1.80
   9   3   3   27.10    1.90
   9   3   3   26.40    2.00
  -9   3  -3   24.70    2.10
 -10  -3  -3    6.60    0.50
 -10  -3  -3    7.30    0.80
  10   3   3    7.70    0.90
  10   3   3    6.80    0.70
 -10   3  -3    5.90    0.70
  10  -4  -3   38.60    4.40
 -10  -4   3   35.00    2.20
 -10  -4   3   32.20    2.00
 -10   4   3   33.40    2.20
  10   4  -3   32.20    2.40
  10   4  -3   24.80    3.90
  10   4  -3   32.60    2.10
  -9  -4   3   10.80    0.80
   9  -4  -3   10.00    2.80
  -9  -4   3   10.10    1.00
  -9   4   3   11.30    1.00
   9   4  -3    7.50    2.40
   9   4  -3   11.80    1.00
   9   4  -3   10.60    1.20
  -8  -4   3   84.99    5.40
   8  -4  -3   91.99    9.80
  -8  -4   3   90.79    6.10
  -8  -4   3  102.89    6.10
   8   4  -3   78.79    8.10
  -8   4   3   87.79    5.50
   8   4  -3   82.59    6.90
   8   4  -3   89.69    5.50
   8   4  -3   86.19    5.30
  -8   4   3   87.69    5.60
  -7  -4   3   42.40    3.60
  -7  -4   3   46.10    3.20
  -7  -4   3   43.30    2.80
   7  -4  -3   44.20    4.30
   7  -4  -3   46.90    6.50
  -7  -4   3   47.70    3.70
   7   4  -3   48.80    4.90
   7   4  -3   42.70    3.00
   7   4  -3   46.30    2.80
  -7   4   3   41.60    4.40
   7   4  -3   45.30    4.00
   7   4  -3   42.30   11.80
  -7   4   3   43.20    3.10
  -6  -4   3  209.68   12.80
   6  -4  -3  211.08   17.40
  -6  -4   3  203.68   12.00
  -6  -4   3  197.68   14.00
  -6  -4   3  208.08   12.40
  -6   4   3  197.78   13.80
   6   4  -3  213.98   12.00
  -6   4   3  196.48   12.20
   6   4  -3  201.08   21.00
   6   4  -3  222.68   14.00
  -6   4   3  219.18   13.20
   6   4  -3  220.98   12.40
   6   4  -3  217.08   12.90
  -5  -4   3  132.99    7.90
  -5  -4   3  143.29    8.30
  -5  -4   3  131.69    8.90
   5  -4  -3  134.59   12.80
  -5  -4   3  131.79    9.50
   5  -4  -3  134.39    8.30
  -5  -4   3  134.99    8.70
  -5   4   3  154.58   10.70
  -5   4   3  131.69    8.10
   5   4  -3  131.39    8.00
   5   4  -3  128.39   12.20
   5   4  -3  135.69    7.90
   5   4  -3  140.19   15.40
   5   4  -3  143.29    8.50
  -4  -4   3   61.09    3.70
  -4  -4   3   61.29    4.10
   4  -4  -3   61.49    7.60
  -4  -4   3   63.29    4.00
  -4  -4   3   60.29    4.60
   4  -4  -3   62.69    4.80
   4   4  -3   59.79    4.10
   4   4  -3   59.69    3.70
   4   4  -3   59.99    9.30
  -4   4   3   63.59    5.00
   4   4  -3   57.79    6.90
  -4   4   3   59.99    4.10
  -3  -4   3   81.89    5.30
   3  -4  -3   84.99    9.50
   3  -4  -3   82.99    5.50
  -3  -4   3   82.19    4.90
   3   4  -3   86.59    5.20
  -3   4   3   81.39    5.10
  -3   4   3   85.49    7.40
   3   4  -3   81.39    7.70
   3   4  -3   88.49   10.20
  -2  -4   3   63.89    4.10
   2  -4  -3   64.59    4.40
   2  -4  -3   62.59    7.50
  -2  -4   3   64.59    4.80
   2   4  -3   70.79    8.20
   2   4  -3   63.09    4.00
  -2   4   3   61.39    3.90
  -2   4   3   64.59    7.80
   2   4  -3   62.69    6.10
  -1  -4   3  224.38   13.50
   1  -4  -3  231.98   13.30
   1   4  -3  224.58   14.70
  -1   4   3  201.58   18.80
   1   4  -3  215.28   12.90
  -1   4   3  217.98   12.70
   1   4  -3  221.98   16.70
   0  -4  -3  345.87   19.50
   0  -4   3  325.97   19.70
   0   4   3  292.47   26.40
   0   4  -3  344.47   20.50
   0   4  -3  323.17   21.80
   0   4   3  345.67   19.00
  -1  -4  -3  431.26   24.50
   1  -4   3  439.96   25.00
   1   4   3  437.36   24.50
   1   4   3  407.46   23.80
   1   4   3  392.16   33.10
  -1   4  -3  419.66   24.90
  -2  -4  -3   28.90    2.40
   2  -4   3   24.50    2.60
  -2  -4  -3   26.20    2.30
   2   4   3   29.20    2.00
   2   4   3   17.80    6.90
   2   4   3   26.70    1.70
  -3  -4  -3   91.59    5.90
   3  -4   3   87.19    6.10
  -3  -4  -3   94.79    6.10
  -3  -4  -3   93.69    5.80
  -3  -4  -3   92.59    7.50
   3   4   3   94.69    5.60
   3   4   3   87.69    5.30
   3   4   3   70.69   13.80
   3   4   3   88.29    5.30
  -4  -4  -3  236.08   13.60
  -4  -4  -3  227.08   13.30
  -4  -4  -3  222.88   12.80
  -4  -4  -3  231.08   15.40
   4  -4   3  207.28   13.30
   4   4   3  241.38   13.00
   4   4   3  222.98   13.10
   4   4   3  219.08   12.80
   4   4   3  213.28   12.80
   4   4   3  206.58   24.60
  -5  -4  -3  105.09    6.40
   5  -4   3   98.89    6.10
  -5  -4  -3  103.09    5.90
  -5  -4  -3  106.09    6.70
  -5  -4  -3   77.39    9.80
   5   4   3  105.29    5.80
   5   4   3   99.09    5.90
   5   4   3  103.79    6.30
   5   4   3   28.90   14.30
   5   4   3  105.79    6.00
  -6  -4  -3   55.49    4.30
  -6  -4  -3   58.79    4.10
  -6  -4  -3   55.79    3.60
   6   4   3   61.39    3.60
   6   4   3   63.59    3.80
   6   4   3   55.59    4.10
   6   4   3   58.69    3.60
  -7  -4  -3   28.20    2.30
  -7  -4  -3   30.20    2.60
  -7  -4  -3   24.90    1.80
   7   4   3   31.10    2.10
   7   4   3   30.40    2.00
   7   4   3   25.20    3.20
   7   4   3   30.80    1.90
  -8  -4  -3   32.90    2.10
  -8  -4  -3   35.40    2.40
   8   4   3   37.80    2.40
   8   4   3   35.50    2.20
   8   4   3   33.10    2.20
   8   4   3   22.40    3.20
  -9  -4  -3   10.90    0.80
  -9  -4  -3   13.10    1.10
   9   4   3   11.80    0.90
   9   4   3   13.30    1.10
  -9  -5   3    2.60    0.30
  -9  -5   3    3.10    0.50
  -9   5   3    3.00    0.40
   9   5  -3    2.40    0.40
   9   5  -3    1.40    1.10
  -8  -5   3   41.40    2.70
  -8  -5   3   43.00    2.50
   8   5  -3   43.30    2.50
   8   5  -3   33.30    3.90
   8   5  -3   40.60    2.70
  -8   5   3   43.00    2.70
   8   5  -3   33.00    4.10
  -7  -5   3    0.60    0.30
  -7  -5   3   -0.80    0.70
  -7  -5   3    0.40    0.20
   7   5  -3    0.30    0.40
   7   5  -3    0.70    0.20
   7   5  -3    1.20    1.00
  -7   5   3    0.40    0.60
   7   5  -3    0.90    1.00
  -7   5   3    0.30    0.20
  -6  -5   3  120.89    8.00
  -6  -5   3  109.59    7.40
  -6  -5   3  111.79    7.10
  -6  -5   3  103.59    6.70
   6   5  -3  136.29    7.10
  -6   5   3  113.89    7.00
   6   5  -3  123.29    8.90
   6   5  -3  122.29    7.70
   6   5  -3  106.69    6.90
  -5  -5   3    4.10    1.20
  -5  -5   3    4.60    0.50
  -5  -5   3    4.70    1.10
  -5  -5   3    4.00    0.80
   5  -5  -3    6.50    1.10
   5   5  -3    6.50    0.60
  -5   5   3    4.80    0.60
  -4  -5   3   40.50    2.80
  -4  -5   3   39.10    3.50
  -4  -5   3   37.50    2.50
   4  -5  -3   41.10    3.00
   4   5  -3   42.10    2.50
   4   5  -3   44.40    3.10
  -4   5   3   40.00    2.70
   4   5  -3   30.10   16.40
   3  -5  -3   17.10    1.70
  -3  -5   3   15.50    1.40
  -3  -5   3   12.50    1.30
  -3  -5   3   15.60    2.00
  -3   5   3   15.30    1.30
   3   5  -3   16.90    1.50
   3   5  -3   13.50    7.20
  -3   5   3   13.30    2.80
  -2  -5   3  229.88   14.50
   2  -5  -3  276.07   14.90
   2  -5  -3  221.18   13.60
   2   5  -3  181.58   20.30
   2   5  -3  218.38   13.30
  -2   5   3  227.48   13.20
  -2   5   3  228.68   17.00
  -1  -5   3  124.09    7.30
   1  -5  -3  130.89    7.80
  -1   5   3  114.59    7.10
  -1   5   3  126.49    7.40
   1   5  -3  120.69    7.30
  -1   5   3  119.99   13.90
   0  -5   3  178.88   10.30
   0  -5  -3  186.58   11.00
   0   5   3  187.98   10.50
   0   5   3  174.18   10.20
   0   5   3  147.39   18.00
  -1  -5  -3   79.79    5.10
  -1  -5  -3   80.99    5.50
   1  -5   3   76.69    5.80
   1   5   3   88.49    5.00
   1   5   3   80.89    5.10
   1   5   3   63.89   13.90
   2  -5   3   93.49    6.60
  -2  -5  -3   97.39    6.90
  -2  -5  -3   98.49    6.00
   2   5   3  102.19    6.20
   2   5   3   88.79    5.50
   2   5   3   96.09    5.60
   2   5   3   72.29   16.30
  -3  -5  -3   27.30    2.50
  -3  -5  -3   27.80    2.20
   3  -5   3   25.60    2.50
   3   5   3   25.60   10.60
   3   5   3   24.50    1.70
   3   5   3   26.60    1.70
   3   5   3   25.90    2.10
   4  -5   3  266.67   15.70
  -4  -5  -3  281.67   15.60
  -4  -5  -3  283.97   16.00
   4   5   3  230.28   15.10
   4   5   3  271.77   15.30
   4   5   3  262.47   15.60
   4   5   3  267.97   15.10
  -5  -5  -3   85.19    5.60
   5  -5   3   78.49    4.90
  -5  -5  -3   81.29    5.30
   5   5   3   80.79    4.80
   5   5   3   82.09    4.80
   5   5   3   85.29    5.00
   5   5   3   77.59    5.30
  -6  -5  -3   17.30    1.60
   6   5   3   16.70    2.30
   6   5   3   20.20    1.30
   6   5   3   14.00    2.80
   6   5   3   17.90    1.30
   6   5   3   19.40    1.40
  -7  -5  -3   13.60    1.20
   7   5   3   11.10    1.90
   7   5   3   13.80    1.00
   7   5   3   16.10    1.30
   7   5   3   15.70    1.20
  -7  -6   3   32.90    2.00
  -7  -6   3   27.50    2.10
   7   6  -3   27.80    2.90
   7   6  -3   27.30    3.10
   7   6  -3   31.70    1.90
  -6  -6   3   55.39    3.20
  -6  -6   3   48.70    3.50
   6   6  -3   51.39    3.00
  -6   6   3   43.00    3.00
   6   6  -3   42.90    4.80
   6   6  -3   50.69    3.90
  -5  -6   3   58.99    3.70
  -5  -6   3   55.29    4.30
   5   6  -3   67.29    4.50
   5   6  -3   64.99    3.60
   5   6  -3   63.59    5.00
  -5   6   3   53.59    3.80
  -4  -6   3   20.60    2.20
  -4  -6   3   20.60    1.50
  -4   6   3   20.50    1.60
   4   6  -3   20.90    2.00
   4   6  -3   22.10    1.40
   3  -6  -3   40.20    3.30
  -3  -6   3   42.00    3.50
  -3  -6   3   41.70    2.70
   3   6  -3   41.60    3.00
   3   6  -3   41.50    2.60
   2  -6  -3   10.40    1.50
  -2  -6   3    9.00    1.60
  -2  -6   3    9.30    0.90
   2   6  -3    9.40    1.20
  -2   6   3    9.80    1.00
  -1  -6   3   96.09    5.80
   1  -6  -3  100.79    6.70
  -1   6   3  103.69    6.10
  -1   6   3   96.79    5.70
   1   6  -3   99.39    6.10
  -1   6   3   98.49    5.70
   0  -6  -3  168.28   11.00
   0  -6   3  233.68   12.80
   0   6   3  162.18   10.00
   0   6  -3  163.88   10.50
   0   6   3  157.88   10.00
   0   6   3  182.28   10.40
   1  -6   3    9.50    1.60
   1   6   3   10.10    0.80
   1   6   3   10.60    1.10
   1   6   3    9.80    0.80
   2  -6   3    4.80    1.00
  -2  -6  -3    6.20    1.10
   2   6   3    5.30    0.60
   2   6   3    5.80    0.80
   2   6   3    5.80    0.60
  -3  -6  -3    9.30    1.40
   3  -6   3    7.20    1.10
   3   6   3    8.40    0.70
   3   6   3    7.90    1.00
   3   6   3    7.60    0.80
  -4  -6  -3   18.40    1.60
   4  -6   3   21.40    1.60
   4   6   3   21.30    1.50
   4   6   3   19.90    1.70
   4   6   3   22.00    1.40
  -5  -6  -3   12.70    1.10
  -5  -6  -3   13.60    1.60
   5   6   3   13.40    1.00
   5   6   3    9.50    1.20
   5   6   3   13.70    0.90
  -3  -7   3    3.00    0.70
   3   7  -3    2.60    0.90
   3   7  -3    4.30    0.90
  -3   7   3    2.90    0.50
  -2  -7   3   16.00    1.60
   2   7  -3   15.10    1.50
  -2   7   3   14.60    1.20
  -1  -7   3    8.50    1.20
   1  -7  -3    8.70    1.20
  -1   7   3    8.60    0.90
   1   7  -3    7.90    1.00
   0  -7   3    7.90    1.10
   0  -7  -3    8.60    1.20
   0   7   3    8.00    0.70
   0   7   3    8.00    0.90
  -1  -7  -3    9.30    1.30
   1  -7   3    8.20    1.00
   1   7   3    7.50    0.70
   1   7   3    8.50    0.90
   1   7   3    8.90    0.60
   2  -7   3    9.50    0.90
  -2  -7  -3    7.70    1.20
   2   7   3    8.50    0.60
   2   7   3    8.70    0.90
   2   7   3    8.60    0.70
  12   0  -4    4.70    1.30
  12   0  -4    3.30    1.70
 -12   0   4    4.20    0.60
  11   0  -4   10.10    1.60
  11   0  -4    9.20    1.20
 -11   0   4   11.30    1.20
 -11   0   4   11.50    1.60
  11   0  -4    9.60    2.90
 -11   0   4    9.20    0.80
  10   0  -4  236.88   18.10
 -10   0   4  197.78   13.90
 -10   0   4  228.98   12.90
 -10   0   4  229.38   13.40
  10   0  -4  220.98   13.50
  10   0  -4  235.18   14.10
   9   0  -4   45.10    7.20
   9   0  -4   49.90    4.40
   9   0  -4   43.60    3.80
  -9   0   4   47.80    3.30
  -9   0   4   45.40    3.40
  -9   0   4   46.10    4.60
  -9   0   4   43.90    2.80
  -9   0   4   45.30    4.10
  -8   0   4  246.58   16.90
  -8   0   4  279.07   15.30
   8   0  -4  256.07   16.10
  -8   0   4  283.67   15.60
   8   0  -4  281.97   20.10
   8   0  -4  291.47   24.90
  -8   0   4  286.17   16.50
   8   0  -4  247.18   15.60
  -8   0   4  269.77   15.80
   8   0  -4  237.58   15.90
  -7   0   4 1052.79   59.49
  -7   0   4 1067.39   58.79
  -7   0   4 1009.20   58.99
  -6   0   4   25.40    2.20
   6   0  -4   16.10    3.70
  -6   0   4   20.20    2.80
  -6   0   4   21.60    1.80
  -5   0   4  801.42   48.10
  -5   0   4  862.61   47.20
  -5   0   4  844.02   47.70
   5   0  -4  849.12   49.60
  -4   0   4 1841.92  100.19
   4   0  -4 1744.63  101.39
  -4   0   4 1755.12  100.59
   3   0  -4 3533.65  198.98
   2   0  -4 1433.06   82.19
  -2   0   4 1462.95   81.99
  -1   0   4  686.73   40.80
   1   0  -4  719.43   40.40
   0   0   4   39.00    4.20
   0   0  -4   35.50    2.50
   0   0  -4   39.50    2.90
  -1   0  -4    2.90    0.60
  -1   0  -4    0.80    0.20
   1   0   4   -1.20    1.60
  -1   0  -4    0.50    0.40
  -2   0  -4   43.60    3.10
  -2   0  -4   42.60    3.10
  -2   0  -4   44.00    2.70
   2   0   4   39.20    6.00
   3   0   4 1830.42  123.79
  -3   0  -4 2241.68  119.89
  -3   0  -4 2151.68  119.29
  -3   0  -4 2287.37  119.89
  -4   0  -4  195.58   12.30
  -4   0  -4  213.18   12.30
  -4   0  -4  205.28   11.50
  -4   0  -4  205.98   12.20
   4   0   4  157.88   17.40
  -5   0  -4  120.09    7.90
  -5   0  -4  114.79    7.90
  -5   0  -4  114.19    7.10
  -5   0  -4  118.19    7.80
   5   0   4  119.69    7.40
  -6   0  -4   34.00    3.10
  -6   0  -4   31.50    2.30
   6   0   4   29.80    2.20
   6   0   4   31.40    2.40
  -6   0  -4   29.00    3.20
  -6   0  -4   31.10    2.40
   6   0   4   28.10    2.20
  -6   0  -4   30.90    3.10
  -7   0  -4  210.68   14.10
  -7   0  -4  207.78   13.80
   7   0   4  220.68   12.60
  -7   0  -4  210.88   12.80
  -7   0  -4  223.58   13.70
   8   0   4   45.20    3.50
   8   0   4   49.00    3.30
  -8   0  -4   46.00    3.30
  -8   0  -4   48.20    3.90
  -8   0  -4   43.80    3.60
  -9   0  -4   11.30    1.90
  -9   0  -4   13.30    1.30
   9   0   4   13.40    1.60
   9   0   4   14.60    1.40
  10   0   4    2.60    1.10
 -10   0  -4    3.80    0.80
 -10   0  -4    4.10    0.50
  10   0   4    4.90    0.80
 -12  -1   4    4.30    0.40
  12  -1  -4    5.40    1.10
  12  -1  -4    4.50    1.70
  12   1  -4    4.80    1.00
  12   1  -4    3.60    1.80
 -12   1   4    5.40    0.80
  11  -1  -4    5.40    1.20
 -11  -1   4    7.70    1.40
 -11  -1   4    5.40    0.80
  11  -1  -4    6.60    2.60
 -11  -1   4    6.20    0.60
 -11   1   4    7.30    0.90
  11   1  -4    5.30    2.40
  11   1  -4    7.30    1.30
 -11   1   4    7.30    1.30
  11   1  -4    6.10    1.00
 -10  -1   4  180.68   11.00
 -10  -1   4  170.48   10.60
  10  -1  -4  185.48   15.30
  10  -1  -4  170.98   10.90
  10  -1  -4  182.68   11.70
 -10  -1   4  182.28   10.30
 -10   1   4  182.08   10.80
  10   1  -4  167.48   10.60
 -10   1   4  191.68   10.90
  10   1  -4  174.78   11.30
  10   1  -4  192.28   15.50
  10   1  -4  172.68   10.80
   9  -1  -4  322.17   19.70
  -9  -1   4  344.87   19.10
  -9  -1   4  333.17   20.90
  -9  -1   4  331.27   19.60
   9  -1  -4  345.37   20.40
   9  -1  -4  346.77   24.70
  -9  -1   4  331.07   19.50
  -9  -1   4  316.17   21.10
   9   1  -4  322.07   19.90
  -9   1   4  333.47   20.50
   9   1  -4  334.27   19.30
  -9   1   4  341.87   21.20
  -9   1   4  338.87   19.70
  -9   1   4  345.77   19.50
   9   1  -4  328.07   31.70
   9   1  -4  356.66   24.50
   8  -1  -4   46.80    3.60
  -8  -1   4   50.09    3.50
  -8  -1   4   46.10    3.40
  -8  -1   4   60.59    5.60
   8  -1  -4   52.49    6.90
  -8  -1   4   50.39    4.40
   8  -1  -4   48.80    4.00
  -8  -1   4   48.00    3.10
  -8   1   4   58.59    6.70
  -8   1   4   49.60    3.60
   8   1  -4   57.79   11.50
   8   1  -4   52.19    6.30
  -8   1   4   36.10    5.00
   8   1  -4   50.09    4.00
   8   1  -4   46.80    3.60
   8   1  -4   50.39    3.20
  -7  -1   4  872.81   51.59
  -7  -1   4  874.51   49.90
   7  -1  -4  823.42   50.79
   7  -1  -4  845.62   50.49
  -7  -1   4  881.81   50.99
   7  -1  -4  894.91   55.09
  -7  -1   4  892.51   50.19
  -7  -1   4  844.62   50.19
  -7   1   4  898.11   51.09
   7   1  -4  819.42   54.09
  -7   1   4  902.61   51.59
  -7   1   4  907.31   50.39
   7   1  -4  923.91   49.90
  -7   1   4  916.11   50.19
   7   1  -4 1016.10   53.89
  -6  -1   4  101.69    7.30
  -6  -1   4   99.59    6.80
  -6  -1   4  102.49    6.60
  -6  -1   4  100.69    6.00
  -6   1   4  101.19    6.20
  -6   1   4  102.49    6.80
   6   1  -4   79.99    7.10
  -6   1   4   99.79    7.00
   6   1  -4  104.89    9.10
  -5  -1   4  118.09    7.00
  -5  -1   4  109.69    6.50
  -5  -1   4  116.49    7.50
   5  -1  -4   93.29    9.50
  -5   1   4  105.89    7.40
   5   1  -4  108.29    8.80
  -5   1   4  113.59    7.30
  -5   1   4  104.29    6.60
   4  -1  -4  848.52   48.20
  -4  -1   4  782.72   46.60
  -4  -1   4  841.42   46.70
  -4  -1   4  817.92   47.30
  -4   1   4  807.22   47.40
   4   1  -4  859.71   48.50
  -3  -1   4 1762.02  102.09
  -3  -1   4 1809.72  102.39
   3  -1  -4 1897.11  103.69
  -3  -1   4 1756.72  102.89
  -3   1   4 1871.51  103.59
   3   1  -4 1860.51  103.79
  -2  -1   4 3635.04  210.28
   2  -1  -4 3711.13  210.88
  -2   1   4 3971.00  212.08
   2   1  -4 3690.03  210.78
   1  -1  -4  319.37   18.30
   1   1  -4  301.87   18.00
  -1   1   4  288.07   20.70
   0  -1  -4 1382.86   76.39
   0  -1   4 1368.06   75.89
   0  -1  -4 1367.16   76.09
   0  -1  -4 1282.17   75.49
   0   1   4 1266.47   80.19
   0   1  -4 1415.46   76.09
  -1  -1  -4 1852.71   94.09
  -1  -1  -4 1678.93   93.29
  -1   1  -4 1636.64   93.19
  -1   1  -4 1757.52   93.69
   1   1   4 1387.76   98.09
  -2  -1  -4  794.32   45.10
  -2  -1  -4  846.72   45.80
  -2  -1  -4  801.32   45.80
   2   1   4  733.73   51.19
  -2   1  -4  807.22   45.20
  -2   1  -4  817.52   45.40
  -3  -1  -4  866.31   50.29
  -3  -1  -4  872.01   49.60
  -3  -1  -4  906.71   50.39
  -3  -1  -4  873.41   50.29
  -3   1  -4  910.91   49.40
  -3   1  -4  922.81   49.90
   3   1   4  796.72   56.79
  -3   1  -4  878.71   49.80
  -4  -1  -4  268.17   17.90
  -4  -1  -4  264.87   16.20
  -4  -1  -4  272.57   15.50
  -4  -1  -4  266.17   16.40
   4   1   4  229.18   22.90
  -4   1  -4  285.77   15.30
  -4   1  -4  265.57   15.80
  -4   1  -4  256.57   16.10
  -4   1  -4  276.57   15.80
  -5  -1  -4  168.18   10.90
   5  -1   4  164.08   10.30
  -5  -1  -4  161.58   10.90
  -5  -1  -4  169.48   10.10
  -5  -1  -4  168.38   11.20
  -5  -1  -4  172.88   10.20
   5   1   4  164.78    9.80
   5   1   4  158.38   20.10
  -5   1  -4  171.68   10.80
  -5   1  -4  173.48   10.10
  -5   1  -4  178.78   10.60
  -5   1  -4  171.28   10.60
  -6  -1  -4  130.99    8.10
  -6  -1  -4  133.49   10.10
   6  -1   4  143.59    8.80
  -6  -1  -4  128.49    8.80
   6  -1   4  124.29    7.70
  -6  -1  -4  128.89    8.20
   6  -1   4  121.29    7.80
  -6   1  -4  136.49    8.80
  -6   1  -4  132.79    7.90
  -6   1  -4  131.29    8.80
   6   1   4  129.79    7.80
  -6   1  -4  129.69    8.60
   6   1   4  129.79    7.70
  -7  -1  -4  154.68   10.00
   7  -1   4  101.39    8.80
  -7  -1  -4  150.98   10.80
  -7  -1  -4  148.69    9.20
   7  -1   4  157.18    9.50
   7  -1   4  153.18    9.00
  -7  -1  -4  152.18    9.30
  -7  -1  -4  138.59   10.30
  -7   1  -4  152.58    9.30
   7   1   4  155.28    9.00
  -7   1  -4  153.48    9.10
  -7   1  -4  151.48    9.90
  -7   1  -4  164.38   10.00
   7   1   4  156.88    8.90
  -7   1  -4  142.49   10.10
   8  -1   4   18.50    3.10
  -8  -1  -4   19.20    2.10
  -8  -1  -4   19.00    2.10
   8  -1   4   18.90    1.70
  -8  -1  -4   16.50    1.70
  -8   1  -4   19.80    2.20
   8   1   4   18.10    1.80
   8   1   4   19.80    1.60
   9  -1   4   20.90    1.80
  -9  -1  -4   20.50    1.50
  -9  -1  -4   19.30    1.90
   9  -1   4   19.70    2.50
  -9  -1  -4   18.60    1.70
  -9   1  -4   21.80    2.10
   9   1   4   22.00    2.00
   9   1   4   22.30    1.70
 -10  -1  -4   11.30    0.90
  10  -1   4   12.70    1.20
 -10  -1  -4   10.00    1.00
 -10  -1  -4   10.10    1.10
 -10   1  -4   12.50    1.40
  10   1   4   11.10    1.10
  10   1   4   10.30    1.30
 -10   1  -4   11.60    0.80
 -12  -2   4   12.30    0.80
  12  -2  -4   12.00    2.70
  12  -2  -4   11.80    1.50
  12   2  -4   11.80    1.40
 -12   2   4   12.10    1.00
  12   2  -4   10.90    2.50
 -11  -2   4   59.09    3.60
  11  -2  -4   61.49    4.70
  11  -2  -4   65.09    6.70
  11   2  -4   55.39    6.80
 -11   2   4   62.69    3.90
  11   2  -4   52.99    3.70
  11   2  -4   58.79    4.30
 -10  -2   4   28.70    2.50
  10  -2  -4   20.70    3.10
 -10  -2   4   27.00    2.00
  10  -2  -4   26.50    5.20
 -10  -2   4   24.40    1.80
  10   2  -4   29.30    2.50
 -10   2   4   28.90    2.20
  10   2  -4   25.90    2.00
 -10   2   4   26.70    2.10
  10   2  -4   16.00    6.00
   9  -2  -4   81.99    6.00
  -9  -2   4   82.29    4.70
  -9  -2   4   73.99    6.90
  -9  -2   4   82.79    5.40
  -9  -2   4   69.69    4.80
  -9  -2   4   76.69    6.90
   9  -2  -4   77.99    8.90
  -9   2   4   76.29    6.40
  -9   2   4   78.09    5.10
   9   2  -4   75.89    5.30
   9   2  -4   77.29    8.30
   9   2  -4   70.79   16.60
   9   2  -4   76.49    4.80
  -9   2   4   75.19    6.10
  -9   2   4   77.09    5.00
  -8  -2   4  130.29    8.60
  -8  -2   4  151.48    8.40
  -8  -2   4  146.09   10.30
   8  -2  -4  127.99   13.00
  -8  -2   4  141.49   10.30
   8  -2  -4  143.39    9.70
  -8  -2   4  145.29    9.10
   8   2  -4  143.89    8.90
  -8   2   4  139.99    9.80
  -8   2   4  150.48    8.80
   8   2  -4  149.88    8.50
  -8   2   4  146.69    8.90
   8   2  -4  156.88   12.10
  -8   2   4  148.29   10.10
   8   2  -4  148.79   17.80
  -7  -2   4  174.08    9.80
  -7  -2   4  160.98   11.30
  -7  -2   4  171.08   10.30
   7  -2  -4  166.88   11.00
   7  -2  -4  153.68   14.40
  -7  -2   4  170.48   11.30
   7   2  -4  158.58   10.10
   7   2  -4  160.78   14.30
  -7   2   4  174.08   11.20
   7   2  -4  152.18   11.60
   7   2  -4  192.78   12.90
  -7   2   4  178.98   11.40
   7   2  -4  170.58    9.80
  -7   2   4  178.28   10.30
   6  -2  -4   10.30    1.50
  -6  -2   4   10.10    1.90
  -6  -2   4    9.60    1.80
  -6  -2   4    9.30    1.10
   6   2  -4    7.30    2.80
  -6   2   4    9.10    1.60
   6   2  -4    9.70    1.70
  -6   2   4    9.20    1.60
  -6   2   4    9.60    1.10
  -5  -2   4    1.10    0.70
  -5  -2   4    3.60    1.10
  -5  -2   4    1.10    0.40
   5   2  -4    0.60    0.40
  -5   2   4    0.90    0.70
  -5   2   4    1.90    0.50
   5   2  -4    0.50    1.40
  -4  -2   4  391.16   22.70
  -4  -2   4  416.76   23.70
  -4  -2   4  392.96   23.10
   4   2  -4  390.56   22.90
   4   2  -4  412.96   25.10
  -4   2   4  393.16   23.90
  -3  -2   4 1390.36   81.49
  -3  -2   4 1364.46   81.69
  -3  -2   4 1469.05   82.29
  -3   2   4 1560.74   83.89
   3   2  -4 1486.35   83.39
  -2  -2   4 1098.39   61.49
  -2  -2   4 1038.60   60.89
   2  -2  -4 1061.19   62.29
  -2   2   4 1143.29   65.19
   2   2  -4 1099.89   62.39
   1  -2  -4 1292.37   73.99
  -1   2   4 1253.97   78.09
   1   2  -4 1344.47   73.79
   0  -2  -4 1264.07   70.59
   0  -2  -4 1246.38   69.49
   0   2  -4 1292.17   70.09
   0   2   4 1136.69   75.59
  -1  -2  -4  819.92   45.80
  -1  -2  -4  829.02   46.80
  -1  -2  -4  819.22   46.70
   1   2   4  730.83   52.49
  -1   2  -4  845.42   46.00
  -2  -2  -4  867.21   48.80
  -2  -2  -4  859.41   47.90
  -2  -2  -4  841.22   48.70
   2   2   4  854.61   47.70
  -2   2  -4  857.21   47.60
  -2   2  -4  837.62   47.90
   2   2   4  803.42   55.99
  -3  -2  -4   72.09    4.50
  -3  -2  -4   68.79    5.30
  -3  -2  -4   72.39    5.40
  -3  -2  -4   54.29    5.70
   3   2   4   64.69   10.80
  -3   2  -4   72.29    5.00
   3   2   4   71.49    4.20
  -4  -2  -4   39.30    2.80
  -4  -2  -4   38.50    2.90
  -4  -2  -4   37.80    3.80
  -4  -2  -4   40.40    2.70
  -4  -2  -4   37.90    3.70
  -4  -2  -4   37.50    3.20
  -4   2  -4   37.10    3.30
   4   2   4   31.40    8.60
  -4   2  -4   38.60    2.80
   4   2   4   37.10    2.40
   4   2   4   32.00    2.50
  -5  -2  -4   68.59    4.50
  -5  -2  -4   65.39    5.60
   5  -2   4   56.09    4.60
  -5  -2  -4   67.79    4.30
  -5  -2  -4   68.59    5.70
  -5  -2  -4   66.89    4.60
  -5  -2  -4   68.59    5.00
   5   2   4   66.09   14.70
   5   2   4   66.59    4.10
  -5   2  -4   66.19    5.00
  -5   2  -4   68.49    4.70
  -5   2  -4   66.19    4.70
   5   2   4   64.59    3.90
   5   2   4   69.69    4.20
   6  -2   4  156.78    9.60
  -6  -2  -4  149.49   11.10
  -6  -2  -4  157.98    9.80
   6  -2   4  155.08    9.20
  -6  -2  -4  153.98    9.70
  -6  -2  -4  150.58   11.10
  -6  -2  -4  149.09   10.00
  -6   2  -4  169.88   10.10
   6   2   4  161.88    9.30
   6   2   4  157.88    9.00
   6   2   4  167.68    9.20
   6   2   4  142.79   24.90
  -6   2  -4  159.98   10.30
  -7  -2  -4  263.87   17.10
   7  -2   4  295.27   16.80
  -7  -2  -4  285.27   16.90
  -7  -2  -4  270.87   19.80
  -7  -2  -4  283.07   18.70
  -7  -2  -4  297.47   17.00
   7   2   4  297.87   16.60
  -7   2  -4  296.77   17.50
   7   2   4  265.77   16.10
   7   2   4  296.67   16.50
  -7   2  -4  287.77   17.40
   8  -2   4    6.80    1.00
  -8  -2  -4    5.50    1.20
  -8  -2  -4    6.40    1.20
  -8  -2  -4    5.30    0.90
  -8  -2  -4    7.10    0.70
   8   2   4    6.40    0.80
   8   2   4    6.30    0.90
  -8   2  -4    7.00    1.20
  -9  -2  -4   38.70    2.80
  -9  -2  -4   42.90    2.60
   9  -2   4   45.40    3.00
  -9  -2  -4   33.30    3.40
  -9   2  -4   40.00    2.50
   9   2   4   42.70    3.00
   9   2   4   43.40    2.80
  -9   2  -4   42.40    3.20
  10  -2   4    1.70    0.60
 -10  -2  -4    1.10    0.30
 -10  -2  -4    1.60    0.30
 -10   2  -4    1.60    0.40
  10   2   4    2.10    0.40
  10   2   4    1.80    0.60
  11  -3  -4    8.40    1.40
 -11  -3   4    8.70    0.70
  11  -3  -4    7.80    2.30
 -11  -3   4    8.50    0.70
 -11   3   4    8.80    0.80
  11   3  -4    7.30    0.80
  11   3  -4    5.80    2.20
  11   3  -4    7.50    1.10
  10  -3  -4  149.19    9.70
 -10  -3   4  142.29    8.40
  10  -3  -4  154.38   12.30
 -10  -3   4  144.39    8.30
  10   3  -4  118.99   11.50
  10   3  -4  144.29    8.90
 -10   3   4  146.19    8.60
  10   3  -4  150.48    8.50
 -10   3   4  139.99    8.60
   9  -3  -4  150.48   10.20
   9  -3  -4  147.69   13.40
  -9  -3   4  144.29    9.50
  -9  -3   4  170.88    9.20
  -9  -3   4  151.08    8.70
   9   3  -4  138.19   12.10
  -9   3   4  151.68    9.10
  -9   3   4  146.69    9.10
   9   3  -4  150.48    8.80
   9   3  -4  145.69   10.00
  -8  -3   4   91.49    6.10
   8  -3  -4   84.49    9.80
  -8  -3   4   79.09    9.90
  -8  -3   4   87.19    5.50
   8  -3  -4   93.09    6.90
  -8  -3   4   92.39    5.30
   8   3  -4   87.29    5.70
  -8   3   4   87.19    7.30
  -8   3   4   88.99    5.70
   8   3  -4   91.79   14.50
   8   3  -4   92.09    5.30
  -8   3   4   93.89    9.10
   8   3  -4   87.49    8.20
  -8   3   4   87.99    5.70
   8   3  -4   75.89    7.30
  -7  -3   4  190.68   12.70
   7  -3  -4  157.18   15.50
  -7  -3   4  196.38   10.80
  -7  -3   4  186.68   11.10
  -7  -3   4  196.08   11.50
   7  -3  -4  190.18   12.40
   7   3  -4  183.78   10.80
   7   3  -4  207.88   13.60
   7   3  -4  167.78   16.20
   7   3  -4  194.88   19.50
  -7   3   4  177.48   12.30
   7   3  -4  177.78   11.00
  -7   3   4  186.78   11.20
  -7   3   4  196.18   12.40
   7   3  -4  194.28   12.50
   6  -3  -4   12.30    1.60
   6  -3  -4   11.40    2.00
  -6  -3   4   11.00    1.00
  -6  -3   4   13.10    1.50
   6  -3  -4   11.50    3.60
  -6  -3   4   13.60    2.50
  -6  -3   4   13.30    2.80
  -6  -3   4   12.70    1.30
   6   3  -4   12.30    1.80
   6   3  -4   14.30    2.40
   6   3  -4   14.00    1.00
  -6   3   4   13.20    1.30
   6   3  -4   13.50    1.20
   6   3  -4   13.60    3.90
   6   3  -4   11.90    5.30
  -6   3   4   13.40    2.00
   5  -3  -4   97.89    7.10
   5  -3  -4   96.29    6.30
  -5  -3   4   98.69    6.10
  -5  -3   4   91.29    6.80
  -5  -3   4  105.09    5.80
  -5  -3   4  100.69    7.50
  -5  -3   4   96.09    6.20
   5  -3  -4   92.69    9.80
  -5   3   4   98.99    7.10
   5   3  -4  107.59    6.50
  -5   3   4  100.79    6.10
   5   3  -4   97.69    5.80
   5   3  -4   97.49    9.10
  -4  -3   4  177.18   11.20
   4  -3  -4  178.88   10.90
  -4  -3   4  172.88   10.60
  -4   3   4  181.98   12.10
  -4   3   4  177.08   10.60
   4   3  -4  186.28   10.80
   4   3  -4  197.28   13.60
   3  -3  -4  428.26   24.40
  -3  -3   4  398.66   23.90
   3   3  -4  427.96   24.20
  -3   3   4  429.16   27.00
  -3   3   4  416.26   23.90
   3   3  -4  423.96   26.30
   2  -3  -4  261.07   15.80
  -2  -3   4  249.38   15.30
   2   3  -4  278.47   19.00
  -2   3   4  300.27   21.80
  -2   3   4  263.97   15.40
   1  -3  -4  821.62   45.90
   1   3  -4  805.42   46.70
  -1   3   4  788.62   53.89
   0  -3  -4   48.70    3.30
   0  -3  -4   47.60    3.50
   0   3   4   47.30    3.00
   0   3   4   46.40    9.00
  -1  -3  -4  337.77   20.30
  -1  -3  -4  354.16   20.10
   1   3   4  342.37   19.80
   1   3   4  321.57   27.90
  -1   3  -4  374.06   20.50
  -2  -3  -4  307.57   18.00
  -2  -3  -4  306.47   19.30
  -2  -3  -4  303.07   18.10
  -2   3  -4  319.17   18.10
   2   3   4  289.87   26.80
   2   3   4  321.57   17.70
  -3  -3  -4   45.90    3.50
  -3  -3  -4   44.00    3.40
  -3  -3  -4   49.30    3.30
  -3  -3  -4   47.40    3.50
   3  -3   4   45.70    3.60
  -3  -3  -4   56.09    4.70
   3   3   4   50.29    3.20
   3   3   4   54.79    3.00
  -3   3  -4   48.10    3.40
   3   3   4   40.60   10.50
   3   3   4   46.60    2.90
  -4  -3  -4  380.66   24.10
   4  -3   4  373.06   22.20
  -4  -3  -4  389.16   22.40
  -4  -3  -4  392.06   22.40
  -4   3  -4  379.16   22.20
   4   3   4  374.76   21.80
   4   3   4  355.26   33.60
   4   3   4  386.86   22.10
   4   3   4  421.66   22.00
   4   3   4  385.86   21.70
  -5  -3  -4  128.99    9.70
  -5  -3  -4  128.79    8.20
  -5  -3  -4  129.59    8.20
   5  -3   4  139.89    8.30
   5  -3   4  124.89    7.70
  -5  -3  -4  126.49    7.60
   5   3   4  124.99    7.90
   5   3   4  129.19    7.60
   5   3   4  120.79   19.20
   5   3   4  137.19    7.70
   5   3   4  128.89    7.50
  -5   3  -4  127.79    8.10
   6  -3   4   41.00    2.80
  -6  -3  -4   43.40    3.40
  -6  -3  -4   41.20    4.80
  -6  -3  -4   44.90    3.30
   6  -3   4   46.90    3.40
  -6  -3  -4   40.00    2.80
   6   3   4   42.90    4.20
   6   3   4   44.40    2.80
   6   3   4   46.80    3.00
  -6   3  -4   39.70    3.60
  -6   3  -4   41.90    3.50
   6   3   4   24.30   15.50
   6   3   4   43.10    2.70
  -7  -3  -4   36.40    3.00
   7  -3   4   48.40    3.30
  -7  -3  -4   40.50    3.40
  -7  -3  -4   43.70    3.20
   7   3   4   48.10    2.90
   7   3   4   32.20    4.30
  -7   3  -4   48.20    3.60
   7   3   4   47.50    3.00
   7   3   4   41.20    2.80
  -8  -3  -4  119.39    7.30
  -8  -3  -4  116.59    6.90
   8   3   4  125.39    7.10
   8   3   4   97.89    6.80
  -8   3  -4  122.49    7.50
   8   3   4  130.89    7.20
  -9  -3  -4   21.60    1.50
  -9  -3  -4   24.40    1.80
  -9   3  -4   23.90    1.90
   9   3   4   24.10    1.70
   9   3   4   25.30    1.90
 -10  -4   4    8.50    0.80
 -10  -4   4    9.20    0.70
  10  -4  -4    8.50    2.30
  10   4  -4    8.90    0.80
  10   4  -4    7.40    2.30
  10   4  -4    5.70    1.10
 -10   4   4    8.50    1.00
   9  -4  -4   29.60    4.60
  -9  -4   4   28.50    1.90
  -9  -4   4   27.90    1.70
  -9   4   4   26.70    2.00
   9   4  -4   26.20    1.80
  -9   4   4   22.40    2.50
   9   4  -4   21.30    3.70
  -8  -4   4   14.80    1.50
   8  -4  -4   15.20    3.90
  -8  -4   4   14.60    1.20
  -8  -4   4   17.80    2.40
  -8   4   4   15.40    1.30
   8   4  -4    5.60    2.60
   8   4  -4    9.60    2.30
  -8   4   4   15.50    1.60
   8   4  -4   12.80    1.30
  -7  -4   4   30.40    1.90
   7  -4  -4   28.20    5.50
  -7  -4   4   32.70    2.30
  -7  -4   4   31.10    2.90
   7   4  -4   12.90    9.00
   7   4  -4   29.20    2.20
  -7   4   4   25.10    5.60
   7   4  -4   29.40    2.00
   7   4  -4   29.20    3.30
   7   4  -4   29.30    3.70
  -7   4   4   29.60    2.20
  -6  -4   4    1.40    0.90
  -6  -4   4    1.20    0.40
  -6  -4   4    0.50    1.00
  -6  -4   4    1.30    0.30
   6  -4  -4    0.70    1.80
  -6   4   4    0.90    0.30
  -6   4   4    1.70    1.40
   6   4  -4   -1.10    4.70
   6   4  -4    0.60    1.00
   6   4  -4    1.10    0.70
   6   4  -4    1.50    0.40
   6   4  -4    4.00    3.70
   5  -4  -4   97.69    6.30
   5  -4  -4   95.79   10.50
  -5  -4   4   92.99    6.40
  -5  -4   4   98.19    5.70
  -5  -4   4   93.89    6.70
  -5  -4   4   97.79    6.10
  -5   4   4   96.59    6.00
   5   4  -4  102.69    5.80
  -5   4   4  103.39    7.30
   5   4  -4   98.99    6.50
   5   4  -4   99.99   13.00
   5   4  -4   86.99    9.70
  -4  -4   4   50.59    3.40
  -4  -4   4   46.70    3.50
   4  -4  -4   53.99    3.70
  -4  -4   4   47.80    3.90
  -4  -4   4   50.99    3.00
   4  -4  -4   49.80    6.90
  -4   4   4   48.60    3.20
   4   4  -4   49.40    3.10
   4   4  -4   52.59    3.60
   4   4  -4   49.00    6.60
  -4   4   4   49.00    4.80
  -3  -4   4  264.07   14.60
   3  -4  -4  232.98   14.50
   3  -4  -4  235.68   18.60
  -3  -4   4  257.17   13.90
  -3  -4   4  242.18   14.10
  -3  -4   4  227.98   14.80
   3   4  -4  273.17   20.40
  -3   4   4  231.38   13.80
   3   4  -4  243.08   14.20
  -3   4   4  231.48   14.00
   3   4  -4  241.08   14.10
   3   4  -4  237.78   17.00
  -3   4   4  254.87   17.30
  -2  -4   4   33.00    3.20
  -2  -4   4   34.10    2.10
   2  -4  -4   37.90    5.60
   2  -4  -4   36.30    2.80
   2   4  -4   34.10    2.40
  -2   4   4   28.90    6.40
   2   4  -4   35.70    4.40
   2   4  -4   43.70    6.60
  -2   4   4   27.40    2.50
   1  -4  -4   24.90    2.20
  -1  -4   4   23.90    2.60
  -1  -4   4   24.00    1.70
   1   4  -4   21.90    1.70
   1   4  -4   27.60    5.40
   1   4  -4   24.60    3.50
  -1   4   4   24.50    1.50
  -1   4   4   15.60    5.30
   0  -4  -4  129.19    7.90
   0  -4   4  119.19    7.20
   0  -4   4  122.79    8.10
   0   4   4  127.39    7.30
   0   4   4  119.19    7.00
   0   4   4   99.19   14.10
   0   4  -4  127.59    8.90
   1  -4   4  132.79    9.10
  -1  -4  -4  148.89    9.00
   1  -4   4  134.89    8.20
  -1  -4  -4  150.48    8.80
   1  -4   4  148.99    8.10
  -1  -4  -4  142.99    8.60
   1   4   4  151.58    8.50
   1   4   4  138.89    8.10
   1   4   4  138.39    8.10
   1   4   4  119.69   16.30
  -1   4  -4  140.59    9.30
  -2  -4  -4   36.00    2.70
   2  -4   4   33.70    3.10
  -2  -4  -4   36.10    2.90
  -2  -4  -4   37.70    3.00
   2   4   4   38.80    2.50
   2   4   4   35.80    2.20
   2   4   4   14.20    6.40
   2   4   4   35.70    2.20
  -3  -4  -4  227.28   12.90
  -3  -4  -4  227.98   13.00
  -3  -4  -4  211.58   12.90
   3  -4   4  195.98   13.00
   3   4   4  216.58   12.20
   3   4   4  208.98   12.20
   3   4   4  222.78   12.60
   3   4   4  194.18   24.00
  -4  -4  -4  174.98   12.50
  -4  -4  -4  175.38   10.60
  -4  -4  -4  169.78   10.80
   4  -4   4  172.08   10.50
  -4  -4  -4  164.48   10.60
   4   4   4  183.38   10.20
   4   4   4  175.08   10.00
   4   4   4  174.98   23.50
   4   4   4  171.08   10.00
   4   4   4  181.18   10.50
  -5  -4  -4   55.09    7.00
  -5  -4  -4  111.99    6.90
   5  -4   4  116.89    6.50
  -5  -4  -4  106.49    6.30
   5   4   4  109.39    6.70
   5   4   4  114.79    6.40
   5   4   4  117.39    6.50
   5   4   4  114.99    6.30
  -6  -4  -4    6.20    0.70
  -6  -4  -4    7.20    1.20
   6  -4   4    7.30    0.90
  -6  -4  -4    7.00    1.30
   6   4   4    6.80    0.80
   6   4   4    6.80    0.70
   6   4   4    6.40    0.70
   6   4   4    5.60    1.50
  -7  -4  -4   48.40    3.30
  -7  -4  -4   44.20    2.80
   7   4   4   34.70    4.50
   7   4   4   53.09    3.10
   7   4   4   49.30    3.00
   7   4   4   49.00    2.80
  -8  -4  -4    2.30    0.50
  -8  -4  -4    1.70    0.30
   8   4   4    1.70    0.40
   8   4   4    1.80    0.30
   8   4   4    2.10    0.40
  -9  -5   4    8.30    0.70
  -9  -5   4    7.90    0.60
   9   5  -4    6.30    1.80
   9   5  -4    9.40    0.80
  -9   5   4    9.00    0.80
  -8  -5   4    8.30    0.80
  -8  -5   4    8.80    0.70
   8   5  -4    4.40    1.50
  -8   5   4    8.90    0.80
   8   5  -4    6.10    1.90
   8   5  -4    7.90    0.80
  -7  -5   4    4.00    1.00
  -7  -5   4    4.70    0.70
  -7  -5   4    5.00    0.50
   7  -5  -4    7.00    2.70
   7   5  -4    4.40    1.60
   7   5  -4    4.40    1.30
   7   5  -4    4.60    0.60
  -7   5   4    4.80    0.60
   6  -5  -4   28.40    5.70
  -6  -5   4   28.20    2.70
  -6  -5   4   27.90    1.80
  -6  -5   4   22.60    2.50
   6   5  -4   31.60    3.00
   6   5  -4   30.90    2.00
   6   5  -4   31.90    3.70
  -6   5   4   31.40    2.10
  -5  -5   4   49.30    3.30
  -5  -5   4   45.50    3.00
   5  -5  -4   50.49    3.50
  -5  -5   4   48.60    4.00
   5  -5  -4   50.79    7.10
  -5   5   4   49.10    3.20
   5   5  -4   51.99    4.50
   5   5  -4   49.10    3.10
   5   5  -4   50.59    3.80
  -4  -5   4   23.00    1.50
   4  -5  -4   22.10    2.00
  -4  -5   4   22.20    2.50
  -4  -5   4   24.00    1.80
  -4   5   4   22.70    3.90
   4   5  -4   22.70    2.10
  -4   5   4   22.90    1.70
   4   5  -4   13.90    9.40
   4   5  -4   24.10    1.60
  -3  -5   4   42.00    3.30
  -3  -5   4   30.10    2.00
   3  -5  -4   31.70    2.80
  -3  -5   4   33.10    2.30
   3  -5  -4   28.50    3.00
   3   5  -4   30.80    2.10
  -3   5   4   32.50    5.10
   3   5  -4   33.70   10.00
  -3   5   4   30.20    2.00
   3   5  -4   34.90    2.90
  -3   5   4   32.10    2.40
  -2  -5   4   85.19    5.20
  -2  -5   4   81.99    4.90
   2  -5  -4   97.19    6.10
  -2  -5   4   84.39    6.10
   2   5  -4   69.29   13.50
   2   5  -4   84.19    5.40
  -2   5   4   88.39    9.60
  -2   5   4   80.49    5.00
  -2   5   4   85.49    5.30
   1  -5  -4  272.37   15.80
  -1  -5   4  259.37   15.00
  -1  -5   4  265.17   16.20
   1   5  -4  262.87   15.20
  -1   5   4  269.67   15.20
  -1   5   4  249.68   14.90
  -1   5   4  260.37   22.20
   0  -5   4  158.28   10.40
   0  -5   4  154.98    9.20
   0  -5  -4  181.08   11.10
   0   5   4  159.18    9.20
   0   5   4  165.08    9.60
   0   5   4  131.69   17.30
  -1  -5  -4  238.38   13.70
  -1  -5  -4  226.88   13.10
   1  -5   4  224.58   14.00
   1   5   4  190.48   26.80
   1   5   4  223.18   12.80
   1   5   4  222.28   12.80
   1   5   4  229.88   13.20
   2  -5   4   12.90    1.90
  -2  -5  -4   15.30    1.60
  -2  -5  -4   16.80    1.50
   2   5   4    5.80    7.40
   2   5   4   15.50    1.10
   2   5   4   15.50    1.40
   2   5   4   15.40    1.10
   3  -5   4   65.49    4.50
  -3  -5  -4   64.89    4.30
   3   5   4   63.89    3.80
   3   5   4   59.39    3.80
   3   5   4   62.39    4.20
  -4  -5  -4    9.40    1.50
   4  -5   4    7.90    1.20
  -4  -5  -4    7.70    1.10
   4   5   4    9.60    1.00
   4   5   4    8.70    0.80
   4   5   4    7.90    1.10
   4   5   4    7.70    0.70
  -5  -5  -4   73.99    4.90
  -5  -5  -4   73.69    5.20
   5  -5   4   78.89    4.60
   5   5   4   77.89    4.60
   5   5   4   68.19    4.80
   5   5   4   77.99    4.50
   5   5   4   76.69    4.50
  -6  -5  -4   20.20    1.70
   6   5   4   20.60    1.40
   6   5   4   21.10    1.40
   6   5   4   17.30    2.30
   6   5   4   23.80    1.60
  -7  -5  -4   11.30    1.00
   7   5   4   11.60    0.90
   7   5   4    4.40    1.40
   7   5   4   11.80    0.90
   7   5   4   10.30    0.70
  -7  -6   4   45.60    2.50
   7   6  -4   36.00    3.70
   7   6  -4   43.40    2.50
   7   6  -4   36.80    3.60
  -7   6   4   35.90    2.70
  -6  -6   4   32.40    2.10
  -6  -6   4   43.50    2.50
  -6  -6   4   29.80    2.60
   6   6  -4   34.00    3.20
   6   6  -4   31.00    3.40
   6   6  -4   35.30    2.20
  -6   6   4   36.40    2.30
  -5  -6   4   20.90    2.20
  -5  -6   4   24.20    1.70
   5   6  -4   23.70    1.60
  -5   6   4   26.10    1.80
   5   6  -4   25.30    2.40
   5   6  -4   24.10    3.10
  -4  -6   4   16.30    1.90
  -4  -6   4   16.90    1.30
  -4   6   4   18.60    1.40
   4   6  -4   15.00    1.80
   4   6  -4   16.70    2.20
   3  -6  -4   15.80    1.50
  -3  -6   4   13.80    1.20
  -3  -6   4   13.60    1.90
  -3   6   4   16.50    1.30
   3   6  -4   15.40    2.00
   3   6  -4   15.60    1.60
   2  -6  -4   17.30    1.70
  -2  -6   4   16.00    1.20
  -2  -6   4   15.30    1.90
   2  -6  -4   15.40    1.80
   2   6  -4   16.00    1.70
  -2   6   4   15.60    1.10
  -2   6   4   16.40    1.40
  -1  -6   4   39.60    2.50
   1  -6  -4   40.40    3.40
  -1  -6   4   41.00    3.50
   1  -6  -4   43.30    3.20
   1   6  -4   42.60    3.00
  -1   6   4   42.20    2.80
  -1   6   4   43.00    2.60
  -1   6   4   40.80    2.50
   0  -6  -4    7.30    1.20
   0  -6   4    9.50    1.60
   0   6   4    8.90    0.70
   0   6   4    9.40    1.00
   0   6   4    8.90    0.70
   0   6  -4    7.80    1.20
   1  -6   4    2.80    0.80
   1   6   4    2.80    0.40
   1   6   4    3.20    0.80
   1   6   4    3.00    0.40
   2  -6   4    6.30    1.20
   2   6   4    7.70    0.60
   2   6   4    7.10    0.90
   2   6   4    6.20    0.80
   3  -6   4    7.40    1.50
  -3  -6  -4    6.00    0.80
   3   6   4    6.50    0.90
   3   6   4    6.20    0.60
   3   6   4    5.90    0.70
   3   6   4    7.50    0.60
  -4  -6  -4    3.50    0.60
   4  -6   4    3.00    0.60
   4   6   4    4.90    0.70
   4   6   4    4.30    0.50
   4   6   4    3.00    0.70
  -5  -6  -4   16.50    1.20
   5   6   4   16.40    1.10
   5   6   4   11.80    1.70
   5   6   4   16.20    1.00
  -3  -7   4    9.90    1.20
  -3   7   4    8.60    0.80
   3   7  -4    8.90    1.30
  -2  -7   4   33.60    2.60
  -2   7   4   36.70    2.40
  -1  -7   4    9.20    1.10
   1  -7  -4    8.60    1.20
  -1   7   4    9.90    0.90
   0  -7   4    2.90    0.60
   0   7   4    2.90    0.30
   0   7   4    2.40    0.50
   0   7   4    2.50    0.40
   1  -7   4    9.50    1.00
  -1  -7  -4   10.50    1.30
   1   7   4    8.90    0.80
   1   7   4    8.90    0.70
   1   7   4    9.60    0.90
 -12   0   5    0.20    0.30
  12   0  -5    0.40    0.60
  12   0  -5    0.20    1.40
  11   0  -5    4.90    1.20
 -11   0   5    4.00    0.60
 -11   0   5    2.70    1.00
  11   0  -5    3.60    2.00
 -11   0   5    4.20    0.40
 -10   0   5    1.20    0.30
  10   0  -5    0.90    1.30
  10   0  -5    0.70    0.60
 -10   0   5    0.30    0.30
 -10   0   5    0.50    0.40
  -9   0   5   39.00    4.30
  -9   0   5   37.60    3.80
   9   0  -5   40.50    3.50
   9   0  -5   38.10    6.10
  -9   0   5   39.40    2.90
  -9   0   5   41.60    2.90
   9   0  -5   35.50    3.70
   8   0  -5   80.89    5.60
  -8   0   5   76.79    4.60
  -8   0   5   86.19    5.00
  -8   0   5   44.40    6.70
  -8   0   5   83.79    5.10
   8   0  -5   74.39    5.10
   8   0  -5   71.79    5.00
   8   0  -5   90.39    9.00
  -8   0   5   83.49    5.80
  -7   0   5    0.50    0.40
   7   0  -5    0.00    1.30
  -7   0   5   -0.40    0.60
  -7   0   5    0.50    0.30
   7   0  -5    1.50    1.10
  -7   0   5    0.60    0.60
  -6   0   5  481.95   28.90
   6   0  -5  488.65   32.40
   6   0  -5  493.25   28.30
  -6   0   5  471.15   27.60
  -6   0   5  493.25   27.50
  -6   0   5  481.65   28.20
  -5   0   5  207.08   11.90
   5   0  -5  147.89   15.40
  -5   0   5  206.18   11.30
  -5   0   5  194.28   11.40
  -5   0   5  207.78   12.50
  -4   0   5  361.66   20.90
   4   0  -5  317.87   22.50
  -4   0   5  362.46   20.20
   3   0  -5  130.79   10.20
  -3   0   5  140.09    8.90
  -2   0   5 1468.65   84.49
   2   0  -5 1504.65   84.79
  -1   0   5   24.70    2.90
   1   0  -5   24.90    2.60
   0   0   5   23.20    3.30
   0   0  -5   21.90    2.30
  -1   0  -5  117.19    7.10
  -1   0  -5  124.69    7.60
   1   0   5  111.49    9.60
  -1   0  -5  108.29    6.60
  -2   0  -5  200.78   11.80
  -2   0  -5  197.18   11.50
   2   0   5  162.08   14.30
  -2   0  -5  198.28   11.00
   3   0   5   33.10    8.10
  -3   0  -5   38.10    3.60
  -3   0  -5   31.90    4.10
  -3   0  -5   45.80    2.70
  -3   0  -5   42.40    3.30
  -4   0  -5  400.26   23.60
  -4   0  -5  387.56   23.60
  -4   0  -5  391.86   23.60
  -4   0  -5  408.66   22.70
   5   0   5   20.00    1.60
  -5   0  -5   21.10    2.60
  -5   0  -5   22.10    2.50
   5   0   5   21.40    1.70
  -5   0  -5   22.60    2.50
  -5   0  -5   20.10    1.90
  -6   0  -5   55.89    3.80
   6   0   5   55.29    3.70
   6   0   5   55.69    3.60
  -6   0  -5   54.39    4.80
  -6   0  -5   57.59    4.60
  -6   0  -5   53.19    5.00
   6   0   5   54.89    3.80
  -7   0  -5   70.39    4.90
  -7   0  -5   65.59    6.00
  -7   0  -5   65.59    6.40
   7   0   5   77.49    4.70
  -7   0  -5   80.39    5.70
   7   0   5   74.79    5.00
   8   0   5   15.80    1.40
  -8   0  -5   14.10    1.50
   8   0   5   14.20    1.80
  -9   0  -5    2.70    0.40
  -9   0  -5    3.50    0.80
  -9   0  -5    3.90    0.70
   9   0   5    4.40    0.70
   9   0   5    3.10    1.20
 -10   0  -5   59.09    4.10
  10   0   5   70.49    4.10
 -10   0  -5   64.29    3.80
  12  -1  -5   55.59    4.10
  12  -1  -5   56.99    5.80
 -12  -1   5   49.80    3.10
  12   1  -5   52.19    5.90
  12   1  -5   50.89    4.00
 -12   1   5   52.39    3.40
 -11  -1   5    0.70    0.80
  11  -1  -5    0.40    0.60
 -11  -1   5    0.70    0.20
  11  -1  -5    0.10    1.30
  11   1  -5    0.30    1.30
  11   1  -5   -0.30    0.50
 -11   1   5    0.30    0.30
 -11   1   5    0.70    0.60
 -10  -1   5   48.90    3.70
 -10  -1   5   50.79    3.10
 -10  -1   5   45.30    3.20
  10  -1  -5   51.29    4.20
  10  -1  -5   52.69    6.90
 -10   1   5   51.39    3.50
  10   1  -5   46.90    3.50
  10   1  -5   49.60    3.90
 -10   1   5   50.29    3.50
  10   1  -5   55.19    7.20
  -9  -1   5    4.40    1.80
  -9  -1   5    2.80    0.80
   9  -1  -5    3.60    1.00
   9  -1  -5    3.50    2.00
  -9  -1   5    1.90    1.60
  -9  -1   5    7.70    0.80
  -9  -1   5    4.00    0.50
  -9   1   5    3.40    1.40
   9   1  -5    0.70    9.70
   9   1  -5    2.70    0.90
   9   1  -5    2.20    1.80
  -9   1   5    4.80    1.80
  -9   1   5    2.80    0.70
   9   1  -5    2.70    0.90
  -9   1   5    2.60    0.60
   9   1  -5    3.60    0.70
  -8  -1   5  105.19    8.00
  -8  -1   5  106.19    6.10
  -8  -1   5  102.89    8.10
  -8  -1   5   99.19    6.40
   8  -1  -5  104.29    7.20
   8  -1  -5  104.89   10.50
   8   1  -5  112.09   10.20
  -8   1   5  104.99    8.00
   8   1  -5  104.29    7.30
  -8   1   5  105.69    6.60
  -8   1   5  106.29    6.50
  -8   1   5  100.89    7.40
   8   1  -5  104.19    6.90
   8   1  -5  101.69    6.30
  -7  -1   5  233.48   15.40
  -7  -1   5  238.38   14.70
   7  -1  -5  230.58   14.70
  -7  -1   5  229.98   13.90
   7  -1  -5  239.28   14.30
  -7  -1   5  240.18   13.70
  -7  -1   5  243.28   14.00
  -7   1   5  249.68   14.50
   7   1  -5  236.18   13.80
   7   1  -5  277.27   18.40
  -7   1   5  246.48   14.00
  -7   1   5  234.48   14.80
   7   1  -5  237.68   18.40
  -7   1   5  244.98   15.50
   7   1  -5  224.68   15.10
   7   1  -5  234.98   15.00
  -6  -1   5  185.88   10.90
  -6  -1   5  184.98   10.30
  -6  -1   5  175.68   11.60
   6  -1  -5  191.78   10.90
   6   1  -5  134.89   11.60
  -6   1   5  181.88   11.10
  -6   1   5  174.58   10.40
  -6   1   5  171.98   11.50
   6   1  -5  179.98   13.50
  -5  -1   5 2022.30  115.09
  -5  -1   5 2049.99  113.79
   5  -1  -5 1988.90  117.99
  -5  -1   5 2088.09  114.29
  -5   1   5 2056.39  115.09
   5   1  -5 2108.99  116.79
  -5   1   5 2078.39  114.69
   5   1  -5 1856.31  115.29
  -4  -1   5  654.63   36.90
  -4  -1   5  679.03   36.70
  -4  -1   5  652.43   37.80
   4  -1  -5  642.64   38.70
  -4   1   5  636.44   38.00
   4   1  -5  639.64   38.70
  -3  -1   5   80.79    5.70
  -3  -1   5   78.99    4.80
  -3  -1   5   82.39    4.90
   3  -1  -5   84.19    6.50
   3   1  -5   81.09    6.50
  -3   1   5   91.39    6.50
   2  -1  -5 1167.78   66.09
  -2  -1   5 1112.89   65.29
  -2   1   5 1177.18   67.09
   2   1  -5 1146.19   65.89
  -1  -1   5  156.88    9.90
   1  -1  -5  166.18   10.60
   1   1  -5  157.78   10.20
  -1   1   5  157.68   12.50
   0  -1  -5  285.77   16.60
   0  -1  -5  260.37   15.40
   0  -1   5  271.27   16.00
   0   1   5  253.07   19.80
   0   1  -5  277.07   16.20
  -1  -1  -5  591.14   33.20
  -1  -1  -5  573.34   32.50
   1  -1   5  503.35   32.80
  -1  -1  -5  626.44   33.60
  -1   1  -5  612.94   33.10
   1   1   5  537.05   38.10
  -2  -1  -5  232.58   13.50
  -2  -1  -5  210.78   14.20
  -2  -1  -5  242.68   14.30
  -2  -1  -5  238.08   14.50
   2   1   5  205.78   19.50
  -2   1  -5  241.98   13.60
  -2   1  -5  255.47   14.10
  -3  -1  -5   60.69    4.00
  -3  -1  -5   62.19    4.80
  -3  -1  -5   62.49    4.80
  -3  -1  -5   60.89    4.70
  -3   1  -5   62.69    4.70
  -3   1  -5   65.99    4.50
  -3   1  -5   63.99    4.30
   3   1   5   47.10   10.20
  -4  -1  -5  114.39    7.70
  -4  -1  -5  115.39    6.80
  -4  -1  -5  113.69    7.60
  -4  -1  -5  106.49    6.80
  -4  -1  -5  114.19    7.80
  -4   1  -5  112.99    7.30
  -4   1  -5  106.19    7.40
   4   1   5   88.99   15.30
  -4   1  -5  111.39    7.20
   4   1   5  104.99    6.40
   4   1   5  100.59    7.10
  -5  -1  -5  101.99    7.70
  -5  -1  -5  103.79    7.40
  -5  -1  -5  107.89    6.50
  -5  -1  -5  107.59    7.80
   5  -1   5  101.59    6.30
  -5  -1  -5  105.89    6.60
   5  -1   5  104.39    6.30
   5   1   5  103.29    6.50
  -5   1  -5  106.89    7.40
   5   1   5  104.19    6.30
  -5   1  -5  106.89    7.30
  -5   1  -5  103.49    6.50
   5   1   5  106.29    6.20
  -5   1  -5  106.29    7.30
  -6  -1  -5  306.77   19.40
   6  -1   5  302.17   17.60
  -6  -1  -5  305.07   17.90
  -6  -1  -5  260.17   18.90
   6  -1   5  309.77   17.70
  -6  -1  -5  292.07   19.30
  -6  -1  -5  315.27   18.80
   6   1   5  316.37   17.70
  -6   1  -5  327.37   18.80
  -6   1  -5  306.87   17.70
  -6   1  -5  315.97   18.90
  -7  -1  -5    1.10    0.50
   7  -1   5    0.70    0.40
  -7  -1  -5   -1.30    1.10
  -7  -1  -5    0.40    0.50
   7  -1   5    0.60    0.40
  -7   1  -5    0.90    0.60
   7   1   5    0.10    0.40
  -7   1  -5    0.30    0.50
   7   1   5    0.30    0.40
   8  -1   5   47.80    3.30
  -8  -1  -5   46.30    3.70
  -8  -1  -5   46.00    3.30
  -8   1  -5   49.20    3.90
  -8   1  -5   47.20    3.30
   8   1   5   47.60    3.20
   8   1   5   48.30    3.40
  -9  -1  -5    0.80    0.50
   9  -1   5    1.40    0.60
  -9  -1  -5    1.70    0.30
  -9  -1  -5    0.90    0.40
  -9   1  -5    1.00    0.50
   9   1   5   -0.20    0.50
   9   1   5    1.30    0.40
 -12  -2   5   36.20    2.20
  12  -2  -5   37.20    3.00
  12  -2  -5   41.20    4.40
  12   2  -5   33.00    4.30
 -12   2   5   36.90    2.40
  12   2  -5   34.40    2.80
  11  -2  -5  184.78   13.90
  11  -2  -5  178.68   11.10
 -11  -2   5  174.58    9.90
 -11   2   5  177.78   10.20
  11   2  -5  159.18   13.70
  11   2  -5  170.28   10.70
  11   2  -5  163.78   10.20
 -10  -2   5   16.30    1.10
  10  -2  -5   17.30    2.20
 -10  -2   5   15.20    1.90
 -10  -2   5   12.50    1.20
  10  -2  -5   14.20    3.60
 -10   2   5   15.60    1.40
  10   2  -5   12.30    1.30
  10   2  -5   14.60    3.80
 -10   2   5   13.50    1.50
  10   2  -5   13.80    1.70
  -9  -2   5  259.57   15.30
   9  -2  -5  242.28   19.90
  -9  -2   5  254.47   17.00
   9  -2  -5  257.67   16.10
  -9  -2   5  232.18   14.70
  -9  -2   5  255.57   17.10
  -9  -2   5  267.87   14.60
   9   2  -5  259.97   27.80
  -9   2   5  259.77   15.00
   9   2  -5  257.27   14.80
   9   2  -5  260.87   19.30
  -9   2   5  266.87   16.70
  -9   2   5  239.78   16.10
   9   2  -5  252.37   15.30
  -9   2   5  263.47   15.10
  -8  -2   5  277.77   18.20
  -8  -2   5  251.67   16.20
  -8  -2   5  281.17   16.70
   8  -2  -5  283.37   28.90
  -8  -2   5  273.37   17.80
   8  -2  -5  261.57   17.70
  -8  -2   5  313.57   16.20
   8   2  -5  266.77   16.60
   8   2  -5  309.97   26.30
  -8   2   5  278.07   18.00
  -8   2   5  277.47   16.50
  -8   2   5  256.67   17.50
   8   2  -5  322.57   16.70
   8   2  -5  304.07   21.70
  -8   2   5  282.07   16.60
  -7  -2   5  371.96   23.10
   7  -2  -5  375.26   26.80
  -7  -2   5  390.96   21.20
  -7  -2   5  345.97   21.40
  -7  -2   5  379.66   21.70
   7  -2  -5  352.26   22.40
  -7  -2   5  377.96   22.60
   7   2  -5  404.66   22.50
   7   2  -5  340.67   23.30
   7   2  -5  422.96   24.80
  -7   2   5  363.36   22.60
  -7   2   5  383.26   21.70
   7   2  -5  346.27   25.90
  -7   2   5  380.36   23.10
   7   2  -5  369.26   21.30
  -6  -2   5  448.06   26.40
   6  -2  -5  433.96   30.20
   6  -2  -5  419.16   26.50
  -6  -2   5  456.15   25.70
  -6  -2   5  461.75   27.20
  -6  -2   5  442.26   25.40
   6  -2  -5  434.36   26.00
   6   2  -5  453.65   27.10
  -6   2   5  448.36   25.70
  -6   2   5  442.46   26.80
   6   2  -5  493.25   28.20
   6   2  -5  440.46   25.40
  -6   2   5  454.95   27.00
   6   2  -5  459.65   29.70
  -5  -2   5   14.00    1.70
   5  -2  -5   15.10    1.70
  -5  -2   5   15.00    1.30
  -5  -2   5   15.80    2.20
  -5   2   5   13.40    2.10
  -5   2   5   14.00    1.30
   5   2  -5   15.40    3.30
   5   2  -5   16.40    1.90
  -4  -2   5  257.97   15.80
  -4  -2   5  249.28   15.00
   4  -2  -5  267.07   15.40
  -4  -2   5  234.98   14.70
   4   2  -5  261.07   15.30
   4   2  -5  269.77   17.30
  -4   2   5  260.47   14.80
  -3  -2   5   25.00    2.50
   3  -2  -5   26.30    2.30
  -3  -2   5   24.20    1.70
   3   2  -5   22.70    2.30
  -3   2   5   27.70    3.50
  -3   2   5   22.50    1.70
   3   2  -5   25.30    3.10
   2  -2  -5  201.18   13.90
   2  -2  -5  184.08   11.70
  -2  -2   5  165.28   11.10
  -2   2   5  182.58   10.70
   2   2  -5  183.68   12.10
  -2   2   5  196.78   14.60
   1  -2  -5  107.89    7.90
  -1   2   5   98.29    6.50
   1   2  -5  104.29    7.20
  -1   2   5  107.69   11.00
   0  -2  -5  334.77   20.80
   0  -2  -5  338.37   19.30
   0  -2  -5  371.16   20.80
   0   2   5  328.37   19.20
   0   2   5  301.47   25.30
   0   2  -5  345.17   20.20
  -1  -2  -5 1221.68   72.09
  -1  -2  -5 1335.27   72.89
  -1  -2  -5 1308.17   71.79
  -1  -2  -5 1285.17   73.19
   1   2   5 1125.99   79.49
  -1   2  -5 1306.27   72.39
   1   2   5 1338.97   71.59
  -2  -2  -5   50.59    3.70
  -2  -2  -5   54.39    4.70
  -2  -2  -5   49.70    3.60
  -2  -2  -5   47.20    4.50
   2   2   5   47.50   10.40
  -2   2  -5   51.19    3.80
   2   2   5   56.69    3.30
  -3  -2  -5    5.90    0.90
  -3  -2  -5    6.40    1.30
  -3  -2  -5    7.10    1.70
  -3  -2  -5    4.70    1.20
  -3  -2  -5    5.00    1.50
   3   2   5    8.40    5.50
  -3   2  -5    5.40    1.00
  -4  -2  -5  147.09    9.90
  -4  -2  -5  165.58   11.10
  -4  -2  -5  161.08    9.70
  -4  -2  -5  160.38    9.80
  -4  -2  -5  154.88   10.40
   4  -2   5  197.68   10.40
  -4  -2  -5  158.08   11.20
   4   2   5  146.39   19.70
   4   2   5  160.58    9.30
  -4   2  -5  162.78   10.20
   4   2   5  161.48    9.30
  -4   2  -5  156.78   10.30
   5  -2   5    7.50    0.90
  -5  -2  -5    8.50    1.40
  -5  -2  -5    7.90    1.10
  -5  -2  -5    7.80    2.00
  -5  -2  -5    8.70    1.20
  -5  -2  -5    8.40    4.00
  -5  -2  -5    5.70    1.00
   5  -2   5    9.20    1.40
   5   2   5    9.10    0.70
   5   2   5    8.40    0.90
  -5   2  -5   10.00    1.70
   5   2   5    9.50    0.90
  -5   2  -5    8.70    1.50
   6  -2   5  209.98   12.20
   6  -2   5  224.58   12.50
  -6  -2  -5  218.88   12.80
  -6  -2  -5  203.38   14.40
  -6  -2  -5  195.58   14.90
  -6  -2  -5  211.58   12.80
  -6  -2  -5  201.18   13.60
   6   2   5  206.18   12.00
  -6   2  -5  215.58   13.70
   6   2   5  214.28   12.20
   6   2   5  218.58   12.30
  -6   2  -5  199.88   14.60
  -7  -2  -5  135.69    9.00
   7  -2   5  159.48    9.10
  -7  -2  -5  133.99    9.20
  -7  -2  -5  145.69    9.00
   7  -2   5  135.19    8.60
   7   2   5  153.58    8.60
  -7   2  -5  148.09    9.50
   7   2   5  149.69    8.70
   8  -2   5   13.60    1.40
  -8  -2  -5   13.60    1.30
  -8  -2  -5   12.20    1.40
  -8  -2  -5   12.50    1.00
   8   2   5   14.30    1.20
  -8   2  -5   14.30    1.70
   8   2   5   12.00    1.30
  -9  -2  -5   13.60    1.10
   9  -2   5   13.10    1.30
  -9  -2  -5   11.70    1.00
  -9   2  -5   12.80    0.90
  -9   2  -5   15.70    1.70
   9   2   5   14.60    1.20
   9   2   5   12.60    1.30
  11  -3  -5    6.40    1.30
 -11  -3   5    7.50    0.60
  11  -3  -5    6.80    2.10
 -11   3   5    6.50    0.50
  11   3  -5    5.10    1.10
  11   3  -5    6.60    0.80
  11   3  -5    4.90    2.00
 -11   3   5    7.10    0.70
 -10  -3   5   11.00    0.90
  10  -3  -5   13.80    3.40
  10  -3  -5    9.90    1.70
 -10  -3   5   10.20    0.90
  10   3  -5    9.90    3.00
 -10   3   5   10.40    1.10
  10   3  -5   12.30    1.20
 -10   3   5   10.20    1.30
  10   3  -5    8.90    1.50
  -9  -3   5  160.38    8.80
   9  -3  -5  135.49   15.10
  -9  -3   5  156.98    9.10
  -9  -3   5  151.58    9.50
   9  -3  -5  163.18   10.50
   9   3  -5  155.58    9.00
   9   3  -5  153.98   10.80
  -9   3   5  151.08    9.10
   9   3  -5  133.09   12.30
   9   3  -5  144.19    9.20
  -9   3   5  149.88    9.10
   8  -3  -5   46.60    7.00
   8  -3  -5   50.59    4.40
  -8  -3   5   51.09    3.80
  -8  -3   5   48.10    3.30
  -8  -3   5   49.90    3.10
   8   3  -5   29.00   11.60
  -8   3   5   47.70    4.80
  -8   3   5   49.70    3.40
   8   3  -5   48.00    3.50
   8   3  -5   47.80   12.00
  -8   3   5   52.29    3.60
   8   3  -5   48.90    3.20
   8   3  -5   52.29    6.00
   8   3  -5   50.59    5.30
  -8   3   5   45.40    4.60
   7  -3  -5   28.20    3.60
  -7  -3   5   37.50    2.40
  -7  -3   5   36.20    2.70
   7   3  -5   32.60    3.80
  -7   3   5   32.90    3.60
  -7   3   5   33.30    3.70
   7   3  -5   22.80    2.30
  -7   3   5   32.80    2.40
   7   3  -5   29.80    6.80
   7   3  -5   40.20    9.60
  -6  -3   5  289.37   16.30
   6  -3  -5  266.37   17.70
   6  -3  -5  280.57   21.70
  -6  -3   5  275.67   16.80
  -6  -3   5  277.07   16.60
   6  -3  -5  275.77   16.90
  -6   3   5  292.27   20.60
   6   3  -5  307.27   22.90
   6   3  -5  302.47   17.80
   6   3  -5  312.77   18.70
   6   3  -5  290.07   16.40
  -6   3   5  282.47   16.60
  -5  -3   5   29.20    1.80
  -5  -3   5   25.00    2.10
  -5  -3   5   27.20    2.10
   5  -3  -5   25.80    2.90
   5  -3  -5   28.30    4.90
   5  -3  -5   27.10    2.40
  -5   3   5   26.10    2.10
   5   3  -5   28.60    3.20
  -5   3   5   28.20    3.20
   5   3  -5   22.90    4.50
   5   3  -5   28.90    2.60
  -4  -3   5   88.79    5.50
  -4  -3   5   85.99    5.50
  -4  -3   5   90.89    5.30
   4  -3  -5   84.19    9.00
   4  -3  -5   94.39    6.10
   4   3  -5   94.09    5.90
  -4   3   5   92.99    7.40
  -4   3   5   89.49    5.50
   4   3  -5   89.09    8.10
   3  -3  -5   28.70    2.40
  -3   3   5   24.20    1.80
   3   3  -5   26.00    3.60
   3   3  -5   25.10    2.10
  -3   3   5   28.20    4.30
   2  -3  -5  181.98   11.10
  -2   3   5  187.98   15.60
   2   3  -5  163.38   10.70
  -2   3   5  192.88   10.50
   2   3  -5  181.38   12.40
   1  -3  -5  144.69    9.00
  -1   3   5  146.19    8.40
   1   3  -5  145.79   10.00
  -1   3   5  131.39   14.10
   0  -3  -5  896.91   50.69
   0   3   5  803.42   58.39
   0   3  -5  936.81   51.39
   0   3   5  904.51   49.99
  -1  -3  -5   42.90    3.10
  -1  -3  -5   40.80    3.30
   1   3   5   34.60    9.00
   1   3   5   45.80    2.90
  -1   3  -5   46.10    3.70
  -2  -3  -5  100.39    6.10
   2  -3   5   89.89    6.40
  -2  -3  -5   97.19    6.20
  -2  -3  -5   94.79    7.40
   2  -3   5  100.99    5.60
  -2  -3  -5  100.99    6.30
  -2  -3  -5   96.89    6.40
   2   3   5   81.09   13.90
   2   3   5   97.19    5.80
   2   3   5  104.39    6.00
  -2   3  -5  100.89    6.70
  -3  -3  -5   31.70    3.60
  -3  -3  -5   28.90    2.30
  -3  -3  -5   29.80    2.50
   3  -3   5   26.70    2.40
  -3  -3  -5   32.60    2.60
  -3  -3  -5   30.30    2.60
   3   3   5   31.00    2.20
   3   3   5   26.30    9.10
   3   3   5   31.80    2.00
  -3   3  -5   31.80    2.80
   3   3   5   32.20    2.00
  -4  -3  -5  220.48   13.40
  -4  -3  -5  223.48   13.30
  -4  -3  -5  221.18   14.90
   4  -3   5  234.78   13.00
  -4  -3  -5  207.28   13.10
   4   3   5  225.88   12.70
   4   3   5  233.08   12.90
   4   3   5  193.28   24.90
   4   3   5  220.48   13.00
   4   3   5  221.58   12.70
  -4   3  -5  222.38   13.50
  -5  -3  -5   81.19    7.30
  -5  -3  -5   82.99    5.60
   5  -3   5   83.69    5.10
  -5  -3  -5   78.89    5.00
  -5  -3  -5   83.09    5.70
   5   3   5   53.99   15.20
   5   3   5   85.79    4.90
   5   3   5   89.49    5.20
   5   3   5   87.99    5.10
  -5   3  -5   83.49    5.90
  -6  -3  -5   21.40    2.10
  -6  -3  -5   20.10    1.90
   6  -3   5   19.30    1.60
  -6  -3  -5   18.90    1.50
   6   3   5   22.00    1.60
   6   3   5   20.10    1.40
   6   3   5   20.40    1.50
  -6   3  -5   21.70    2.30
   7  -3   5   10.70    1.50
  -7  -3  -5    9.40    0.90
  -7  -3  -5   11.40    1.70
  -7  -3  -5    9.40    1.20
   7   3   5   12.20    1.10
   7   3   5   10.10    1.00
  -7   3  -5   11.00    1.50
   7   3   5    9.90    0.80
  -8  -3  -5   40.90    2.80
  -8  -3  -5   44.40    2.50
   8   3   5   29.10    3.00
   8   3   5   43.30    2.60
  -8   3  -5   39.10    2.90
 -10  -4   5  116.49    6.60
 -10  -4   5  115.39    6.50
  10  -4  -5  132.19    9.60
 -10   4   5   97.19    6.80
  10   4  -5   97.69    8.90
  10   4  -5  118.49    6.70
  -9  -4   5   51.39    3.20
  -9  -4   5   50.69    3.10
   9  -4  -5   53.59    6.50
   9   4  -5   55.49    3.30
  -9   4   5   54.09    3.30
   9   4  -5   34.10    4.80
  -9   4   5   53.39    3.00
   9   4  -5   46.90    5.60
  -8  -4   5   62.19    3.80
   8  -4  -5   51.69    7.20
  -8  -4   5   58.39    3.50
  -8   4   5   59.29    3.80
   8   4  -5   52.79    5.50
  -8   4   5   62.39    3.50
   8   4  -5   54.59    6.00
  -8   4   5   63.49    4.10
   8   4  -5   60.09    3.70
  -7  -4   5   14.10    1.10
  -7  -4   5   16.70    1.40
   7  -4  -5   13.30    3.90
   7   4  -5   16.30    3.00
   7   4  -5   12.80    2.50
  -7   4   5   13.80    1.00
   7   4  -5   15.30    1.20
  -7   4   5   15.00    1.30
  -6  -4   5    7.50    0.70
   6  -4  -5    8.30    3.40
  -6  -4   5    7.30    0.90
  -6  -4   5    8.40    1.70
  -6   4   5    6.20    0.60
   6   4  -5    7.70    1.60
   6   4  -5    5.30    8.30
   6   4  -5    7.60    2.00
   6   4  -5    7.00    0.80
  -6   4   5    6.90    2.30
  -6   4   5    6.60    0.80
   6   4  -5    0.60    5.10
  -5  -4   5  114.89    8.00
   5  -4  -5  120.79    7.70
   5  -4  -5  129.39   15.40
  -5   4   5  119.89    7.30
   5   4  -5  133.69    9.00
   5   4  -5  116.59    7.10
   5   4  -5  112.89   11.30
   5   4  -5  143.59   15.40
  -5   4   5  113.79    7.00
  -5   4   5  121.19    8.90
   5   4  -5  122.49    8.00
   4  -4  -5   49.80    3.70
  -4  -4   5   41.00    3.80
  -4  -4   5   49.70    3.20
   4  -4  -5   47.60    6.70
  -4  -4   5   47.70    2.90
   4   4  -5   40.60    6.10
  -4   4   5   49.10    5.10
  -4   4   5   47.00    2.90
   4   4  -5   48.50    3.00
   4   4  -5   62.69    9.60
   4   4  -5   50.29    4.30
   4   4  -5   49.00    3.60
  -4   4   5   48.60    3.20
   3  -4  -5   30.20    5.20
   3  -4  -5   30.30    2.70
  -3  -4   5   30.10    1.90
  -3  -4   5   27.00    2.80
  -3  -4   5   28.80    2.10
   3   4  -5   34.60    4.70
   3   4  -5   29.50    2.40
  -3   4   5   29.00    2.10
  -3   4   5   19.80    5.80
  -3   4   5   28.90    1.80
  -2  -4   5   17.40    1.20
  -2  -4   5   18.00    1.40
  -2  -4   5   18.80    2.20
   2  -4  -5   19.90    2.10
  -2   4   5   17.50    1.20
  -2   4   5   17.60    5.00
   2   4  -5   16.30    1.80
   2   4  -5   18.60    3.50
  -2   4   5   18.30    1.40
  -1  -4   5  154.08   10.30
   1  -4  -5  169.98   10.30
  -1  -4   5  164.38    9.50
  -1  -4   5  169.78    9.30
   1   4  -5  154.08    9.60
  -1   4   5  156.38    9.30
  -1   4   5  172.08    9.60
  -1   4   5  152.98   16.40
   1   4  -5  169.78   11.90
   0  -4   5  363.16   20.10
   0  -4   5  343.37   20.20
   0  -4   5  334.17   21.10
   0  -4  -5  375.16   21.10
   0   4   5  322.77   36.20
   0   4  -5  376.16   22.40
   0   4   5  363.36   20.40
   0   4   5  358.26   20.10
  -1  -4  -5  282.87   15.60
   1  -4   5  254.67   16.00
  -1  -4  -5  266.77   15.90
   1  -4   5  269.67   14.90
   1   4   5  275.47   15.00
   1   4   5  238.08   24.80
  -1   4  -5  258.97   17.50
   1   4   5  259.67   15.00
  -2  -4  -5   97.99    6.50
  -2  -4  -5  105.19    6.40
  -2  -4  -5  102.49    6.50
   2  -4   5   88.39    6.60
   2   4   5  102.19    5.80
   2   4   5  102.69    5.80
   2   4   5   76.19   15.60
   2   4   5  100.99    6.10
  -3  -4  -5   44.40    3.40
  -3  -4  -5   49.99    3.60
   3  -4   5   48.20    3.60
  -3  -4  -5   49.30    3.50
   3   4   5   46.50    3.20
   3   4   5   45.90    2.90
   3   4   5   46.90    2.90
   3   4   5   32.30   11.20
  -4  -4  -5  118.29    7.70
  -4  -4  -5  116.59    7.50
   4  -4   5  129.49    7.50
  -4  -4  -5  125.19    7.80
   4   4   5  127.49    7.30
   4   4   5  121.29    7.20
   4   4   5  109.49   23.70
   4   4   5  118.79    7.50
   4   4   5  123.69    7.10
   5  -4   5   86.39    5.20
  -5  -4  -5   81.59    5.00
  -5  -4  -5   84.29    5.70
  -5  -4  -5   87.89    5.80
   5   4   5   87.59    5.20
   5   4   5   82.29    5.00
   5   4   5   88.19    5.30
  -6  -4  -5    4.30    0.90
  -6  -4  -5    2.80    0.90
  -6  -4  -5    4.60    0.50
   6   4   5    2.70    1.30
   6   4   5    5.00    0.60
   6   4   5    4.70    0.50
   6   4   5    5.00    0.70
  -7  -4  -5    5.20    0.50
  -7  -4  -5    5.50    0.80
   7   4   5    4.30    0.50
   7   4   5    6.10    0.80
   7   4   5    6.20    0.80
  -8  -4  -5   28.70    1.90
   8   4   5   23.80    1.80
   8   4   5   26.70    1.90
  -9  -5   5   23.70    1.50
  -9  -5   5   25.40    1.60
   9   5  -5   19.10    3.00
   9   5  -5   26.00    1.70
  -9   5   5   27.00    1.70
  -8  -5   5   19.30    1.20
  -8  -5   5   18.50    1.30
   8   5  -5   18.20    1.30
  -8   5   5   18.80    1.30
   8   5  -5   12.80    3.10
   8   5  -5   13.60    2.60
  -7  -5   5   30.40    2.10
   7  -5  -5   26.80    4.90
  -7  -5   5   26.80    2.60
  -7  -5   5   28.50    1.80
   7   5  -5   30.60    2.00
   7   5  -5   28.50    3.40
   7   5  -5   29.70    3.70
  -7   5   5   32.60    2.20
   6  -5  -5   18.70    4.20
  -6  -5   5   20.70    1.60
  -6  -5   5   16.60    2.00
  -6  -5   5   19.50    1.30
  -6   5   5   20.50    1.50
  -6   5   5   15.30    1.40
   6   5  -5   20.30    2.50
   6   5  -5   21.30    1.40
   6   5  -5   21.20    2.90
   5  -5  -5   31.50    2.50
  -5  -5   5   33.90    2.30
  -5  -5   5   30.90    2.00
  -5  -5   5   29.20    2.90
   5   5  -5   32.90    2.30
   5   5  -5   32.20    3.00
  -5   5   5   32.30    2.20
  -5   5   5   27.80    2.00
   5   5  -5   34.30    4.20
  -4  -5   5   92.29    6.60
  -4  -5   5   98.99    5.80
   4  -5  -5   96.89    6.30
  -4  -5   5   91.09    5.50
   4   5  -5   98.09    5.70
  -4   5   5   90.29    5.50
   4   5  -5  102.09    7.20
   4   5  -5   92.99    6.40
  -4   5   5   94.99    5.80
  -3  -5   5   65.49    5.00
  -3  -5   5   67.39    4.20
  -3  -5   5   66.09    3.90
   3  -5  -5   71.09    4.80
   3  -5  -5   46.10    5.80
  -3   5   5   64.29    3.90
  -3   5   5   70.99    4.30
   3   5  -5   57.99   13.40
   3   5  -5   74.59    8.70
   3   5  -5   67.09    4.60
  -3   5   5   72.09    7.50
   3   5  -5   68.39    5.20
   2  -5  -5   22.30    2.20
  -2  -5   5   17.70    1.20
  -2  -5   5   20.80    1.50
  -2  -5   5   19.60    2.30
  -2   5   5   20.60    1.60
  -2   5   5   13.90    4.60
  -2   5   5   20.80    1.40
   2   5  -5   18.80    1.80
   2   5  -5   13.70    3.80
  -1  -5   5   29.10    1.90
  -1  -5   5   27.10    1.70
  -1  -5   5   29.40    2.90
   1  -5  -5   30.70    2.60
  -1   5   5   29.60    7.20
  -1   5   5   29.00    1.80
  -1   5   5   29.30    2.10
   1   5  -5   25.90    2.20
   1   5  -5   21.70    4.70
   0  -5   5  257.97   14.30
   0  -5   5  241.28   14.10
   0  -5   5  254.17   15.40
   0  -5  -5  241.78   15.10
   0   5   5  264.37   14.60
   0   5   5  260.07   14.20
   0   5   5  228.68   23.00
   0   5   5  245.28   14.20
   1  -5   5  101.39    7.30
  -1  -5  -5  109.69    7.20
   1   5   5  108.59    6.40
   1   5   5  115.39    6.70
   1   5   5  113.79    6.40
   1   5   5   90.39   22.10
  -2  -5  -5   65.19    4.80
  -2  -5  -5   68.49    4.60
   2  -5   5   67.59    5.00
   2   5   5   75.69    4.60
   2   5   5   69.89    4.20
   2   5   5   72.49    4.20
   3  -5   5   26.00    2.20
  -3  -5  -5   23.50    2.00
   3   5   5   19.40    2.00
   3   5   5   25.20    1.70
   3   5   5   31.60    1.90
   3   5   5   25.50    2.00
  -4  -5  -5   23.90    2.00
   4  -5   5   24.60    1.90
   4   5   5   26.70    1.70
   4   5   5   26.10    1.70
   4   5   5   26.60    1.80
   4   5   5   23.00    2.00
   5  -5   5   19.20    1.40
  -5  -5  -5   19.80    1.60
   5   5   5   21.50    1.30
   5   5   5   19.20    1.50
   5   5   5   15.70    2.00
   5   5   5   22.00    1.50
  -6  -5  -5    8.60    0.90
   6   5   5    3.80    1.40
   6   5   5    8.30    0.70
   6   5   5    8.50    0.80
   6   5   5    8.50    0.60
  -7  -6   5   15.40    1.00
   7   6  -5   12.20    2.00
   7   6  -5   16.50    1.20
   7   6  -5   11.80    2.00
  -6  -6   5    2.60    0.70
  -6  -6   5    2.70    0.40
  -6  -6   5    2.20    0.20
   6   6  -5    1.00    1.10
   6   6  -5    2.30    0.40
  -6   6   5    3.00    0.50
   6   6  -5    1.20    0.90
  -5  -6   5   12.00    0.80
  -5  -6   5   10.50    1.80
  -5  -6   5   13.30    1.00
   5   6  -5   11.90    2.10
   5   6  -5   12.20    1.90
  -5   6   5   13.60    1.10
   5   6  -5   13.80    1.00
  -4  -6   5    8.20    1.40
  -4  -6   5    7.10    0.70
   4   6  -5    7.00    1.30
   4   6  -5    7.30    1.70
   4   6  -5    7.40    0.80
  -4   6   5    7.60    0.80
   3  -6  -5    4.30    0.80
  -3  -6   5    3.30    0.50
  -3  -6   5    2.10    0.80
  -3   6   5    2.70    0.50
   3   6  -5    2.60    0.70
  -3   6   5    3.40    0.50
   2  -6  -5   13.20    1.50
  -2  -6   5   12.90    1.00
   2  -6  -5   11.50    1.60
  -2  -6   5   11.80    1.70
  -2   6   5   13.20    1.20
  -2   6   5   13.10    0.90
   2   6  -5   11.80    1.50
  -2   6   5   13.50    0.90
   1  -6  -5    5.10    1.10
  -1  -6   5    6.00    1.20
   1  -6  -5    5.90    1.20
  -1   6   5    6.80    0.60
  -1   6   5    6.00    0.80
   1   6  -5    5.90    1.20
  -1   6   5    6.40    0.60
   0  -6  -5    6.20    1.00
   0  -6   5    4.80    1.10
   0   6   5    6.00    0.50
   0   6   5    5.70    0.60
   0   6   5    6.30    0.80
   1  -6   5    1.20    0.70
   1   6   5    0.90    0.40
   1   6   5    0.80    0.20
   1   6   5    1.10    0.20
   2  -6   5    3.40    0.80
   2   6   5    5.10    0.70
   2   6   5    4.90    0.50
   2   6   5    4.70    0.70
   2   6   5    5.00    0.50
   3  -6   5   43.60    2.70
   3   6   5   36.10    2.70
   3   6   5   41.20    2.50
   3   6   5   41.70    2.50
   4  -6   5   13.00    1.00
  -4  -6  -5   14.00    1.20
   4   6   5   14.10    0.90
   4   6   5   13.50    1.00
  12   0  -6    1.90    1.50
  12   0  -6    0.40    0.70
  11   0  -6    0.00    1.20
 -11   0   6    0.20    0.70
  11   0  -6   -0.70    0.50
 -11   0   6    0.20    0.20
 -10   0   6    1.80    0.40
  10   0  -6    1.60    1.50
  10   0  -6    1.90    0.80
 -10   0   6    1.70    0.40
 -10   0   6    1.70    0.60
  -9   0   6  172.08   10.00
  -9   0   6  164.98   11.00
  -9   0   6  158.58    9.50
   9   0  -6  180.58   14.70
   9   0  -6  149.29   10.00
   9   0  -6  169.28   10.70
  -9   0   6  170.28   12.00
  -9   0   6  165.88   10.40
  -8   0   6  126.39    9.20
  -8   0   6  118.09    8.80
  -8   0   6  115.49    7.00
   8   0  -6  126.49    7.90
   8   0  -6  119.29    8.10
   8   0  -6  111.59    7.50
   8   0  -6  134.29   11.70
  -8   0   6  122.39    7.40
  -8   0   6  119.59    7.40
   7   0  -6    4.90    2.50
  -7   0   6    4.40    1.60
  -7   0   6    2.70    1.00
   7   0  -6    3.00    1.10
   7   0  -6    3.30    0.90
   7   0  -6    2.80    0.80
  -7   0   6    2.50    0.50
   6   0  -6  206.48   12.80
  -6   0   6  201.88   11.70
  -6   0   6  201.98   13.20
  -6   0   6  203.78   13.50
   6   0  -6  207.98   12.60
   6   0  -6  181.68   15.00
  -6   0   6  197.58   11.70
   5   0  -6  270.97   18.50
  -5   0   6  268.37   16.40
  -5   0   6  275.17   15.90
   5   0  -6  274.07   17.10
  -5   0   6  282.57   16.00
   5   0  -6  295.97   17.10
  -5   0   6  279.67   17.30
  -4   0   6  260.47   15.80
   4   0  -6  286.27   17.20
  -4   0   6  244.08   14.40
   4   0  -6  235.08   15.30
   4   0  -6  257.57   16.70
  -4   0   6  238.88   14.80
  -3   0   6  841.02   49.30
   3   0  -6  866.21   50.09
  -2   0   6    0.90    0.80
   2   0  -6    0.50    0.80
   1   0  -6  119.99    8.30
  -1   0   6  110.99    8.30
   0   0   6    4.40    1.80
   0   0  -6    4.00    1.10
  -1   0  -6  157.58   10.00
  -1   0  -6  161.88   10.20
   1   0   6  144.29   11.60
  -2   0  -6   39.80    3.50
   2   0   6   35.30    6.40
  -2   0  -6   41.80    3.20
  -2   0  -6   40.90    3.60
  -3   0  -6  289.47   17.80
  -3   0  -6  308.97   18.40
  -3   0  -6  294.57   18.10
  -4   0  -6   44.20    3.90
  -4   0  -6   50.79    4.20
  -4   0  -6   52.89    4.50
   4   0   6   49.40    3.30
  -4   0  -6   47.30    4.20
   5   0   6  104.99    6.50
  -5   0  -6  112.69    7.60
  -5   0  -6  105.09    7.90
  -5   0  -6  105.99    6.60
  -5   0  -6   97.09    7.60
   5   0   6  103.59    6.30
  -6   0  -6  845.32   64.29
  -6   0  -6 1151.28   60.99
  -6   0  -6 1154.08   62.09
   6   0   6 1096.59   60.89
   6   0   6 1131.19   60.79
  -7   0  -6  107.49    6.90
   7   0   6   97.89    6.30
   8   0   6   89.19    5.40
  -8   0  -6   83.89    5.40
  -9   0  -6    3.00    0.80
   9   0   6    4.20    0.70
  -9   0  -6    3.70    0.40
  12  -1  -6   31.60    2.60
  12  -1  -6   32.40    4.20
 -12  -1   6   27.60    1.80
  12   1  -6   27.40    2.40
  12   1  -6   26.40    4.00
 -12   1   6   27.70    1.90
  11  -1  -6    2.70    0.90
  11  -1  -6    3.00    1.70
 -11  -1   6    2.50    0.40
  11   1  -6    1.70    1.50
 -11   1   6    3.30    0.60
 -11   1   6    2.60    0.90
  11   1  -6    2.80    0.80
 -10  -1   6  114.69    6.90
 -10  -1   6  116.69    7.30
  10  -1  -6  115.39    7.90
  10  -1  -6  123.79   11.50
  10   1  -6   89.49    7.90
  10   1  -6  124.79   11.50
 -10   1   6  114.39    7.10
 -10   1   6  118.49    7.10
  10   1  -6  112.49    8.30
  -9  -1   6  104.89   13.40
   9  -1  -6  202.18   16.10
  -9  -1   6  172.68   14.40
  -9  -1   6  198.78   10.70
   9  -1  -6  200.18   12.10
  -9  -1   6  200.98   11.30
  -9  -1   6  167.68   11.00
  -9   1   6  127.49   12.30
   9   1  -6  200.68   11.70
   9   1  -6  189.48   11.10
  -9   1   6  199.28   11.10
  -9   1   6  200.98   11.20
  -9   1   6  208.18   15.10
   9   1  -6  221.28   16.10
  -8  -1   6   80.29    6.00
  -8  -1   6   72.19    4.80
  -8  -1   6   75.39    5.00
   8  -1  -6   78.19    5.40
   8  -1  -6   73.59    5.70
  -8  -1   6   80.79    6.80
  -8  -1   6   79.49    4.70
   8  -1  -6   79.39    8.80
   8   1  -6   79.09    5.50
  -8   1   6   70.69    5.90
   8   1  -6   72.39    5.00
  -8   1   6   79.59    5.10
   8   1  -6   87.79    5.90
  -8   1   6   79.09    6.60
   8   1  -6   87.69    8.70
  -8   1   6   79.19    5.00
  -7  -1   6  681.93   38.80
  -7  -1   6  714.73   41.00
   7  -1  -6  732.53   39.70
  -7  -1   6  700.63   39.80
  -7  -1   6  669.63   39.00
   7  -1  -6  709.73   43.90
  -7  -1   6  721.73   39.10
   7  -1  -6  610.84   39.30
   7  -1  -6  661.63   39.90
   7   1  -6  657.73   39.00
  -7   1   6  696.03   39.20
   7   1  -6  759.72   43.50
   7   1  -6  643.54   39.50
  -7   1   6  725.73   40.90
   7   1  -6  673.53   43.90
  -7   1   6  664.13   40.00
  -7   1   6  691.73   39.10
   7   1  -6  696.13   40.50
   6  -1  -6  154.18   10.00
  -6  -1   6  159.48    9.90
  -6  -1   6  165.98   11.00
  -6  -1   6  178.98    9.50
  -6  -1   6  157.18    9.40
   6   1  -6  163.58   13.00
  -6   1   6  161.38   10.90
   6   1  -6  144.99    9.50
  -6   1   6  156.68   10.30
  -6   1   6  160.08    9.50
  -5  -1   6  187.78   11.80
   5  -1  -6  159.28   10.90
   5  -1  -6  179.88   14.30
  -5  -1   6  172.08   10.60
  -5  -1   6  172.58   10.20
   5   1  -6  190.98   12.30
  -5   1   6  178.88   10.40
  -5   1   6  176.18   11.20
  -5   1   6  181.98   11.80
   5   1  -6  175.88   13.00
  -4  -1   6  213.98   12.30
   4  -1  -6  221.38   14.70
  -4  -1   6  226.48   13.60
   4  -1  -6  185.58   12.90
  -4  -1   6  213.58   12.10
  -4   1   6  217.28   13.80
   4   1  -6  220.58   14.60
  -4   1   6  208.88   12.30
  -3  -1   6   22.80    2.20
   3  -1  -6   11.00    2.50
   3  -1  -6   14.90    1.70
   3   1  -6   13.00    2.30
  -3   1   6   12.40    2.20
  -3   1   6   12.20    1.10
  -2  -1   6  939.51   55.39
   2  -1  -6  994.40   56.49
   2   1  -6  947.91   56.09
  -2   1   6  995.20   57.19
  -1  -1   6  140.99    9.40
   1  -1  -6  154.58   10.30
   1   1  -6  143.79    9.90
  -1   1   6  148.99   11.90
   0  -1   6  289.87   25.00
   0  -1  -6  464.25   25.40
   0  -1  -6  427.36   24.70
   0   1   6  446.86   28.80
   0   1  -6  465.95   25.10
  -1  -1  -6    7.30    0.90
  -1  -1  -6    9.60    1.70
  -1  -1  -6   12.50    1.90
  -1  -1  -6   10.20    1.50
   1   1   6    8.90    4.10
  -1   1  -6   10.30    1.60
  -2  -1  -6  173.78   12.60
  -2  -1  -6  185.58   11.60
  -2  -1  -6  183.08   11.70
  -2  -1  -6  182.68   10.70
   2   1   6  178.38   17.30
  -2   1  -6  188.38   12.40
  -2   1  -6  189.98   11.70
  -3  -1  -6   19.10    2.50
   3  -1   6   17.70    1.40
  -3  -1  -6   18.10    2.30
  -3  -1  -6   18.00    2.10
  -3  -1  -6   16.10    1.60
  -3  -1  -6   16.00    1.90
  -3   1  -6   16.70    2.20
  -3   1  -6   16.40    2.10
   3   1   6   16.80    1.50
   3   1   6   16.90    6.80
   3   1   6   17.50    1.30
  -4  -1  -6  305.37   19.10
   4  -1   6  307.67   17.70
  -4  -1  -6  327.37   19.00
  -4  -1  -6  311.97   18.00
   4  -1   6  295.37   17.90
  -4  -1  -6  317.87   18.00
  -4  -1  -6  309.87   19.50
   4   1   6  297.57   17.40
   4   1   6  262.47   29.30
   4   1   6  319.47   17.90
   4   1   6  311.77   17.60
  -4   1  -6  327.07   19.00
   4   1   6  305.67   17.60
  -4   1  -6  318.57   18.90
  -4   1  -6  295.67   17.90
  -5  -1  -6  246.58   15.00
  -5  -1  -6  231.68   15.70
   5  -1   6  230.38   13.70
   5  -1   6  233.78   13.70
  -5  -1  -6  237.38   14.00
  -5  -1  -6  230.78   15.40
  -5   1  -6  249.08   15.00
   5   1   6  249.48   13.70
   5   1   6  231.98   13.70
  -5   1  -6  231.88   13.90
  -5   1  -6  243.78   15.20
   5   1   6  229.08   13.90
  -6  -1  -6   88.49    7.90
  -6  -1  -6   97.19    6.20
   6  -1   6   93.19    5.80
   6  -1   6   93.79    5.80
  -6  -1  -6   96.79    5.90
  -6  -1  -6   93.79    6.90
  -6  -1  -6   96.29    6.80
  -6  -1  -6   82.09    7.60
  -6   1  -6   87.99    7.20
  -6   1  -6   97.79    6.90
  -6   1  -6   90.89    5.80
   6   1   6   94.89    5.80
   6   1   6   97.19    5.70
   7  -1   6   65.19    3.80
   7  -1   6   60.49    3.70
  -7  -1  -6   38.80    4.30
  -7   1  -6   58.89    3.90
   7   1   6   59.19    3.90
   7   1   6   50.79    3.90
  -7   1  -6   61.89    4.60
  -8  -1  -6   32.90    2.50
   8  -1   6   35.50    2.50
  -8  -1  -6   33.50    2.80
  -8   1  -6   32.70    2.40
   8   1   6   31.10    2.60
   8   1   6   35.40    2.40
  -8   1  -6   34.60    2.90
  -9  -1  -6   71.69    4.90
   9  -1   6   82.19    4.80
  -9  -1  -6   80.09    5.00
  -9  -1  -6   72.09    4.60
  -9   1  -6   77.09    4.60
   9   1   6   88.19    4.90
  -9   1  -6   79.29    5.10
 -12  -2   6    1.30    0.20
  12  -2  -6    2.00    0.70
  12  -2  -6    1.50    1.20
  12   2  -6    0.90    1.10
 -12   2   6    1.60    0.30
  11  -2  -6   74.69    5.40
  11  -2  -6   79.39    7.80
 -11  -2   6   74.19    4.30
  11   2  -6   75.79    5.00
  11   2  -6   68.49    4.70
  11   2  -6   68.09    7.50
 -11   2   6   76.39    4.60
  10  -2  -6   30.70    3.00
 -10  -2   6   30.70    2.00
  10  -2  -6   32.90    5.20
 -10  -2   6   35.30    3.50
  10   2  -6   29.00    2.70
  10   2  -6   29.10    2.30
 -10   2   6   28.40    2.30
  10   2  -6   28.40    4.90
 -10   2   6   30.60    2.30
   9  -2  -6    2.80    0.90
  -9  -2   6    3.20    0.60
   9  -2  -6    5.00    2.60
  -9  -2   6    4.40    0.50
  -9  -2   6    3.40    1.00
   9   2  -6    3.20    1.90
   9   2  -6    4.30    1.70
  -9   2   6    4.70    0.70
   9   2  -6    4.30    0.80
   9   2  -6    3.70    0.90
  -8  -2   6   50.29    3.50
  -8  -2   6   43.20    3.30
   8  -2  -6   47.10    4.10
  -8  -2   6   48.60    2.90
  -8  -2   6   46.80    5.10
   8  -2  -6   48.70    6.80
   8   2  -6   48.30    4.40
  -8   2   6   42.10    4.20
   8   2  -6   43.40    3.10
   8   2  -6   50.49    6.20
  -8   2   6   44.00    4.70
   8   2  -6   36.30    4.40
  -8   2   6   46.00    3.20
  -8   2   6   45.40    3.30
  -7  -2   6  115.69    6.40
   7  -2  -6  101.99    7.60
  -7  -2   6  102.39    6.60
   7  -2  -6  105.89    7.00
  -7  -2   6  113.99    8.50
   7  -2  -6  113.99   11.00
  -7  -2   6  114.19    6.80
   7   2  -6  124.19    9.90
  -7   2   6  111.09    6.80
   7   2  -6   88.79    8.40
  -7   2   6  115.09    8.30
  -7   2   6  106.29    7.80
   7   2  -6  108.59    6.60
   7   2  -6  103.69   11.30
   6  -2  -6  185.68   12.30
  -6  -2   6  186.98   11.10
  -6  -2   6  194.78   12.80
   6  -2  -6  184.08   15.20
  -6  -2   6  195.38   10.80
   6  -2  -6  194.88   11.70
  -6  -2   6  184.28   11.10
   6   2  -6  169.78   12.80
   6   2  -6  202.98   14.00
  -6   2   6  192.78   12.40
   6   2  -6  184.88   10.90
  -6   2   6  191.98   12.70
  -6   2   6  195.68   11.20
   6   2  -6  174.38   14.60
  -5  -2   6    1.60    0.30
   5  -2  -6    1.70    1.00
  -5  -2   6    1.40    0.50
  -5  -2   6    1.60    1.30
  -5   2   6    1.90    0.40
  -5   2   6    3.10    1.20
   5   2  -6    2.70    1.20
   5   2  -6    1.20    1.80
   4  -2  -6   11.70    1.70
  -4  -2   6   16.20    2.50
  -4   2   6   13.20    1.10
  -4   2   6   12.90    2.40
   4   2  -6   13.50    2.90
   4   2  -6   13.70    2.00
  -3  -2   6  394.96   24.10
   3  -2  -6  352.26   23.70
  -3   2   6  440.76   26.30
   3   2  -6  422.36   24.10
  -3   2   6  400.06   23.10
   3   2  -6  433.96   25.50
   2  -2  -6  876.71   57.99
   2  -2  -6 1025.50   59.69
  -2   2   6 1012.70   57.39
   2   2  -6 1041.20   58.39
   2   2  -6 1161.98   61.29
   1  -2  -6  725.03   42.40
   1  -2  -6  629.84   40.70
   1   2  -6  733.63   42.80
  -1   2   6  769.72   48.40
  -1   2   6  710.83   40.10
   0  -2  -6   45.40    4.80
   0  -2  -6   41.40    3.40
   0   2   6   41.60   11.60
   0   2  -6   48.80    4.10
   0   2   6   47.80    2.90
  -1  -2  -6   26.90    1.90
  -1  -2  -6   23.40    3.40
  -1  -2  -6   22.80    2.20
  -1  -2  -6   22.60    2.50
   1   2   6   24.90    1.70
  -1   2  -6   23.80    2.60
   1   2   6   24.40    7.00
  -2  -2  -6  298.97   18.00
  -2  -2  -6  291.57   17.00
  -2  -2  -6  275.07   17.50
  -2  -2  -6  285.87   18.50
  -2  -2  -6  290.07   16.80
  -2  -2  -6  291.57   16.80
  -2   2  -6  290.67   17.60
  -2   2  -6  299.57   18.00
   2   2   6  274.17   25.50
   2   2   6  287.37   16.30
   2   2   6  291.87   16.50
   2   2   6  273.97   16.80
   2   2   6  296.17   16.40
  -3  -2  -6   22.00    2.00
  -3  -2  -6   21.10    2.10
  -3  -2  -6   24.10    2.00
   3  -2   6   23.70    1.90
  -3  -2  -6   26.00    3.00
  -3  -2  -6   22.50    2.50
  -3  -2  -6   24.00    3.50
   3   2   6   22.70    1.60
  -3   2  -6   24.10    2.70
   3   2   6   25.30    1.70
  -3   2  -6   22.60    2.50
   3   2   6   23.30    1.50
   3   2   6   22.10    8.30
  -4  -2  -6  115.39    9.30
   4  -2   6  118.19    7.20
  -4  -2  -6  116.39    8.80
  -4  -2  -6  121.99    7.40
  -4  -2  -6  113.49    7.60
  -4  -2  -6  115.59    8.10
  -4  -2  -6  123.39    8.40
  -4   2  -6  122.99    8.20
   4   2   6  123.09    7.00
   4   2   6  124.29    7.10
   4   2   6  120.49    6.90
  -4   2  -6  124.89    8.20
   4   2   6  100.19   18.60
  -5  -2  -6   84.79    5.80
  -5  -2  -6   83.19    5.60
   5  -2   6   94.09    5.60
  -5  -2  -6   87.09    5.50
   5  -2   6   84.99    5.20
  -5  -2  -6   81.09    7.10
  -5  -2  -6   73.49    7.90
  -5  -2  -6   83.59    6.10
   5   2   6   87.99    5.20
   5   2   6   89.29    5.20
   5   2   6   82.99    5.00
  -5   2  -6   81.09    6.40
  -5   2  -6   86.59    6.20
   6  -2   6   13.50    1.50
  -6  -2  -6   12.70    1.50
   6  -2   6   12.40    1.20
  -6  -2  -6   11.90    1.60
  -6  -2  -6   15.50    1.80
   6   2   6   13.10    1.20
   6   2   6   12.20    1.00
   6   2   6   13.60    1.20
  -6   2  -6   14.80    1.90
   7  -2   6   47.60    3.30
  -7  -2  -6   47.30    3.70
  -7  -2  -6   53.99    3.70
   7  -2   6   52.19    3.50
  -7   2  -6   59.39    4.60
   7   2   6   52.69    3.50
   7   2   6   51.59    3.30
   8  -2   6   13.40    1.30
  -8  -2  -6   11.50    0.90
  -8  -2  -6   12.20    1.20
   8   2   6   11.50    1.20
   8   2   6   13.50    1.10
  -8   2  -6   12.20    1.40
 -11  -3   6   27.40    1.70
  11  -3  -6   29.90    4.00
  11   3  -6   25.40    2.00
 -11   3   6   27.40    1.70
  11   3  -6   22.90    3.80
 -11   3   6   29.30    2.00
 -10  -3   6   14.00    1.00
 -10  -3   6   15.40    1.20
  10  -3  -6   15.60    3.60
  10  -3  -6   12.40    1.90
 -10   3   6   13.90    1.20
  10   3  -6   14.40    1.40
  10   3  -6   12.60    3.30
  -9  -3   6   69.89    4.40
   9  -3  -6   75.79    8.60
  -9  -3   6   73.89    4.30
   9  -3  -6   71.69    5.60
   9   3  -6   66.59    7.40
   9   3  -6   56.69    5.70
  -9   3   6   76.89    4.60
   9   3  -6   74.79    4.60
  -9   3   6   72.29    4.70
   8  -3  -6   27.70    3.00
  -8  -3   6   30.00    1.90
  -8  -3   6   27.80    2.00
   8  -3  -6   27.40    5.40
   8   3  -6   30.00    4.50
  -8   3   6   28.50    2.20
   8   3  -6   28.10    2.10
  -8   3   6   29.70    2.60
   8   3  -6   20.30    3.60
   7  -3  -6    8.00    3.30
   7  -3  -6    9.80    1.50
  -7  -3   6    6.90    0.70
   7  -3  -6    8.10    1.60
  -7  -3   6    8.80    1.00
   7   3  -6    8.00    2.40
  -7   3   6    7.40    0.90
   7   3  -6    5.10    1.80
  -7   3   6    6.70    2.00
   7   3  -6    2.00    4.50
   7   3  -6    7.40    0.80
  -7   3   6    4.90    1.70
   6  -3  -6    4.80    1.30
   6  -3  -6    8.30    1.40
   6  -3  -6    6.00    2.80
  -6  -3   6    7.60    0.90
  -6  -3   6    7.30    0.70
   6   3  -6    5.90    3.60
   6   3  -6    5.90    2.00
  -6   3   6    8.10    2.20
   6   3  -6    7.10    0.80
   6   3  -6    6.30    1.70
  -6   3   6    8.00    0.90
  -5  -3   6  141.99    8.80
   5  -3  -6  148.89   13.10
  -5  -3   6  155.08    8.60
  -5  -3   6  140.39   10.10
   5  -3  -6  158.38    9.60
  -5   3   6  163.58   11.00
   5   3  -6  141.99   12.20
  -5   3   6  135.59    8.60
   5   3  -6  165.38   11.00
  -5   3   6  144.19    8.90
   5   3  -6  144.99    8.70
   5   3  -6  154.38   10.10
  -4  -3   6   38.20    2.20
  -4  -3   6   33.70    2.40
   4  -3  -6   36.60    5.60
  -4  -3   6   31.40    3.00
   4  -3  -6   42.00    3.30
   4   3  -6   38.40    3.20
  -4   3   6   36.60    4.40
   4   3  -6   33.80    2.30
  -4   3   6   33.10    2.20
  -4   3   6   35.30    2.40
   4   3  -6   37.80    5.10
  -3  -3   6  327.47   21.80
  -3  -3   6  349.77   20.80
  -3  -3   6  382.56   20.60
   3  -3  -6  380.26   21.70
   3  -3  -6  360.66   24.90
  -3   3   6  329.27   20.60
   3   3  -6  382.56   21.50
   3   3  -6  374.76   23.80
  -3   3   6  381.56   20.90
  -3   3   6  386.76   24.80
  -2  -3   6  350.26   19.70
   2  -3  -6  336.97   20.70
  -2  -3   6  339.67   20.80
  -2  -3   6  357.86   19.90
   2   3  -6  356.76   22.20
  -2   3   6  323.97   19.70
  -2   3   6  385.16   25.90
   2   3  -6  343.77   20.40
  -2   3   6  352.16   19.90
  -1  -3   6   27.20    1.70
  -1  -3   6   24.10    2.50
  -1  -3   6   26.00    1.80
   1  -3  -6   24.00    2.40
  -1   3   6   27.10    1.70
   1   3  -6   25.80    2.30
   1   3  -6   28.30    3.50
  -1   3   6   28.80    1.90
  -1   3   6   29.60    6.80
   0  -3  -6  171.58   11.10
   0  -3   6  159.08   10.90
   0  -3   6  174.88   10.10
   0  -3   6  183.78   10.00
   0   3  -6  186.58   12.00
   0   3   6  178.18   10.00
   0   3  -6  170.08   11.80
   0   3   6  184.78   10.30
   0   3   6  165.68   17.80
   1  -3   6  214.48   14.40
  -1  -3  -6  251.37   14.70
  -1  -3  -6  255.77   14.30
  -1  -3  -6  244.68   14.40
   1   3   6  238.48   13.70
   1   3   6  250.57   14.00
  -1   3  -6  254.97   15.50
   1   3   6  220.78   22.90
   1   3   6  239.88   13.70
  -2  -3  -6  147.89    8.90
  -2  -3  -6  136.39    9.10
   2  -3   6  143.09    9.10
  -2  -3  -6  145.39    9.00
  -2  -3  -6  145.19    9.20
   2   3   6  148.89    8.50
   2   3   6  147.59   18.90
   2   3   6  151.78    8.50
  -2   3  -6  154.98   10.00
   2   3   6  149.99    8.70
  -3  -3  -6  279.97   17.60
  -3  -3  -6  286.87   17.40
  -3  -3  -6  301.27   17.50
  -3  -3  -6  296.57   17.30
   3  -3   6  319.37   17.30
   3   3   6  298.57   17.10
   3   3   6  267.57   28.70
   3   3   6  295.87   16.90
  -3   3  -6  303.77   18.20
   3   3   6  306.77   16.80
  -4  -3  -6   57.79    4.10
  -4  -3  -6   64.09    5.90
  -4  -3  -6   58.39    4.30
   4  -3   6   64.99    4.00
  -4  -3  -6   61.69    4.30
   4   3   6   61.69    3.80
  -4   3  -6   57.29    4.90
   4   3   6   63.99    3.70
   4   3   6   64.09    3.90
   4   3   6   52.29   15.20
  -4   3  -6   58.39    4.80
  -5  -3  -6   37.50    3.10
  -5  -3  -6   40.20    2.60
   5  -3   6   38.90    2.70
  -5  -3  -6   41.40    3.20
   5   3   6   41.40    2.60
   5   3   6   40.00    2.50
  -5   3  -6   39.40    3.50
   5   3   6   41.30    2.70
   6  -3   6   43.90    2.90
  -6  -3  -6   45.50    2.80
  -6  -3  -6   45.90    3.30
  -6  -3  -6   43.30    3.90
   6   3   6   44.90    3.00
   6   3   6   42.80    2.70
  -6   3  -6   47.30    3.70
   6   3   6   47.40    2.90
  -7  -3  -6   46.30    3.30
  -7  -3  -6   45.50    2.90
  -7   3  -6   47.90    3.60
   7   3   6   50.39    3.10
   7   3   6   48.60    3.10
  -8  -3  -6   10.30    0.80
  -8  -3  -6    9.30    0.90
  -8   3  -6   11.90    1.60
   8   3   6   11.40    1.10
   8   3   6   11.70    0.90
 -10  -4   6    3.90    0.40
  10  -4  -6    3.60    1.60
 -10  -4   6    3.90    0.40
  10   4  -6    1.70    1.30
 -10   4   6    3.00    0.30
  10   4  -6    3.40    0.60
 -10   4   6    3.70    0.50
   9  -4  -6   20.90    3.90
  -9  -4   6   19.80    1.30
  -9  -4   6   19.60    1.40
   9   4  -6   14.90    2.80
  -9   4   6   19.10    1.50
   9   4  -6   10.50    2.40
   9   4  -6   18.20    3.40
  -9   4   6   20.90    1.20
  -8  -4   6  184.58   10.50
  -8  -4   6  193.98   10.70
   8  -4  -6  188.68   15.60
  -8   4   6  191.38   11.00
   8   4  -6  121.49   13.40
   8   4  -6  178.28   13.50
   8   4  -6  199.68   10.70
  -8   4   6  192.98   10.80
  -8   4   6  185.68   10.40
   7  -4  -6   77.69    9.00
  -7  -4   6   70.99    4.30
  -7  -4   6   74.19    4.60
   7   4  -6   71.39    4.50
   7   4  -6   74.09    6.90
   7   4  -6   70.39    6.50
  -7   4   6   73.89    4.60
   6  -4  -6   43.10    6.50
  -6  -4   6   42.10    2.80
  -6  -4   6   34.90    3.30
   6  -4  -6   44.00    3.20
  -6  -4   6   40.70    2.60
   6   4  -6   42.80    4.20
  -6   4   6   40.30    4.70
   6   4  -6   32.80    7.00
   6   4  -6   40.30    2.70
   6   4  -6   36.50    9.90
   6   4  -6   45.50    4.90
  -6   4   6   40.40    2.50
  -6   4   6   41.10    2.80
  -5  -4   6    8.20    1.70
   5  -4  -6   12.10    1.70
  -5  -4   6   10.50    1.10
   5  -4  -6    9.90    3.60
  -5  -4   6   10.30    0.80
   5   4  -6    8.90    4.00
   5   4  -6   10.80    2.20
   5   4  -6   10.90    6.20
   5   4  -6   11.50    1.00
   5   4  -6   10.60    2.30
  -5   4   6   10.20    0.80
  -5   4   6    9.50    1.10
  -5   4   6   11.30    2.70
  -4  -4   6  110.89    7.80
  -4  -4   6  104.19    7.10
  -4  -4   6  117.39    8.20
   4  -4  -6  125.19   15.20
   4  -4  -6  137.39    8.10
   4   4  -6  128.69    8.80
  -4   4   6  120.89    7.00
  -4   4   6  131.99    9.90
   4   4  -6  117.69   11.00
  -4   4   6  122.39    7.30
   4   4  -6  122.09    8.10
   4   4  -6  121.09    7.10
  -3  -4   6  252.87   14.90
   3  -4  -6  263.97   19.70
  -3  -4   6  259.97   14.70
  -3  -4   6  236.28   15.70
   3  -4  -6  278.57   15.90
   3   4  -6  262.07   18.50
  -3   4   6  248.88   14.70
  -3   4   6  260.57   15.00
  -3   4   6  275.77   19.00
   3   4  -6  261.87   15.60
   3   4  -6  250.47   14.80
  -2  -4   6   56.59    3.30
  -2  -4   6   50.69    4.30
   2  -4  -6   56.79    4.40
  -2  -4   6   55.59    3.50
  -2   4   6   59.09    3.60
   2   4  -6   51.89    6.20
   2   4  -6   53.99    4.00
  -2   4   6   57.79    8.40
  -2   4   6   56.79    3.40
  -1  -4   6   59.69    3.40
  -1  -4   6   58.39    3.60
  -1  -4   6   52.39    4.40
   1  -4  -6   57.19    4.40
   1   4  -6   60.99    6.20
  -1   4   6   56.99    3.40
  -1   4   6   59.39   10.00
   1   4  -6   52.79    4.10
  -1   4   6   60.59    3.70
   0  -4  -6  166.58   10.80
   0  -4   6  156.08   10.70
   0  -4   6  171.08    9.90
   0  -4   6  176.88    9.70
   0   4  -6  164.08   12.10
   0   4   6  180.48   10.10
   0   4   6  174.68   18.70
   0   4   6  178.18    9.80
  -1  -4  -6   40.70    3.50
  -1  -4  -6   46.10    3.30
   1  -4   6   43.00    3.70
   1  -4   6   45.00    2.60
   1   4   6   41.30   10.60
   1   4   6   49.90    3.00
   1   4   6   46.70    3.00
  -1   4  -6   34.20    4.50
   1   4   6   45.30    3.10
  -2  -4  -6    7.40    1.20
   2  -4   6    5.20    1.10
   2   4   6    7.70    0.70
   2   4   6    6.90    0.70
   2   4   6    1.50    7.50
  -3  -4  -6   70.89    4.80
   3  -4   6   74.99    4.80
  -3  -4  -6   65.29    4.80
  -3  -4  -6   69.59    4.90
   3   4   6   69.79    4.20
   3   4   6   56.29   17.00
   3   4   6   69.99    4.60
   3   4   6   78.29    4.50
   3   4   6   72.49    4.30
  -4  -4  -6  113.39    7.60
   4  -4   6  134.99    8.00
  -4  -4  -6  115.19    7.70
   4   4   6  120.29    7.20
   4   4   6  120.59    7.00
   4   4   6  120.19    7.10
  -5  -4  -6   17.20    2.00
  -5  -4  -6   18.30    1.70
   5  -4   6   18.60    1.40
   5   4   6   11.80    2.90
   5   4   6   17.90    1.30
   5   4   6   17.60    1.20
   5   4   6   18.10    1.40
  -6  -4  -6   21.00    1.70
   6  -4   6   20.90    1.50
   6   4   6   23.30    1.50
   6   4   6   19.30    1.40
   6   4   6   20.80    1.60
  -7  -4  -6   46.30    2.90
   7   4   6   43.10    2.80
   7   4   6   43.70    2.70
  -9  -5   6   27.60    1.70
  -9  -5   6   31.00    1.80
   9   5  -6   27.00    1.90
   9   5  -6   22.00    3.00
  -9   5   6   30.40    1.80
  -8  -5   6    6.20    0.70
  -8  -5   6    6.20    0.50
   8   5  -6    7.20    0.80
  -8   5   6    6.10    0.70
   8   5  -6    5.30    1.80
  -7  -5   6   33.90    2.20
  -7  -5   6   33.00    2.00
  -7   5   6   34.30    2.30
   7   5  -6   33.20    4.10
   7   5  -6   33.60    2.20
  -7   5   6   30.80    2.00
   7   5  -6   28.50    3.70
  -6  -5   6   55.99    4.20
   6  -5  -6   58.39    4.00
  -6  -5   6   57.39    3.60
  -6  -5   6   60.09    3.80
   6   5  -6   59.79    5.70
  -6   5   6   61.79    3.60
   6   5  -6   62.19    5.60
   6   5  -6   61.59    3.80
  -6   5   6   66.29    4.20
  -5  -5   6   16.80    2.10
  -5  -5   6   20.10    1.50
   5  -5  -6   20.70    1.90
  -5  -5   6   19.20    1.30
   5   5  -6   19.20    1.50
  -5   5   6   18.70    1.30
  -5   5   6   19.70    1.50
   5   5  -6   19.30    2.90
   5   5  -6   20.40    2.50
   4  -5  -6   65.99    4.70
  -4  -5   6   61.49    4.90
  -4  -5   6   63.89    3.90
  -4  -5   6   68.29    4.20
   4   5  -6   64.69    4.50
   4   5  -6   71.79    5.20
  -4   5   6   63.29    4.20
  -4   5   6   69.29    4.30
   4   5  -6   74.19    6.30
  -3  -5   6   47.70    3.00
   3  -5  -6   52.99    4.00
  -3  -5   6   50.99    3.20
  -3  -5   6   46.60    4.00
  -3   5   6   51.29    3.30
   3   5  -6   49.90    4.00
  -3   5   6   49.80    3.00
  -2  -5   6  153.38   10.30
  -2  -5   6  157.58    9.20
   2  -5  -6  165.98   10.30
  -2  -5   6  163.28    9.40
   2   5  -6  161.58   10.20
  -2   5   6  163.48    9.60
  -2   5   6  164.18    9.30
  -1  -5   6  120.39    8.20
  -1  -5   6  120.69    7.00
  -1  -5   6  126.59    7.20
   1  -5  -6  119.79    8.00
  -1   5   6  120.69    7.10
  -1   5   6  123.29    7.40
   1   5  -6  126.89    8.10
   0  -5   6   10.10    1.70
   0  -5   6    8.90    0.70
   0  -5  -6   10.40    1.40
   0   5   6    8.70    0.80
   0   5   6    8.40    1.00
   0   5   6    8.60    0.70
  -1  -5  -6    9.60    1.40
   1  -5   6   10.00    1.60
   1   5   6    9.40    0.80
   1   5   6    9.70    1.00
   1   5   6    9.60    0.80
  -2  -5  -6  148.99    9.60
   2  -5   6  176.38    9.90
  -2  -5  -6  161.28    9.90
   2   5   6  158.08    9.20
   2   5   6  161.98    9.60
   2   5   6  159.68    9.30
  -3  -5  -6    1.30    0.60
   3  -5   6    1.30    0.60
   3   5   6    1.10    0.30
   3   5   6    0.70    0.20
   3   5   6    0.90    0.40
   3   5   6    1.30    0.40
   4  -5   6    9.90    1.10
  -4  -5  -6    9.90    1.10
   4   5   6    9.30    0.80
   4   5   6    9.80    0.80
   4   5   6    8.90    0.90
  -5  -5  -6   25.40    1.70
   5  -5   6   23.30    1.80
   5   5   6   24.10    1.50
   5   5   6   24.10    1.40
   5   5   6   14.00    2.40
   5   5   6   22.30    1.60
  -6  -6   6   -0.20    0.40
  -6  -6   6    0.30    0.20
  -6  -6   6    0.40    0.10
   6   6  -6   -0.20    0.80
  -6   6   6    0.40    0.20
   6   6  -6    0.10    0.40
  -5  -6   6   11.50    0.90
  -5  -6   6   10.20    0.70
  -5  -6   6    8.40    1.20
  -5   6   6   13.10    1.00
   5   6  -6   11.40    1.30
   5   6  -6   10.70    2.00
   4  -6  -6   14.60    1.40
  -4  -6   6   12.10    0.90
  -4  -6   6   12.30    1.50
  -4  -6   6   15.20    1.00
  -4   6   6   13.80    1.10
  -4   6   6   11.20    0.90
   4   6  -6   15.40    2.20
  -3  -6   6    4.00    0.90
  -3  -6   6    5.10    0.50
   3  -6  -6    4.60    0.90
  -3   6   6    5.00    0.50
  -3   6   6    4.70    0.60
  -3   6   6    4.60    0.50
   3   6  -6    3.80    1.20
   2  -6  -6    3.10    0.90
   2  -6  -6    2.00    1.00
  -2  -6   6    2.30    0.80
   2   6  -6    2.00    1.10
  -2   6   6    2.90    0.50
  -2   6   6    2.80    0.40
  -2   6   6    3.20    0.40
  -1  -6   6   20.80    2.10
   1  -6  -6   20.60    2.00
  -1   6   6   23.60    1.50
  -1   6   6   23.10    1.50
  -1   6   6   23.30    1.70
   0  -6   6    1.40    0.70
   0  -6  -6    0.50    0.40
   0   6   6    0.80    0.30
   0   6   6    0.90    0.30
   0   6   6    0.90    0.20
   1  -6   6   50.39    3.30
   1   6   6   43.70    3.00
   1   6   6   44.90    2.80
   1   6   6   45.10    2.80
   2  -6   6   43.40    2.70
   2   6   6   36.30    2.60
   2   6   6   43.10    2.40
   2   6   6   37.90    2.50
   2   6   6   40.30    2.40
   3  -6   6   10.30    0.90
   3   6   6   10.70    0.70
   3   6   6    9.80    0.80
   3   6   6    9.90    0.80
  12   0  -7   54.19    4.00
  12   0  -7   61.49    6.20
  11   0  -7   56.79    4.20
  11   0  -7   58.79    6.70
 -11   0   7   50.59    3.70
 -10   0   7    5.80    1.00
 -10   0   7    6.00    0.60
  10   0  -7    5.20    1.20
 -10   0   7    6.00    0.70
  10   0  -7    7.60    3.20
  -9   0   7  197.58   11.80
  -9   0   7  202.18   12.00
   9   0  -7  220.18   16.60
  -9   0   7  210.88   14.20
   9   0  -7  198.58   12.30
  -9   0   7  197.48   13.00
  -9   0   7  197.18   11.50
   9   0  -7  201.58   12.70
   9   0  -7  196.88   12.20
   8   0  -7   56.19    6.90
  -8   0   7   49.70    4.20
   8   0  -7   49.20    3.70
   8   0  -7   48.10    4.00
  -8   0   7   49.80    3.00
  -8   0   7   49.80    3.40
   8   0  -7   46.90    4.00
  -8   0   7   54.19    5.20
  -8   0   7   50.59    3.40
  -7   0   7    7.70    1.60
   7   0  -7    7.30    2.60
  -7   0   7    4.80    0.80
   7   0  -7    4.20    0.90
   7   0  -7    9.50    1.70
  -7   0   7    6.20    0.70
  -7   0   7    8.20    2.10
  -6   0   7  125.79    8.10
   6   0  -7  123.79   10.80
   6   0  -7  143.39    8.50
  -6   0   7  126.09    9.10
  -6   0   7  119.99    7.50
   6   0  -7  130.19   11.60
   6   0  -7  116.49    7.80
   6   0  -7  127.89    8.60
  -6   0   7  123.89    7.50
  -5   0   7   18.90    1.30
   5   0  -7   15.50    2.30
  -5   0   7   16.70    1.70
   5   0  -7   13.70    3.00
  -5   0   7   16.90    2.50
   5   0  -7   16.20    2.20
  -5   0   7   14.40    1.30
   4   0  -7  238.78   14.60
   4   0  -7  230.98   14.20
  -4   0   7  220.58   13.60
  -4   0   7  242.28   14.90
  -4   0   7  218.58   13.20
   4   0  -7  238.68   16.00
  -3   0   7  150.38    9.90
   3   0  -7  149.59    9.60
   3   0  -7  145.19   10.60
  -3   0   7  137.89    8.60
   3   0  -7  143.49    9.20
  -3   0   7  134.19    8.20
  -2   0   7    1.30    1.00
   2   0  -7    3.10    1.40
   2   0  -7    1.90    0.90
  -1   0   7  163.58   11.30
   1   0  -7  184.48   11.70
   1   0  -7  153.38   10.30
   1   0  -7  169.78   10.80
   0   0  -7    6.20    1.80
   0   0  -7    1.10    0.70
   0   0  -7    1.80    0.80
   0   0   7    0.60    1.50
  -1   0  -7 1790.62   98.49
  -1   0  -7 1619.54   97.09
   1   0   7 1639.64   98.99
  -1   0  -7 1845.12   97.89
  -2   0  -7   31.80    3.00
   2   0   7   28.60    2.10
  -2   0  -7   31.80    3.40
  -3   0  -7    1.00    0.50
   3   0   7    1.80    0.50
  -3   0  -7    0.60    0.90
  -3   0  -7   -0.40    0.50
   4   0   7   31.60    2.40
   4   0   7   33.80    2.20
  -4   0  -7   33.40    2.50
  -4   0  -7   33.60    3.30
  -4   0  -7   34.40    3.90
   5   0   7    7.10    0.90
  -5   0  -7   10.50    1.90
  -5   0  -7    8.10    1.10
  -5   0  -7    6.00    2.20
   5   0   7    9.20    1.10
  -6   0  -7  335.37   19.90
  -6   0  -7  345.37   19.60
  -6   0  -7  346.97   20.70
   6   0   7  345.57   19.50
   6   0   7  329.27   19.60
  -7   0  -7   75.39    4.90
  -7   0  -7   69.89    6.30
   7   0   7   78.29    4.70
  -8   0  -7   11.60    1.10
  -8   0  -7   10.70    1.40
   8   0   7   13.40    1.10
  12  -1  -7   36.90    4.50
 -12  -1   7   31.30    2.00
  12  -1  -7   35.10    2.80
  12   1  -7   32.10    2.50
  12   1  -7   36.30    4.40
  11  -1  -7   37.30    3.20
  11  -1  -7   39.20    5.40
  11   1  -7   39.50    3.40
  11   1  -7   34.30    2.90
 -11   1   7   38.30    2.50
  11   1  -7   35.70    5.20
 -10  -1   7   14.90    1.10
  10  -1  -7   13.20    1.90
 -10  -1   7   13.90    1.90
  10  -1  -7   20.00    4.20
  10   1  -7   17.70    4.00
 -10   1   7   14.60    1.50
  10   1  -7   12.80    1.60
  10   1  -7   14.80    1.90
 -10   1   7   17.00    1.40
   9  -1  -7   22.50    2.60
  -9  -1   7   25.40    1.60
  -9  -1   7   24.30    2.20
   9  -1  -7   26.20    4.70
  -9  -1   7   37.30    5.70
   9   1  -7   22.90    2.40
  -9   1   7   24.90    2.00
  -9   1   7   24.80    2.00
   9   1  -7   24.40    2.80
   9   1  -7   24.90    4.70
   9   1  -7   22.80    2.10
  -9   1   7   24.30    3.50
  -9   1   7   20.60    3.40
   8  -1  -7    6.00    1.30
  -8  -1   7    5.80    2.10
   8  -1  -7    6.00    2.70
  -8  -1   7    7.50    1.10
   8  -1  -7    8.20    1.40
   8  -1  -7    5.60    1.60
  -8   1   7    8.40    2.40
   8   1  -7    9.40    3.80
   8   1  -7   11.70    2.00
  -8   1   7    6.90    1.60
  -8   1   7    7.70    0.90
   8   1  -7    7.40    1.20
  -8   1   7    6.60    1.00
  -7  -1   7    2.10    1.40
   7  -1  -7    1.10    1.70
  -7  -1   7    0.40    0.20
  -7  -1   7    0.10    0.40
   7  -1  -7    1.40    0.90
   7  -1  -7    0.30    0.70
  -7  -1   7   -1.10    1.10
   7  -1  -7    1.30    0.80
   7   1  -7   -0.50    0.40
   7   1  -7   -1.90    4.40
   7   1  -7    3.80    1.30
   7   1  -7    0.90    1.10
  -7   1   7    0.20    0.40
  -7   1   7    0.40    0.20
  -7   1   7    1.10    0.90
  -7   1   7    1.80    1.00
   7   1  -7    1.40    1.40
  -6  -1   7  168.48    9.60
   6  -1  -7  164.08   10.80
  -6  -1   7  171.58    9.80
  -6  -1   7  168.58   10.40
  -6  -1   7  180.08   11.80
   6  -1  -7  167.88   10.90
   6  -1  -7  155.98   14.60
   6  -1  -7  176.98   10.40
  -6   1   7  171.58    9.90
   6   1  -7  163.78   13.60
  -6   1   7  169.98   10.80
   6   1  -7  138.19   12.00
   6   1  -7  181.98   13.50
  -6   1   7  170.98    9.90
   6   1  -7  162.08   10.00
   6   1  -7  159.28   12.10
  -6   1   7  179.68   11.80
   5  -1  -7  220.68   13.20
  -5  -1   7  212.48   12.20
  -5  -1   7  211.68   14.90
   5   1  -7  214.38   13.60
  -5   1   7  212.48   14.10
   5   1  -7  217.88   15.50
  -5   1   7  209.88   12.40
  -5   1   7  208.98   13.30
   5   1  -7  212.98   13.80
  -4  -1   7  340.57   20.70
   4  -1  -7  338.57   22.20
   4  -1  -7  323.37   20.00
  -4   1   7  331.27   19.20
  -4   1   7  348.17   21.20
   4   1  -7  345.17   22.10
   3  -1  -7  533.55   30.30
   3  -1  -7  536.75   32.30
  -3  -1   7  518.35   30.80
   3  -1  -7  530.65   30.70
   3   1  -7  562.14   31.00
  -3   1   7  564.14   34.20
  -3   1   7  533.25   29.60
   3   1  -7  378.36   33.90
   2  -1  -7  135.59    9.90
   2  -1  -7  118.89    8.10
   2  -1  -7  132.89    8.70
  -2   1   7  122.99    7.50
   2   1  -7  130.39    8.80
  -2   1   7  132.59   10.00
   2   1  -7  125.69    8.50
   1  -1  -7  146.89   10.00
   1  -1  -7  166.48   10.60
   1  -1  -7  171.28   11.70
  -1  -1   7  156.88   10.50
  -1   1   7  172.28   12.90
   1   1  -7  164.98   10.70
   1   1  -7  170.18   11.30
   0  -1  -7  279.77   17.20
   0  -1  -7  297.87   17.80
   0  -1  -7  306.67   18.90
   0   1  -7  262.27   17.30
   0   1  -7  304.57   18.50
   0   1   7  299.97   21.20
   0   1  -7  294.37   17.80
  -1  -1  -7   69.49    5.10
  -1  -1  -7   78.59    6.50
  -1  -1  -7   79.79    5.70
  -1   1  -7   77.79    6.00
  -1   1  -7   80.39    5.70
  -1   1  -7   70.19    5.10
   1   1   7   70.39    9.50
  -2  -1  -7   79.29    5.10
   2  -1   7   85.29    5.10
  -2  -1  -7   82.49    5.40
  -2  -1  -7   79.99    6.00
  -2  -1  -7   75.89    5.40
  -2  -1  -7   85.49    6.90
  -2  -1  -7   94.19    6.80
  -2   1  -7   81.69    6.50
   2   1   7   78.39    4.90
  -2   1  -7   85.69    6.10
   2   1   7   70.09   12.00
   2   1   7   88.59    5.30
   3  -1   7   90.79    5.50
  -3  -1  -7   83.39    5.80
  -3  -1  -7   94.49    5.90
  -3  -1  -7   87.59    6.80
  -3  -1  -7   99.19    6.80
  -3  -1  -7   93.19    7.50
   3  -1   7   93.19    5.50
  -3   1  -7   86.99    6.60
  -3   1  -7   90.79    7.10
   3   1   7   87.69    5.30
   3   1   7   86.09    5.40
   3   1   7  102.89   15.60
   3   1   7   94.29    5.70
  -3   1  -7   90.99    6.60
  -4  -1  -7   65.29    4.30
  -4  -1  -7   59.29    5.50
  -4  -1  -7   56.59    5.90
   4  -1   7   63.09    4.00
  -4  -1  -7   66.39    5.20
   4  -1   7   60.79    4.00
   4   1   7   62.79    4.20
  -4   1  -7   66.49    4.30
  -4   1  -7   64.99    5.10
   4   1   7   65.19    3.90
  -4   1  -7   64.99    5.60
  -5  -1  -7  293.87   17.60
  -5  -1  -7  288.17   16.50
  -5  -1  -7  280.77   16.80
   5  -1   7  279.47   16.30
   5  -1   7  279.67   16.40
  -5  -1  -7  288.67   19.50
   5   1   7  273.77   16.50
  -5   1  -7  290.77   17.60
  -5   1  -7  280.47   16.40
  -5   1  -7  270.67   18.30
   5   1   7  285.97   16.20
   6  -1   7   51.79    3.70
  -6  -1  -7   53.79    4.30
   6  -1   7   33.70    3.80
  -6  -1  -7   56.79    3.80
   6   1   7   56.49    3.40
  -6   1  -7   55.59    4.40
  -7  -1  -7   40.30    2.90
   7  -1   7   36.10    2.60
  -7  -1  -7   37.50    3.20
   7  -1   7   40.50    2.70
   7   1   7   40.90    2.70
  -7   1  -7   40.00    3.40
  -7   1  -7   37.70    2.80
  -8  -1  -7    9.20    0.70
  -8  -1  -7    8.00    0.90
   8  -1   7    8.80    0.90
  -8  -1  -7    6.70    1.00
   8   1   7    9.30    0.90
  -8   1  -7    8.70    1.20
  11  -2  -7   40.10    3.50
 -11  -2   7   36.50    2.20
  11  -2  -7   37.60    5.00
  11   2  -7   34.50    2.50
  11   2  -7   32.70    4.60
 -11   2   7   34.80    2.40
 -10  -2   7   22.30    1.50
  10  -2  -7   24.20    2.50
  10  -2  -7   22.60    4.10
  10   2  -7   21.70    4.10
  10   2  -7   21.90    2.00
 -10   2   7   24.10    2.20
  -9  -2   7  128.59    7.10
   9  -2  -7  119.59   11.50
   9  -2  -7  119.29    8.40
   9   2  -7  113.89    8.30
  -9   2   7  118.39    7.50
   9   2  -7  128.29   11.30
   9   2  -7  125.09    7.60
   8  -2  -7   85.09    9.10
   8  -2  -7   81.19    6.50
  -8  -2   7   73.49    5.20
  -8  -2   7   72.69    4.70
   8  -2  -7   78.09    5.90
  -8  -2   7   83.19    4.60
   8   2  -7   90.59    8.70
   8   2  -7   79.69    5.00
  -8   2   7   55.99    7.00
  -8   2   7   81.59    5.00
  -8   2   7   50.39    6.70
  -8   2   7   81.19    5.10
   8   2  -7   85.29    6.30
   8   2  -7   75.79    6.50
  -7  -2   7  607.64   33.00
   7  -2  -7  559.14   34.30
  -7  -2   7  543.35   33.10
   7  -2  -7  586.64   38.40
   7  -2  -7  614.44   33.90
  -7  -2   7  609.24   35.60
   7   2  -7  528.05   38.20
  -7   2   7  556.84   34.50
   7   2  -7  580.34   33.30
   7   2  -7  658.73   37.70
  -7   2   7  583.74   33.30
  -7   2   7  585.34   35.30
  -6  -2   7  140.59   10.30
  -6  -2   7  150.68    8.10
   6  -2  -7  136.89   12.20
  -6  -2   7  133.69    8.20
   6  -2  -7  149.39    9.10
   6  -2  -7  133.39    9.30
  -6   2   7  135.59    9.60
  -6   2   7  137.49    8.30
   6   2  -7  138.99    8.30
  -6   2   7  120.49   10.70
   6   2  -7  155.68   11.60
   6   2  -7  135.59   12.20
   5  -2  -7  245.58   16.30
  -5  -2   7  266.47   15.60
  -5  -2   7  261.97   17.10
  -5  -2   7  267.57   15.10
   5  -2  -7  279.67   16.70
   5   2  -7  251.77   17.40
  -5   2   7  273.97   15.40
   5   2  -7  275.37   19.20
  -5   2   7  276.97   17.50
   4  -2  -7  537.95   35.40
  -4  -2   7  592.14   34.50
  -4  -2   7  625.54   34.40
  -4   2   7  604.64   34.40
   4   2  -7  660.43   36.80
   4   2  -7  617.04   37.70
  -4   2   7  636.04   37.10
  -4   2   7  620.34   34.60
   3  -2  -7  333.97   21.50
  -3   2   7  383.16   24.00
  -3   2   7  364.96   20.70
   3   2  -7  371.86   23.40
   3   2  -7  360.16   22.50
   2  -2  -7  457.15   29.30
   2  -2  -7  497.35   31.50
   2   2  -7  509.25   30.50
  -2   2   7  524.75   33.10
   2   2  -7  533.75   31.10
  -2   2   7  512.75   28.70
   1  -2  -7  137.29    9.90
   1  -2  -7  152.98    9.70
   1  -2  -7  163.38   11.90
  -1   2   7  163.98   14.20
   1   2  -7  153.68   10.90
   1   2  -7  161.08   10.80
  -1   2   7  153.78    9.00
   0  -2  -7   96.69    8.20
   0  -2   7   89.89    5.20
   0  -2   7   88.99    5.80
   0  -2  -7   80.19    5.70
   0  -2  -7   89.59    6.00
   0  -2  -7   87.79    6.30
   0   2  -7   98.39    7.20
   0   2   7   88.69    5.40
   0   2   7   88.19    5.20
   0   2   7   91.09   11.20
   0   2  -7   93.09    6.70
  -1  -2  -7   84.29    6.30
  -1  -2  -7   89.89    5.90
  -1  -2  -7   84.99    7.80
  -1   2  -7   88.39    6.90
  -1   2  -7   88.69    6.90
   1   2   7   85.39    5.30
   1   2   7   87.89    5.90
   1   2   7   91.19    5.20
   1   2   7   94.39    5.30
  -1   2  -7   91.29    6.60
   1   2   7   81.19   12.10
  -2  -2  -7   15.30    1.50
  -2  -2  -7   14.70    2.10
  -2  -2  -7   19.40    3.90
   2  -2   7   16.30    1.50
  -2  -2  -7   13.60    1.50
   2   2   7   15.10    1.10
   2   2   7   12.00    6.70
   2   2   7   15.90    1.50
   2   2   7   14.00    1.10
  -2   2  -7   16.90    2.40
  -3  -2  -7  129.09    7.60
   3  -2   7  122.59    7.40
  -3  -2  -7  122.49    8.30
  -3  -2  -7  116.69    8.90
  -3  -2  -7  117.89    7.70
  -3  -2  -7   99.59   10.80
  -3  -2  -7  129.89    7.70
   3   2   7  122.39    7.10
   3   2   7  126.49    7.30
  -3   2  -7  119.09    8.70
  -3   2  -7  125.59    8.50
   3   2   7  130.19    7.20
   3   2   7  117.09   23.10
  -4  -2  -7   79.79    6.90
  -4  -2  -7   82.79    5.50
  -4  -2  -7   77.39    5.30
  -4  -2  -7   84.49    5.30
  -4  -2  -7   70.49    8.10
   4  -2   7   83.29    5.00
  -4  -2  -7   81.39    5.90
   4   2   7   79.99    4.70
   4   2   7   81.99    5.00
  -4   2  -7   76.99    6.50
   4   2   7   83.29    4.90
  -4   2  -7   83.29    6.10
  -5  -2  -7   12.50    1.90
  -5  -2  -7   11.80    1.70
   5  -2   7   13.00    1.20
  -5  -2  -7   13.00    1.60
  -5  -2  -7   14.20    1.40
   5   2   7   11.90    0.90
   5   2   7   13.60    1.20
   5   2   7   13.80    1.10
  -5   2  -7   13.50    1.90
   6  -2   7   61.99    4.00
  -6  -2  -7   63.09    4.20
  -6  -2  -7   50.99    4.60
   6  -2   7   57.39    3.80
   6   2   7   62.59    3.80
  -6   2  -7   62.99    4.70
   6   2   7   59.09    3.80
  -7  -2  -7   10.60    1.20
  -7  -2  -7   11.40    0.90
  -7  -2  -7    8.00    1.30
   7  -2   7    9.70    1.00
  -7   2  -7   10.60    1.40
   7   2   7    9.80    1.10
   7   2   7   10.40    0.90
  -8  -2  -7   19.70    1.30
  -8  -2  -7   20.90    1.60
  -8   2  -7   20.10    1.80
   8   2   7   21.90    1.50
 -11  -3   7    0.30    0.10
  11  -3  -7    0.50    1.20
 -11   3   7    0.30    0.10
  11   3  -7    0.20    0.40
  11   3  -7    0.50    1.00
 -11   3   7    0.30    0.20
  10  -3  -7   38.00    5.40
 -10  -3   7   40.00    2.40
 -10  -3   7   40.50    2.40
 -10   3   7   40.00    2.60
  10   3  -7   38.00    5.00
  10   3  -7   41.30    2.80
 -10   3   7   38.50    2.50
   9  -3  -7   22.40    4.40
  -9  -3   7   22.10    1.50
  -9  -3   7   21.00    1.50
  -9   3   7   21.60    1.40
   9   3  -7   23.20    1.80
  -9   3   7   21.60    2.00
   9   3  -7   13.90    2.90
   9   3  -7   21.20    3.90
   9   3  -7   15.70    2.70
  -9   3   7   22.50    1.70
  -8  -3   7  102.89    6.50
   8  -3  -7  112.69   11.00
  -8  -3   7  114.49    6.40
  -8   3   7  107.89    6.70
  -8   3   7  110.39    6.90
  -8   3   7  105.99    6.30
   8   3  -7  114.39   10.00
   8   3  -7  107.39    6.70
   7  -3  -7   64.89    7.90
  -7  -3   7   66.39    3.80
  -7  -3   7   62.69    4.00
   7  -3  -7   62.09    4.50
   7   3  -7   35.70    7.80
   7   3  -7   63.49    4.00
  -7   3   7   64.29    6.00
  -7   3   7   66.29    4.10
   7   3  -7   67.69    6.90
  -7   3   7   64.29    3.70
  -7   3   7   56.39    5.50
   7   3  -7   51.49    5.90
  -6  -3   7   10.70    0.90
   6  -3  -7    9.40    1.60
  -6  -3   7   11.20    1.10
   6  -3  -7    9.20    3.20
  -6   3   7   10.00    1.00
  -6   3   7   10.30    1.10
   6   3  -7   12.80    3.30
   6   3  -7   10.80    1.20
   6   3  -7    5.30    3.50
   6   3  -7   11.00    2.50
  -6   3   7   10.30    2.60
  -5  -3   7    4.50    0.60
   5  -3  -7    5.30    2.40
  -5  -3   7    2.80    1.00
   5  -3  -7    7.80    1.60
  -5  -3   7    4.30    0.50
   5   3  -7    5.10    2.00
   5   3  -7    2.10    2.50
  -5   3   7    4.00    0.60
   5   3  -7    4.20    1.60
  -5   3   7    3.90    1.60
  -5   3   7    4.70    0.50
   5   3  -7    3.10    0.60
   4  -3  -7  185.88   12.30
  -4  -3   7  208.98   11.20
  -4  -3   7  194.58   11.40
  -4  -3   7  169.88   11.90
   4  -3  -7  189.28   15.50
  -4   3   7  187.28   11.20
   4   3  -7  204.28   15.50
   4   3  -7  209.38   13.20
  -4   3   7  219.78   14.60
   4   3  -7  198.18   11.50
  -4   3   7  200.18   11.50
  -3  -3   7   55.39    3.20
  -3  -3   7   44.90    4.00
   3  -3  -7   49.80    4.20
  -3  -3   7   54.39    3.40
   3  -3  -7   48.20    6.40
   3   3  -7   54.69    3.80
   3   3  -7   60.29    4.80
  -3   3   7   53.29    3.20
  -3   3   7   62.89    6.90
  -3   3   7   54.29    3.50
   3   3  -7   54.09    5.90
  -2  -3   7  533.25   28.10
  -2  -3   7  436.36   28.90
   2  -3  -7  512.95   32.80
   2  -3  -7  467.45   28.60
   2  -3  -7  461.45   29.20
  -2  -3   7  489.65   28.30
  -2   3   7  518.25   28.40
  -2   3   7  553.94   34.50
  -2   3   7  484.05   28.10
   2   3  -7  543.15   31.50
   2   3  -7  514.75   30.10
  -1  -3   7  128.89    9.20
  -1  -3   7  154.58    8.50
   1  -3  -7  138.89    9.50
   1  -3  -7  140.29    9.40
  -1  -3   7  154.38    8.60
  -1   3   7  148.89    8.80
  -1   3   7  171.58   15.70
  -1   3   7  142.79    8.50
   1   3  -7  157.18   11.10
   1   3  -7  158.28   11.90
   0  -3   7   33.30    1.90
   0  -3  -7   31.30    2.80
   0  -3   7   27.90    2.60
   0  -3  -7   27.10    2.30
   0   3   7   28.80    1.90
   0   3   7   33.50    8.70
   0   3  -7   34.50    4.20
   0   3   7   32.10    2.20
   1  -3   7   18.00    1.20
   1  -3   7   17.50    1.90
  -1  -3  -7   15.60    1.60
  -1  -3  -7   16.70    1.90
  -1  -3  -7   14.70    1.80
   1   3   7   18.20    1.50
  -1   3  -7   19.20    2.80
   1   3   7   18.90    1.30
   1   3   7   13.40    6.80
  -1   3  -7   19.00    2.90
   1   3   7   20.20    1.30
  -2  -3  -7   15.40    1.70
  -2  -3  -7   15.40    1.70
  -2  -3  -7   14.30    1.70
   2   3   7    4.00    7.80
  -2   3  -7   12.50    2.40
   2   3   7   18.80    1.40
   2   3   7   14.00    1.30
   2   3   7   18.40    1.60
  -2   3  -7   12.80    2.60
  -3  -3  -7   73.59    5.20
  -3  -3  -7   71.99    5.00
   3  -3   7   79.29    4.80
  -3  -3  -7   74.29    4.90
   3   3   7   42.80   13.80
   3   3   7   77.99    4.60
   3   3   7   77.19    4.50
  -3   3  -7   73.09    6.40
   3   3   7   79.39    4.70
  -4  -3  -7   40.60    3.30
   4  -3   7   42.50    2.90
  -4  -3  -7   38.30    3.20
  -4   3  -7   43.50    3.80
   4   3   7   44.20    2.80
   4   3   7   43.40    2.60
   4   3   7   43.70    2.80
  -5  -3  -7  399.46   22.20
  -5  -3  -7  289.17   23.00
  -5  -3  -7  420.56   22.80
   5  -3   7  405.86   22.30
   5   3   7  397.46   22.30
   5   3   7  405.26   22.20
  -5   3  -7  430.16   23.90
   5   3   7  376.16   22.00
  -6  -3  -7    1.40    0.30
  -6  -3  -7    1.20    0.50
   6   3   7    0.40    0.20
   6   3   7    1.10    0.40
   6   3   7    0.20    0.30
  -6   3  -7    0.60    0.60
  -7  -3  -7    4.30    0.70
  -7  -3  -7    3.70    0.40
  -7   3  -7    3.30    0.80
   7   3   7    3.00    0.60
   7   3   7    4.80    0.50
 -10  -4   7   38.80    2.30
  10  -4  -7   44.30    4.80
 -10  -4   7   38.20    2.30
 -10   4   7   40.50    2.50
  10   4  -7   38.30    2.70
 -10   4   7   40.40    2.30
  10   4  -7   36.60    4.10
  -9  -4   7   19.10    1.30
   9  -4  -7   18.50    3.60
  -9  -4   7   16.30    1.10
   9   4  -7   11.20    2.40
  -9   4   7   17.50    1.30
   9   4  -7   19.00    1.50
   9   4  -7   15.70    3.10
  -9   4   7   17.10    1.10
   9   4  -7   15.20    3.00
  -8  -4   7   15.70    1.30
  -8  -4   7   15.40    1.10
   8  -4  -7   16.00    3.70
  -8   4   7   16.80    1.80
   8   4  -7   15.50    3.20
   8   4  -7   17.60    1.40
  -8   4   7   16.20    1.30
  -8   4   7   16.10    1.10
   7  -4  -7    9.70    3.30
   7  -4  -7   10.60    1.60
  -7  -4   7   10.30    1.00
  -7  -4   7   10.70    0.80
  -7   4   7   10.10    1.00
   7   4  -7   11.20    1.10
  -7   4   7   10.10    0.80
   7   4  -7    7.60    2.10
   7   4  -7    9.00    2.70
  -6  -4   7   52.29    4.40
   6  -4  -7   64.49    7.80
  -6  -4   7   63.29    4.00
   6  -4  -7   62.89    4.50
  -6  -4   7   63.59    3.70
  -6   4   7   60.29    4.00
   6   4  -7   64.49    4.00
   6   4  -7   67.79    6.40
   6   4  -7   65.89    6.00
  -6   4   7   59.99    3.70
   5  -4  -7  130.59   12.10
  -5  -4   7  134.69    7.80
  -5  -4   7  111.59    8.30
   5  -4  -7  141.29    8.60
   5   4  -7  129.09    9.60
  -5   4   7  134.29   10.20
  -5   4   7  125.19    7.50
   5   4  -7  132.89    7.80
  -5   4   7  133.89    7.80
   5   4  -7  106.49   12.10
   5   4  -7  139.59   10.20
   4  -4  -7   78.49    8.60
  -4  -4   7   75.19    4.80
   4  -4  -7   84.69    5.90
  -4  -4   7   76.79    4.60
  -4  -4   7   70.79    5.40
   4   4  -7   79.79    4.90
  -4   4   7   80.89    8.10
  -4   4   7   80.09    4.90
   4   4  -7   78.29    6.70
  -4   4   7   74.99    4.60
   4   4  -7   70.99    9.60
   3  -4  -7  256.57   16.30
  -3  -4   7  239.08   15.90
  -3  -4   7  265.87   14.90
  -3  -4   7  267.47   15.20
   3   4  -7  279.47   16.70
  -3   4   7  284.27   19.50
  -3   4   7  260.67   15.00
   3   4  -7  245.68   19.00
  -3   4   7  273.37   15.30
  -2  -4   7  206.08   12.10
  -2  -4   7  219.58   11.90
  -2  -4   7  198.68   12.90
   2  -4  -7  189.48   13.00
  -2   4   7  213.38   11.90
  -2   4   7  207.18   12.30
   2   4  -7  220.18   13.60
  -2   4   7  214.58   17.50
   2   4  -7  216.48   15.80
   1  -4  -7  331.07   21.70
  -1  -4   7  379.56   20.60
  -1  -4   7  347.57   21.60
  -1  -4   7  376.86   20.80
  -1   4   7  358.96   20.70
  -1   4   7  364.26   28.20
   1   4  -7  382.16   22.50
  -1   4   7  380.66   21.00
   1   4  -7  370.96   24.10
   0  -4   7   44.10    3.70
   0  -4   7   48.90    2.80
   0   4  -7   45.70    5.60
   0   4   7   49.60    2.90
   0   4   7   46.50   10.60
   0   4   7   44.90    2.90
   0   4  -7   49.10    4.80
  -1  -4  -7    5.40    1.00
  -1  -4  -7    6.80    1.40
   1  -4   7    3.90    1.00
   1   4   7    4.40    0.70
   1   4   7    4.90    0.50
   1   4   7    5.80    0.60
  -1   4  -7    4.00    2.40
  -1   4  -7    2.50    2.50
   1   4   7    6.60    6.80
  -2  -4  -7  143.29    9.40
   2  -4   7  167.38    9.40
  -2  -4  -7  146.29    9.40
   2   4   7  157.18    8.80
   2   4   7  147.09    9.10
   2   4   7  153.78    8.80
  -3  -4  -7   16.40    2.10
   3  -4   7   17.20    1.80
  -3  -4  -7   12.90    1.50
   3   4   7   17.40    1.20
   3   4   7   16.60    1.20
   3   4   7   14.70    1.60
  -4  -4  -7   54.89    3.90
   4  -4   7   57.09    3.60
   4   4   7   58.79    3.50
   4   4   7   57.39    3.60
   4   4   7   56.79    3.40
   5  -4   7   22.10    1.70
  -5  -4  -7   20.50    1.70
   5   4   7   18.80    1.50
   5   4   7   19.00    1.30
   5   4   7   20.40    1.40
   6  -4   7   34.50    2.20
  -6  -4  -7   37.20    2.40
   6   4   7   27.80    2.00
   6   4   7   36.40    2.20
   6   4   7   34.70    2.20
  -8  -5   7    7.30    0.50
  -8  -5   7    8.40    0.70
  -8   5   7    8.50    0.70
   8   5  -7    7.10    2.00
   8   5  -7    4.90    1.30
   8   5  -7    5.10    1.50
  -8   5   7    6.90    0.50
   8   5  -7    8.30    0.90
  -7  -5   7   71.39    4.30
  -7  -5   7   77.99    4.40
   7   5  -7   70.59    6.30
  -7   5   7   77.89    4.50
   7   5  -7   64.49    6.00
  -7   5   7   76.59    4.30
   6  -5  -7   60.39    3.80
  -6  -5   7   55.49    3.40
  -6  -5   7   51.69    3.20
  -6  -5   7   47.40    4.60
   6   5  -7   56.59    3.60
  -6   5   7   53.99    3.50
  -6   5   7   55.69    3.30
   6   5  -7   50.49    5.10
   6   5  -7   65.39    6.10
   5  -5  -7    8.70    1.30
  -5  -5   7    7.20    1.30
  -5  -5   7    8.10    0.60
  -5  -5   7    9.40    0.90
   5   5  -7    7.00    2.20
   5   5  -7    6.90    0.90
  -5   5   7    8.00    0.70
  -5   5   7    8.60    1.00
  -4  -5   7   60.39    4.80
  -4  -5   7   66.59    4.20
   4  -5  -7   69.29    4.90
  -4  -5   7   67.59    4.00
   4   5  -7   71.89    5.90
  -4   5   7   71.79    4.10
   4   5  -7   71.39    4.40
  -4   5   7   68.69    4.30
   3  -5  -7  161.08   10.70
  -3  -5   7  165.78   10.90
  -3  -5   7  165.48    9.60
  -3  -5   7  197.38   10.10
  -3   5   7  160.48   10.00
  -3   5   7  165.18    9.70
   3   5  -7  172.78   11.50
  -2  -5   7   49.30    4.10
   2  -5  -7   43.80    3.60
  -2  -5   7   44.50    2.60
  -2   5   7   36.60    2.80
  -2   5   7   47.10    3.00
   2   5  -7   49.00    4.40
   1  -5  -7    5.00    1.10
  -1  -5   7    5.90    1.90
  -1  -5   7    7.00    0.50
   1   5  -7    7.30    1.80
  -1   5   7    6.90    0.80
   0  -5  -7    4.40    1.10
   0  -5   7    5.90    1.30
   0   5   7    6.40    0.80
   0   5   7    6.80    0.60
   0   5   7    6.50    0.60
   1  -5   7   71.29    4.70
  -1  -5  -7   62.09    4.70
   1   5   7   69.09    4.00
   1   5   7   65.49    4.00
  -2  -5  -7   18.40    1.80
  -2  -5  -7   22.50    2.00
   2  -5   7   22.10    1.90
   2   5   7   18.80    1.60
   2   5   7   20.30    1.60
   2   5   7   22.80    1.40
   2   5   7   22.40    1.40
  -3  -5  -7   10.20    1.10
   3  -5   7   11.80    1.10
   3   5   7   11.80    0.90
   3   5   7   11.40    0.80
   3   5   7   11.00    1.00
  -4  -5  -7    2.30    0.50
   4  -5   7    2.70    0.50
   4   5   7    2.20    0.50
   4   5   7    2.80    0.30
   4   5   7    2.50    0.40
  -5  -6   7    1.00    0.50
  -5  -6   7    1.30    0.20
  -5  -6   7    1.20    0.30
   5   6  -7    1.10    0.80
   5   6  -7    0.80    0.90
  -5   6   7    1.20    0.30
  -5   6   7    1.50    0.20
  -4  -6   7    4.40    0.40
  -4  -6   7    3.90    0.30
   4  -6  -7    5.10    0.90
  -4  -6   7    2.80    0.80
  -4   6   7    3.80    0.50
   4   6  -7    3.50    1.60
  -4   6   7    4.50    0.40
  -4   6   7    3.80    0.40
  -3  -6   7   39.80    3.00
   3  -6  -7   34.00    2.80
   3   6  -7   38.80    4.70
  -3   6   7   36.90    2.20
  -3   6   7   37.00    2.20
  -3   6   7   36.10    2.40
   2  -6  -7    6.90    1.10
  -2  -6   7    8.30    1.30
  -2   6   7    7.50    0.60
  -2   6   7    8.00    0.60
   2   6  -7    9.30    2.10
  -2   6   7    7.50    0.80
   1  -6  -7    0.80    0.50
   1  -6  -7    1.00    0.80
  -1  -6   7    0.00    0.50
  -1   6   7    0.40    0.30
  -1   6   7    0.90    0.20
  -1   6   7    0.30    0.20
   0  -6   7    6.30    1.10
   0  -6  -7    4.40    0.80
   0   6   7    4.70    0.40
   0   6   7    3.40    0.70
   0   6   7    4.70    0.40
   1  -6   7    4.30    0.80
   1   6   7    4.30    0.40
   1   6   7    4.10    0.40
   1   6   7    2.50    0.50
   1   6   7    3.50    0.50
   2  -6   7   22.30    1.40
   2   6   7   19.80    1.40
   2   6   7   18.00    1.40
   2   6   7   21.20    1.30
  12   0  -8   12.50    2.50
  11   0  -8   78.99    8.00
  11   0  -8   80.49    7.20
 -10   0   8    0.20    0.90
  10   0  -8   -0.50    0.80
  10   0  -8    0.50    1.00
  10   0  -8    0.20    0.70
   9   0  -8   -0.10    0.60
   9   0  -8   -0.50    1.00
   9   0  -8    1.90    1.10
  -9   0   8    0.40    0.60
   9   0  -8    0.70    0.80
  -9   0   8    0.40    0.20
  -9   0   8    0.30    0.30
  -8   0   8    9.50    0.90
   8   0  -8    8.50    3.00
  -8   0   8    7.80    0.70
   8   0  -8   10.30    1.40
   8   0  -8    9.30    1.80
   8   0  -8   10.90    1.80
  -8   0   8   11.90    2.80
  -8   0   8    8.70    1.20
  -7   0   8    0.70    0.30
   7   0  -8    2.60    1.10
  -7   0   8    0.60    1.20
  -7   0   8    2.10    0.30
   7   0  -8    0.60    1.50
  -7   0   8    0.80    0.50
   7   0  -8    0.90    0.60
  -7   0   8    1.70    1.30
  -6   0   8    0.70    1.10
  -6   0   8    0.90    0.30
   6   0  -8    6.20    1.10
   6   0  -8    1.40    1.90
   6   0  -8   -0.30    0.90
  -6   0   8   -0.10    0.20
  -6   0   8    1.30    0.50
   6   0  -8    2.00    1.10
  -6   0   8    1.40    0.90
   6   0  -8    2.10    4.10
   5   0  -8    0.60    0.90
   5   0  -8    0.10    1.10
  -5   0   8    0.30    1.10
  -5   0   8    0.80    1.00
  -5   0   8    0.60    0.40
   5   0  -8   -0.30    2.50
  -5   0   8    0.70    0.30
   4   0  -8    4.60    1.30
   4   0  -8    6.70    2.60
   4   0  -8    3.60    0.90
  -4   0   8    4.90    1.70
   4   0  -8    4.30    1.20
  -3   0   8  168.28   11.80
   3   0  -8  157.38   10.40
   3   0  -8  174.88   12.50
   3   0  -8  161.18   10.80
  -2   0   8   61.99    5.50
   2   0  -8   60.39    4.60
   2   0  -8   64.79    5.10
   2   0  -8   67.39    6.30
   1   0  -8    8.00    1.40
   1   0  -8   12.40    1.90
  -1   0   8    7.70    2.20
   1   0  -8   12.50    2.50
   0   0   8   29.00    2.10
   0   0  -8   28.60    3.70
   0   0  -8   28.20    2.80
   0   0  -8   29.60    2.60
   0   0  -8   30.80    3.00
   0   0   8   28.80    4.30
   1   0   8  735.93   41.50
  -1   0  -8  771.82   42.90
  -1   0  -8  745.23   43.90
  -1   0  -8  716.83   41.90
  -1   0  -8  703.53   41.90
   2   0   8  247.38   14.50
  -2   0  -8  255.77   14.80
  -2   0  -8  263.97   15.80
  -2   0  -8  245.38   16.70
   2   0   8  236.38   14.30
   3   0   8  516.15   31.10
   3   0   8  537.65   31.40
  -3   0  -8  561.54   31.60
  -3   0  -8  556.34   33.80
  -3   0  -8  587.74   32.80
  -4   0  -8  677.03   41.70
   4   0   8  623.54   36.60
  -4   0  -8  693.43   38.10
  -4   0  -8  638.64   36.70
   4   0   8  599.04   36.40
   5   0   8  135.29    8.00
  -5   0  -8  139.79    9.30
   5   0   8  132.59    8.20
  -5   0  -8  134.09    8.20
   6   0   8   24.90    1.80
   6   0   8   22.30    1.80
  -6   0  -8   23.90    2.00
  -6   0  -8   22.90    2.50
  -7   0  -8    9.90    1.30
   7   0   8    9.80    0.90
  -7   0  -8    7.30    1.30
   8   0   8    1.70    0.40
  -8   0  -8    1.60    0.40
  -8   0  -8    1.60    0.50
  -8   0  -8    2.70    0.30
  12  -1  -8   48.40    5.00
  12   1  -8   45.20    4.90
 -12   1   8   46.10    2.70
 -11  -1   8    9.30    0.70
  11  -1  -8    9.00    2.60
  11  -1  -8    9.80    1.40
  11   1  -8    9.50    2.60
 -11   1   8    9.70    0.90
  11   1  -8    8.30    1.40
  10  -1  -8    6.90    1.40
  10  -1  -8    4.90    2.10
 -10  -1   8    7.00    0.60
 -10   1   8    6.80    0.80
 -10   1   8    4.30    0.90
  10   1  -8    6.30    1.00
  10   1  -8    6.90    2.50
  -9  -1   8   74.89    4.50
   9  -1  -8   80.59    8.60
   9  -1  -8   70.19    5.60
   9  -1  -8   78.59    5.40
   9   1  -8   80.39    8.40
  -9   1   8   81.69    4.90
   9   1  -8   75.59    5.20
   9   1  -8   77.99    5.60
  -9   1   8   75.19    5.00
   8  -1  -8  189.18   15.70
  -8  -1   8  280.67   17.20
   8  -1  -8  177.48   11.70
   8  -1  -8  173.18   12.20
   8  -1  -8  214.58   12.70
  -8  -1   8  185.88   11.10
  -8   1   8  192.78   14.30
  -8   1   8  175.08   12.60
  -8   1   8  185.58   11.40
  -8   1   8  182.88   11.40
   8   1  -8  197.08   15.60
   8   1  -8  191.58   11.80
   8   1  -8  213.98   12.70
  -7  -1   8  282.57   15.70
   7  -1  -8  279.87   16.40
  -7  -1   8  241.28   15.70
   7  -1  -8  279.37   20.40
   7  -1  -8  293.57   16.90
   7  -1  -8  251.47   16.80
  -7  -1   8  286.87   18.30
  -7   1   8  275.27   16.00
   7   1  -8  275.17   16.30
   7   1  -8  282.07   24.00
  -7   1   8  263.87   16.90
   7   1  -8  298.67   17.20
   7   1  -8  261.17   17.30
  -7   1   8  274.97   16.00
  -7   1   8  293.17   18.30
   7   1  -8  296.07   20.40
   6  -1  -8  129.39    8.10
   6  -1  -8  122.09    7.70
  -6  -1   8  105.89    6.90
   6  -1  -8  110.79    8.00
   6  -1  -8  117.89   10.70
  -6  -1   8  119.29    6.90
  -6  -1   8  125.79    9.20
  -6   1   8  122.99    7.10
  -6   1   8  116.09    8.00
  -6   1   8  119.99    7.20
   6   1  -8  123.69    7.50
   6   1  -8  115.59    8.50
   6   1  -8  121.09   10.60
   6   1  -8  116.79    8.30
   6   1  -8  111.89   11.40
  -5  -1   8  269.27   16.70
   5  -1  -8  244.78   18.30
  -5  -1   8  231.48   14.60
   5  -1  -8  248.08   15.40
   5  -1  -8  264.07   15.70
  -5   1   8  249.68   15.60
   5   1  -8  250.57   16.00
   5   1  -8  257.67   18.30
   5   1  -8  261.07   15.20
  -5   1   8  271.67   16.90
   5   1  -8  271.47   16.50
   4  -1  -8  369.76   21.70
   4  -1  -8  359.96   24.20
  -4  -1   8  349.17   22.20
   4  -1  -8  340.97   21.60
   4  -1  -8  353.26   21.10
  -4  -1   8  345.77   20.30
   4   1  -8  357.86   21.00
   4   1  -8  375.36   23.90
  -4   1   8  347.27   20.30
   4   1  -8  379.26   22.40
  -4   1   8  354.36   20.50
   4   1  -8  387.26   22.40
  -4   1   8  370.86   22.70
   3  -1  -8   51.09    4.00
   3  -1  -8   54.19    3.80
   3  -1  -8   54.19    4.30
   3  -1  -8   51.39    6.20
  -3  -1   8   52.49    4.70
   3   1  -8   51.49    4.50
   3   1  -8   53.99    5.50
  -3   1   8   47.40    3.00
  -3   1   8   51.09    5.10
   3   1  -8   51.19    4.40
  -3   1   8   47.90    3.20
   2  -1  -8  404.66   25.30
  -2  -1   8  606.24   29.20
   2  -1  -8  423.26   26.00
   2  -1  -8  442.56   27.90
   2  -1  -8  405.76   25.50
   2   1  -8  387.16   25.70
  -2   1   8  432.76   27.50
   2   1  -8  421.86   27.30
   2   1  -8  425.16   26.20
   1  -1  -8  248.78   15.30
   1  -1  -8  260.07   17.60
   1  -1  -8  264.17   16.10
   1  -1  -8  247.18   15.50
  -1  -1   8  252.67   14.60
   1   1  -8  273.27   17.40
   1   1  -8  253.77   15.70
  -1   1   8  262.97   18.20
   1   1  -8  268.17   16.30
   0  -1   8   89.49    5.20
   0  -1  -8   94.29    8.00
   0  -1  -8   89.39    6.10
   0  -1   8   86.49    5.50
   0  -1  -8   97.59    6.70
   0  -1  -8   89.59    5.90
   0   1   8   87.39    5.20
   0   1  -8   87.39    6.10
   0   1   8   90.29    5.60
   0   1   8   95.29    9.20
   0   1  -8   91.19    6.70
   0   1  -8   90.99    7.40
  -1  -1  -8  273.87   18.30
   1  -1   8  271.07   15.70
  -1  -1  -8  291.97   17.00
  -1  -1  -8  267.77   16.00
  -1  -1  -8  257.47   16.10
  -1   1  -8  283.97   17.90
  -1   1  -8  288.87   17.10
   1   1   8  273.07   15.80
   1   1   8  275.17   20.60
  -1   1  -8  265.27   16.10
   1   1   8  271.07   15.40
  -1   1  -8  250.97   16.10
   2  -1   8  147.09    8.70
  -2  -1  -8  145.59    9.00
  -2  -1  -8  137.59   11.20
  -2  -1  -8  157.58   10.00
   2   1   8  144.19    8.40
  -2   1  -8  149.19   10.00
   2   1   8  160.48   19.70
   2   1   8  142.99    8.50
  -2   1  -8  144.99   10.60
  -2   1  -8  147.09    9.00
   2   1   8  149.39    8.90
  -3  -1  -8   80.29    6.00
  -3  -1  -8   68.09    7.10
  -3   1  -8   81.49    6.00
   3   1   8   70.39    4.70
  -3   1  -8   78.29    5.00
  -3   1  -8   76.69    6.70
   4  -1   8   42.60    2.80
   4  -1   8   36.50    2.60
  -4  -1  -8   36.10    5.30
  -4  -1  -8   41.90    3.70
  -4  -1  -8   39.30    2.90
   4   1   8   38.00    2.50
   4   1   8   36.00    2.80
  -4   1  -8   34.30    4.50
  -4   1  -8   38.20    2.80
  -4   1  -8   40.10    3.70
   5  -1   8   94.19    5.90
  -5  -1  -8   93.79    6.80
  -5  -1  -8   98.89    6.20
  -5  -1  -8   98.49    6.00
   5  -1   8  100.39    5.90
  -5   1  -8  101.59    7.00
   5   1   8   98.59    5.70
  -5   1  -8   68.39    6.40
   6  -1   8   37.40    2.60
  -6  -1  -8   37.80    3.20
   6  -1   8   37.70    2.60
  -6  -1  -8   38.50    2.90
  -6   1  -8   37.60    3.30
   6   1   8   38.20    2.50
  -6   1  -8   35.50    2.80
   7  -1   8   17.90    1.40
  -7  -1  -8   13.60    1.70
  -7  -1  -8   15.10    1.70
  -7   1  -8   16.60    1.80
   7   1   8   20.20    1.40
  -7   1  -8   16.40    1.40
  11  -2  -8   10.30    2.50
 -11  -2   8    9.30    0.70
 -11  -2   8    9.50    0.70
  11   2  -8    6.70    1.00
  11   2  -8    9.00    2.40
 -11   2   8    8.80    0.80
 -11   2   8    9.50    0.70
  10  -2  -8  111.39    7.80
 -10  -2   8  117.69    6.70
  10  -2  -8  122.59   10.70
  10   2  -8  108.09   10.00
 -10   2   8  119.19    7.00
  10   2  -8  118.39    7.30
   9  -2  -8   77.99    6.10
   9  -2  -8  105.19   11.00
  -9  -2   8   76.89    5.00
  -9  -2   8   86.09    5.00
   9   2  -8   93.89    6.00
  -9   2   8   80.49    5.40
   9   2  -8   81.29    6.20
  -9   2   8   84.09    5.30
   9   2  -8   86.19    8.70
  -8  -2   8  355.66   21.40
  -8  -2   8  395.86   21.40
   8  -2  -8  369.36   22.80
   8  -2  -8  386.56   22.20
   8  -2  -8  377.46   26.40
   8   2  -8  401.06   22.00
   8   2  -8  419.16   26.30
   8   2  -8  386.76   23.00
   8   2  -8  344.07   23.00
  -8   2   8  391.96   21.80
  -8   2   8  334.27   22.20
   7  -2  -8    6.30    2.80
  -7  -2   8    5.10    0.60
  -7  -2   8    4.90    0.60
   7  -2  -8    8.30    1.70
   7   2  -8    6.50    1.00
  -7   2   8    3.60    0.80
   7   2  -8    2.20    2.50
   7   2  -8    4.90    2.50
   7   2  -8    4.90    5.50
  -7   2   8    4.30    1.80
   7   2  -8    4.20    1.40
  -7   2   8    5.60    1.80
  -7   2   8    5.70    0.80
  -6  -2   8   54.09    3.70
   6  -2  -8   50.99    4.20
  -6  -2   8   61.29    3.60
   6  -2  -8   57.29    7.00
   6  -2  -8   65.69    4.80
  -6   2   8   61.99    5.80
  -6   2   8   62.29    3.60
   6   2  -8   53.39    8.10
   6   2  -8   61.49    4.10
   6   2  -8   62.79    6.70
  -6   2   8   62.29    3.90
  -6   2   8   52.49    5.10
   6   2  -8   71.09    5.70
   5  -2  -8   52.59    6.60
  -5  -2   8   56.59    3.30
   5  -2  -8   56.09    4.50
   5  -2  -8   55.59    4.00
  -5  -2   8   53.79    3.40
   5   2  -8   57.59    3.80
   5   2  -8   35.40    7.60
  -5   2   8   56.09    3.60
  -5   2   8   58.39    5.60
  -5   2   8   57.19    3.30
   4  -2  -8   39.70    3.10
  -4  -2   8   40.40    2.40
  -4  -2   8   37.80    2.50
  -4  -2   8   35.40    2.80
   4  -2  -8   39.00    6.10
   4  -2  -8   38.00    3.50
  -4   2   8   39.30    2.40
  -4   2   8   41.20    4.70
   4   2  -8   39.90    5.20
  -4   2   8   39.50    2.60
   4   2  -8   40.20    2.90
  -3  -2   8  228.58   14.90
   3  -2  -8  264.37   15.80
  -3  -2   8  246.18   14.60
   3  -2  -8  233.48   18.10
  -3  -2   8  254.97   14.50
   3  -2  -8  272.47   16.30
  -3   2   8  263.97   14.80
   3   2  -8  256.67   17.80
   3   2  -8  275.37   15.40
  -3   2   8  272.87   18.00
  -3   2   8  257.27   14.50
   2  -2  -8   14.30    1.90
   2  -2  -8   17.10    2.00
  -2  -2   8   16.10    1.10
  -2  -2   8   22.40    2.20
  -2   2   8   21.30    4.20
   2   2  -8   18.30    3.20
  -2   2   8   15.60    1.40
   2   2  -8   16.10    1.80
  -2   2   8   16.00    1.20
  -1  -2   8  455.25   26.60
   1  -2  -8  458.55   27.40
  -1  -2   8  462.75   26.10
   1  -2  -8  448.66   30.30
   1  -2  -8  454.65   26.80
   1  -2  -8  460.65   27.20
  -1   2   8  491.15   32.00
   1   2  -8  472.55   29.00
   1   2  -8  458.75   27.00
  -1   2   8  450.45   26.40
  -1   2   8  472.35   26.20
   1   2  -8  497.55   28.20
   0  -2  -8  109.39    8.10
   0  -2   8  101.89    5.70
   0  -2  -8   97.19    6.60
   0  -2  -8   82.49    9.00
   0  -2   8  105.09    6.20
   0  -2  -8  110.39    6.40
   0   2  -8  104.29    7.20
   0   2   8   95.19    6.00
   0   2   8   88.39    6.20
   0   2  -8  106.49    7.50
   0   2   8  104.89   12.00
   0   2  -8   92.19    7.90
   0   2  -8   93.29    6.50
   0   2   8   98.69    5.80
   0   2   8  100.09    5.80
  -1  -2  -8   39.50    6.30
   1  -2   8   47.50    3.30
  -1  -2  -8   48.90    3.50
  -1  -2  -8   47.50    4.00
  -1  -2  -8   45.00    3.70
   1  -2   8   48.70    2.80
  -1   2  -8   48.20    4.80
   1   2   8   46.70    3.40
   1   2   8   59.89   11.30
   1   2   8   48.40    2.90
  -1   2  -8   50.19    4.40
   1   2   8   48.00    2.90
  -2  -2  -8  121.59    8.20
  -2  -2  -8  129.39    8.30
  -2  -2  -8  133.09    8.80
   2  -2   8  142.89    8.20
  -2  -2  -8  134.19   11.20
   2   2   8  109.29   17.10
  -2   2  -8  137.29    9.10
  -2   2  -8  123.89    9.70
   2   2   8  133.39    7.60
   2   2   8  127.29    7.50
   2   2   8  131.59    7.70
  -3  -2  -8  103.59   13.50
  -3  -2  -8   85.19    5.30
  -3  -2  -8   81.29    5.50
  -3  -2  -8   80.79    7.60
   3  -2   8   81.49    5.10
  -3   2  -8   71.89    6.90
   3   2   8   84.29    4.90
   3   2   8   82.89    5.00
   3   2   8   81.59    4.80
  -3   2  -8   78.29    7.20
   4  -2   8   19.10    1.60
  -4  -2  -8   18.40    2.20
  -4  -2  -8   21.70    2.00
  -4  -2  -8   20.50    1.80
   4   2   8   19.90    1.60
  -4   2  -8   21.80    2.40
   4   2   8   19.30    1.30
   4   2   8   21.80    1.50
  -5  -2  -8    8.10    1.70
  -5  -2  -8    9.40    1.20
   5  -2   8    8.20    1.00
   5   2   8   10.50    0.90
   5   2   8    7.40    1.00
  -5   2  -8    9.70    1.60
   6  -2   8    8.00    0.90
  -6  -2  -8    9.40    1.10
  -6  -2  -8    5.00    1.20
  -6   2  -8    8.00    1.10
  -6   2  -8    9.00    1.30
   6   2   8    9.60    0.90
  -7  -2  -8    0.10    0.10
  -7  -2  -8    0.40    0.40
   7   2   8    0.10    0.20
  -7   2  -8    0.30    0.40
 -10  -3   8    0.70    0.20
  10  -3  -8    1.10    1.40
 -10   3   8    1.50    0.20
  10   3  -8    1.40    1.20
 -10   3   8    0.90    0.30
  10   3  -8    0.70    1.90
  -9  -3   8   23.30    1.50
  -9  -3   8   24.90    1.50
   9  -3  -8   22.40    4.10
   9   3  -8   13.30    3.30
   9   3  -8   22.60    2.80
  -9   3   8   22.80    1.50
   9   3  -8   23.30    2.00
  -9   3   8   24.20    1.70
   9   3  -8   21.60    3.90
  -9   3   8   20.60    2.50
   8  -3  -8    8.80    1.90
   8  -3  -8   10.40    3.20
  -8  -3   8   11.10    1.00
  -8  -3   8   12.10    0.90
  -8   3   8   11.70    1.10
  -8   3   8   11.60    0.90
   8   3  -8   12.80    3.00
   8   3  -8   11.60    1.40
   8   3  -8   13.50    2.50
  -8   3   8   11.80    1.40
   8   3  -8   10.00    2.30
   7  -3  -8   60.69    7.50
  -7  -3   8   65.89    3.90
   7  -3  -8   63.19    4.70
  -7  -3   8   61.49    4.00
  -7   3   8   61.99    3.80
   7   3  -8   65.39    4.30
   7   3  -8   70.69    7.10
  -7   3   8   63.09    4.10
  -6  -3   8   18.60    1.50
   6  -3  -8   19.60    4.10
   6  -3  -8   19.10    2.20
  -6  -3   8   19.90    1.40
   6   3  -8   18.70    3.20
   6   3  -8   20.70    4.10
  -6   3   8   19.30    3.60
  -6   3   8   20.30    1.60
   6   3  -8   20.10    1.70
  -6   3   8   18.40    1.30
   6   3  -8   13.20    4.80
  -5  -3   8  198.98   11.70
   5  -3  -8  178.08   12.60
  -5  -3   8  219.08   11.50
   5  -3  -8  198.48   16.00
  -5   3   8  212.18   11.80
   5   3  -8  211.78   11.90
   5   3  -8  200.28   14.30
  -5   3   8  194.08   11.50
   5   3  -8  178.98   16.00
  -5   3   8  211.88   14.40
  -4  -3   8  314.97   16.00
   4  -3  -8  265.87   20.20
   4  -3  -8  254.67   17.20
  -4  -3   8  248.88   16.60
  -4  -3   8  292.77   16.20
   4   3  -8  287.97   16.40
  -4   3   8  289.77   16.30
  -4   3   8  286.77   19.30
  -4   3   8  288.37   16.00
   4   3  -8  288.47   18.70
   4   3  -8  269.77   20.30
   3  -3  -8  332.07   20.60
  -3  -3   8  334.87   19.40
   3  -3  -8  306.47   19.60
  -3  -3   8  358.06   19.20
   3  -3  -8  340.47   23.70
  -3  -3   8  320.37   20.00
  -3   3   8  346.47   19.30
   3   3  -8  339.97   23.00
  -3   3   8  356.16   23.50
   3   3  -8  361.46   22.00
  -3   3   8  349.67   19.60
   3   3  -8  344.27   19.80
  -2  -3   8  249.28   13.40
   2  -3  -8  226.68   14.60
  -2  -3   8  220.28   14.10
   2  -3  -8  226.88   13.90
   2   3  -8  238.98   16.80
   2   3  -8  245.58   16.00
   2   3  -8  238.68   14.10
  -2   3   8  242.98   18.60
  -2   3   8  240.58   13.70
  -2   3   8  233.18   13.40
   1  -3  -8  470.85   28.20
   1  -3  -8  494.35   28.90
  -1  -3   8  490.35   28.40
  -1  -3   8  516.35   27.70
  -1   3   8  497.85   27.70
  -1   3   8  497.55   34.70
   1   3  -8  477.65   30.70
  -1   3   8  488.85   28.00
   0  -3  -8  276.47   16.40
   0  -3  -8  250.07   16.00
   0  -3   8  259.87   15.40
   0  -3  -8  271.37   15.90
   0   3  -8  276.27   17.20
   0   3  -8  269.77   16.70
   0   3   8  294.97   15.70
   0   3  -8  266.37   18.10
   0   3   8  270.57   15.70
   0   3   8  277.97   23.30
  -1  -3  -8  192.88   11.80
  -1  -3  -8  198.38   12.10
   1  -3   8  205.98   11.90
  -1  -3  -8  193.48   12.20
  -1   3  -8  193.88   13.80
   1   3   8  208.68   20.80
   1   3   8  190.18   11.60
  -1   3  -8  200.98   13.00
   1   3   8  207.38   11.40
   1   3   8  201.18   11.40
  -2  -3  -8  115.09    7.90
  -2  -3  -8  129.79    8.00
   2  -3   8  127.39    7.60
  -2  -3  -8  125.79    7.70
  -2   3  -8  112.39    9.20
   2   3   8  122.29    7.20
   2   3   8  128.69    7.40
   2   3   8  119.39   18.50
  -2   3  -8  134.39    8.80
   2   3   8  129.29    7.30
  -3  -3  -8    7.70    1.30
  -3  -3  -8   10.70    1.30
  -3  -3  -8    9.30    1.10
   3  -3   8   10.00    1.10
   3   3   8   10.10    0.90
  -3   3  -8    9.80    1.80
   3   3   8    8.80    0.80
   3   3   8    9.10    1.00
   4  -3   8   13.50    1.20
  -4  -3  -8   12.70    1.00
  -4  -3  -8   13.80    1.50
  -4   3  -8   12.90    2.30
   4   3   8   12.80    1.10
   4   3   8   13.70    1.10
   4   3   8   12.20    0.90
  -5  -3  -8   14.30    1.50
  -5  -3  -8   13.70    1.00
   5  -3   8   14.80    1.20
   5   3   8   12.70    1.30
  -5   3  -8   15.90    1.90
   5   3   8   15.90    1.20
  -6  -3  -8    9.90    0.80
  -6  -3  -8   10.80    1.10
   6  -3   8   12.20    1.00
  -6   3  -8   10.40    1.30
   6   3   8   10.80    0.90
   6   3   8    9.10    1.10
  -9  -4   8   19.40    1.30
  -9  -4   8   22.10    1.30
   9  -4  -8   20.30    3.40
   9   4  -8   21.10    1.70
   9   4  -8   18.90    2.30
  -9   4   8   20.90    1.30
   9   4  -8   17.40    2.90
  -9   4   8   19.90    1.50
   8  -4  -8   11.40    3.00
  -8  -4   8   11.30    0.90
  -8  -4   8   11.20    0.80
   8   4  -8    8.80    2.60
   8   4  -8   12.20    2.20
  -8   4   8   11.20    0.80
   8   4  -8   12.00    1.20
  -8   4   8   11.70    1.00
   8   4  -8   10.50    2.10
  -7  -4   8  101.29    5.90
   7  -4  -8  101.79    9.70
   7  -4  -8   96.49    6.30
  -7  -4   8   96.79    5.70
   7   4  -8  100.49    8.50
  -7   4   8   99.59    6.20
  -7   4   8   94.29    5.70
   7   4  -8   94.59    6.10
  -6  -4   8   87.29    5.60
  -6  -4   8   91.99    5.80
  -6  -4   8   93.59    5.40
   6  -4  -8   96.39    6.20
   6  -4  -8   83.29   10.50
  -6   4   8   92.09    5.30
  -6   4   8   90.79    5.60
   6   4  -8   82.99    7.70
   6   4  -8   93.89    5.70
  -5  -4   8  167.88    9.60
  -5  -4   8  152.48   10.10
  -5  -4   8  172.08    9.40
   5  -4  -8  152.88   10.40
   5  -4  -8  164.78   13.90
  -5   4   8  175.48    9.80
   5   4  -8  162.48   12.10
  -5   4   8  163.08    9.40
   5   4  -8  169.08    9.90
  -4  -4   8  105.09    7.10
   4  -4  -8  114.59   10.50
  -4  -4   8  113.79    6.30
  -4  -4   8  114.29    6.50
   4  -4  -8   95.99    7.40
   4   4  -8  115.99    6.90
   4   4  -8  110.69    8.80
  -4   4   8  109.69    6.70
  -4   4   8  105.99    6.40
   3  -4  -8   44.00    3.90
  -3  -4   8   50.59    3.10
  -3  -4   8   42.60    3.60
  -3  -4   8   48.00    2.80
  -3   4   8   48.40    2.90
  -3   4   8   40.30    6.30
   3   4  -8   48.40    4.90
   3   4  -8   50.49    3.50
   3   4  -8   40.90    7.00
  -3   4   8   48.90    3.20
  -2  -4   8  172.08    9.30
   2  -4  -8  154.18   10.40
  -2  -4   8  161.18   10.20
  -2  -4   8  162.68    9.40
  -2   4   8  161.48    9.30
  -2   4   8  169.28    9.60
  -2   4   8  159.88   14.40
   2   4  -8  163.68   11.70
   2   4  -8  147.69   13.30
   1  -4  -8   34.40    3.10
  -1  -4   8   35.80    3.00
  -1  -4   8   36.40    2.10
  -1   4   8   27.10    7.60
  -1   4   8   33.50    2.20
  -1   4   8   33.40    2.40
  -1   4   8   35.40    2.20
   1   4  -8   23.50    5.30
   0  -4   8   61.29    3.60
   0  -4   8   63.49    4.40
   0  -4  -8   61.19    4.60
   0   4  -8   63.09    5.40
   0   4   8   60.99    4.00
   0   4   8   64.99    3.70
   0   4   8   61.19    3.70
   0   4  -8   61.29    5.10
   1  -4   8   30.50    2.40
  -1  -4  -8   28.50    2.50
   1   4   8   30.10    1.90
  -1   4  -8   27.50    3.20
   1   4   8   28.10    1.90
   1   4   8   27.00    2.10
   2  -4   8   17.20    1.50
  -2  -4  -8   12.50    1.50
  -2  -4  -8   16.60    1.60
   2   4   8   14.80    1.30
   2   4   8   15.60    1.20
  -2   4  -8   14.40    2.40
   2   4   8   14.60    1.10
  -3  -4  -8   21.60    1.90
   3  -4   8   26.40    1.90
  -3  -4  -8   28.10    2.10
   3   4   8   24.50    1.80
  -3   4  -8   23.80    2.60
   3   4   8   24.10    1.60
   3   4   8   25.40    1.70
   4  -4   8    9.90    0.90
  -4  -4  -8    8.00    1.00
   4   4   8    7.90    0.70
  -4   4  -8    6.40    1.80
   4   4   8    9.30    0.80
  -5  -4  -8    2.80    0.50
   5  -4   8    2.30    0.40
   5   4   8    1.60    0.30
   5   4   8    1.70    0.40
   5   4   8    2.70    0.40
  -8  -5   8   17.80    1.10
  -8  -5   8   20.40    1.20
  -8   5   8   17.80    1.10
   8   5  -8   13.50    2.00
   8   5  -8   17.80    1.50
   8   5  -8   17.60    2.30
  -8   5   8   18.50    1.30
  -7  -5   8   10.00    0.80
  -7  -5   8    9.70    0.70
  -7   5   8   10.00    0.90
   7   5  -8    7.20    2.00
   7   5  -8    9.50    1.00
   7   5  -8    8.20    2.20
  -7   5   8    9.60    0.70
  -6  -5   8   26.90    2.00
  -6  -5   8   27.70    1.80
  -6  -5   8   26.10    1.60
   6  -5  -8   29.80    2.90
  -6   5   8   28.70    1.70
   6   5  -8   21.20    3.20
  -6   5   8   26.70    1.90
   6   5  -8   28.00    2.10
  -5  -5   8   19.20    1.30
  -5  -5   8   21.10    1.90
   5  -5  -8   19.30    2.00
  -5  -5   8   22.40    1.50
  -5   5   8   20.10    1.60
   5   5  -8   20.00    3.10
  -5   5   8   21.00    1.30
  -4  -5   8   15.30    1.70
  -4  -5   8   14.30    1.00
   4  -5  -8   13.30    1.70
  -4  -5   8   15.00    1.10
   4   5  -8   14.20    2.70
  -4   5   8   14.40    1.20
  -4   5   8   14.00    1.00
  -3  -5   8    9.00    0.70
   3  -5  -8    9.70    2.30
  -3  -5   8    9.00    1.40
  -3  -5   8   10.10    0.80
  -3   5   8    9.00    1.20
   3   5  -8    8.10    2.00
  -3   5   8   10.20    0.80
  -2  -5   8   17.90    1.10
  -2  -5   8   18.50    1.90
   2  -5  -8   16.60    2.20
  -2   5   8   14.40    1.70
   2   5  -8   18.70    2.90
  -2   5   8   17.30    1.20
  -2   5   8   17.90    1.20
   1  -5  -8   47.90    3.90
  -1  -5   8   40.70    3.10
  -1  -5   8   37.80    2.40
  -1   5   8   38.40    2.70
   1   5  -8   43.20    3.90
  -1   5   8   40.20    2.50
  -1   5   8   38.60    2.50
   0  -5  -8   54.09    3.90
   0  -5   8   59.89    3.90
   0   5   8   53.69    3.60
   0   5   8   56.49    3.30
   0   5   8   54.79    3.30
   0   5  -8   55.69    4.70
   1  -5   8   59.69    3.60
  -1  -5  -8   54.59    3.70
   1   5   8   47.30    3.40
   1   5   8   54.49    3.20
   1   5   8   53.09    3.20
   1   5   8   51.39    3.30
   2  -5   8    4.20    0.70
  -2  -5  -8    4.80    1.10
   2   5   8    3.60    0.70
   2   5   8    4.00    0.40
   2   5   8    5.00    0.50
  -3  -5  -8   11.90    1.10
   3  -5   8   12.70    1.00
   3   5   8   13.20    0.90
   3   5   8   11.70    1.00
   3   5   8   11.90    0.80
   4  -6  -8   11.10    1.10
  -4  -6   8   12.60    1.20
   4   6  -8   12.20    1.80
  -4   6   8   10.60    0.80
  -4   6   8   11.80    0.80
   4   6  -8    9.40    1.70
  -4   6   8   11.70    0.90
  -3  -6   8    0.50    0.40
   3  -6  -8    0.80    0.50
  -3   6   8    0.60    0.20
  -3   6   8    0.60    0.20
   3   6  -8    1.50    1.30
  -3   6   8    0.40    0.20
   3   6  -8   -0.70    0.80
   2  -6  -8   16.40    1.50
  -2  -6   8   17.80    1.40
   2   6  -8   13.90    2.90
  -2   6   8   17.60    1.10
  -2   6   8   16.80    1.10
  -2   6   8   15.00    1.20
   1  -6  -8   27.40    2.00
  -1  -6   8   27.30    2.00
  -1   6   8   24.30    1.80
  -1   6   8   27.90    1.70
  -1   6   8   28.30    1.70
   0  -6   8    6.90    0.80
   0  -6  -8    3.70    0.70
   0   6   8    6.50    0.50
   0   6   8    4.90    0.60
   0   6   8    6.00    0.50
  11   0  -9   -0.30    1.00
  10   0  -9   13.60    3.10
  10   0  -9   11.80    1.90
   9   0  -9  230.48   14.30
   9   0  -9  244.28   14.50
  -8   0   9    9.70    3.40
   8   0  -9   10.50    1.40
   8   0  -9   10.50    1.70
   8   0  -9   10.00    3.00
  -8   0   9    9.00    0.70
  -7   0   9  122.59    9.70
   7   0  -9  113.39   10.70
   7   0  -9  127.69    8.10
   7   0  -9  112.19    7.60
  -6   0   9  252.27   15.20
  -6   0   9  276.97   17.90
   6   0  -9  280.07   16.60
  -6   0   9  272.47   15.30
   6   0  -9  271.97   19.40
   6   0  -9  263.47   16.60
   6   0  -9  266.97   16.10
  -5   0   9    1.20    0.20
   5   0  -9   -0.10    0.80
  -5   0   9    1.50    1.60
   5   0  -9    0.60    0.60
  -5   0   9    0.70    0.20
   5   0  -9   -0.10    0.80
   5   0  -9    2.30    3.50
   4   0  -9  299.37   20.50
  -4   0   9  292.07   18.50
   4   0  -9  306.67   17.10
   4   0  -9  305.97   17.60
  -4   0   9  282.77   16.20
   4   0  -9  305.57   18.00
  -4   0   9  226.68   16.30
   3   0  -9   16.80    1.80
  -3   0   9   15.20    1.00
   3   0  -9   17.70    2.00
   3   0  -9   12.00    3.20
   3   0  -9   16.70    2.30
  -3   0   9   14.00    3.20
  -3   0   9   15.70    1.10
  -2   0   9   59.79    3.60
  -2   0   9   58.39    3.80
   2   0  -9   63.09    4.40
  -2   0   9   62.09    3.60
   2   0  -9   57.79    4.50
   2   0  -9   67.59    5.20
   2   0  -9   63.49    6.70
  -2   0   9   59.39    5.80
   1   0  -9   41.90    3.20
  -1   0   9   38.60    2.40
  -1   0   9   41.60    2.50
   1   0  -9   41.90    3.80
   1   0  -9   39.80    3.30
  -1   0   9   36.80    2.70
   1   0  -9   41.40    5.20
  -1   0   9   47.70    7.10
   0   0   9  517.15   30.60
   0   0  -9  570.34   32.20
   0   0  -9  560.84   31.20
   0   0  -9  529.45   33.60
   0   0  -9  522.55   31.20
  -1   0  -9  148.39    9.50
   1   0   9  148.79    8.90
  -1   0  -9  151.58   11.90
   1   0   9  154.28    9.10
  -1   0  -9  159.88   10.50
  -1   0  -9  160.58    9.50
  -2   0  -9   50.49    5.80
   2   0   9   47.90    3.20
   2   0   9   53.49    3.50
  -2   0  -9   58.19    4.20
  -2   0  -9   53.59    4.60
  -3   0  -9    9.80    2.90
   3   0   9   11.20    1.20
   3   0   9   10.60    1.00
  -3   0  -9   12.60    1.30
  -3   0  -9   12.50    1.90
   4   0   9   40.70    2.90
  -4   0  -9   38.10    3.60
  -4   0  -9   36.80    2.70
   4   0   9   35.80    2.70
  -5   0  -9   76.19    5.80
   5   0   9   75.89    4.60
  -5   0  -9   78.39    4.80
   5   0   9   72.79    4.80
  -6   0  -9    5.20    0.80
  -6   0  -9    5.60    1.10
   6   0   9    6.40    0.70
   7   0   9   -0.20    0.40
  -7   0  -9    0.50    0.40
  -7   0  -9    0.20    0.30
 -11  -1   9   54.79    3.50
  11  -1  -9   62.79    6.20
 -11  -1   9   63.29    3.50
 -11   1   9   58.69    3.60
  11   1  -9   63.29    6.20
 -10  -1   9   27.50    1.90
  10  -1  -9   27.10    4.20
  10   1  -9   24.80    2.10
  10   1  -9   26.20    4.20
 -10   1   9   23.70    1.80
  10   1  -9   26.60    3.40
   9  -1  -9  415.56   28.30
  -9  -1   9  421.56   23.60
   9   1  -9  447.16   24.70
   9   1  -9  427.86   24.40
   9   1  -9  430.86   28.10
  -9   1   9  389.96   23.90
  -9   1   9  408.06   24.10
   8  -1  -9   63.19    4.50
   8  -1  -9   61.89    7.30
   8  -1  -9   65.99    4.90
  -8  -1   9   65.59    3.90
  -8   1   9   65.79    4.30
  -8   1   9   61.59    4.10
   8   1  -9   75.09    5.30
   8   1  -9   63.79    4.60
   8   1  -9   68.79    7.30
  -7  -1   9    5.40    0.50
   7  -1  -9    6.10    2.90
   7  -1  -9    5.00    1.00
  -7  -1   9    4.70    2.70
   7   1  -9    4.50    2.30
  -7   1   9    5.10    0.80
   7   1  -9    5.40    1.10
   7   1  -9    3.70    1.70
   7   1  -9    5.40    2.40
  -7   1   9    4.40    2.00
  -7   1   9    4.80    0.80
   6  -1  -9   41.80    3.50
  -6  -1   9   38.70    2.40
   6  -1  -9   36.10    3.10
   6  -1  -9   38.90    5.50
  -6  -1   9   39.10    5.30
  -6  -1   9   39.40    2.40
  -6   1   9   38.50    2.60
  -6   1   9   37.20    2.50
   6   1  -9   38.50    3.50
   6   1  -9   39.30    3.90
  -6   1   9   38.80    2.70
  -6   1   9   37.50    4.70
   6   1  -9   38.80    3.70
   6   1  -9   22.90    5.90
   6   1  -9   40.30    5.40
   5  -1  -9  152.38    9.40
  -5  -1   9  144.69    8.20
   5  -1  -9  143.39   11.80
   5  -1  -9  148.99    9.00
  -5  -1   9  150.68   10.70
  -5  -1   9  142.29    8.10
  -5   1   9  137.89    8.40
   5   1  -9  151.08    9.70
   5   1  -9   58.99   11.70
  -5   1   9  145.89    8.20
  -5   1   9  152.68   10.80
   5   1  -9  154.18    9.10
  -5   1   9  137.69    8.40
   5   1  -9  150.58   10.10
   4  -1  -9   45.00    3.70
   4  -1  -9   47.30    3.50
   4  -1  -9   46.30    4.40
  -4  -1   9   44.20    2.70
   4   1  -9   45.40    3.50
   4   1  -9   47.00    4.10
  -4   1   9   48.10    2.80
  -4   1   9   43.30    4.90
   4   1  -9   43.30    4.30
   4   1  -9   46.70    6.20
   3  -1  -9  300.47   22.20
   3  -1  -9  324.87   19.10
  -3  -1   9  313.17   17.90
   3  -1  -9  315.87   19.40
   3  -1  -9  317.97   18.80
   3   1  -9  323.67   18.80
   3   1  -9  333.77   19.90
   3   1  -9  308.17   21.50
  -3   1   9  318.87   20.70
  -3   1   9  317.77   18.00
   3   1  -9  318.47   19.30
   2  -1  -9   91.79    6.30
   2  -1  -9   91.79    6.10
  -2  -1   9   89.79    5.30
   2  -1  -9  100.09    9.20
   2  -1  -9   95.89    6.80
  -2  -1   9   91.69    5.60
  -2   1   9   87.79    5.40
   2   1  -9   95.49    8.40
  -2   1   9   91.59    8.10
   2   1  -9   86.49    6.40
   2   1  -9   97.29    6.20
  -2   1   9   90.19    5.40
   2   1  -9   96.89    7.10
  -1  -1   9  145.19    8.60
   1  -1  -9  148.19    9.00
   1  -1  -9  152.38    9.80
   1  -1  -9  143.39    9.30
   1  -1  -9  136.69   11.80
  -1  -1   9  148.19    8.30
   1   1  -9  155.68   10.10
  -1   1   9  144.59    8.30
   1   1  -9  137.29    9.30
   1   1  -9  143.19   11.30
   1   1  -9  148.39    9.20
  -1   1   9  141.99   11.50
  -1   1   9  148.39    8.40
  -1   1   9  138.09    8.70
   0  -1   9   13.20    1.30
   0  -1  -9   13.00    2.00
   0  -1  -9   15.40    1.60
   0  -1  -9   16.80    3.90
   0  -1  -9   14.20    1.80
   0  -1   9   15.60    1.00
   0   1   9   16.50    4.40
   0   1   9   15.00    1.00
   0   1  -9   15.90    1.90
   0   1   9   14.20    1.10
   0   1   9   14.80    1.40
   0   1  -9   14.20    3.20
   0   1  -9   16.10    2.30
   0   1  -9   12.80    1.70
   1  -1   9  111.69    6.70
  -1  -1  -9  113.39    7.10
  -1  -1  -9  112.29    7.90
  -1  -1  -9  107.69    9.80
  -1  -1  -9  102.39    7.10
  -1   1  -9  117.09    8.10
   1   1   9  113.69    6.50
   1   1   9  110.39    6.40
  -1   1  -9  110.09    7.10
  -1   1  -9  107.09    9.10
   1   1   9  111.09    6.90
  -2  -1  -9   97.49    5.90
  -2  -1  -9   78.19    8.40
   2  -1   9   91.59    5.50
  -2  -1  -9   92.39    6.70
   2   1   9   86.79    5.70
   2   1   9   89.19    5.30
  -2   1  -9   94.09    6.80
  -2   1  -9   84.99    5.80
  -2   1  -9   81.79    7.80
  -3  -1  -9  194.08   17.40
  -3  -1  -9  236.08   14.50
   3  -1   9  230.68   13.30
  -3  -1  -9  236.78   13.50
  -3   1  -9  238.38   14.70
  -3   1  -9  224.18   13.50
  -3   1  -9  220.48   16.00
   3   1   9  220.78   13.40
   3   1   9  238.68   13.10
  -4  -1  -9    3.20    0.70
  -4  -1  -9    1.50    0.70
   4  -1   9    3.40    0.70
   4   1   9    2.40    0.60
   4   1   9    1.80    0.60
  -4   1  -9    2.20    0.90
  -4   1  -9    1.20    0.50
  -5  -1  -9   13.10    1.70
  -5  -1  -9   12.10    1.40
  -5  -1  -9   14.00    1.30
   5  -1   9   13.00    1.30
   5   1   9   15.60    1.20
  -5   1  -9   13.30    1.30
  -5   1  -9   14.90    1.90
  -6  -1  -9   31.00    2.30
   6  -1   9   29.70    2.10
  -6  -1  -9   28.20    2.50
  -6   1  -9   28.50    2.60
   6   1   9   31.20    2.00
  -6   1  -9   29.90    2.20
  -7  -1  -9    7.30    0.80
  -7  -1  -9    6.30    0.60
  -7   1  -9    6.40    0.90
  -7   1  -9    8.80    1.00
   7   1   9    7.20    0.80
  11  -2  -9    2.90    1.50
 -11  -2   9    4.30    0.40
  11   2  -9    3.40    0.80
  11   2  -9    2.70    1.40
 -11   2   9    3.70    0.30
  10  -2  -9    0.90    1.20
 -10  -2   9    1.70    0.30
 -10   2   9    0.80    0.30
  10   2  -9    0.80    1.30
 -10   2   9    1.30    0.20
  10   2  -9    0.60    1.30
  10   2  -9    1.30    0.60
  -9  -2   9   25.20    1.60
   9  -2  -9   31.50    2.70
   9  -2  -9   24.70    4.30
  -9  -2   9   27.20    1.70
  -9   2   9   23.50    2.20
   9   2  -9   25.60    2.70
  -9   2   9   26.40    1.90
  -9   2   9   27.80    1.70
   9   2  -9   27.50    2.30
   9   2  -9   25.50    4.20
  -8  -2   9  134.09    7.90
  -8  -2   9  130.19    8.00
   8  -2  -9  140.39    8.80
  -8  -2   9  149.79    8.00
   8  -2  -9  137.99   12.20
   8   2  -9  144.69    9.50
   8   2  -9  136.79   12.80
   8   2  -9  124.79    9.40
  -8   2   9  131.09    8.30
  -8   2   9  138.79    8.30
   8   2  -9  148.89    8.70
  -8   2   9  143.49    8.00
   7  -2  -9  192.28   15.90
   7  -2  -9  212.08   12.80
  -7  -2   9  188.88   11.70
  -7  -2   9  198.78   11.60
  -7   2   9  202.08   11.60
   7   2  -9  210.88   13.40
   7   2  -9  204.58   15.30
  -7   2   9  196.68   11.90
  -7   2   9  196.08   12.20
   7   2  -9  211.28   12.40
  -7   2   9  250.87   16.00
   7   2  -9  193.78   13.50
   6  -2  -9  156.28   13.00
  -6  -2   9  154.38    8.90
   6  -2  -9  155.78    9.40
  -6  -2   9  161.08    8.80
   6   2  -9  115.69   12.40
  -6   2   9  164.68   11.70
  -6   2   9  139.39   10.50
   6   2  -9  162.88   12.50
   6   2  -9  165.58    9.60
  -6   2   9  155.58    8.80
   6   2  -9  145.79   14.10
   5  -2  -9   40.60    5.90
   5  -2  -9   48.20    3.40
   5  -2  -9   46.20    3.90
   5   2  -9   37.90    6.70
  -5   2   9   42.50    5.00
   5   2  -9   44.90    4.30
  -5   2   9   53.79    3.00
  -5   2   9   42.80    3.00
   5   2  -9   39.20    4.40
  -4  -2   9   28.40    1.90
   4  -2  -9   30.90    2.90
  -4  -2   9   27.80    1.80
   4  -2  -9   28.80    2.50
   4  -2  -9   26.00    4.70
  -4  -2   9   25.20    2.10
   4   2  -9   31.60    3.60
  -4   2   9   27.80    4.20
   4   2  -9   24.00    4.80
   4   2  -9   27.90    2.50
  -4   2   9   29.70    1.80
   4   2  -9   31.30    3.50
  -4   2   9   28.30    2.10
   3  -2  -9  317.67   18.20
   3  -2  -9  287.07   21.20
  -3  -2   9  304.27   17.80
   3  -2  -9  321.57   18.70
  -3  -2   9  315.47   17.50
   3   2  -9  300.37   21.20
   3   2  -9  309.27   19.20
  -3   2   9  289.07   17.70
   3   2  -9  329.07   19.70
  -3   2   9  311.17   17.50
  -3   2   9  314.87   20.90
   3   2  -9  310.07   18.30
   2  -2  -9   55.89    4.40
   2  -2  -9   56.19    4.00
  -2  -2   9   56.69    3.30
  -2  -2   9   53.19    3.70
  -2   2   9   54.09    3.60
  -2   2   9   56.99    3.40
  -2   2   9   60.99    7.00
   2   2  -9   59.79    5.10
   2   2  -9   58.59    4.20
   2   2  -9   59.99    4.80
   2   2  -9   50.99    6.20
   1  -2  -9   24.90    2.40
  -1  -2   9   25.20    1.60
   1  -2  -9   21.50    2.80
   1  -2  -9   23.10    2.10
  -1  -2   9   25.40    2.00
   1   2  -9   23.80    2.80
   1   2  -9   26.30    3.10
   1   2  -9   24.80    2.40
  -1   2   9   24.70    1.60
   1   2  -9   23.50    3.70
  -1   2   9   27.50    6.10
  -1   2   9   25.80    1.70
   0  -2  -9  265.67   17.00
   0  -2   9  300.67   15.90
   0  -2  -9  264.97   16.70
   0  -2  -9  274.87   17.10
   0  -2   9  349.57   16.80
   0   2   9  293.37   21.90
   0   2  -9  246.08   18.50
   0   2  -9  266.07   16.80
   0   2  -9  274.77   16.60
   0   2  -9  277.67   17.60
   0   2   9  266.97   15.80
   0   2   9  270.17   15.90
  -1  -2  -9  113.59    7.60
  -1  -2  -9  114.89    6.90
   1  -2   9  111.59    6.70
  -1  -2  -9  105.49    7.10
   1   2   9  106.79    6.40
  -1   2  -9  100.09    8.80
   1   2   9  109.69    6.30
   1   2   9  112.99   14.30
  -1   2  -9  105.49    7.30
  -1   2  -9  112.29    8.00
  -2  -2  -9   98.39    6.10
   2  -2   9  103.99    5.90
  -2  -2  -9   86.99    6.10
  -2  -2  -9   94.19    6.60
  -2   2  -9   99.19    7.10
  -2   2  -9   95.09    6.10
  -2   2  -9   86.99    8.00
   2   2   9   93.79    5.50
   2   2   9   94.59    5.60
  -3  -2  -9   23.60    2.50
  -3  -2  -9   25.90    2.30
  -3  -2  -9   24.70    2.10
   3  -2   9   26.60    2.00
  -3   2  -9   27.70    2.90
   3   2   9   26.10    1.80
  -3   2  -9   22.90    2.60
   4  -2   9   67.59    4.20
  -4  -2  -9   59.59    4.60
  -4  -2  -9   66.99    4.50
  -4  -2  -9   69.69    4.30
  -4   2  -9   66.79    5.10
   4   2   9   68.09    4.00
  -4   2  -9   58.79    4.40
   5  -2   9   11.10    1.10
  -5  -2  -9   12.20    1.30
   5   2   9   11.60    1.00
  -5   2  -9   10.60    1.60
  -6  -2  -9   16.40    1.10
  -6  -2  -9   16.20    1.40
   6  -2   9   17.20    1.30
  -6   2  -9   17.40    1.80
   6   2   9   17.90    1.30
  -6   2  -9   17.80    1.60
  10  -3  -9   12.20    2.50
 -10  -3   9   10.00    0.70
 -10   3   9    9.10    0.80
  10   3  -9    7.60    2.50
  10   3  -9   10.50    1.20
 -10   3   9    9.60    0.70
   9  -3  -9    9.90    2.80
  -9  -3   9   10.50    0.80
   9   3  -9    8.00    1.60
   9   3  -9   10.50    1.30
  -9   3   9   10.30    0.90
   9   3  -9   10.30    2.50
  -9   3   9   10.10    0.70
   8  -3  -9   48.20    6.20
  -8  -3   9   53.99    3.20
   8  -3  -9   50.99    3.80
  -8  -3   9   56.89    3.30
  -8   3   9   52.69    3.50
   8   3  -9   50.79    4.60
  -8   3   9   52.99    3.20
   8   3  -9   57.19    4.70
   8   3  -9   53.59    5.80
  -8   3   9   49.20    3.60
   8   3  -9   56.59    3.80
  -7  -3   9   69.79    5.30
   7  -3  -9   97.09    6.20
  -7  -3   9   92.69    5.30
   7  -3  -9   92.49   10.30
   7   3  -9   75.89    6.40
   7   3  -9   85.19    7.00
  -7   3   9   90.59    5.50
   7   3  -9   90.99    6.90
   7   3  -9   98.89   10.60
  -6  -3   9    6.90    0.60
  -6  -3   9    7.80    0.70
   6  -3  -9    7.20    2.60
   6  -3  -9    5.10    1.20
   6   3  -9    6.70    1.80
  -6   3   9    6.60    0.60
   6   3  -9    4.70    1.70
   6   3  -9    7.00    1.10
  -6   3   9    6.60    0.80
   5  -3  -9    2.90    2.10
  -5  -3   9    3.60    0.60
  -5  -3   9    3.00    0.70
  -5  -3   9    2.90    0.40
   5  -3  -9    4.20    1.30
  -5   3   9    3.00    2.70
  -5   3   9    3.30    0.60
   5   3  -9    3.00    0.70
  -5   3   9    3.20    0.40
   5   3  -9    2.50    3.90
   4  -3  -9    2.50    2.00
  -4  -3   9    3.90    0.80
  -4  -3   9    3.00    0.50
   4  -3  -9    0.80    0.80
  -4  -3   9    3.10    0.40
  -4   3   9    3.10    0.60
  -4   3   9    3.00    0.40
   4   3  -9    1.70    3.70
  -4   3   9    5.10    3.40
   4   3  -9    1.90    0.80
  -3  -3   9  302.27   17.10
  -3  -3   9  303.77   17.60
   3  -3  -9  352.06   19.80
   3  -3  -9  299.77   17.50
   3   3  -9  299.37   21.80
   3   3  -9  302.87   17.80
  -3   3   9  280.17   17.80
  -3   3   9  298.77   21.00
   3   3  -9  279.07   21.00
  -3   3   9  305.57   17.10
  -2  -3   9  118.99    6.80
  -2  -3   9  116.69    7.40
   2  -3  -9  116.49    7.30
   2  -3  -9  152.08   10.00
  -2   3   9  115.19    6.90
  -2   3   9  121.09   11.50
   2   3  -9  112.99    7.60
   2   3  -9  108.09   10.20
  -1  -3   9   18.10    1.80
  -1  -3   9   18.70    1.20
   1  -3  -9   17.70    1.70
   1  -3  -9   18.80    2.10
   1   3  -9   13.90    4.50
  -1   3   9   15.40    1.60
   1   3  -9   19.30    2.70
  -1   3   9   11.30    6.90
  -1   3   9   17.20    1.30
   1   3  -9   19.50    3.80
  -1   3   9   17.40    1.20
   1   3  -9   15.20    2.10
   0  -3  -9   67.99    4.40
   0  -3  -9   62.39    4.60
   0  -3  -9   63.79    4.20
   0  -3   9   67.29    4.20
   0  -3   9   66.69    3.70
   0   3   9   55.69    4.40
   0   3  -9   52.89    6.70
   0   3   9   63.09    3.80
   0   3   9   61.89    3.70
   0   3  -9   65.59    5.30
   0   3   9   59.39   10.90
   0   3  -9   57.59    4.70
  -1  -3  -9    2.50    0.80
   1  -3   9    2.30    0.60
  -1  -3  -9    2.30    0.70
  -1  -3  -9    2.20    0.50
   1   3   9    1.60    0.30
   1   3   9    1.90    0.40
   1   3   9    2.30    0.50
  -1   3  -9    1.40    1.00
   2  -3   9  213.48   12.50
  -2  -3  -9  198.58   12.80
  -2  -3  -9  211.88   12.90
   2   3   9  206.18   12.40
  -2   3  -9  224.58   13.80
   2   3   9  222.78   12.30
   2   3   9  227.18   12.30
  -3  -3  -9   40.40    2.70
   3  -3   9   40.70    2.70
  -3  -3  -9   41.30    3.00
   3   3   9   37.50    2.60
  -3   3  -9   41.80    3.60
   3   3   9   38.00    2.40
   3   3   9   39.00    2.50
  -4  -3  -9   17.00    1.40
   4  -3   9   13.00    1.10
   4   3   9   13.60    1.00
   4   3   9   11.20    1.10
   4   3   9   10.70    0.80
  -4   3  -9   12.80    1.80
  -5  -3  -9   20.70    1.60
   5  -3   9   20.80    1.50
   5   3   9   20.50    1.40
  -5   3  -9   19.60    2.00
   9  -4  -9   26.10    3.50
  -9  -4   9   25.10    1.50
  -9   4   9   25.30    1.50
   9   4  -9   25.00    1.90
  -9   4   9   25.40    1.70
   9   4  -9   21.90    2.30
   8  -4  -9   14.70    3.90
  -8  -4   9   18.50    1.20
  -8  -4   9   18.60    1.20
   8   4  -9   15.90    2.30
  -8   4   9   17.50    1.10
   8   4  -9   11.90    2.50
  -8   4   9   18.10    1.30
  -7  -4   9   14.50    1.00
   7  -4  -9   13.60    3.20
  -7  -4   9   15.30    1.10
   7  -4  -9   14.90    1.60
   7   4  -9   11.80    2.30
   7   4  -9   14.90    1.50
  -7   4   9   13.60    1.00
  -7   4   9   14.20    1.20
   7   4  -9   13.00    2.30
   6  -4  -9    8.80    1.60
   6  -4  -9    5.70    2.40
  -6  -4   9    6.30    0.60
  -6  -4   9    6.70    0.70
   6   4  -9    5.40    0.90
  -6   4   9    6.10    0.60
  -6   4   9    7.20    0.90
   6   4  -9    3.90    2.00
  -5  -4   9   80.89    5.10
   5  -4  -9   71.29    5.60
  -5  -4   9   81.99    4.70
  -5   4   9   79.69    4.70
  -5   4   9   81.39    5.00
   5   4  -9   81.19    5.30
   4  -4  -9   48.90    4.00
  -4  -4   9   35.50    3.30
  -4  -4   9   52.39    3.50
  -4   4   9   52.09    3.20
   4   4  -9   52.69    3.60
  -3  -4   9   61.89    3.50
   3  -4  -9   61.99    4.70
  -3  -4   9   44.90    4.60
  -3   4   9   60.79    3.80
  -3   4   9   62.09    3.50
   3   4  -9   59.59    4.20
   2  -4  -9  158.58   10.30
  -2  -4   9  161.78    9.30
  -2  -4   9  181.38   10.10
  -2   4   9  161.78    9.30
   2   4  -9  160.68   11.20
  -2   4   9  160.78    9.30
   2   4  -9  162.08   10.90
  -2   4   9  153.98    9.60
  -1  -4   9   98.39    6.60
   1  -4  -9   82.29    5.90
   1   4  -9   81.79    6.40
  -1   4   9   79.49    5.30
  -1   4   9   89.99    5.10
   1   4  -9   84.19    6.60
   0  -4  -9   27.30    2.40
   0  -4   9   27.40    2.20
   0   4   9   26.60    1.80
   0   4   9   27.60    1.70
   0   4   9   22.80    1.90
   0   4  -9   29.40    3.40
  -1  -4  -9    6.10    1.10
  -1  -4  -9    4.70    1.00
   1  -4   9    6.60    0.90
   1   4   9    5.10    0.70
  -1   4  -9    6.10    1.40
   1   4   9    5.60    0.60
   1   4   9    6.30    0.60
   2  -4   9    1.30    0.40
  -2  -4  -9    1.60    0.60
  -2  -4  -9    1.10    0.70
   2   4   9    1.10    0.40
   2   4   9    1.00    0.30
   2   4   9    1.90    0.30
  -2   4  -9    1.40    1.00
   3  -4   9   13.90    1.10
  -3  -4  -9   14.20    1.20
  -3   4  -9    9.50    1.70
   3   4   9   14.00    1.00
   3   4   9   14.00    1.00
   3   4   9   12.00    1.00
   4  -4   9    0.40    0.20
  -4  -4  -9    0.70    0.30
   4   4   9    0.30    0.10
   4   4   9    0.00    0.30
   4   4   9    0.30    0.20
  -7  -5   9    5.50    0.40
   7   5  -9    3.60    1.00
   7   5  -9    2.90    1.20
  -7   5   9    5.90    0.50
   7   5  -9    4.00    0.70
  -7   5   9    4.80    0.50
   6  -5  -9    1.80    0.60
  -6  -5   9    1.70    0.20
   6   5  -9    1.10    1.10
  -6   5   9    1.40    0.40
   6   5  -9    1.00    0.50
   6   5  -9    1.70    1.60
  -6   5   9    1.60    0.30
   5  -5  -9    0.30    0.50
  -5  -5   9    0.70    0.40
  -5  -5   9    0.10    0.10
  -5   5   9    0.20    0.10
   5   5  -9    1.40    1.20
   5   5  -9    1.10    0.50
  -5   5   9    0.00    0.20
   5   5  -9    0.60    0.90
  -4  -5   9    4.10    0.40
  -4  -5   9    5.30    0.90
   4  -5  -9    6.70    1.30
   4   5  -9    4.30    1.40
   4   5  -9    3.90    0.90
   4   5  -9    4.00    1.60
  -4   5   9    4.40    0.60
  -4   5   9    3.90    0.40
   3  -5  -9    2.60    0.90
  -3  -5   9    3.20    0.70
  -3  -5   9    2.40    0.30
  -3   5   9    2.30    0.40
  -3   5   9    2.50    0.30
   3   5  -9    1.50    1.00
  -3   5   9    2.90    0.50
   3   5  -9    1.90    1.40
  -2  -5   9   60.79    3.80
   2  -5  -9   68.39    4.60
  -2  -5   9   70.69    4.30
  -2   5   9   65.79    3.90
  -2   5   9   65.09    3.90
  -2   5   9   63.09    4.10
   2   5  -9   61.99    5.00
   2   5  -9   70.49    5.30
  -1  -5   9   41.70    2.80
   1  -5  -9   39.10    3.00
  -1   5   9   40.60    2.40
   1   5  -9   39.40    3.80
  -1   5   9   39.90    2.40
  -1   5   9   36.20    2.60
   0  -5  -9   12.80    1.30
   0  -5   9   14.50    1.30
   0   5   9   12.50    0.90
   0   5   9   11.20    1.40
   0   5   9   13.00    0.90
   0   5  -9   14.40    2.00
   1  -5   9   18.10    1.30
  -1  -5  -9   15.70    1.40
   1   5   9   17.70    1.20
   1   5   9   14.20    1.20
   1   5   9   16.90    1.10
   2  -5   9    8.30    0.80
   2   5   9    7.10    0.60
   2   5   9    7.70    0.60
   2   5   9    6.00    0.60
 -11   0  10   67.49    3.80
  11   0 -10   61.69    5.80
  10   0 -10    3.00    1.60
  10   0 -10    5.70    1.60
 -10   0  10    3.80    0.40
  10   0 -10    2.30    0.80
   9   0 -10   44.90    3.30
   9   0 -10   42.50    5.50
   9   0 -10   46.70    3.60
  -9   0  10   46.10    2.80
   8   0 -10    5.60    1.10
   8   0 -10    4.50    3.40
   8   0 -10    7.60    1.60
  -8   0  10    7.40    0.60
  -7   0  10    0.40    0.20
   7   0 -10    0.70    0.60
   7   0 -10    0.80    1.50
   7   0 -10    1.40    0.80
  -7   0  10   -0.10    0.10
   6   0 -10  106.29    6.80
   6   0 -10  100.49   10.80
  -6   0  10  103.29    9.00
  -6   0  10   97.99    5.90
  -6   0  10   96.29    5.80
   6   0 -10  109.49    7.40
   6   0 -10   96.19    7.90
   5   0 -10   31.90    2.70
   5   0 -10   35.80    7.70
   5   0 -10   31.90    3.20
  -5   0  10   29.20    1.90
  -5   0  10   30.20    4.70
  -5   0  10   31.00    2.20
   5   0 -10   31.10    3.00
  -4   0  10  114.29    6.70
   4   0 -10  127.39    8.00
  -4   0  10  114.59    9.40
   4   0 -10  114.79    8.30
   4   0 -10  117.29   11.40
  -4   0  10  119.49    6.80
   4   0 -10  117.09    7.70
  -3   0  10   12.90    0.90
   3   0 -10   14.90    1.80
  -3   0  10   14.00    1.00
   3   0 -10   16.80    2.00
  -3   0  10   18.20    6.70
   3   0 -10   15.60    4.50
   3   0 -10   13.90    2.10
  -3   0  10   12.90    1.30
   2   0 -10   39.60    6.20
   2   0 -10   47.00    4.20
   2   0 -10   44.90    3.60
   2   0 -10   46.60    3.50
  -2   0  10   43.90    2.70
  -2   0  10   42.80    3.00
  -2   0  10   43.90    2.60
   1   0 -10  110.29    7.30
   1   0 -10  114.39    8.00
   1   0 -10  107.39    7.20
   1   0 -10  110.99   10.00
  -1   0  10  107.59    6.70
   0   0 -10  297.77   22.10
   0   0 -10  335.27   19.40
   0   0 -10  335.17   20.20
   0   0 -10  338.47   19.20
   0   0  10  319.17   18.80
  -1   0 -10  401.86   23.20
   1   0  10  377.56   21.70
  -1   0 -10  319.17   28.00
  -1   0 -10  396.26   22.10
   2   0  10  123.29    7.60
   2   0  10  131.59    8.00
  -2   0 -10  135.29    9.20
  -2   0 -10  137.09    8.20
  -3   0 -10  109.99    6.60
   3   0  10   91.39    5.60
  -3   0 -10   96.39    7.00
   3   0  10   85.79    6.50
   4   0  10    2.40    0.70
  -4   0 -10    2.90    0.90
   4   0  10    3.20    0.70
  -4   0 -10    2.60    0.50
  -5   0 -10    0.60    0.40
  -5   0 -10    0.00    0.40
  -5   0 -10    0.50    0.50
   5   0  10    0.30    0.50
  -6   0 -10    1.50    0.50
  -6   0 -10    0.90    0.40
 -11  -1  10   12.10    0.80
  11  -1 -10   12.70    2.50
  11   1 -10   11.50    2.50
 -11   1  10   13.40    0.80
  10  -1 -10   92.89    9.10
 -10  -1  10   88.49    5.00
 -10  -1  10   86.99    5.00
 -10   1  10   89.19    5.10
  10   1 -10   84.29    7.70
  10   1 -10   87.19    5.70
  10   1 -10   81.39    5.60
  -9  -1  10   95.99    5.50
  -9  -1  10   91.49    5.50
   9  -1 -10   97.79    8.90
   9  -1 -10   91.39    6.30
   9   1 -10   97.59    6.50
   9   1 -10   93.59    8.60
  -9   1  10  100.19    5.60
   9   1 -10   92.89    6.20
   8  -1 -10  156.48   10.10
  -8  -1  10  161.98    9.60
   8  -1 -10  166.98   13.50
   8  -1 -10  179.08   10.70
  -8  -1  10  168.68    9.60
   8   1 -10  171.68   10.80
   8   1 -10  168.28   11.10
   8   1 -10  164.48   13.10
  -8   1  10  175.08    9.70
   7  -1 -10   11.80    1.70
   7  -1 -10    9.90    1.40
  -7  -1  10   10.70    0.80
  -7  -1  10   12.40    0.80
   7  -1 -10    8.50    3.00
  -7   1  10   11.80    0.90
   7   1 -10   10.30    3.30
   7   1 -10   13.10    1.60
   7   1 -10   10.50    1.90
   7   1 -10    8.90    1.80
  -7   1  10   10.00    1.20
  -6  -1  10  139.79    8.10
   6  -1 -10  138.69   11.80
  -6  -1  10  135.09    8.10
   6  -1 -10  144.09    8.90
   6  -1 -10  137.09    9.30
  -6   1  10  139.59    8.20
   6   1 -10  100.89   18.10
   6   1 -10  148.89    9.10
  -6   1  10  177.28   13.10
   6   1 -10  132.59    9.70
   6   1 -10  150.38    9.60
   5  -1 -10   46.00    3.90
   5  -1 -10   47.40    3.60
  -5  -1  10   47.70    2.80
   5   1 -10   47.70    4.10
   5   1 -10   49.60    4.50
   5   1 -10   34.10    7.30
  -5   1  10   46.10    2.90
  -5   1  10   50.09    5.50
   5   1 -10   49.30    3.70
   4  -1 -10   72.39    5.20
   4  -1 -10   86.39    5.90
   4  -1 -10   64.09    5.20
  -4  -1  10   61.89    4.10
   4   1 -10   66.79    5.30
   4   1 -10   66.69    8.10
   4   1 -10   70.09    5.80
  -4   1  10   66.69    6.70
  -3  -1  10   24.50    1.90
   3  -1 -10   26.50    2.70
   3  -1 -10   28.80    2.70
  -3  -1  10   27.20    1.70
   3  -1 -10   24.50    2.80
   3   1 -10   27.20    3.20
  -3   1  10   25.40    1.70
   3   1 -10   21.90    4.70
  -3   1  10   26.90    1.70
   3   1 -10   30.30    2.60
  -3   1  10   29.30    4.70
   3   1 -10   28.70    2.80
  -2  -1  10   16.00    1.40
   2  -1 -10   17.10    2.20
   2  -1 -10    3.40    3.90
  -2  -1  10   18.20    1.20
   2  -1 -10   20.10    2.10
   2   1 -10   17.30    2.00
   2   1 -10   19.40    2.10
   2   1 -10   18.90    2.60
  -2   1  10   15.80    1.50
  -2   1  10   21.60    1.20
  -2   1  10   17.40    1.20
   2   1 -10   10.30    3.20
  -2   1  10   17.40    3.90
   1  -1 -10   19.30    2.40
   1  -1 -10   18.00    2.00
  -1  -1  10   27.10    2.30
   1  -1 -10   18.60    1.80
  -1  -1  10   21.50    1.30
   1  -1 -10   19.20    5.00
  -1   1  10   17.80    1.30
   1   1 -10   17.90    3.00
   1   1 -10   18.60    2.60
  -1   1  10   16.40    1.40
  -1   1  10   16.10    4.40
   1   1 -10   17.50    3.70
   1   1 -10   17.50    2.10
   0  -1 -10   94.89    7.10
   0  -1 -10   94.69    6.10
   0  -1 -10   80.29    9.70
   0  -1  10   90.49    5.70
   0  -1 -10   88.79    6.30
   0   1 -10  110.69    8.30
   0   1 -10   89.09    8.70
   0   1  10   90.49    5.90
   0   1 -10   90.99    6.30
   0   1  10   93.09    5.50
   0   1  10   93.79    5.40
   0   1 -10  101.89    6.20
  -1  -1 -10  100.59   10.60
  -1  -1 -10  106.79    7.50
  -1  -1 -10   97.99    6.70
   1  -1  10  108.29    6.40
  -1  -1 -10  113.99    6.70
  -1   1 -10   95.29    9.20
   1   1  10  104.69    6.50
  -1   1 -10  107.59    7.80
   1   1  10  102.19    6.10
  -1   1 -10  103.89    6.70
  -2  -1 -10  202.98   12.00
   2  -1  10  203.68   11.80
  -2  -1 -10  201.88   12.80
  -2   1 -10  197.78   11.90
  -2   1 -10  203.28   13.10
   2   1  10  197.68   11.50
   2   1  10  192.68   11.80
  -3  -1 -10   61.79    5.10
   3  -1  10   75.89    4.60
  -3  -1 -10   69.79    4.60
  -3   1 -10   68.49    4.50
   3   1  10   68.69    4.20
  -3   1 -10   72.49    5.50
  -4  -1 -10   55.89    3.50
  -4  -1 -10   51.89    3.60
  -4  -1 -10   49.60    4.00
   4  -1  10   51.89    3.40
   4   1  10   50.19    3.20
  -4   1 -10   49.70    4.20
  -4   1 -10   52.89    3.40
  -5  -1 -10    6.20    1.10
  -5  -1 -10    7.20    0.90
   5  -1  10    7.70    1.00
  -5   1 -10    4.70    1.10
  -5   1 -10    5.70    0.90
   5   1  10    5.30    0.60
  -6  -1 -10   52.69    3.30
   6   1  10   52.99    3.10
  -6   1 -10   46.80    3.50
  -6   1 -10   49.80    3.20
 -10  -2  10    7.60    0.50
  10  -2 -10    7.30    2.10
 -10   2  10    7.10    0.60
  10   2 -10    6.50    2.10
  10   2 -10    6.30    1.40
  10   2 -10    7.70    1.00
  -9  -2  10  132.39    7.30
   9  -2 -10  102.39    8.50
   9  -2 -10  129.09   10.70
  -9   2  10  135.19    7.30
   9   2 -10  137.49    8.30
   9   2 -10  129.99   10.10
   9   2 -10  128.69    8.00
  -9   2  10  124.49    7.50
   8  -2 -10   32.40    4.60
  -8  -2  10   33.10    2.00
   8  -2 -10   30.80    2.80
  -8   2  10   29.70    2.20
   8   2 -10   33.20    2.70
   8   2 -10   38.80    4.00
   8   2 -10   25.60    3.00
  -8   2  10   32.00    2.00
   8   2 -10   29.80    4.40
   7  -2 -10   43.90    3.50
   7  -2 -10   31.50    6.60
  -7  -2  10   40.30    2.40
   7   2 -10   39.70    3.90
  -7   2  10   37.70    2.60
   7   2 -10   40.30    3.80
  -7   2  10   40.80    2.50
   7   2 -10   40.20    3.20
  -6  -2  10   57.39    3.30
   6  -2 -10   55.89    3.80
   6  -2 -10   58.39    4.50
   6  -2 -10   52.89    6.50
  -6   2  10   52.29    3.60
   6   2 -10   55.79    5.10
  -6   2  10   57.59    3.40
   6   2 -10   56.69    4.20
   6   2 -10   57.49    4.80
   5  -2 -10  103.89    6.60
  -5  -2  10  108.59    6.00
   5  -2 -10   98.09    9.40
   5  -2 -10  114.59    7.30
   5   2 -10   86.09   11.00
  -5   2  10   98.59    8.90
  -5   2  10  107.49    6.10
   5   2 -10  107.79    8.10
   5   2 -10  107.49    7.60
  -5   2  10   94.49    6.20
   5   2 -10  108.79    6.90
   4  -2 -10  113.79   10.50
   4  -2 -10  132.99    7.90
   4  -2 -10  131.19    8.50
  -4  -2  10  120.59    7.40
  -4  -2  10  127.59    7.20
   4   2 -10  121.19   14.20
   4   2 -10  132.69    9.30
   4   2 -10  122.99    8.80
   4   2 -10  131.69    8.10
  -4   2  10  123.89   11.40
  -4   2  10  114.89    7.90
  -4   2  10  128.59    7.20
  -3  -2  10   63.29    3.70
   3  -2 -10   62.79    4.30
  -3  -2  10   60.29    4.00
  -3   2  10   60.69    4.30
   3   2 -10   63.59    4.60
   3   2 -10   55.09    7.30
   3   2 -10   71.29    6.80
  -3   2  10   63.79    7.20
  -3   2  10   65.19    3.80
  -2  -2  10   72.19    4.60
  -2  -2  10   76.19    4.30
   2  -2 -10   71.59    4.90
   2   2 -10   67.29    7.80
  -2   2  10   73.19    4.40
  -2   2  10   73.69    4.40
   2   2 -10   84.79    7.50
   2   2 -10   73.49    5.20
  -2   2  10   75.39    8.30
  -1  -2  10   20.50    1.70
  -1  -2  10   22.30    1.30
   1  -2 -10   21.10    2.20
   1  -2 -10   19.40    1.90
   1   2 -10   19.70    2.10
   1   2 -10   16.80    4.30
  -1   2  10   21.00    1.40
   1   2 -10   14.80    2.40
  -1   2  10   20.30    1.40
   1   2 -10   23.40    2.80
   0  -2 -10  125.19    7.60
   0  -2 -10  114.89    7.80
   0  -2 -10  120.69    8.50
   0  -2  10  126.99    7.30
   0   2 -10  108.29    9.90
   0   2  10  125.09   15.60
   0   2 -10  128.29    8.80
   0   2  10  120.19    7.00
   0   2  10  122.39    7.10
   0   2 -10  125.19    7.70
   0   2 -10  112.69    7.70
  -1  -2 -10   91.99    6.70
   1  -2  10  100.89    6.10
  -1  -2 -10  103.29    6.60
  -1  -2 -10  102.79    6.30
  -1   2 -10   96.39    6.30
   1   2  10   95.49    5.70
  -1   2 -10   99.69    7.30
   1   2  10   99.79    5.80
  -2  -2 -10   89.79    6.90
  -2  -2 -10  121.39    7.10
  -2  -2 -10   98.89    7.70
  -2   2 -10  107.59    7.50
   2   2  10   98.29    5.90
  -2   2 -10  102.59    6.40
   2   2  10  107.49    6.20
   3  -2  10   86.39    5.30
  -3  -2 -10   79.99    6.10
  -3  -2 -10   85.09    5.40
  -3  -2 -10   88.59    5.60
   3   2  10   86.09    5.10
  -3   2 -10   84.59    5.30
  -3   2 -10   88.39    6.30
  -4  -2 -10  102.39    6.30
  -4  -2 -10  102.59    6.50
   4  -2  10  105.89    6.30
   4   2  10  111.29    6.20
  -4   2 -10  107.59    7.20
  -4   2 -10  100.19    6.60
  -5  -2 -10   18.60    1.40
   5  -2  10   22.60    1.60
  -5  -2 -10   23.20    1.80
  -5   2 -10   23.30    2.10
  -5   2 -10   23.00    1.70
   5   2  10   23.40    1.50
  -9  -3  10   49.30    2.80
   9  -3 -10   48.50    5.20
  -9   3  10   44.20    2.90
   9   3 -10   47.70    3.30
   9   3 -10   46.20    3.60
  -9   3  10   47.90    2.80
   8  -3 -10   21.30    2.10
   8  -3 -10   21.20    3.60
  -8  -3  10   20.60    1.30
   8   3 -10   16.70    2.40
   8   3 -10   19.50    1.90
   8   3 -10   18.60    2.40
  -8   3  10   19.30    1.50
  -8   3  10   20.60    1.30
  -7  -3  10    8.10    0.70
   7  -3 -10    9.00    1.40
   7  -3 -10    7.10    2.60
  -7   3  10    8.10    0.80
  -7   3  10    8.10    0.70
   7   3 -10    9.10    2.40
   7   3 -10    9.30    1.30
   7   3 -10    7.30    1.80
  -6  -3  10   35.50    2.10
   6  -3 -10   35.60    3.10
   6  -3 -10   33.50    4.80
  -6   3  10   34.50    2.40
   6   3 -10   32.60    2.80
   6   3 -10   35.90    3.70
   6   3 -10   34.30    3.70
  -6   3  10   33.80    2.20
   5  -3 -10   11.90    3.90
  -5  -3  10   13.70    0.90
  -5  -3  10   12.30    1.20
   5  -3 -10   15.60    1.90
   5   3 -10   10.30    1.90
  -5   3  10   13.30    1.00
   5   3 -10   15.10    2.50
  -5   3  10   12.00    1.10
   5   3 -10   13.60    2.70
  -4  -3  10   33.80    2.50
  -4  -3  10   37.00    2.20
   4  -3 -10   36.30    3.20
   4   3 -10   33.90    2.80
  -4   3  10   37.00    2.20
   4   3 -10   31.80    3.60
   4   3 -10   34.80    3.90
  -4   3  10   31.10    2.40
  -3  -3  10  246.08   13.80
   3  -3 -10  249.38   14.30
  -3  -3  10  241.68   14.20
   3  -3 -10  251.87   15.10
   3   3 -10  250.17   16.00
   3   3 -10  250.17   14.70
   3   3 -10  244.38   15.40
  -3   3  10  222.88   14.10
  -3   3  10  246.38   13.90
  -2  -3  10  127.89    7.50
   2  -3 -10  123.19    8.20
   2  -3 -10  125.59    7.60
  -2  -3  10  128.99    7.10
   2   3 -10  117.19    8.40
   2   3 -10  120.39    7.90
  -2   3  10  128.49    7.20
  -2   3  10  124.59    7.20
  -2   3  10  115.99    7.30
   2   3 -10  127.79    9.00
   1  -3 -10    8.30    1.10
  -1  -3  10    9.20    0.70
  -1  -3  10    8.10    1.10
   1  -3 -10    9.00    1.40
   1   3 -10    8.40    1.80
  -1   3  10    9.20    0.70
   1   3 -10    6.50    1.70
  -1   3  10    7.60    0.70
   0  -3 -10   30.90    2.70
   0  -3 -10   35.90    2.60
   0  -3 -10   36.20    2.80
   0  -3  10   30.80    2.40
   0   3  10   29.90    2.20
   0   3  10   29.40    2.10
   0   3 -10   30.60    3.30
   0   3  10   34.10    2.20
   1  -3  10    6.00    0.80
  -1  -3 -10    5.00    0.90
  -1  -3 -10    4.80    0.80
  -1  -3 -10    6.40    1.30
   1   3  10    5.50    0.60
   1   3  10    5.00    0.50
  -1   3 -10    4.10    1.30
  -2  -3 -10    8.10    1.10
   2  -3  10    8.00    0.90
  -2  -3 -10    8.30    0.90
   2   3  10    7.90    0.70
   2   3  10    8.20    0.60
  -2   3 -10    6.40    1.50
  -3  -3 -10   17.50    1.50
   3  -3  10   18.60    1.40
   3   3  10   17.80    1.30
  -3   3 -10   17.90    2.00
   3   3  10   15.60    1.10
  -4  -3 -10   99.39    6.20
   4  -3  10  105.79    6.10
   4   3  10  104.99    6.00
  -4   3 -10   97.69    6.60
  -8  -4  10   22.30    1.30
  -8   4  10   22.80    1.40
  -8   4  10   21.30    1.50
   8   4 -10   23.40    1.80
   8   4 -10   21.30    2.20
   8   4 -10   18.00    2.20
  -7  -4  10    0.40    0.20
   7  -4 -10    0.40    0.70
   7   4 -10    0.40    1.00
   7   4 -10   -0.30    0.70
   7   4 -10    0.70    0.50
  -7   4  10    0.20    0.20
  -7   4  10    0.30    0.20
  -6  -4  10   21.00    1.40
   6  -4 -10   20.40    2.10
  -6   4  10   21.90    1.60
  -6   4  10   22.10    1.40
   6   4 -10   21.60    2.70
   6   4 -10   22.80    2.00
   6   4 -10   22.40    2.70
  -5  -4  10  205.78   11.00
   5  -4 -10  199.38   11.90
  -5  -4  10  195.98   11.10
   5   4 -10  192.08   12.50
  -5   4  10  180.28   11.20
   5   4 -10  189.58   12.80
  -5   4  10  191.18   11.00
   5   4 -10  189.08   11.60
  -4  -4  10  145.19    8.30
  -4  -4  10  144.39    8.00
   4  -4 -10  149.19    9.10
   4   4 -10  139.19    9.50
  -4   4  10  137.69    8.10
  -4   4  10  136.69    8.30
   4   4 -10  137.99    8.70
   4   4 -10  137.29    9.90
  -3  -4  10    6.50    0.60
   3  -4 -10    5.60    1.40
  -3  -4  10    5.90    1.00
   3   4 -10    5.90    1.00
  -3   4  10    7.70    0.60
   3   4 -10    7.30    1.70
  -3   4  10    5.60    0.70
   3   4 -10    7.90    1.80
  -3   4  10    7.30    0.60
  -2  -4  10   20.00    1.20
  -2  -4  10   20.60    1.60
   2  -4 -10   22.40    2.20
  -2   4  10   16.20    1.40
  -2   4  10   19.20    1.30
   2   4 -10   18.40    2.40
   2   4 -10   16.80    2.40
  -1  -4  10   20.50    1.60
   1  -4 -10   17.50    1.90
   1   4 -10   16.90    2.70
  -1   4  10   19.40    1.30
   1   4 -10   17.70    2.30
  -1   4  10   20.20    1.30
   0  -4  10    3.70    0.80
   0  -4 -10    4.20    1.00
   0   4  10    2.40    0.60
   0   4 -10    4.00    1.20
   0   4  10    4.10    0.50
   0   4  10    4.20    0.40
  -1  -4 -10    5.20    1.10
   1  -4  10    4.90    0.70
   1   4  10    4.50    0.50
   1   4  10    4.00    0.40
   1   4  10    2.90    0.50
  -1   4 -10    2.70    1.00
  -2  -4 -10   10.20    1.40
   2  -4  10   12.10    1.00
   2   4  10   12.30    0.90
  -2   4 -10   11.10    1.50
   2   4  10   10.60    0.80
   2   4  10    8.90    0.80
   3  -4  10   13.30    1.00
  -3  -4 -10   11.80    1.00
   3   4  10   12.00    0.80
   3   4  10   13.60    0.90
  -5  -5  10   11.00    0.70
   5  -5 -10    9.30    1.20
   5   5 -10   10.80    1.10
  -5   5  10   10.60    0.90
   5   5 -10   14.70    1.90
  -5   5  10   12.20    0.80
   5   5 -10    9.70    1.70
  -5   5  10   12.20    0.80
   4  -5 -10   10.00    1.10
  -4  -5  10    9.50    0.90
  -4  -5  10    8.90    0.60
   4   5 -10    8.20    1.50
   4   5 -10    9.50    1.70
  -4   5  10    8.10    0.80
  -4   5  10    9.60    0.70
  -4   5  10    9.20    0.70
   3  -5 -10   27.90    3.30
  -3  -5  10   38.90    2.40
  -3  -5  10   35.40    2.10
  -3   5  10   37.30    2.10
  -3   5  10   32.20    2.30
   3   5 -10   34.70    3.00
   3   5 -10   35.70    3.20
  -3   5  10   38.60    2.20
  -2  -5  10    8.90    0.90
   2  -5 -10    4.40    1.20
  -2   5  10    8.80    0.70
   2   5 -10    6.80    1.50
  -2   5  10    8.50    0.60
   1  -5 -10   21.60    1.70
  -1  -5  10   24.10    1.60
  -1   5  10   22.80    1.40
   1   5 -10   19.00    2.20
  -1   5  10   18.00    1.40
  -1   5  10   22.40    1.40
   0  -5 -10    7.00    0.80
   0  -5  10    7.30    0.70
   0   5  10    6.50    0.60
   0   5  10    6.40    0.50
   0   5  10    5.20    0.60
 -10   0  11  242.18   13.10
  10   0 -11  232.58   15.50
  10   0 -11  223.08   13.80
   9   0 -11   41.50    3.30
  -9   0  11   46.00    2.70
   9   0 -11   47.40    5.20
   9   0 -11   49.10    3.60
   8   0 -11   13.20    3.30
  -8   0  11   17.30    1.10
   8   0 -11   19.60    3.10
   8   0 -11   13.70    1.60
  -7   0  11   80.89    4.40
   7   0 -11   63.39    5.70
   7   0 -11   73.99    5.40
   6   0 -11   10.50    1.70
   6   0 -11   11.60    1.60
  -6   0  11    9.50    0.70
  -6   0  11   10.20    0.80
  -5   0  11  227.48   12.70
   5   0 -11  211.18   14.10
   5   0 -11  227.48   14.00
   5   0 -11  242.88   13.80
  -5   0  11  216.28   12.70
   4   0 -11   12.30    2.00
   4   0 -11   13.70    1.80
  -4   0  11   10.80    0.80
  -4   0  11   12.40    0.90
   4   0 -11   16.20    1.70
   4   0 -11    2.60    6.30
   3   0 -11    8.50    1.40
   3   0 -11    6.20    1.10
   3   0 -11    2.70    4.50
   3   0 -11    9.20    1.70
  -3   0  11    6.80    0.60
  -3   0  11    6.70    0.90
   2   0 -11  169.28    9.80
   2   0 -11  155.38   10.50
   2   0 -11  140.99   13.70
  -2   0  11  151.58    9.20
   2   0 -11  157.88   10.00
   1   0 -11  124.59   12.40
  -1   0  11  120.09    7.50
   1   0 -11  128.89    7.90
   1   0 -11  126.19    8.80
   1   0 -11  121.99    8.10
   0   0 -11   59.29    4.90
   0   0 -11   60.49    4.20
   0   0 -11   57.49    4.30
   0   0  11   59.49    3.90
   1   0  11   74.89    4.80
  -1   0 -11   72.49    5.70
  -1   0 -11   74.59    5.00
  -2   0 -11    5.90    0.90
  -2   0 -11    6.60    1.40
   2   0  11    6.40    0.90
   3   0  11   15.60    1.40
  -3   0 -11   15.60    1.40
  -3   0 -11   16.20    2.00
  -4   0 -11   90.39    8.00
  -4   0 -11  145.19    7.40
  -4   0 -11  134.39    8.10
  -5   0 -11    1.20    0.50
  -5   0 -11    1.60    0.40
  10  -1 -11   17.20    2.90
 -10   1  11   17.80    1.10
  10   1 -11   13.70    2.50
  10   1 -11   14.90    2.60
  10   1 -11   17.40    1.50
   9  -1 -11    6.20    1.20
  -9  -1  11    6.00    0.50
   9  -1 -11    5.00    2.00
  -9  -1  11    5.60    0.50
  -9   1  11    7.00    0.50
   9   1 -11    4.20    1.90
   9   1 -11    7.30    1.00
   9   1 -11    7.10    1.40
  -8  -1  11   82.19    4.80
   8  -1 -11   82.59    5.60
   8  -1 -11   80.99    7.70
  -8  -1  11   83.79    4.80
   8  -1 -11   78.59    5.20
   8   1 -11   86.59    5.90
  -8   1  11   84.49    4.80
   8   1 -11   81.99    5.50
  -7  -1  11   28.40    1.70
  -7  -1  11   27.70    1.70
   7  -1 -11   23.80    4.10
   7  -1 -11   31.00    2.80
   7  -1 -11   27.90    2.20
   7   1 -11   28.80    2.60
   7   1 -11   27.00    2.70
  -7   1  11   28.30    1.70
   7   1 -11   18.90    3.10
   6  -1 -11   35.50    3.10
  -6  -1  11   33.50    2.10
   6  -1 -11   33.40    2.70
   6   1 -11   35.10    2.90
  -6   1  11   35.00    2.10
   6   1 -11   30.20    3.30
   6   1 -11   33.60    3.20
   5  -1 -11   21.80    2.30
  -5  -1  11   21.10    1.30
   5  -1 -11   21.80    2.10
   5   1 -11   19.40    2.70
  -5   1  11   20.90    1.40
   5   1 -11   22.10    2.20
   5   1 -11   19.20    2.40
   4  -1 -11   40.50    3.20
   4  -1 -11   41.50    3.50
  -4  -1  11   40.90    2.50
   4   1 -11   42.10    4.10
   4   1 -11   44.30    9.20
   4   1 -11   42.20    3.40
  -4   1  11   40.40    2.50
   4   1 -11   43.10    3.70
   3  -1 -11  102.99    7.60
   3  -1 -11  118.49    7.60
  -3  -1  11  114.69    6.40
  -3  -1  11  106.39    6.70
   3  -1 -11  115.99    7.20
   3   1 -11  118.49    8.40
   3   1 -11  118.59    7.40
   3   1 -11   97.59   10.90
   3   1 -11  113.29    7.60
  -3   1  11  111.19    6.50
   2  -1 -11   23.30    2.70
   2  -1 -11   26.80    2.50
  -2  -1  11   26.00    1.90
  -2  -1  11   26.10    1.60
   2  -1 -11   25.80    2.30
  -2   1  11   25.00    1.70
   2   1 -11   27.70    2.60
   2   1 -11   16.70    4.50
   2   1 -11   28.30    2.50
  -2   1  11   25.20    2.00
   2   1 -11   26.90    3.10
  -2   1  11   25.90    1.60
  -1  -1  11  143.49    8.40
   1  -1 -11  142.19    9.00
   1  -1 -11  146.39    8.80
   1  -1 -11  137.89    9.40
   1   1 -11  141.09    9.90
   1   1 -11  150.38    8.90
  -1   1  11  144.99    8.10
  -1   1  11  140.09    8.10
   1   1 -11  135.59    9.00
  -1   1  11  134.09    8.50
   0  -1 -11   65.29    5.20
   0  -1 -11   69.49    4.80
   0  -1 -11   70.09    4.60
   0  -1  11   70.79    4.40
   0   1 -11   67.19    4.60
   0   1  11   63.39    4.40
   0   1  11   68.79    4.30
   0   1 -11   71.09    5.60
   0   1 -11   65.89    4.90
  -1  -1 -11  110.39    8.10
  -1   1 -11  115.19    7.50
   1   1  11  148.39    8.20
  -1   1 -11  119.89    8.50
   1   1  11  116.99    7.10
  -2  -1 -11  246.28   14.20
   2  -1  11  247.58   14.20
  -2  -1 -11  232.68   14.80
   2   1  11  227.08   14.20
   2   1  11  240.48   13.90
  -2   1 -11  248.08   14.30
  -2   1 -11  261.97   15.70
  -3  -1 -11   60.89    3.90
  -3  -1 -11   59.29    4.00
  -3  -1 -11   54.69    4.20
   3  -1  11   60.19    3.80
  -3   1 -11   60.09    4.60
  -3   1 -11   59.29    3.90
   3   1  11   58.29    3.60
  -4  -1 -11   55.19    4.30
   4  -1  11   71.39    4.10
  -4  -1 -11   67.79    4.10
  -4  -1 -11   70.19    4.30
  -4   1 -11   64.09    4.00
   4   1  11   64.29    4.10
  -4   1 -11   60.39    4.60
  10  -2 -11   74.79    6.60
 -10  -2  11   71.09    4.20
 -10   2  11   78.29    4.30
  10   2 -11   73.29    4.60
   9  -2 -11   40.80    2.90
  -9  -2  11   39.60    2.20
   9  -2 -11   38.60    4.30
  -9   2  11   34.60    2.40
   9   2 -11   40.40    3.10
   9   2 -11   31.60    3.50
   8  -2 -11    9.60    3.10
   8  -2 -11    9.10    1.40
  -8  -2  11   10.40    0.70
   8   2 -11    9.40    1.80
  -8   2  11   10.70    0.80
   8   2 -11    9.70    1.30
  -7  -2  11   45.30    2.70
   7  -2 -11   49.90    3.80
   7  -2 -11   42.40    5.30
   7   2 -11   44.30    3.50
  -7   2  11   48.20    2.80
   7   2 -11   43.30    3.90
   6  -2 -11   71.89    5.10
   6  -2 -11   64.79    4.30
  -6  -2  11   69.09    4.00
   6  -2 -11   62.79    6.70
   6   2 -11   65.19    5.50
  -6   2  11   68.89    4.00
   6   2 -11   69.49    5.30
   6   2 -11   70.89    4.80
   5  -2 -11   47.00    3.50
  -5  -2  11   41.60    2.60
   5  -2 -11   43.40    3.60
   5   2 -11   43.70    3.90
   5   2 -11   43.60    3.50
   5   2 -11   41.20    4.20
  -5   2  11   42.50    2.60
   4  -2 -11   86.19    5.50
   4  -2 -11   85.69    6.10
  -4  -2  11   85.99    5.00
  -4   2  11   86.79    5.00
  -4   2  11   80.59    5.00
   4   2 -11   85.89    6.30
   4   2 -11   87.79    6.80
   4   2 -11   86.49    5.80
   3  -2 -11  108.19    6.80
  -3  -2  11  108.69    6.50
   3  -2 -11  104.69    7.20
  -3  -2  11  109.59    6.20
   3   2 -11  114.99    8.20
   3   2 -11  106.19    7.50
   3   2 -11  105.19    7.00
  -3   2  11  101.69    6.20
  -3   2  11  112.19    6.30
  -2  -2  11  305.77   17.40
  -2  -2  11  313.97   17.70
   2  -2 -11  312.67   18.50
   2  -2 -11  303.87   18.00
   2   2 -11  297.17   18.50
  -2   2  11  307.87   17.50
  -2   2  11  307.87   17.50
   2   2 -11  322.67   19.50
   2   2 -11  310.77   18.30
   1  -2 -11   56.39    4.30
  -1  -2  11   61.89    3.80
   1  -2 -11   57.69    4.00
   1   2 -11   58.09    4.30
   1   2 -11   62.49    5.10
  -1   2  11   51.49    3.50
   0  -2 -11    7.70    1.10
   0  -2 -11    7.70    1.40
   0  -2  11    8.50    0.90
   0  -2 -11    8.60    1.20
   0   2 -11    6.80    1.20
   0   2  11    8.30    0.70
   0   2  11    8.00    0.70
   0   2 -11    9.00    1.80
  -1  -2 -11    4.80    0.80
  -1  -2 -11    4.20    0.80
  -1  -2 -11    6.60    1.20
   1  -2  11    4.50    0.70
   1   2  11    4.00    0.50
  -1   2 -11    7.30    1.00
   1   2  11    4.90    0.60
  -1   2 -11    3.80    1.10
  -2  -2 -11    6.30    0.80
  -2  -2 -11    5.50    0.90
   2  -2  11    6.80    0.80
   2   2  11    6.00    0.60
  -2   2 -11    8.00    0.90
  -2   2 -11    4.60    1.20
   3  -2  11   26.80    1.90
  -3  -2 -11   23.30    1.80
  -3   2 -11   24.90    2.50
  -3   2 -11   23.70    2.00
   3   2  11   23.60    1.60
  -4  -2 -11   31.90    2.30
   4  -2  11   33.00    2.20
   4   2  11   39.70    2.30
  -4   2 -11   30.60    2.70
  -9  -3  11    7.30    0.50
   9  -3 -11    6.70    2.00
  -9   3  11    7.60    0.60
   9   3 -11    7.70    1.00
   9   3 -11    7.60    1.30
   8  -3 -11   67.59    4.00
  -8  -3  11   55.19    3.30
   8  -3 -11   51.19    5.30
  -8   3  11   56.59    3.30
   8   3 -11   72.49    5.10
   8   3 -11   46.00    4.20
   8   3 -11   55.59    3.90
   7  -3 -11   62.89    4.30
  -7  -3  11   64.19    3.60
   7  -3 -11   61.59    6.00
   7   3 -11   64.09    4.70
   7   3 -11   59.89    4.80
  -7   3  11   52.79    3.70
   7   3 -11   62.29    4.20
  -7   3  11   63.39    3.60
   6  -3 -11  145.79    8.80
  -6  -3  11  144.49    7.80
   6   3 -11  136.09    8.50
  -6   3  11  140.49    7.90
  -6   3  11  122.69    8.00
   6   3 -11  138.69    9.10
   6   3 -11  133.19    9.40
   5  -3 -11  149.09    8.40
  -5  -3  11  106.89    6.30
  -5   3  11   94.59    6.50
   5   3 -11  113.79    8.10
   5   3 -11  100.19    7.00
  -5   3  11  110.19    6.40
   5   3 -11  114.89    8.80
   4  -3 -11   16.50    2.00
  -4  -3  11   17.00    1.10
  -4  -3  11   17.30    1.40
   4   3 -11   16.80    2.80
  -4   3  11   16.60    1.20
   4   3 -11   16.00    2.40
   4   3 -11   15.20    1.80
  -4   3  11   17.30    1.20
  -3  -3  11  188.38   10.20
  -3  -3  11  185.18   10.40
   3  -3 -11  189.78   10.50
   3  -3 -11  185.88   11.20
  -3   3  11  185.98   10.20
  -3   3  11  179.78   10.20
   3   3 -11  114.49   11.90
   3   3 -11  186.38   10.90
   3   3 -11  184.38   12.00
   2  -3 -11   48.20    3.10
  -2  -3  11   43.30    2.70
   2  -3 -11   48.50    3.70
  -2  -3  11   48.00    3.10
  -2   3  11   45.90    2.80
   2   3 -11   48.90    3.40
   2   3 -11   47.50    4.30
   2   3 -11   42.90    3.70
  -2   3  11   45.70    2.80
   1  -3 -11   47.80    3.70
  -1  -3  11   52.29    3.30
   1  -3 -11   51.89    3.30
  -1   3  11   49.40    3.00
   1   3 -11   52.89    4.10
   1   3 -11   49.00    3.50
  -1   3  11   50.69    3.10
   1   3 -11   50.89    4.50
   0  -3  11   56.19    3.40
   0  -3 -11   48.50    3.70
   0  -3 -11   48.70    3.50
   0  -3 -11   52.99    3.40
   0   3 -11   52.09    4.40
   0   3  11   53.69    3.10
   0   3  11   54.09    3.20
   0   3 -11   53.49    3.50
  -1  -3 -11   36.30    2.80
  -1  -3 -11   39.40    2.60
   1  -3  11   42.70    2.70
  -1  -3 -11   40.10    2.70
  -1   3 -11   38.70    3.40
   1   3  11   38.00    2.40
   1   3  11   39.70    2.50
  -2  -3 -11   18.10    1.40
  -2   3 -11   17.80    2.60
   2   3  11   17.70    1.20
  -3  -3 -11   24.10    1.70
   3  -3  11   23.10    1.60
   3   3  11   23.90    1.50
  -3   3 -11   21.80    2.10
  -7  -4  11   15.70    1.00
   7  -4 -11   17.70    1.60
  -7   4  11   14.70    1.00
   7   4 -11   12.60    1.70
   7   4 -11   16.80    1.80
   7   4 -11   14.20    1.40
  -6  -4  11   11.90    0.80
   6  -4 -11   10.70    1.30
   6   4 -11   10.80    2.00
  -6   4  11   11.40    0.80
   6   4 -11   12.20    1.20
  -6   4  11    9.90    1.00
   6   4 -11   10.10    2.30
  -6   4  11   11.60    0.80
   5  -4 -11   23.20    2.10
  -5  -4  11   21.20    1.50
   5   4 -11   23.10    2.60
  -5   4  11   23.40    1.50
  -5   4  11   20.70    1.70
  -5   4  11   27.10    1.60
   5   4 -11   24.40    2.60
   5   4 -11   22.80    1.90
  -4  -4  11   76.79    4.30
   4  -4 -11   77.79    5.10
  -4  -4  11   78.29    4.50
   4   4 -11   71.29    5.70
  -4   4  11   76.09    4.40
  -4   4  11   72.49    4.40
   4   4 -11   74.49    4.90
   4   4 -11   74.89    5.30
  -3  -4  11   15.60    1.00
   3  -4 -11   16.50    1.70
  -3  -4  11   15.90    1.20
   3   4 -11   14.10    2.40
  -3   4  11   14.20    1.00
  -3   4  11   14.90    1.00
   3   4 -11   12.20    1.50
   3   4 -11   15.90    2.20
   2  -4 -11   24.60    2.20
  -2   4  11   28.70    1.60
   2   4 -11   25.80    2.70
  -2   4  11   24.90    1.60
   2   4 -11   20.30    2.30
  -1  -4  11    1.30    0.50
   1  -4 -11    1.00    0.60
   1   4 -11    0.70    0.70
   0  -4 -11    0.90    0.60
   0  -4  11    0.10    0.30
   0   4  11    0.40    0.10
   0   4  11    0.10    0.20
   0   4 -11    0.10    0.60
   1  -4  11   22.00    1.50
   1   4  11   23.20    1.40
   1   4  11   20.10    1.30
  -1   4 -11   18.80    2.00
   9   0 -12    4.10    1.00
  -9   0  12    4.60    0.40
   9   0 -12    3.50    0.60
   8   0 -12   86.09    5.60
  -8   0  12   89.69    5.10
   8   0 -12   89.79    6.00
   7   0 -12    0.10    0.40
  -7   0  12    0.20    0.10
   7   0 -12    0.20    0.60
   6   0 -12    1.10    0.80
  -6   0  12    1.10    0.20
   6   0 -12    0.20    0.50
   5   0 -12   13.40    2.20
   5   0 -12   18.60    2.00
   5   0 -12   18.20    2.10
  -5   0  12   16.80    1.10
   4   0 -12    2.50    0.90
   4   0 -12    0.20    0.60
   4   0 -12    0.80    0.80
   3   0 -12    2.10    1.00
   3   0 -12    1.30    0.90
   3   0 -12    1.50    0.60
  -3   0  12    1.80    0.50
   2   0 -12    0.30    0.60
  -2   0  12    0.60    0.40
   2   0 -12    1.50    0.90
   2   0 -12    0.60    0.60
  -1   0  12  399.26   23.10
   1   0 -12  415.96   23.40
   1   0 -12  396.06   24.20
   0   0 -12   18.30    1.60
   0   0 -12   11.40    2.60
   0   0  12   17.40    1.50
  -1   0 -12  119.29    7.10
  -1   0 -12  111.89    7.80
   1   0  12  116.49    7.00
  -2   0 -12    3.00    0.60
   2   0  12    3.10    0.60
  -2   0 -12    3.50    0.90
  -3   0 -12   33.30    2.20
  -3   0 -12   32.60    2.30
  -3   0 -12   30.80    2.60
   9  -1 -12   19.50    1.80
   9   1 -12   17.30    1.50
   9   1 -12   16.90    1.80
  -9   1  12   19.00    1.20
   8  -1 -12   26.30    2.00
   8  -1 -12   27.80    2.50
  -8  -1  12   27.80    1.70
   8   1 -12   30.90    2.40
   8   1 -12   30.50    2.60
  -8   1  12   30.10    1.80
   7  -1 -12    7.10    1.30
  -7  -1  12    6.80    0.50
   7  -1 -12    7.10    1.00
   7   1 -12    8.20    1.60
  -7   1  12    7.10    0.60
   7   1 -12    7.50    1.20
   6  -1 -12   33.20    3.40
   6  -1 -12   33.50    2.60
  -6  -1  12   33.50    2.00
  -6   1  12   33.70    2.10
   6   1 -12   28.30    3.00
   6   1 -12   36.50    2.80
   6   1 -12   39.10    3.70
   5  -1 -12   12.90    1.70
   5  -1 -12    9.80    1.30
  -5  -1  12   11.70    0.80
  -5   1  12   12.10    0.80
   5   1 -12   10.10    1.90
   5   1 -12   13.20    1.60
   5   1 -12   11.00    1.70
   4  -1 -12   74.79    5.60
   4  -1 -12   82.09    5.30
  -4  -1  12   78.89    4.60
   4   1 -12   80.89    5.70
   4   1 -12   78.29    6.10
   4   1 -12   82.09    5.50
  -4   1  12   77.89    4.60
  -3  -1  12  111.49    7.00
   3  -1 -12  128.79    7.80
   3  -1 -12  123.09    7.90
   3   1 -12  114.79    8.40
  -3   1  12  115.39    6.80
   3   1 -12  122.99    7.80
   3   1 -12  118.79    7.80
  -2  -1  12  147.39    8.90
   2  -1 -12  158.28    9.30
   2  -1 -12  130.49    9.60
   2  -1 -12  149.59    9.50
   2   1 -12  154.68   10.30
   2   1 -12  149.99    9.50
   2   1 -12  156.48    9.30
  -2   1  12  155.98    8.60
   1  -1 -12  132.49    9.20
  -1  -1  12  148.29    8.60
   1  -1 -12  146.39    8.90
   1  -1 -12  156.28    9.50
   1   1 -12  145.69    9.10
   1   1 -12  150.38    9.90
   1   1 -12  139.49    8.90
   0  -1 -12   52.29    3.70
   0  -1 -12   42.70    3.70
   0  -1 -12   49.70    3.40
   0  -1  12   51.09    3.30
   0   1 -12   52.39    4.50
   0   1 -12   49.50    3.40
  -1  -1 -12    7.40    1.00
  -1  -1 -12    5.30    1.30
   1  -1  12    8.70    0.90
  -1   1 -12    7.60    1.00
  -1   1 -12    9.80    1.60
  -2  -1 -12   17.80    1.90
  -2  -1 -12   16.60    1.40
   2  -1  12   18.20    1.40
  -2  -1 -12   12.40    1.70
  -2   1 -12   14.30    1.90
  -2   1 -12   14.70    1.30
  -3  -1 -12   27.90    1.90
  -3  -1 -12   27.60    2.00
   3  -1  12   28.50    1.90
  -3   1 -12   25.80    2.40
  -3   1 -12   26.80    1.90
  -9  -2  12    6.20    0.50
   9   2 -12    7.60    0.90
  -9   2  12    7.60    0.50
   9   2 -12    7.80    1.20
   8  -2 -12    3.90    0.90
  -8  -2  12    4.40    0.40
   8   2 -12    3.70    1.20
   8   2 -12    4.20    0.80
  -8   2  12    4.10    0.40
   7  -2 -12   89.59    5.80
  -7  -2  12   87.39    5.00
  -7   2  12   91.79    5.00
   7   2 -12   86.09    5.90
   7   2 -12   89.49    5.70
   7   2 -12   71.29    6.00
   6  -2 -12   65.69    4.40
  -6  -2  12   70.39    4.10
   6  -2 -12   74.29    5.10
  -6   2  12   72.89    4.20
   6   2 -12   70.19    5.40
  -6   2  12   74.69    4.20
   6   2 -12   71.79    5.20
   6   2 -12   73.59    4.90
   5  -2 -12    3.00    0.60
   5  -2 -12    5.00    1.20
  -5  -2  12    3.90    0.40
  -5   2  12    3.80    0.40
   5   2 -12    4.50    1.30
   5   2 -12    3.90    0.80
  -5   2  12    3.60    0.60
   5   2 -12    3.90    1.10
  -4  -2  12   43.10    2.50
   4  -2 -12   43.10    3.00
  -4   2  12   44.70    2.60
   4   2 -12   41.40    3.20
  -4   2  12   43.00    2.60
   4   2 -12   34.10    4.80
   4   2 -12   47.30    3.90
  -3  -2  12  119.79    7.00
   3  -2 -12  121.89    7.40
  -3  -2  12  122.89    7.20
   3   2 -12  120.29    7.70
   3   2 -12  125.59    9.10
  -3   2  12  121.79    7.00
   3   2 -12  120.29    7.90
  -3   2  12  123.99    7.00
   2  -2 -12   34.80    2.40
  -2  -2  12   35.00    2.30
   2  -2 -12   33.20    2.70
   2   2 -12   31.30    4.20
   2   2 -12   27.60    2.70
   2   2 -12   33.30    2.60
  -2   2  12   31.60    2.00
  -2   2  12   31.60    2.00
   1  -2 -12   22.60    1.70
   1  -2 -12   17.30    1.90
  -1  -2  12   21.60    1.60
   1   2 -12   19.80    2.40
  -1   2  12   18.70    1.30
   1   2 -12   17.70    1.70
  -1   2  12   19.50    1.30
   0  -2 -12   48.50    3.30
   0  -2 -12   49.60    4.20
   0  -2  12   51.79    3.20
   0   2 -12   46.30    4.10
   0   2  12   50.69    3.10
   0   2 -12   49.30    3.60
  -1  -2 -12   16.10    1.30
   1  -2  12   16.90    1.30
  -1  -2 -12   16.70    1.40
  -1   2 -12   15.00    1.90
  -1   2 -12   17.00    1.40
   1   2  12   15.00    1.10
  -2  -2 -12    1.20    0.30
  -2  -2 -12    0.60    0.40
   2  -2  12    0.80    0.30
  -2   2 -12   -0.30    0.40
   2   2  12    0.50    0.40
  -2   2 -12    0.70    0.50
   7  -3 -12   66.59    4.20
  -7  -3  12   66.39    3.60
   7   3 -12   61.19    4.10
   7   3 -12   52.99    4.40
   7   3 -12   62.09    4.40
  -7   3  12   64.39    3.60
  -7   3  12   63.79    3.60
   6  -3 -12   21.60    2.00
  -6  -3  12   23.10    1.40
   6   3 -12   19.90    2.40
   6   3 -12   19.30    2.20
  -6   3  12   23.80    1.50
   6   3 -12   22.30    1.90
  -6   3  12   21.10    1.40
  -5  -3  12   37.90    2.40
   5  -3 -12   42.40    3.20
   5   3 -12   34.90    3.20
   5   3 -12   42.90    3.40
   5   3 -12   38.40    3.60
  -5   3  12   42.60    2.40
  -5   3  12   39.70    2.40
   4  -3 -12    5.40    1.10
  -4  -3  12    4.90    0.60
  -4  -3  12    5.10    0.40
   4   3 -12    3.70    1.20
  -4   3  12    4.90    0.50
   4   3 -12    4.20    1.10
   4   3 -12    3.70    1.10
  -4   3  12    4.60    0.50
   3  -3 -12    1.80    0.70
   3  -3 -12    1.70    0.80
  -3  -3  12    2.70    0.50
  -3  -3  12    1.90    0.30
  -3   3  12    2.50    0.30
   3   3 -12    2.20    0.90
   3   3 -12    2.00    0.90
   3   3 -12    2.40    0.70
  -3   3  12    1.50    0.40
   2  -3 -12    4.10    0.70
   2  -3 -12    5.30    1.10
   2   3 -12    5.60    0.90
  -2   3  12    7.10    0.60
   2   3 -12    6.80    1.30
   2   3 -12    4.70    1.20
  -2   3  12    4.90    0.50
   1  -3 -12    7.10    0.80
  -1  -3  12    8.60    1.20
   1  -3 -12    9.70    1.40
  -1   3  12    7.70    0.60
   1   3 -12    7.80    1.00
   1   3 -12    7.10    1.40
  -1   3  12    8.40    0.70
   0  -3  12    9.10    0.80
   0  -3 -12    7.50    1.20
   0  -3 -12    7.10    0.70
   0   3 -12    8.80    1.50
   0   3  12    8.80    0.70
   0   3  12    7.00    0.60
   1  -3  12    1.30    0.30
   1   3  12    1.10    0.30
  -1   3 -12    0.90    0.60
   5  -4 -12   48.80    3.20
  -5  -4  12   44.90    2.70
   5   4 -12   43.10    3.60
  -5   4  12   43.50    2.80
   5   4 -12   45.90    3.00
  -5   4  12   50.49    2.70
   5   4 -12   47.30    3.40
   4  -4 -12   11.40    1.20
  -4   4  12   11.20    0.80
   4   4 -12    9.20    1.60
   4   4 -12    7.60    1.00
   4   4 -12   11.50    1.60
  -4   4  12   11.40    0.80
  -3  -4  12   12.00    0.90
   3  -4 -12   12.10    1.30
   3   4 -12   10.40    1.60
  -3   4  12   12.80    0.80
  -3   4  12   12.70    0.80
   2  -4 -12   12.30    1.30
  -2  -4  12   15.40    1.10
  -2   4  12   14.70    1.00
   2   4 -12   12.50    1.60
  -2   4  12   15.30    0.90
   8   0 -13   29.00    2.30
   8   0 -13   26.00    1.90
   7   0 -13    2.00    0.70
   7   0 -13    3.40    1.00
   6   0 -13   62.39    4.30
   6   0 -13   65.89    4.60
   5   0 -13   74.89    5.00
   5   0 -13   75.69    5.30
   4   0 -13    0.30    0.80
   4   0 -13   -0.10    1.30
   4   0 -13    0.60    0.50
   3   0 -13   28.50    2.40
   3   0 -13   23.90    2.50
   3   0 -13   26.30    2.20
   2   0 -13    2.10    0.90
   2   0 -13    3.40    0.70
   2   0 -13    4.10    1.10
   1   0 -13  119.09    8.20
   1   0 -13  133.29    8.10
   1   0 -13  129.79    7.80
   0   0  13    0.30    0.30
   0   0 -13    0.40    0.30
   0   0 -13    0.90    0.70
  -1   0 -13   61.49    3.70
  -1   0 -13   54.89    4.10
  -2   0 -13   46.70    3.10
  -2   0 -13   51.29    3.20
   8  -1 -13   14.60    1.50
   8   1 -13   13.50    1.30
  -8   1  13   13.50    0.90
   8   1 -13   14.40    1.60
   7  -1 -13   15.00    1.30
   7  -1 -13   16.80    1.70
   7   1 -13   17.60    1.90
   7   1 -13   16.30    1.60
  -7   1  13   15.60    1.00
   6  -1 -13   30.80    2.40
   6  -1 -13   29.60    2.60
   6   1 -13   28.90    2.30
   6   1 -13   27.90    2.50
  -6   1  13   27.00    1.70
   5  -1 -13    5.10    1.10
   5  -1 -13    3.80    0.70
  -5   1  13    3.30    0.40
   5   1 -13    3.60    0.80
   5   1 -13    5.50    1.20
   5   1 -13    3.60    1.00
   4  -1 -13   73.49    4.50
   4  -1 -13   67.59    4.80
   4   1 -13   71.89    4.70
   4   1 -13   63.29    5.10
   4   1 -13   70.49    4.90
  -3  -1  13   80.49    4.90
   3  -1 -13   79.79    5.40
   3  -1 -13   84.59    5.20
   3   1 -13   82.09    5.50
   3   1 -13   76.29    5.80
   3   1 -13   81.59    5.30
   2  -1 -13   76.39    4.80
  -2  -1  13   79.29    4.70
   2  -1 -13   74.89    5.10
   2   1 -13   73.99    5.20
   2   1 -13   74.59    4.80
   2   1 -13   68.19    5.40
  -1  -1  13   23.90    1.80
   1  -1 -13   21.00    2.00
   1  -1 -13   22.80    1.80
   1   1 -13   23.80    1.80
   1   1 -13   21.20    2.30
   0  -1  13   35.50    2.30
   0  -1 -13   34.70    2.40
   0  -1 -13   31.10    2.60
   0   1 -13   33.40    3.00
   0   1 -13   35.00    2.40
  -1  -1 -13    5.80    0.70
  -1  -1 -13    4.90    0.80
   1  -1  13    6.20    0.70
  -1   1 -13    5.30    1.10
  -1   1 -13    5.50    0.70
  -7  -2  13   26.30    1.50
   7  -2 -13   26.60    2.20
   7   2 -13   25.90    2.00
  -7   2  13   26.70    1.60
   7   2 -13   24.30    2.30
   6  -2 -13   10.70    1.40
  -6  -2  13   10.40    0.70
   6   2 -13   10.90    1.20
   6   2 -13    8.20    1.50
   6   2 -13   10.70    1.60
  -6   2  13   10.60    0.70
  -5  -2  13   94.79    5.30
   5  -2 -13   91.69    5.50
   5  -2 -13   96.49    6.10
  -5   2  13   93.69    5.30
   5   2 -13   94.79    6.80
   5   2 -13   81.09    6.10
   5   2 -13   95.39    6.10
   4  -2 -13   22.20    1.70
   4  -2 -13   22.30    2.10
   4   2 -13   28.10    2.40
   4   2 -13   23.80    2.50
  -4   2  13   23.60    1.50
   4   2 -13   24.20    2.20
  -3  -2  13    2.50    0.50
   3  -2 -13    3.20    0.50
   3  -2 -13    2.70    0.90
   3   2 -13    2.50    0.90
   3   2 -13    2.60    1.20
   3   2 -13    3.70    0.80
  -3   2  13    2.50    0.30
   2  -2 -13   52.09    4.90
   2  -2 -13   61.99    3.80
  -2  -2  13   64.19    3.80
   2   2 -13   61.79    3.90
   2   2 -13   59.69    4.60
  -1  -2  13   27.50    1.80
   1  -2 -13   21.80    2.00
   1  -2 -13   25.80    1.80
   1   2 -13   23.70    1.80
   1   2 -13   21.40    2.30
   0  -2  13    4.90    0.60
   0  -2 -13    4.60    0.60
   0  -2 -13    5.90    0.70
   0   2 -13    3.10    0.90
   5  -3 -13   19.50    1.70
  -5   3  13   18.00    1.10
   5   3 -13   17.10    1.40
   5   3 -13   15.00    1.60
   5   3 -13   14.40    1.70
   4  -3 -13   -0.20    0.40
   4   3 -13    0.70    0.50
   4   3 -13   -0.30    0.30
  -4   3  13    0.00    0.10
   4   3 -13   -0.40    1.10
  -4   3  13    0.00    0.30
  -3  -3  13    9.00    0.80
   3  -3 -13   10.30    1.20
   3   3 -13    9.10    1.00
  -3   3  13    9.30    0.60
   3   3 -13    8.60    1.40
  -3   3  13    8.30    0.60
   2  -3 -13    8.20    1.10
  -2  -3  13    8.20    0.70
  -2   3  13    6.60    0.50
   2   3 -13    6.40    0.80
  -2   3  13    6.60    0.50
   2   3 -13    6.50    1.20
   6   0 -14   25.50    2.20
   6   0 -14   23.90    1.80
   5   0 -14   16.30    1.60
   5   0 -14   15.20    1.30
   4   0 -14   10.80    1.10
   4   0 -14   12.30    1.40
   3   0 -14   56.09    3.70
   3   0 -14   53.59    3.60
   2   0 -14    0.50    0.30
   1   0 -14   54.49    3.50
   6  -1 -14   12.90    1.40
   6  -1 -14   11.50    1.00
   6   1 -14   13.10    1.20
   6   1 -14   13.50    1.50
   5  -1 -14   62.49    3.90
   5  -1 -14   65.99    4.30
   5   1 -14   61.39    4.00
   5   1 -14   62.59    4.30
   4  -1 -14   15.30    1.60
   4  -1 -14   15.50    1.20
   4   1 -14   15.70    1.30
   4   1 -14   13.50    1.50
   3  -1 -14   25.90    2.10
   3  -1 -14   28.70    1.90
   3   1 -14   27.50    2.00
   3   1 -14   27.70    2.50
   3   1 -14   24.20    2.40
   2  -1 -14   68.89    4.00
   2   1 -14   59.19    4.40
   2   1 -14   65.79    4.10
   1  -1 -14    3.70    0.60
   1   1 -14    3.50    0.60
   1   1 -14    3.30    0.90
   4   2 -14   18.80    2.10
   4   2 -14   22.70    1.70
   0   0   0    0.00    0.00


_computing_structure_solution     'SHELXT 2018/2 (Sheldrick, 2018)'
_computing_structure_solution     'SHELXT 2018/2 (Sheldrick, 2018)'
;
_shelx_hkl_checksum              80799
_olex2_submission_special_instructions 'No special instructions were received'
loop_
_space_group_symop_operation_xyz
'x, y, z'
'-x, y+1/2, -z'
loop_
_atom_site_label
_atom_site_type_symbol
_atom_site_fract_x
_atom_site_fract_y
_atom_site_fract_z
_atom_site_U_iso_or_equiv
_atom_site_adp_type
_atom_site_occupancy
_atom_site_site_symmetry_order
_atom_site_calc_flag
_atom_site_refinement_flags_posn
_atom_site_refinement_flags_adp
_atom_site_refinement_flags_occupancy
_atom_site_disorder_assembly
_atom_site_disorder_group
F1 F 0.34688(16) 0.5990(3) 0.87160(14) 0.0537(5) Uani 1 1 d . . . . .
F2 F 0.18900(13) 0.4203(3) 0.75267(13) 0.0439(4) Uani 1 1 d . . . . .
F3 F 0.37069(17) 0.2594(3) 0.84334(14) 0.0527(5) Uani 1 1 d . . . . .
F4 F 0.86061(19) 0.6378(4) 1.05797(13) 0.0640(6) Uani 1 1 d . . . . .
F5 F 0.96034(17) 0.7335(4) 0.93893(16) 0.0740(7) Uani 1 1 d . . . . .
F6 F 0.7949(2) 0.9190(4) 0.9590(2) 0.0763(7) Uani 1 1 d . . . . .
O1 O 0.47937(16) 0.0818(3) 0.53719(14) 0.0341(4) Uani 1 1 d . . . . .
N1 N 0.35547(18) 0.3231(3) 0.60940(16) 0.0284(4) Uani 1 1 d . . . . .
C1 C 0.1784(2) 0.2309(4) 0.4244(2) 0.0318(5) Uani 1 1 d . . . . .
H1 H 0.210384 0.088672 0.419000 0.038 Uiso 1 1 calc R . . . .
C2 C 0.0655(2) 0.3104(5) 0.3426(2) 0.0359(5) Uani 1 1 d . . . . .
H2 H 0.019596 0.221363 0.279097 0.043 Uiso 1 1 calc R . . . .
C3 C 0.0188(2) 0.5171(4) 0.3520(2) 0.0348(6) Uani 1 1 d . . . . .
H3 H -0.060151 0.565823 0.296283 0.042 Uiso 1 1 calc R . . . .
C4 C 0.0857(2) 0.6545(4) 0.4420(2) 0.0324(5) Uani 1 1 d . . . . .
H4 H 0.053603 0.796396 0.448029 0.039 Uiso 1 1 calc R . . . .
C5 C 0.2004(2) 0.5795(4) 0.52249(19) 0.0286(5) Uani 1 1 d . . . . .
C6 C 0.2417(2) 0.3684(4) 0.51379(19) 0.0270(5) Uani 1 1 d . . . . .
C7 C 0.3787(2) 0.5033(4) 0.6924(2) 0.0290(5) Uani 1 1 d . . . . .
C8 C 0.3004(2) 0.6952(4) 0.6222(2) 0.0308(5) Uani 1 1 d . . . . .
H8A H 0.255848 0.780732 0.668960 0.037 Uiso 1 1 calc R . . . .
H8B H 0.358692 0.791682 0.593816 0.037 Uiso 1 1 calc R . . . .
C9 C 0.4713(2) 0.2230(4) 0.60456(19) 0.0276(5) Uani 1 1 d . . . . .
C10 C 0.5794(2) 0.3286(4) 0.69669(18) 0.0284(5) Uani 1 1 d . . . . .
C11 C 0.5295(2) 0.5038(4) 0.74188(19) 0.0292(5) Uani 1 1 d . . . . .
C12 C 0.6118(2) 0.6362(4) 0.8250(2) 0.0336(5) Uani 1 1 d . . . . .
H12 H 0.578165 0.756384 0.856432 0.040 Uiso 1 1 calc R . . . .
C13 C 0.7473(2) 0.5851(5) 0.8608(2) 0.0363(5) Uani 1 1 d . . . . .
C14 C 0.7969(2) 0.4058(5) 0.8172(2) 0.0368(6) Uani 1 1 d . . . . .
H14 H 0.888841 0.372907 0.845055 0.044 Uiso 1 1 calc R . . . .
C15 C 0.7128(2) 0.2754(4) 0.7335(2) 0.0334(5) Uani 1 1 d . . . . .
H15 H 0.745475 0.153768 0.702483 0.040 Uiso 1 1 calc R . . . .
C16 C 0.3210(2) 0.4436(5) 0.7907(2) 0.0368(6) Uani 1 1 d . . . . .
C17 C 0.8402(2) 0.7199(5) 0.9524(2) 0.0452(7) Uani 1 1 d . . . . .
loop_
_atom_site_aniso_label
_atom_site_aniso_U_11
_atom_site_aniso_U_22
_atom_site_aniso_U_33
_atom_site_aniso_U_23
_atom_site_aniso_U_13
_atom_site_aniso_U_12
F1 0.0497(9) 0.0793(13) 0.0392(8) -0.0177(9) 0.0238(7) -0.0108(9)
F2 0.0308(7) 0.0600(10) 0.0453(8) 0.0013(7) 0.0180(6) -0.0048(7)
F3 0.0486(8) 0.0673(12) 0.0480(9) 0.0218(8) 0.0232(7) 0.0092(8)
F4 0.0619(10) 0.0955(16) 0.0277(8) -0.0084(9) 0.0030(7) -0.0007(10)
F5 0.0425(9) 0.127(2) 0.0526(10) -0.0326(12) 0.0145(8) -0.0339(11)
F6 0.0615(11) 0.0584(12) 0.0824(14) -0.0214(11) -0.0184(10) -0.0055(10)
O1 0.0360(8) 0.0302(8) 0.0367(9) -0.0055(7) 0.0121(7) 0.0010(7)
N1 0.0266(9) 0.0285(9) 0.0301(9) -0.0018(8) 0.0084(7) -0.0016(8)
C1 0.0293(10) 0.0326(11) 0.0352(12) -0.0038(10) 0.0123(9) -0.0042(10)
C2 0.0308(11) 0.0458(14) 0.0310(11) -0.0044(11) 0.0092(9) -0.0078(11)
C3 0.0252(10) 0.0472(15) 0.0317(12) 0.0059(10) 0.0081(9) 0.0002(10)
C4 0.0271(10) 0.0358(12) 0.0370(12) 0.0041(10) 0.0137(9) 0.0009(9)
C5 0.0242(10) 0.0318(11) 0.0326(11) -0.0007(10) 0.0128(9) -0.0026(9)
C6 0.0236(10) 0.0303(11) 0.0288(10) 0.0022(9) 0.0104(8) -0.0028(8)
C7 0.0259(10) 0.0338(11) 0.0282(11) -0.0044(9) 0.0096(9) -0.0029(9)
C8 0.0283(10) 0.0302(12) 0.0349(12) -0.0031(10) 0.0109(9) 0.0000(9)
C9 0.0273(10) 0.0265(10) 0.0307(11) 0.0044(9) 0.0112(9) 0.0003(9)
C10 0.0283(10) 0.0328(11) 0.0248(10) 0.0038(9) 0.0092(8) -0.0005(9)
C11 0.0260(11) 0.0360(12) 0.0258(11) 0.0001(9) 0.0079(9) -0.0004(9)
C12 0.0301(11) 0.0416(13) 0.0289(11) -0.0036(10) 0.0086(9) -0.0010(10)
C13 0.0311(11) 0.0506(14) 0.0246(11) 0.0034(11) 0.0046(9) -0.0024(11)
C14 0.0272(10) 0.0517(15) 0.0303(11) 0.0061(11) 0.0068(9) 0.0031(11)
C15 0.0299(11) 0.0413(14) 0.0298(11) 0.0070(10) 0.0103(9) 0.0061(9)
C16 0.0298(11) 0.0493(15) 0.0329(12) -0.0004(11) 0.0116(9) -0.0024(11)
C17 0.0320(12) 0.0612(18) 0.0376(14) -0.0052(13) 0.0034(10) 0.0000(13)
loop_
_atom_type_symbol
_atom_type_description
_atom_type_scat_dispersion_real
_atom_type_scat_dispersion_imag
_atom_type_scat_source
C C 0.0181 0.0091 'International Tables Vol C Tables 4.2.6.8 and 6.1.1.4'
H H 0.0000 0.0000 'International Tables Vol C Tables 4.2.6.8 and 6.1.1.4'
F F 0.0727 0.0534 'International Tables Vol C Tables 4.2.6.8 and 6.1.1.4'
N N 0.0311 0.0180 'International Tables Vol C Tables 4.2.6.8 and 6.1.1.4'
O O 0.0492 0.0322 'International Tables Vol C Tables 4.2.6.8 and 6.1.1.4'
loop_
_geom_angle_atom_site_label_1
_geom_angle_atom_site_label_2
_geom_angle_atom_site_label_3
_geom_angle
_geom_angle_site_symmetry_1
_geom_angle_site_symmetry_3
_geom_angle_publ_flag
C6 N1 C7 109.43(18) . . ?
C9 N1 C6 126.46(19) . . ?
C9 N1 C7 113.43(18) . . ?
C2 C1 H1 121.6 . . ?
C6 C1 H1 121.6 . . ?
C6 C1 C2 116.8(2) . . ?
C1 C2 H2 119.4 . . ?
C3 C2 C1 121.2(2) . . ?
C3 C2 H2 119.4 . . ?
C2 C3 H3 119.5 . . ?
C2 C3 C4 121.0(2) . . ?
C4 C3 H3 119.5 . . ?
C3 C4 H4 120.8 . . ?
C5 C4 C3 118.4(2) . . ?
C5 C4 H4 120.8 . . ?
C4 C5 C6 119.3(2) . . ?
C4 C5 C8 130.7(2) . . ?
C6 C5 C8 109.92(19) . . ?
C1 C6 N1 127.4(2) . . ?
C1 C6 C5 123.2(2) . . ?
C5 C6 N1 109.36(19) . . ?
N1 C7 C8 104.74(18) . . ?
N1 C7 C11 102.08(18) . . ?
N1 C7 C16 108.82(19) . . ?
C11 C7 C8 122.6(2) . . ?
C11 C7 C16 108.04(19) . . ?
C16 C7 C8 109.68(19) . . ?
C5 C8 C7 101.82(19) . . ?
C5 C8 H8A 111.4 . . ?
C5 C8 H8B 111.4 . . ?
C7 C8 H8A 111.4 . . ?
C7 C8 H8B 111.4 . . ?
H8A C8 H8B 109.3 . . ?
O1 C9 N1 126.1(2) . . ?
O1 C9 C10 128.7(2) . . ?
N1 C9 C10 105.25(19) . . ?
C11 C10 C9 109.82(19) . . ?
C15 C10 C9 128.1(2) . . ?
C15 C10 C11 122.0(2) . . ?
C10 C11 C7 108.77(19) . . ?
C12 C11 C7 129.9(2) . . ?
C12 C11 C10 121.1(2) . . ?
C11 C12 H12 121.5 . . ?
C11 C12 C13 116.9(2) . . ?
C13 C12 H12 121.5 . . ?
C12 C13 C17 119.1(2) . . ?
C14 C13 C12 121.9(2) . . ?
C14 C13 C17 118.9(2) . . ?
C13 C14 H14 119.9 . . ?
C15 C14 C13 120.3(2) . . ?
C15 C14 H14 119.9 . . ?
C10 C15 C14 117.7(2) . . ?
C10 C15 H15 121.1 . . ?
C14 C15 H15 121.1 . . ?
F1 C16 F2 106.8(2) . . ?
F1 C16 C7 110.6(2) . . ?
F2 C16 C7 112.16(19) . . ?
F3 C16 F1 107.4(2) . . ?
F3 C16 F2 107.0(2) . . ?
F3 C16 C7 112.6(2) . . ?
F4 C17 F5 104.8(2) . . ?
F4 C17 F6 104.6(3) . . ?
F4 C17 C13 112.3(3) . . ?
F5 C17 C13 112.6(2) . . ?
F6 C17 F5 108.8(3) . . ?
F6 C17 C13 113.1(2) . . ?
loop_
_geom_bond_atom_site_label_1
_geom_bond_atom_site_label_2
_geom_bond_distance
_geom_bond_site_symmetry_2
_geom_bond_publ_flag
F1 C16 1.338(3) . ?
F2 C16 1.340(3) . ?
F3 C16 1.331(3) . ?
F4 C17 1.328(4) . ?
F5 C17 1.332(3) . ?
F6 C17 1.330(4) . ?
O1 C9 1.213(3) . ?
N1 C6 1.422(3) . ?
N1 C7 1.468(3) . ?
N1 C9 1.389(3) . ?
C1 H1 0.9500 . ?
C1 C2 1.390(3) . ?
C1 C6 1.378(3) . ?
C2 H2 0.9500 . ?
C2 C3 1.385(4) . ?
C3 H3 0.9500 . ?
C3 C4 1.392(4) . ?
C4 H4 0.9500 . ?
C4 C5 1.386(3) . ?
C5 C6 1.389(3) . ?
C5 C8 1.521(3) . ?
C7 C8 1.544(3) . ?
C7 C11 1.525(3) . ?
C7 C16 1.534(3) . ?
C8 H8A 0.9900 . ?
C8 H8B 0.9900 . ?
C9 C10 1.485(3) . ?
C10 C11 1.386(3) . ?
C10 C15 1.385(3) . ?
C11 C12 1.381(3) . ?
C12 H12 0.9500 . ?
C12 C13 1.403(3) . ?
C13 C14 1.394(4) . ?
C13 C17 1.492(4) . ?
C14 H14 0.9500 . ?
C14 C15 1.386(4) . ?
C15 H15 0.9500 . ?
