#------------------------------------------------------------------------------
#$Date: 2022-09-06 00:56:03 +0300 (Tue, 06 Sep 2022) $
#$Revision: 277635 $
#$URL: file:///home/coder/svn-repositories/cod/cif/7/13/06/7130681.cif $
#------------------------------------------------------------------------------
#
# This file is available in the Crystallography Open Database (COD),
# http://www.crystallography.net/
#
# All data on this site have been placed in the public domain by the
# contributors.
#
data_7130681
loop_
_publ_author_name
'Xu, Xinyue'
'Chen, Zehang'
'Lei, yunxiang'
'Sun, Xinyu'
'Liu, Miaochang'
'Wu, Huayue'
'Huang, Xiaobo'
_publ_section_title
;
 Guest-activated Quaternary Ammonium Salt Hosts Emit Room Temperature
 Phosphorescence
;
_journal_name_full               'Chemical Communications'
_journal_paper_doi               10.1039/D2CC04521D
_journal_year                    2022
_chemical_formula_sum            'C15 H16 Cl2 N2 O2'
_chemical_formula_weight         327.20
_space_group_crystal_system      triclinic
_space_group_IT_number           1
_space_group_name_Hall           'P 1'
_space_group_name_H-M_alt        'P 1'
_atom_sites_solution_hydrogens   geom
_audit_creation_method           SHELXL-2014/7
_audit_update_record
;
2022-07-11 deposited with the CCDC.	2022-09-05 downloaded from the CCDC.
;
_cell_angle_alpha                84.087(7)
_cell_angle_beta                 87.255(7)
_cell_angle_gamma                83.055(7)
_cell_formula_units_Z            1
_cell_length_a                   4.8117(14)
_cell_length_b                   5.7830(18)
_cell_length_c                   13.449(4)
_cell_measurement_reflns_used    2739
_cell_measurement_temperature    296(2)
_cell_measurement_theta_max      24.41
_cell_measurement_theta_min      3.05
_cell_volume                     369.27(19)
_computing_structure_refinement  'SHELXL-2014/7 (Sheldrick, 2014)'
_diffrn_ambient_temperature      296(2)
_diffrn_measured_fraction_theta_full 0.989
_diffrn_measured_fraction_theta_max 0.989
_diffrn_measurement_device_type  ccd
_diffrn_measurement_method       'phi and omega scans'
_diffrn_radiation_type           MoK\a
_diffrn_radiation_wavelength     0.71073
_diffrn_reflns_av_R_equivalents  0.0424
_diffrn_reflns_av_unetI/netI     0.0606
_diffrn_reflns_Laue_measured_fraction_full 0.989
_diffrn_reflns_Laue_measured_fraction_max 0.989
_diffrn_reflns_limit_h_max       5
_diffrn_reflns_limit_h_min       -5
_diffrn_reflns_limit_k_max       6
_diffrn_reflns_limit_k_min       -6
_diffrn_reflns_limit_l_max       16
_diffrn_reflns_limit_l_min       -15
_diffrn_reflns_number            6283
_diffrn_reflns_point_group_measured_fraction_full 0.911
_diffrn_reflns_point_group_measured_fraction_max 0.911
_diffrn_reflns_theta_full        25.136
_diffrn_reflns_theta_max         25.136
_diffrn_reflns_theta_min         3.047
_exptl_absorpt_coefficient_mu    0.445
_exptl_absorpt_correction_type   multi-scan
_exptl_absorpt_process_details   sadabs
_exptl_crystal_colour            colorless
_exptl_crystal_density_diffrn    1.471
_exptl_crystal_description       Block
_exptl_crystal_F_000             170
_exptl_crystal_size_max          0.200
_exptl_crystal_size_mid          0.200
_exptl_crystal_size_min          0.200
_exptl_transmission_factor_max   0.864
_exptl_transmission_factor_min   0.864
_refine_diff_density_max         0.215
_refine_diff_density_min         -0.228
_refine_diff_density_rms         0.049
_refine_ls_abs_structure_details
;
 Flack x determined using 725 quotients [(I+)-(I-)]/[(I+)+(I-)]
 (Parsons, Flack and Wagner, Acta Cryst. B69 (2013) 249-259).
;
_refine_ls_abs_structure_Flack   0.01(4)
_refine_ls_extinction_method     none
_refine_ls_goodness_of_fit_ref   1.007
_refine_ls_hydrogen_treatment    constr
_refine_ls_matrix_type           full
_refine_ls_number_parameters     191
_refine_ls_number_reflns         2413
_refine_ls_number_restraints     3
_refine_ls_restrained_S_all      1.006
_refine_ls_R_factor_all          0.0615
_refine_ls_R_factor_gt           0.0403
_refine_ls_shift/su_max          0.000
_refine_ls_shift/su_mean         0.000
_refine_ls_structure_factor_coef Fsqd
_refine_ls_weighting_details
'w=1/[\s^2^(Fo^2^)+(0.0305P)^2^+0.0433P] where P=(Fo^2^+2Fc^2^)/3'
_refine_ls_weighting_scheme      calc
_refine_ls_wR_factor_gt          0.0679
_refine_ls_wR_factor_ref         0.0775
_reflns_Friedel_coverage         0.842
_reflns_Friedel_fraction_full    0.832
_reflns_Friedel_fraction_max     0.832
_reflns_number_gt                1945
_reflns_number_total             2413
_reflns_threshold_expression     'I > 2\s(I)'
_cod_data_source_file            d2cc04521d2.cif
_cod_data_source_block           1_a
_cod_database_code               7130681
_shelx_shelxl_version_number     2014/7
_shelx_space_group_comment
;
The symmetry employed for this shelxl refinement is uniquely defined
by the following loop, which should always be used as a source of
symmetry information in preference to the above space-group names.
They are only intended as comments.
;
_shelx_estimated_absorpt_t_min   0.916
_shelx_estimated_absorpt_t_max   0.916
_shelx_res_file
;

    1_a.res created by SHELXL-2014/7

TITL 1_a.res in P1
CELL  0.71073   4.8117   5.7830  13.4490   84.087   87.255   83.055
ZERR    1.000   0.0014   0.0018   0.0041    0.007    0.007    0.007
LATT -1
SFAC C  H  N  O  Cl
UNIT 15 16 2 2 2
L.S. 24
ACTA
SIZE 0.2 0.2 0.2
CONF
BOND $H
FMAP 2
PLAN 20
LIST 6
TEMP 23.000
WGHT    0.030500    0.043300
FVAR       1.83458
C1    1    0.693651    1.122154    0.296336    11.00000    0.03279    0.03291 =
         0.03485   -0.00098    0.00042   -0.00289
AFIX  43
H1    2    0.631522    1.152531    0.360765    11.00000   -1.20000
AFIX   0
C2    1    0.876112    1.263175    0.243479    11.00000    0.03723    0.03407 =
         0.03746   -0.00492   -0.00049   -0.01080
AFIX  43
H2    2    0.934263    1.388415    0.271874    11.00000   -1.20000
AFIX   0
C3    1    0.968537    1.215551    0.149627    11.00000    0.02648    0.03316 =
         0.04203    0.00766   -0.00155   -0.00403
C4    1    0.888804    1.029374    0.105719    11.00000    0.05126    0.04064 =
         0.03190   -0.00241    0.00676   -0.00537
AFIX  43
H4    2    0.955703    0.997679    0.041929    11.00000   -1.20000
AFIX   0
C5    1    0.707129    0.891695    0.159123    11.00000    0.04463    0.03123 =
         0.03794   -0.00307   -0.00088   -0.01004
AFIX  43
H5    2    0.652808    0.765098    0.130623    11.00000   -1.20000
AFIX   0
C6    1    0.603241    0.936590    0.254009    11.00000    0.02217    0.02771 =
         0.03336    0.00097   -0.00473   -0.00161
C7    1    0.395456    0.784097    0.304988    11.00000    0.02602    0.03117 =
         0.03671    0.00079   -0.00910   -0.00297
AFIX  23
H7A   2    0.209576    0.846982    0.283406    11.00000   -1.20000
H7B   2    0.436072    0.628929    0.282676    11.00000   -1.20000
AFIX   0
C8    1    0.188744   -0.309402    0.686596    11.00000    0.04055    0.03577 =
         0.03922   -0.00451   -0.00643   -0.01024
AFIX  43
H8    2    0.153696   -0.408601    0.639622    11.00000   -1.20000
AFIX   0
C9    1    0.382447   -0.389122    0.758492    11.00000    0.04353    0.03202 =
         0.04575    0.00269   -0.00763   -0.00647
AFIX  43
H9    2    0.477322   -0.539275    0.759494    11.00000   -1.20000
AFIX   0
C10   1    0.432865   -0.244980    0.827980    11.00000    0.03374    0.04764 =
         0.03049    0.00978   -0.00495   -0.01445
C11   1    0.296811   -0.023241    0.826755    11.00000    0.05213    0.05030 =
         0.03156   -0.00927   -0.00386   -0.01902
AFIX  43
H11   2    0.334140    0.073830    0.874263    11.00000   -1.20000
AFIX   0
C12   1    0.102296    0.056567    0.754143    11.00000    0.04706    0.02906 =
         0.04358   -0.00358    0.00199   -0.00448
AFIX  43
H12   2    0.009179    0.207280    0.753535    11.00000   -1.20000
AFIX   0
C13   1    0.045279   -0.086753    0.682252    11.00000    0.03017    0.02968 =
         0.03078    0.00086    0.00211   -0.01067
C14   1   -0.169267   -0.015409    0.603913    11.00000    0.03068    0.03621 =
         0.04121    0.00462    0.00166   -0.01276
AFIX  23
H14A  2   -0.120765   -0.108059    0.548096    11.00000   -1.20000
H14B  2   -0.349543   -0.054016    0.631742    11.00000   -1.20000
AFIX   0
C15   1   -0.003132    0.324172    0.501303    11.00000    0.02184    0.02949 =
         0.02682   -0.00542   -0.00501   -0.00483
CL1   5    1.200015    1.389513    0.082342    11.00000    0.04100    0.04923 =
         0.05239    0.01178    0.00546   -0.01191
CL2   5    0.681510   -0.348101    0.917469    11.00000    0.05568    0.08039 =
         0.04195    0.01433   -0.01815   -0.02039
N1    3    0.391853    0.761576    0.416227    11.00000    0.02600    0.02625 =
         0.03950   -0.00049   -0.00213   -0.00701
AFIX 137
H1A   2    0.553869    0.686146    0.437342    11.00000   -1.50000
H1B   2    0.252221    0.681719    0.440179    11.00000   -1.50000
H1C   2    0.367315    0.903391    0.437706    11.00000   -1.50000
AFIX   0
N2    3   -0.199289    0.231023    0.565764    11.00000    0.02262    0.02986 =
         0.04252    0.00505    0.00857    0.00112
AFIX  43
H2A   2   -0.344255    0.320732    0.584201    11.00000   -1.20000
AFIX   0
O1    4    0.232889    0.207731    0.490433    11.00000    0.02345    0.03236 =
         0.04738   -0.00160    0.00401   -0.00084
O2    4   -0.071626    0.527550    0.458059    11.00000    0.02965    0.02758 =
         0.03781    0.00358   -0.00315   -0.00473
HKLF 4

REM  1_a.res in P1
REM R1 =  0.0403 for    1945 Fo > 4sig(Fo)  and  0.0615 for all    2413 data
REM    191 parameters refined using      3 restraints

END

WGHT      0.0229      0.0305

REM Highest difference peak  0.215,  deepest hole -0.228,  1-sigma level  0.049
Q1    1   0.5849 -0.2070  0.9396  11.00000  0.05    0.22
Q2    1   0.1064  0.2820  0.7127  11.00000  0.05    0.19
Q3    1  -0.3882  0.2743  0.5265  11.00000  0.05    0.18
Q4    1  -0.1644  0.5482  0.4076  11.00000  0.05    0.18
Q5    1  -0.0408  0.4213  0.8418  11.00000  0.05    0.18
Q6    1   0.5181 -0.7855  0.7120  11.00000  0.05    0.17
Q7    1   0.3055  0.0401  0.6419  11.00000  0.05    0.17
Q8    1  -0.4277  0.4948  0.5172  11.00000  0.05    0.17
Q9    1   0.2795 -0.2276  0.8711  11.00000  0.05    0.17
Q10   1  -0.5032 -0.0928  0.6607  11.00000  0.05    0.17
Q11   1  -0.1366  0.4942  0.7954  11.00000  0.05    0.16
Q12   1   0.9057  0.8172  0.2077  11.00000  0.05    0.16
Q13   1   0.8391  1.3347  0.0400  11.00000  0.05    0.16
Q14   1   1.3837  1.1872  0.0607  11.00000  0.05    0.16
Q15   1   0.1530  0.9564  0.3189  11.00000  0.05    0.16
Q16   1   0.2115 -0.1135  0.9363  11.00000  0.05    0.16
Q17   1   0.6277  1.1521  0.3197  11.00000  0.05    0.16
Q18   1   0.3271  0.2318  0.7772  11.00000  0.05    0.16
Q19   1  -0.0208  0.7414  0.2936  11.00000  0.05    0.16
Q20   1   0.7268  0.8516  0.2572  11.00000  0.05    0.15
;
_shelx_res_checksum              99760
_shelx_hkl_file
;
  -1   0   0  377.06   16.50
  -1   0   0  375.76   14.30
  -1   0   0  392.66   12.00
  -1   0   0  399.16   18.40
   1   0   0  404.46   18.80
   1   0   0  386.86   14.70
   1   0   0  379.26   12.10
  -2   0   0  735.63   32.40
  -2   0   0  785.72   28.90
  -2   0   0  773.62   23.20
  -2   0   0  722.13   35.70
  -2   0   0  767.72   32.90
   2   0   0  876.11   39.80
   2   0   0  827.22   29.80
   2   0   0  800.32   24.30
  -3   0   0  102.09   12.60
  -3   0   0   98.19   13.80
  -3   0   0   98.99    8.70
  -3   0   0  103.19   14.50
  -3   0   0  140.09   19.00
   3   0   0   94.39    9.10
   3   0   0   96.69   19.30
   3   0   0  115.99   13.30
  -4   0   0  547.95   40.50
  -4   0   0  543.15   39.70
  -4   0   0  618.64   41.70
  -4   0   0  516.75   43.60
   4   0   0  520.25   43.80
   4   0   0  551.84   33.10
  -5   0   0  131.99   26.00
   5   0   0  126.99   29.10
   5  -1   0  -12.40   14.00
  -5   1   0   20.80   14.20
   4  -1   0   22.70   10.20
  -4   1   0   25.10   13.70
  -4   1   0   14.90   12.60
  -4   1   0   25.70   14.50
  -4   1   0    9.30    8.20
   3  -1   0  855.91   47.60
   3  -1   0  660.63   43.40
  -3   1   0  844.42   27.30
  -3   1   0  820.82   47.20
  -3   1   0  842.72   37.40
  -3   1   0  864.71   45.00
  -3   1   0  787.62   43.60
   2  -1   0   67.79   13.60
   2  -1   0   59.69    8.70
  -2   1   0   33.80    9.40
  -2   1   0   43.60   11.30
  -2   1   0   47.40    9.30
  -2   1   0   51.99   10.70
  -2   1   0   43.30    6.30
   1  -1   0 5497.45  109.59
   1  -1   0 5450.96  115.59
  -1   1   0 5714.43  110.29
  -1   1   0 5719.23  106.39
  -1   1   0 5633.34  114.59
  -1   1   0 5732.43  106.59
  -1   1   0 5433.76  113.29
  -1   1   0 5631.14  116.59
   0  -1   0  251.17   12.80
   0  -1   0  244.28   12.00
   0   1   0  263.87   12.40
   0   1   0  270.27    9.30
   0   1   0  287.27   13.50
   0   1   0  286.27   13.30
  -1  -1   0 1891.71   39.80
  -1  -1   0 1880.31   46.90
  -1  -1   0 1874.81   39.70
  -1  -1   0 1922.31   47.50
  -1  -1   0 1934.01   49.90
   1   1   0 1814.22   46.10
   1   1   0 1833.92   49.70
   1   1   0 1860.31   47.00
  -2  -1   0  181.78   17.40
  -2  -1   0  174.18   12.70
  -2  -1   0  174.78   13.50
  -2  -1   0  188.08   14.10
  -2  -1   0  174.98   13.90
   2   1   0  142.49   12.70
   2   1   0  156.28   12.30
   2   1   0  142.79   15.50
  -3  -1   0  909.51   38.20
  -3  -1   0  907.41   40.90
  -3  -1   0  859.41   39.90
  -3  -1   0  830.42   46.10
  -3  -1   0  973.20   34.80
   3   1   0  899.91   34.50
   3   1   0  925.71   39.00
   3   1   0  914.41   47.80
  -4  -1   0 1103.59   72.39
  -4  -1   0 1158.38   41.30
  -4  -1   0 1159.48   55.79
  -4  -1   0 1279.97   57.09
  -4  -1   0 1087.79   47.30
   4   1   0 1014.00   69.79
   4   1   0 1137.79   49.50
   4   1   0 1129.69   42.00
  -5  -1   0   84.09   22.60
  -5  -1   0   79.39   20.80
   5   1   0   85.49   24.90
  -5   2   0   75.09   26.40
   4  -2   0  154.68   20.50
   4  -2   0  144.09   27.90
  -4   2   0   97.19   23.60
  -4   2   0  141.09   25.80
   3  -2   0  311.67   24.20
   3  -2   0  286.37   28.80
  -3   2   0  275.27   29.30
  -3   2   0  304.27   19.90
  -3   2   0  269.57   26.00
  -3   2   0  293.17   23.60
  -3   2   0  303.37   29.20
  -3   2   0  313.37   18.60
   2  -2   0  126.09   16.40
   2  -2   0  177.88   16.30
  -2   2   0  126.99   12.30
  -2   2   0  144.59   13.60
  -2   2   0  139.19   17.30
  -2   2   0  117.19   15.00
  -2   2   0  148.29   15.00
  -2   2   0  122.99   14.60
   1  -2   0   15.00    6.30
  -1   2   0   13.10    5.70
  -1   2   0   23.20    7.40
  -1   2   0   21.30    7.00
  -1   2   0   22.10    6.50
  -1   2   0   24.90    6.50
  -1   2   0   24.50    6.60
   0  -2   0  379.26   20.40
   0  -2   0  339.77   20.50
   0   2   0  345.47   20.60
   0   2   0  365.16   20.20
   0   2   0  351.26   14.50
   0   2   0  341.67   14.20
   0   2   0  404.86   22.20
  -1  -2   0 2076.59   59.29
  -1  -2   0 2032.70   59.69
  -1  -2   0 2028.50   58.39
   1   2   0 1981.50   58.59
   1   2   0 2049.89   59.39
   1   2   0 2028.40   58.39
  -2  -2   0   31.90    5.80
  -2  -2   0   42.70   10.60
  -2  -2   0   33.30    9.40
  -2  -2   0   36.50    8.90
  -2  -2   0   45.20    6.20
   2   2   0   37.60   10.20
   2   2   0   32.50    9.60
   2   2   0   28.80    8.80
  -3  -2   0   80.79   14.50
  -3  -2   0   58.79   11.30
  -3  -2   0   63.09   11.00
  -3  -2   0   73.09   13.50
  -3  -2   0   75.99   16.90
   3   2   0   78.39   15.10
   3   2   0   81.79   18.10
   3   2   0   96.19   16.80
  -4  -2   0    3.50    6.40
  -4  -2   0    8.70    7.70
  -4  -2   0   22.20   11.40
  -4  -2   0    5.20    8.20
  -4  -2   0   36.60   15.00
   4   2   0   17.60    9.10
   4   2   0    2.70    8.90
   4   2   0    4.70    9.80
  -5  -2   0  244.68   29.70
   5   2   0  222.18   33.40
   4  -3   0   84.59   26.40
  -4   3   0   80.59   20.90
   3  -3   0   49.50   14.60
  -3   3   0   84.59   17.70
  -3   3   0   59.69   17.80
  -3   3   0   66.49   18.80
  -3   3   0   59.19   13.60
   2  -3   0  140.39   17.40
  -2   3   0  118.79   16.70
  -2   3   0  154.68   19.30
  -2   3   0  135.09   17.40
  -2   3   0  157.98   20.50
  -2   3   0  141.19   16.80
  -2   3   0  130.29   19.40
   1  -3   0  857.01   39.40
  -1   3   0  822.52   40.70
  -1   3   0  809.92   35.70
  -1   3   0  853.01   41.20
  -1   3   0  839.82   36.90
  -1   3   0  810.22   41.50
  -1   3   0  854.81   41.50
   0  -3   0  552.34   32.20
   0  -3   0  562.44   30.70
   0   3   0  509.55   30.70
   0   3   0  550.84   32.00
   0   3   0  530.95   30.00
   0   3   0  548.75   32.20
   0   3   0  530.85   21.40
   0   3   0  514.15   21.30
  -1  -3   0  901.81   43.10
  -1  -3   0  913.11   40.60
  -1  -3   0  904.81   42.10
   1   3   0  895.11   42.50
   1   3   0  842.02   41.10
   1   3   0  929.31   41.40
  -2  -3   0  338.87   27.10
  -2  -3   0  336.07   26.40
  -2  -3   0  366.56   27.80
   2   3   0  363.46   28.70
   2   3   0  340.07   26.60
   2   3   0  369.06   28.00
  -3  -3   0  248.08   16.50
  -3  -3   0  231.08   25.20
  -3  -3   0  229.68   23.60
  -3  -3   0  229.98   15.80
  -3  -3   0  218.78   22.60
   3   3   0  232.68   26.70
   3   3   0  183.48   22.20
   3   3   0  220.38   23.30
  -4  -3   0   84.09   18.50
  -4  -3   0   81.29   20.50
  -4  -3   0   81.19   17.40
   4   3   0  102.29   20.30
   4   3   0   86.59   19.30
   4   3   0   87.19   22.80
   5   3   0   90.99   24.20
  -4   4   0  138.79   33.20
  -3   4   0   22.00   11.90
  -3   4   0   19.90   14.90
  -3   4   0   23.30   17.20
  -3   4   0   12.90   16.10
  -2   4   0 1052.59   59.39
  -2   4   0 1057.59   51.39
  -2   4   0 1064.99   59.19
  -2   4   0 1128.59   54.99
  -2   4   0 1128.99   55.39
  -2   4   0 1119.19   56.39
  -2   4   0 1186.28   56.99
  -2   4   0 1070.49   55.89
   1  -4   0   73.49   16.60
  -1   4   0   55.49   12.40
  -1   4   0   84.89   17.80
  -1   4   0   73.29   16.80
  -1   4   0   69.19   13.30
  -1   4   0   77.19   17.20
  -1   4   0   46.00   13.00
   0  -4   0  167.78   21.00
   0  -4   0  161.98   19.60
   0   4   0  172.38   21.10
   0   4   0  144.79   19.50
   0   4   0  181.88   21.30
   0   4   0  187.58   21.50
   0   4   0  168.28   13.50
   0   4   0  184.28   13.80
  -1  -4   0   16.90    9.10
  -1  -4   0   25.40   10.80
   1   4   0   29.30   11.30
   1   4   0   36.00   13.60
   1   4   0   31.20   11.90
  -2  -4   0  915.41   50.29
  -2  -4   0  942.41   52.19
  -2  -4   0  800.22   46.80
   2   4   0  959.70   52.39
   2   4   0  900.81   49.80
   2   4   0  945.01   51.59
  -3  -4   0  207.48   25.00
  -3  -4   0  208.28   31.70
  -3  -4   0  181.88   24.60
   3   4   0  193.58   25.00
   3   4   0  124.39   30.80
   3   4   0  166.88   28.70
  -4  -4   0   31.70   15.70
  -4  -4   0  110.19   21.50
   4   4   0   60.89   17.60
   4   4   0   86.09   20.50
   4   4   0   77.99   21.90
   5   4   0   45.70   21.50
  -3   5   0    9.00   13.70
  -3   5   0   24.10   17.30
  -3   5   0  -14.20   13.60
  -2   5   0   11.30   14.20
  -2   5   0   11.00   11.40
  -2   5   0   42.60   16.10
  -2   5   0   16.90   14.10
  -2   5   0   17.40   14.70
  -2   5   0   29.40   13.90
  -2   5   0   -0.70    9.80
  -2   5   0    6.30   11.60
  -1   5   0   72.69   19.30
  -1   5   0   92.99   21.90
  -1   5   0  142.09   26.80
  -1   5   0  123.79   17.90
  -1   5   0  106.99   23.70
  -1   5   0   84.09   19.10
   0  -5   0   84.99   20.20
   0  -5   0   61.29   16.80
   0   5   0   72.89   18.10
   0   5   0   77.29   19.80
   0   5   0   96.59   22.30
   0   5   0   66.69   17.50
  -1  -5   0  357.26   32.10
  -1  -5   0  389.46   36.90
   1   5   0  334.87   33.20
   1   5   0  341.77   32.60
   1   5   0  325.87   34.10
   1   5   0  360.66   34.90
  -2  -5   0  387.66   38.60
  -2  -5   0  385.46   42.10
   2   5   0  336.77   34.80
   2   5   0  390.56   37.10
   2   5   0  320.37   35.10
  -3  -5   0   95.29   24.30
  -3  -5   0   82.59   22.80
   3   5   0   78.19   21.60
   3   5   0  165.58   30.80
  -4  -5   0   -3.40   12.50
   4   5   0   18.90   14.60
   4   5   0   10.30   17.00
  -2   6   0  -12.80   15.30
  -2   6   0   -1.40   15.10
  -2   6   0   24.60   19.40
  -1   6   0  246.58   31.60
  -1   6   0  212.48   29.20
   0  -6   0   30.60   16.70
   0   6   0   55.29   16.70
   0   6   0   50.29   17.60
  -1  -6   0   43.50   20.00
  -1  -6   0   52.79   19.90
   1   6   0   46.00   18.10
   1   6   0   31.20   14.90
  -2  -6   0   71.19   22.10
   2   6   0   27.20   16.50
   2   6   0    7.00   14.60
   3   6   0  243.88   34.80
   3   6  -1   57.39   21.00
   3   6  -1   73.89   23.50
   2   6  -1   82.59   22.70
   2   6  -1   81.99   21.70
  -2  -6   1   95.29   25.80
   1   6  -1   10.00   13.20
   1   6  -1   29.20   15.20
  -1  -6   1   22.70   15.20
   0   6  -1   39.00   18.30
   0   6  -1    5.20   11.80
  -1   6  -1   15.80   14.50
  -1   6  -1    3.60   11.60
  -1   6  -1   -6.60   17.00
  -2   6  -1    6.00   10.60
  -2   6  -1   24.00   16.10
   4   5  -1   69.29   22.90
   4   5  -1   85.09   25.70
  -4  -5   1  101.29   26.50
   3   5  -1   57.09   18.70
   3   5  -1   35.10   17.00
  -3  -5   1   60.09   20.20
  -3  -5   1   25.40   14.10
   2   5  -1  118.69   25.60
   2   5  -1  154.78   27.30
   2   5  -1  127.49   26.00
  -2  -5   1  143.19   26.70
  -2  -5   1  164.38   28.00
  -2  -5   1  131.79   24.80
   1   5  -1  817.22   49.00
   1   5  -1  809.22   53.39
   1   5  -1  822.42   53.69
  -1  -5   1  890.31   56.19
  -1  -5   1  756.42   45.80
   0   5  -1   43.10   13.50
   0   5  -1    8.40   11.00
   0   5  -1   51.79   16.00
   0   5  -1    6.10   10.30
   0  -5   1   33.80   13.70
   0  -5   1   33.60   14.40
  -1   5  -1   52.39   15.50
  -1   5  -1   77.79   21.60
  -1   5  -1   60.49   14.20
  -1   5  -1   63.69   18.10
  -1   5  -1   79.59   20.90
  -1   5  -1   52.29   17.40
  -1   5  -1   70.89   17.30
  -2   5  -1    3.80    9.10
  -2   5  -1   23.80   13.30
  -2   5  -1   27.80   13.80
  -2   5  -1   13.50   11.30
  -2   5  -1   30.90   13.60
  -2   5  -1    4.20   14.30
  -2   5  -1   23.10   11.90
  -3   5  -1  163.28   32.10
  -3   5  -1  131.49   28.60
   4   4  -1  202.18   47.00
   4   4  -1  223.78   29.30
   4   4  -1  217.58   31.70
  -4  -4   1  206.88   26.60
  -4  -4   1  141.69   30.40
   3   4  -1  179.88   25.30
   3   4  -1  201.48   26.90
   3   4  -1  158.78   23.30
  -3  -4   1  148.89   25.80
  -3  -4   1  161.48   23.50
  -3  -4   1  135.69   26.30
   2   4  -1  607.14   40.00
   2   4  -1  534.55   38.00
   2   4  -1  554.14   40.60
  -2  -4   1  590.04   40.40
  -2  -4   1  624.34   39.50
  -2  -4   1  584.74   40.70
   1   4  -1   49.70   14.00
   1   4  -1   47.70   13.00
   1   4  -1   27.00   12.00
  -1  -4   1   41.90   13.70
  -1  -4   1   65.19   14.10
  -1  -4   1   39.40   13.50
   0   4  -1  381.46   20.20
   0   4  -1  368.16   30.50
   0   4  -1  348.97   29.40
   0   4  -1  385.86   20.30
   0   4  -1  377.56   28.70
   0   4  -1  359.06   30.00
   0  -4   1  439.36   32.80
   0  -4   1  338.17   26.90
  -1   4  -1   31.50   12.20
  -1   4  -1   33.50   11.70
  -1   4  -1   25.40   10.00
  -1   4  -1   36.50   12.30
  -1   4  -1   41.60   13.40
  -1   4  -1   32.10    8.80
  -1   4  -1   33.90    9.70
  -2   4  -1  266.87   27.10
  -2   4  -1  281.97   27.60
  -2   4  -1  259.27   27.20
  -2   4  -1  262.67   26.60
  -2   4  -1  295.27   31.30
  -2   4  -1  253.17   25.90
  -2   4  -1  264.27   28.80
  -2   4  -1  273.57   29.20
  -3   4  -1  166.18   29.10
  -3   4  -1  156.18   32.40
  -3   4  -1  189.98   23.30
  -3   4  -1  155.68   29.50
  -3   4  -1  143.69   30.20
   5   3  -1   37.40   19.20
   4   3  -1   89.69   18.70
   4   3  -1  106.19   26.30
   4   3  -1  102.69   21.60
  -4  -3   1   71.89   21.00
  -4  -3   1   90.29   18.60
  -4  -3   1   67.19   16.40
   3   3  -1  136.69   19.40
   3   3  -1  149.88   21.00
   3   3  -1  146.89   25.20
  -3  -3   1  129.49   17.70
  -3  -3   1  145.59   20.50
  -3  -3   1  123.59   12.30
  -3  -3   1   94.19   18.20
  -3  -3   1  134.09   12.80
   2   3  -1  999.80   46.10
   2   3  -1  996.30   48.20
   2   3  -1 1001.50   47.20
  -2  -3   1  897.11   45.30
  -2  -3   1  955.30   45.20
  -2  -3   1  918.81   45.30
   1   3  -1  556.54   30.50
   1   3  -1  576.54   33.60
   1   3  -1  555.14   33.70
  -1  -3   1  627.14   35.30
  -1  -3   1  532.15   32.60
  -1  -3   1  606.64   31.30
   0   3  -1 2588.84   60.59
   0   3  -1 2512.75   77.99
   0   3  -1 2584.24   78.29
   0   3  -1 2548.05   60.29
   0  -3   1 2539.55   78.69
   0  -3   1 2576.04   72.39
  -1   3  -1   15.30    7.30
  -1   3  -1    0.60    3.60
  -1   3  -1    3.50    5.40
  -1   3  -1   10.60    6.70
  -1   3  -1    6.60    6.00
  -1   3  -1   12.20    6.70
  -1   3  -1    7.50    7.20
  -2   3  -1  359.96   28.90
  -2   3  -1  352.46   29.50
  -2   3  -1  310.87   26.30
  -2   3  -1  330.27   25.40
  -2   3  -1  390.96   27.80
  -2   3  -1  364.96   27.30
  -2   3  -1  381.96   27.50
  -3   3  -1   22.00   14.70
  -3   3  -1   27.40    8.40
  -3   3  -1   15.00    9.90
  -3   3  -1   34.10   11.30
  -3   3  -1   34.10   11.30
  -3   3  -1   55.79   16.40
   3  -3   1   48.90   16.70
  -4   3  -1  112.69   24.70
   4  -3   1  133.09   29.10
   5   2  -1   22.60   16.30
  -5  -2   1   20.70   15.60
   4   2  -1   20.70   11.00
   4   2  -1   20.00    9.40
   4   2  -1   19.30   12.80
  -4  -2   1   12.30    9.50
  -4  -2   1    4.80    7.20
  -4  -2   1   26.00   10.00
  -4  -2   1   14.40    7.70
  -4  -2   1   29.60   14.40
   3   2  -1  933.71   40.00
   3   2  -1  967.30   50.99
   3   2  -1  915.71   44.70
  -3  -2   1 1002.60   50.99
  -3  -2   1  931.61   38.90
  -3  -2   1  910.01   44.00
  -3  -2   1  952.60   40.70
   2   2  -1  409.46   24.40
   2   2  -1  417.76   26.60
   2   2  -1  392.26   26.40
  -2  -2   1  396.56   26.20
  -2  -2   1  366.26   17.10
  -2  -2   1  393.86   17.90
  -2  -2   1  341.57   30.70
  -2  -2   1  385.86   25.30
   1   2  -1  687.23   33.40
   1   2  -1  624.74   28.00
   1   2  -1  660.13   14.20
   1   2  -1  708.53   31.50
  -1  -2   1  681.93   31.20
  -1  -2   1  644.04   28.30
  -1  -2   1  657.23   31.00
   0   2  -1  223.78   11.90
   0   2  -1  236.88   17.40
   0   2  -1  232.98   17.00
   0   2  -1  226.58   14.80
   0  -2   1  245.28   17.70
   0  -2   1  252.97   15.60
   0  -2   1  240.48   17.00
  -1   2  -1  236.78   16.90
  -1   2  -1  222.98   17.50
  -1   2  -1  239.78   17.80
  -1   2  -1  241.38   17.40
  -1   2  -1  237.38   17.00
  -1   2  -1  237.88   17.10
  -2   2  -1  937.41   44.00
  -2   2  -1 1007.70   38.70
  -2   2  -1 1024.20   39.80
  -2   2  -1  973.60   45.70
  -2   2  -1  995.20   45.30
  -2   2  -1 1061.09   40.00
   2  -2   1  925.51   38.10
   2  -2   1  963.70   45.50
  -3   2  -1  494.55   36.70
  -3   2  -1  479.95   36.40
  -3   2  -1  461.45   28.10
  -3   2  -1  495.25   36.00
  -3   2  -1  469.65   37.70
  -3   2  -1  476.75   26.40
   3  -2   1  444.66   27.80
   3  -2   1  502.15   37.70
  -4   2  -1  293.07   35.30
  -4   2  -1  370.76   36.70
   4  -2   1  307.57   34.00
  -5   2  -1   79.49   23.90
   5  -2   1   11.40   15.80
   5   1  -1   30.50   12.80
  -5  -1   1  -12.00   11.70
  -5  -1   1    0.30   14.50
   4   1  -1  145.89   28.10
   4   1  -1   95.39   17.90
  -4  -1   1  104.49   19.90
  -4  -1   1  100.79   11.00
  -4  -1   1  104.79   18.40
  -4  -1   1   90.79   18.90
  -4  -1   1   98.49   25.80
   3   1  -1 1276.47   49.40
   3   1  -1 1202.08   56.09
   3   1  -1 1196.08   38.90
  -3  -1   1 1201.78   38.80
  -3  -1   1 1202.18   48.50
  -3  -1   1 1187.98   56.09
  -3  -1   1 1267.57   49.20
  -3  -1   1 1227.28   48.50
   2   1  -1 1226.88   42.70
   2   1  -1 1176.78   35.80
   2   1  -1 1240.98   47.60
  -2  -1   1 1181.28   39.30
  -2  -1   1 1192.88   36.50
  -2  -1   1 1197.18   46.40
  -2  -1   1 1245.38   42.90
   1   1  -1 2286.67   49.00
   1   1  -1 2393.16   58.79
   1   1  -1 2370.66   55.59
   1   1  -1 2472.85   58.09
  -1  -1   1 2399.86   57.69
  -1  -1   1 2373.46   55.79
  -1  -1   1 2383.56   58.49
  -1  -1   1 2299.27   49.30
   0   1  -1  789.72   25.80
   0   1  -1  787.02   25.00
   0   1  -1  786.72   20.70
   0   1  -1  800.02   21.60
   0  -1   1  798.92   25.80
   0  -1   1  804.62   25.10
   0  -1   1  791.02   20.70
   0  -1   1  783.02   21.40
  -1   1  -1 9845.01  184.98
   1  -1   1 9643.33  184.28
   1  -1   1 9999.00  177.08
  -2   1  -1  851.31   38.40
  -2   1  -1  935.61   32.10
  -2   1  -1  861.61   30.00
  -2   1  -1  820.42   37.80
  -2   1  -1  809.02   38.70
   2  -1   1  821.22   29.20
   2  -1   1  836.42   29.40
   2  -1   1  880.01   39.90
  -3   1  -1   64.49   12.30
  -3   1  -1   36.10   12.60
  -3   1  -1   42.20   13.40
  -3   1  -1   61.29   14.80
   3  -1   1   40.60    8.70
   3  -1   1   54.19    9.40
   3  -1   1   34.30   11.50
  -4   1  -1   50.49   13.30
  -4   1  -1   25.50   14.90
  -4   1  -1   55.79   16.30
   4  -1   1   43.50   11.10
   4  -1   1   50.29   16.10
  -5   1  -1  137.99   26.90
   5  -1   1  109.39   27.40
   5   0  -1   85.79   21.80
  -5   0   1   90.89   23.90
   4   0  -1  240.18   22.90
   4   0  -1  263.17   29.00
  -4   0   1  223.58   25.40
  -4   0   1  275.47   28.20
  -4   0   1  239.28   30.90
  -4   0   1  222.58   23.00
   3   0  -1  223.28   19.50
   3   0  -1  219.78   23.40
   3   0  -1  194.18    9.80
  -3   0   1  207.78   20.50
  -3   0   1  205.68   22.70
  -3   0   1  187.08   20.30
  -3   0   1  186.18    9.20
  -3   0   1  187.18   18.00
   2   0  -1 1273.47   44.60
   2   0  -1 1313.27   48.90
   2   0  -1 1230.98   42.00
   2   0  -1 1257.57   28.40
  -2   0   1 1262.87   48.40
  -2   0   1 1302.17   42.60
  -2   0   1 1297.57   46.00
  -2   0   1 1241.58   27.70
   1   0  -1 1500.05   40.00
   1   0  -1 1653.63   43.50
   1   0  -1 1529.35   40.60
  -1   0   1 1540.85   40.50
  -1   0   1 1544.35   28.80
  -1   0   1 1583.74   40.90
  -1   0   1 1617.94   43.50
  -1   0  -1   31.80    5.40
  -1   0  -1   29.00    4.00
  -1   0  -1   36.20    7.20
  -1   0  -1   29.00    5.80
   1   0   1   34.30    5.60
   1   0   1   28.50    5.90
   1   0   1   34.70    7.20
  -2   0  -1 1093.79   31.30
  -2   0  -1 1071.39   43.50
  -2   0  -1 1070.99   32.70
  -2   0  -1 1074.89   40.40
   2   0   1 1100.59   45.30
   2   0   1 1052.79   33.20
   2   0   1 1023.30   31.00
  -3   0  -1  427.86   32.20
  -3   0  -1  433.46   29.80
  -3   0  -1  455.15   30.70
  -3   0  -1  470.65   22.20
  -3   0  -1  459.35   23.10
   3   0   1  451.65   23.50
   3   0   1  463.25   22.80
   3   0   1  489.35   34.50
  -4   0  -1  329.47   19.30
  -4   0  -1  293.37   29.70
  -4   0  -1  321.47   29.40
  -4   0  -1  272.57   32.60
  -4   0  -1  296.47   21.00
   4   0   1  266.67   31.30
   4   0   1  273.17   22.70
  -5   0  -1  -10.40   10.00
   5   0   1   22.70   10.70
   5  -1  -1  214.08   31.10
  -5   1   1  144.59   29.80
   4  -1  -1  578.54   45.20
   4  -1  -1  546.95   35.80
  -4   1   1  521.15   44.70
  -4   1   1  609.14   43.50
  -4   1   1  486.95   38.20
   3  -1  -1   32.90   12.30
   3  -1  -1   42.60   10.90
  -3   1   1   26.90   10.10
  -3   1   1   34.70    3.20
  -3   1   1   45.10   13.20
  -3   1   1   15.50    9.30
  -3   1   1   42.30   13.50
   2  -1  -1 1637.04   51.09
   2  -1  -1 1597.24   57.39
  -2   1   1 1601.94   35.20
  -2   1   1 1626.24   51.09
  -2   1   1 1520.25   57.19
  -2   1   1 1507.65   54.19
  -2   1   1 1613.54   35.90
   1  -1  -1  239.98   15.00
   1  -1  -1  234.18   10.80
   1  -1  -1  251.47   16.70
   1  -1  -1  241.88   15.60
  -1   1   1  249.38   15.90
  -1   1   1  236.38   10.90
  -1   1   1  231.98   14.60
  -1   1   1  231.48   16.10
   0  -1  -1 2608.14   52.29
   0  -1  -1 2625.44   58.59
   0  -1  -1 2655.43   57.19
   0  -1  -1 2819.02   58.79
   0   1   1 2649.24   56.99
   0   1   1 2649.14   52.69
   0   1   1 2570.74   58.39
   0   1   1 2540.75   57.49
  -1  -1  -1 1007.60   26.50
  -1  -1  -1  978.90   33.70
  -1  -1  -1 1014.30   32.00
  -1  -1  -1 1021.30   29.40
   1   1   1  966.00   26.00
   1   1   1 1017.20   29.60
   1   1   1 1014.50   32.00
   1   1   1 1070.39   35.10
  -2  -1  -1 1660.23   57.59
  -2  -1  -1 1701.13   46.80
  -2  -1  -1 1693.43   49.30
  -2  -1  -1 1681.23   48.70
   2   1   1 1732.83   49.80
   2   1   1 1784.62   58.99
   2   1   1 1716.53   46.60
  -3  -1  -1  119.49   14.50
  -3  -1  -1   93.59   11.60
  -3  -1  -1   89.49   18.10
  -3  -1  -1   92.89   16.00
  -3  -1  -1   93.89   11.60
   3   1   1   94.69   19.40
   3   1   1   88.09   11.60
  -4  -1  -1   30.40   10.00
  -4  -1  -1   37.10   17.40
  -4  -1  -1   47.50   10.80
  -4  -1  -1   14.60   12.70
  -4  -1  -1   37.50   12.40
   4   1   1   39.60   16.10
   4   1   1   36.80   10.40
   4   1   1   35.40    9.80
  -5  -1  -1   59.19   18.70
  -5  -1  -1   41.10   13.50
   5   1   1   54.19   15.40
   5  -2  -1   71.59   28.20
  -5   2   1   94.09   26.90
   4  -2  -1   21.00    9.90
   4  -2  -1   -1.50    9.30
  -4   2   1   -3.20   10.50
   3  -2  -1  113.49   22.80
   3  -2  -1  127.29   17.70
  -3   2   1  135.39   18.10
  -3   2   1  159.98   21.10
  -3   2   1  133.89   11.90
  -3   2   1  103.19    9.70
  -3   2   1  107.09   21.70
  -3   2   1  145.09   20.90
   2  -2  -1  370.96   27.80
   2  -2  -1  377.06   25.30
  -2   2   1  380.66   25.70
  -2   2   1  390.56   20.10
  -2   2   1  389.56   27.80
  -2   2   1  344.87   27.80
  -2   2   1  378.36   19.70
   1  -2  -1 4242.88   94.49
   1  -2  -1 4268.97   98.49
   1  -2  -1 4279.67  101.09
  -1   2   1 4291.87   98.69
  -1   2   1 4242.88   94.69
  -1   2   1 4389.66  106.69
  -1   2   1 4249.77  101.19
   0  -2  -1 2395.66   64.99
   0  -2  -1 2449.66   54.09
   0  -2  -1 2477.95   65.19
   0   2   1 2519.65   66.09
   0   2   1 2366.66   64.89
   0   2   1 2416.26   64.19
   0   2   1 2434.56   54.09
  -1  -2  -1 1111.99   27.60
  -1  -2  -1 1189.28   43.20
  -1  -2  -1 1209.38   43.40
  -1  -2  -1 1203.58   41.50
   1   2   1 1229.88   42.10
   1   2   1 1262.57   44.10
   1   2   1 1200.58   42.80
   1   2   1 1209.78   25.50
  -2  -2  -1 1849.91   47.00
  -2  -2  -1 1754.22   57.79
  -2  -2  -1 1841.32   56.49
   2   2   1 1795.82   63.49
   2   2   1 1778.82   57.79
  -3  -2  -1  481.75   35.30
  -3  -2  -1  464.65   28.10
  -3  -2  -1  541.15   28.60
  -3  -2  -1  492.35   29.60
  -3  -2  -1  499.25   27.20
   3   2   1  414.46   32.10
   3   2   1  542.45   30.40
   3   2   1  511.35   37.20
  -4  -2  -1   35.70   12.70
  -4  -2  -1   46.50   14.10
  -4  -2  -1   47.60   12.20
  -4  -2  -1   41.10   11.80
  -4  -2  -1   50.09   16.30
   4   2   1   49.40   13.50
   4   2   1   47.60   16.60
   4   2   1   26.40   11.30
  -5  -2  -1  118.79   23.80
   5   2   1  104.59   27.60
   4  -3  -1  115.99   29.60
   4  -3  -1   84.19   20.90
  -4   3   1  131.69   26.50
   3  -3  -1  280.17   27.60
  -3   3   1  228.08   29.80
  -3   3   1  290.27   30.10
  -3   3   1  257.97   27.50
  -3   3   1  271.37   27.30
  -3   3   1  270.97   21.90
   2  -3  -1   61.89   13.90
  -2   3   1   61.19   13.80
  -2   3   1   67.89   14.20
  -2   3   1   50.29   12.40
  -2   3   1   78.39   11.40
  -2   3   1   33.90   11.00
  -2   3   1   48.50   14.10
  -2   3   1   82.39   16.30
   1  -3  -1  620.84   33.00
  -1   3   1  640.14   33.50
  -1   3   1  715.53   37.50
  -1   3   1  671.63   37.80
  -1   3   1  708.03   33.90
  -1   3   1  681.93   38.40
   0  -3  -1  312.37   23.30
   0  -3  -1  377.96   26.00
   0   3   1  298.97   23.50
   0   3   1  336.47   24.70
   0   3   1  290.87   27.20
   0   3   1  325.87   17.10
   0   3   1  334.57   24.70
  -1  -3  -1  216.08   20.80
  -1  -3  -1  199.58   36.40
   1   3   1  213.08   20.10
   1   3   1  190.18   19.20
   1   3   1  194.38   18.90
  -2  -3  -1   80.89    5.70
  -2  -3  -1  105.89   14.80
  -2  -3  -1   82.89   17.10
  -2  -3  -1   85.19   16.50
  -2  -3  -1   85.29    6.00
   2   3   1   68.59   15.80
   2   3   1   75.49   15.50
   2   3   1   98.29   17.60
  -3  -3  -1 1416.76   66.09
  -3  -3  -1 1431.36   58.89
  -3  -3  -1 1460.95   44.60
  -3  -3  -1 1434.76   61.19
   3   3   1 1489.35   68.19
   3   3   1 1486.35   60.89
   3   3   1 1442.86   59.89
  -4  -3  -1   56.69   13.10
  -4  -3  -1   46.20   13.10
  -4  -3  -1   25.50   13.90
  -4  -3  -1   62.59   15.90
   4   3   1   61.79   16.70
   4   3   1   48.70   15.40
   4   3   1   71.19   19.80
   5   3   1  201.18   36.90
  -4   4   1   90.39   28.90
  -3   4   1   37.80   16.90
  -3   4   1   29.80   14.60
  -3   4   1   26.30   12.80
  -2   4   1   34.20   11.10
  -2   4   1   30.10   12.10
  -2   4   1   29.20   15.70
  -2   4   1   35.50   14.40
  -2   4   1   11.30    9.30
  -2   4   1   17.70    8.50
  -2   4   1   34.70   14.90
   1  -4  -1    0.50    6.90
  -1   4   1  -10.10    4.80
  -1   4   1    0.30    5.60
  -1   4   1   -4.00    7.10
  -1   4   1   -1.60    4.50
  -1   4   1   -5.70    5.80
  -1   4   1   -2.10    6.70
   0  -4  -1  655.63   40.60
   0  -4  -1  646.24   39.00
   0   4   1  630.94   40.30
   0   4   1  607.24   38.50
   0   4   1  670.13   41.10
   0   4   1  550.64   37.00
   0   4   1  640.74   27.60
   0   4   1  667.03   27.20
  -1  -4  -1   17.00    9.10
  -1  -4  -1   11.80    8.30
   1   4   1    1.10    8.00
   1   4   1   25.70   11.10
   1   4   1   22.30   11.00
   1   4   1   13.10   10.00
  -2  -4  -1  757.02   45.80
  -2  -4  -1  778.72   47.50
  -2  -4  -1  746.23   45.20
   2   4   1  808.92   48.40
   2   4   1  774.12   46.00
   2   4   1  820.42   47.80
  -3  -4  -1   10.20   10.10
  -3  -4  -1    9.90    9.00
  -3  -4  -1   44.60   18.10
   3   4   1   35.80   13.30
   3   4   1   38.90   15.50
   3   4   1    7.30   14.20
  -4  -4  -1   46.50   16.50
  -4  -4  -1   42.30   14.30
   4   4   1   66.09   19.10
   4   4   1   69.89   23.70
   4   4   1   21.20   16.10
   5   4   1   34.40   18.90
  -3   5   1    7.00   14.90
  -3   5   1   30.30   14.00
  -3   5   1    9.20   14.10
  -2   5   1   22.00   15.30
  -2   5   1   33.90   13.50
  -2   5   1   17.30   24.00
  -2   5   1   15.90   13.40
  -2   5   1    2.80   12.10
  -1   5   1   33.80   14.60
  -1   5   1   52.19   14.60
  -1   5   1   45.30   18.40
  -1   5   1   40.20   11.70
  -1   5   1   40.40   15.80
  -1   5   1   19.00   12.20
   0  -5  -1  221.58   26.10
   0  -5  -1  261.27   30.10
   0   5   1  230.08   26.30
   0   5   1  206.58   26.30
   0   5   1  223.48   26.60
   0   5   1  245.38   27.50
   0   5   1  230.08   26.90
  -1  -5  -1  163.18   23.20
  -1  -5  -1  164.58   23.90
   1   5   1  162.68   28.00
   1   5   1  134.39   24.70
   1   5   1  153.88   22.90
   1   5   1  145.49   20.70
  -2  -5  -1  316.97   33.10
  -2  -5  -1  338.57   35.70
   2   5   1  333.57   34.40
   2   5   1  319.97   33.80
   2   5   1  321.07   34.10
  -3  -5  -1   19.60   12.50
   3   5   1   11.70   13.00
   3   5   1    2.70   13.40
  -4  -5  -1   97.99   24.80
   4   5   1  135.89   32.30
   4   5   1  121.99   27.80
  -2   6   1   20.40   14.40
  -2   6   1  -13.60   15.60
  -1   6   1   56.39   20.20
  -1   6   1    7.90   12.40
   0  -6  -1   11.30   13.60
   0   6   1    1.20   10.90
   0   6   1    5.50   12.50
  -1  -6  -1  110.69   27.50
  -1  -6  -1   82.29   25.80
   1   6   1   84.09   23.20
   1   6   1  125.19   27.20
  -2  -6  -1   69.69   21.70
   2   6   1   23.90   17.10
   2   6   1   78.59   21.30
   3   6   1   66.79   23.80
   3   6   1   64.19   20.90
   3   6  -2  106.69   28.90
  -3  -6   2  128.89   32.50
   2   6  -2   21.30   13.70
  -2  -6   2   10.90   14.40
   1   6  -2   -8.50    8.50
   0   6  -2  433.06   43.20
  -1   6  -2    5.70   18.70
  -1   6  -2    4.10   12.80
   4   5  -2   22.00   16.10
   4   5  -2    9.70   18.00
  -4  -5   2   18.60   14.10
   3   5  -2  285.47   34.50
   3   5  -2  410.66   37.70
  -3  -5   2  318.47   36.00
  -3  -5   2  375.66   37.40
   2   5  -2   80.09   20.30
   2   5  -2   83.49   25.90
   2   5  -2   65.39   17.10
  -2  -5   2   88.09   21.70
  -2  -5   2  105.69   23.10
   1   5  -2  181.98   26.10
   1   5  -2  147.99   20.40
   1   5  -2  126.39   25.10
  -1  -5   2  148.59   21.20
  -1  -5   2  178.58   25.70
   0   5  -2  106.89   22.70
   0   5  -2  101.99   22.00
   0   5  -2  149.69   26.60
   0   5  -2  158.08   20.30
  -1   5  -2  216.78   26.20
  -1   5  -2  213.88   27.40
  -1   5  -2  203.88   26.90
  -1   5  -2  269.37   29.70
  -1   5  -2  266.07   24.80
  -1   5  -2  206.58   23.80
  -1   5  -2  267.67   34.00
  -2   5  -2  -10.30   10.70
  -2   5  -2    7.40   11.80
  -2   5  -2    4.20    9.70
  -2   5  -2    5.30   11.50
  -2   5  -2    2.10   10.60
  -2   5  -2    6.40   10.80
  -3   5  -2   68.59   21.90
  -3   5  -2   91.39   23.50
   4   4  -2   76.99   23.30
   4   4  -2   83.09   22.40
  -4  -4   2   41.30   14.70
   3   4  -2  181.48   24.90
   3   4  -2  173.28   23.30
   3   4  -2  143.19   26.90
  -3  -4   2  138.29   24.20
  -3  -4   2  163.08   23.70
  -3  -4   2  131.09   24.20
   2   4  -2   51.79   15.20
   2   4  -2   98.19   20.40
   2   4  -2  107.79   21.50
  -2  -4   2   78.69   16.40
  -2  -4   2   38.00   15.20
  -2  -4   2   78.49   18.00
   1   4  -2  679.23   43.50
   1   4  -2  687.13   37.80
   1   4  -2  681.23   42.80
  -1  -4   2  630.74   42.10
  -1  -4   2  626.64   35.80
  -1  -4   2  671.73   42.80
   0   4  -2   65.09    9.30
   0   4  -2   30.40   11.20
   0   4  -2   40.90   11.90
   0   4  -2   67.09   16.30
   0   4  -2   56.49    9.80
   0  -4   2   43.90   10.70
  -1   4  -2  191.48   22.80
  -1   4  -2  186.98   26.00
  -1   4  -2  177.88   19.00
  -1   4  -2  180.38   21.10
  -1   4  -2  173.08   21.00
  -1   4  -2  198.38   23.90
  -1   4  -2  186.88   20.70
  -1   4  -2  193.78   19.30
  -2   4  -2  104.89   20.90
  -2   4  -2   99.79   19.60
  -2   4  -2  138.89   20.00
  -2   4  -2  117.29   21.60
  -2   4  -2  100.49   19.90
  -2   4  -2   85.09   17.50
  -2   4  -2  111.89   22.80
  -2   4  -2   81.39   18.70
  -3   4  -2    6.80    8.10
  -3   4  -2   -5.20   10.90
  -3   4  -2    6.80   12.10
  -3   4  -2    8.60   12.60
  -3   4  -2    1.60   10.50
   5   3  -2   19.90   15.10
   5   3  -2   15.60   15.60
   4   3  -2  122.79   24.30
   4   3  -2  124.39   27.70
  -4  -3   2   99.49   21.10
  -4  -3   2  102.39   18.70
  -4  -3   2   66.69   21.40
   3   3  -2   57.99   17.10
   3   3  -2   31.70   13.40
   3   3  -2   56.79   14.50
  -3  -3   2   50.19   15.90
  -3  -3   2   64.29   10.70
  -3  -3   2   40.40   12.20
  -3  -3   2   24.90   11.20
   2   3  -2  754.72   40.50
   2   3  -2  843.92   41.90
   2   3  -2  837.62   44.90
  -2  -3   2  742.43   42.20
  -2  -3   2  812.22   41.00
  -2  -3   2  849.12   43.60
  -2  -3   2  833.22   22.90
   1   3  -2  212.08    9.10
   1   3  -2  182.78   19.60
   1   3  -2  209.48   21.50
   1   3  -2  201.08   21.80
  -1  -3   2  237.18   21.90
  -1  -3   2  228.18   12.40
  -1  -3   2  182.48   16.60
  -1  -3   2  201.08   20.80
   0   3  -2   48.80   11.90
   0   3  -2   70.39    8.50
   0   3  -2   78.09   14.30
   0   3  -2   68.39   10.50
   0  -3   2   67.89   10.10
   0  -3   2   70.49   13.50
  -1   3  -2  134.39   14.80
  -1   3  -2  159.28   19.20
  -1   3  -2  162.28   16.50
  -1   3  -2  144.99   17.00
  -1   3  -2  137.79   16.10
  -1   3  -2  143.49   16.30
  -1   3  -2  132.99   16.80
  -2   3  -2  139.09   17.10
  -2   3  -2  206.88   23.30
  -2   3  -2  172.88   19.70
  -2   3  -2  171.58   20.90
  -2   3  -2  163.38   19.90
  -2   3  -2  170.88   21.00
  -2   3  -2  176.38   17.90
  -3   3  -2  309.87   31.80
  -3   3  -2  315.97   25.20
  -3   3  -2  296.57   26.00
  -3   3  -2  349.87   27.30
  -3   3  -2  310.07   31.60
  -3   3  -2  281.87   28.00
  -3   3  -2  305.37   32.30
   3  -3   2  324.97   33.00
  -4   3  -2   75.79   25.20
   4  -3   2   73.59   20.80
   5   2  -2  185.78   33.50
  -5  -2   2  213.38   28.90
   4   2  -2  355.46   35.50
   4   2  -2  328.17   30.20
  -4  -2   2  316.47   23.50
  -4  -2   2  352.16   28.90
  -4  -2   2  358.56   31.20
  -4  -2   2  336.67   27.10
  -4  -2   2  319.37   34.10
   3   2  -2   28.60    9.60
   3   2  -2   18.30    9.40
   3   2  -2   36.90   12.90
  -3  -2   2   16.30    7.40
  -3  -2   2   31.10   12.20
  -3  -2   2    8.80    6.50
  -3  -2   2   19.60    9.90
   2   2  -2 2362.36   67.79
   2   2  -2 2365.96   73.89
   2   2  -2 2303.17   56.89
   2   2  -2 2350.96   71.89
  -2  -2   2 2398.26   71.59
  -2  -2   2 2431.36   74.29
  -2  -2   2 2224.28   72.29
  -2  -2   2 2369.66   58.19
   1   2  -2 1207.08   39.30
   1   2  -2 1176.78   44.70
   1   2  -2 1169.48   29.00
   1   2  -2 1192.08   43.50
  -1  -2   2 1159.18   44.00
  -1  -2   2 1178.88   38.80
  -1  -2   2 1180.48   44.50
  -1  -2   2 1188.18   29.30
   0   2  -2 2414.06   57.69
   0   2  -2 2418.36   56.19
   0   2  -2 2386.26   65.99
   0   2  -2 2491.35   68.49
   0  -2   2 2440.76   66.09
   0  -2   2 2426.96   55.99
   0  -2   2 2354.76   57.29
  -1   2  -2   77.19   12.80
  -1   2  -2   87.29   10.80
  -1   2  -2   87.99   10.50
  -1   2  -2   79.49   10.00
  -1   2  -2   66.89    9.40
   1  -2   2   79.19   10.60
  -2   2  -2 1808.72   65.39
  -2   2  -2 2000.50   69.99
  -2   2  -2 1974.40   57.99
  -2   2  -2 2046.70   58.49
  -2   2  -2 2050.69   63.79
   2  -2   2 1995.20   67.89
  -3   2  -2  401.96   34.10
  -3   2  -2  486.15   36.80
  -3   2  -2  419.06   34.40
  -3   2  -2  426.06   28.30
  -3   2  -2  461.85   26.40
   3  -2   2  403.16   34.00
  -4   2  -2   -9.40   11.20
  -4   2  -2   -8.30   11.80
   4  -2   2   22.90   11.70
  -5   2  -2   14.50   16.70
   5  -2   2   -1.10   15.90
   5   1  -2  400.16   42.80
  -5  -1   2  226.28   59.39
  -5  -1   2  454.95   41.10
   4   1  -2   43.50   13.10
   4   1  -2   42.10   16.20
  -4  -1   2   19.40   14.60
  -4  -1   2   47.80   15.30
  -4  -1   2   88.89   18.30
   3   1  -2   83.59    9.60
   3   1  -2  115.29   20.70
   3   1  -2   97.89   17.80
  -3  -1   2   60.89   13.00
  -3  -1   2   99.69   10.20
  -3  -1   2   97.89   19.20
  -3  -1   2  117.59   15.60
   2   1  -2 3045.60   74.59
   2   1  -2 3159.18   84.39
   2   1  -2 3010.50   85.89
   2   1  -2 3091.79   69.19
  -2  -1   2 3052.89   81.19
  -2  -1   2 2982.50   74.99
  -2  -1   2 2997.90   82.79
  -2  -1   2 3022.20   69.69
   0   1  -2  157.68   11.30
   0   1  -2  168.68    7.20
   0   1  -2  167.68   10.30
   0   1  -2  180.58   12.80
   0  -1   2  172.48   10.30
   0  -1   2  164.58   11.30
   0  -1   2  163.48   10.80
  -1   1  -2 4106.19   92.69
  -1   1  -2 4223.18   83.09
  -1   1  -2 4242.58   92.39
  -1   1  -2 4170.08   83.19
  -1   1  -2 4083.19   89.19
   1  -1   2 4272.67   90.09
   1  -1   2 4283.37   91.59
   1  -1   2 4164.88   93.09
  -2   1  -2  214.38   12.80
  -2   1  -2  186.58   15.70
  -2   1  -2  153.98   16.40
   2  -1   2  193.38   18.20
   2  -1   2  196.68   18.50
   2  -1   2  200.48   15.10
   2  -1   2  196.88   12.00
  -3   1  -2  683.73   40.80
  -3   1  -2  697.43   32.10
  -3   1  -2  586.04   39.50
  -3   1  -2  632.34   26.90
  -3   1  -2  625.14   39.40
   3  -1   2  707.83   42.50
   3  -1   2  658.63   30.10
   3  -1   2  660.53   26.90
  -4   1  -2  175.18   24.60
  -4   1  -2  213.78   28.20
  -4   1  -2  197.68   23.60
   4  -1   2  198.18   26.80
  -5   1  -2  334.57   40.10
   5  -1   2  324.57   40.20
   5   0  -2   69.79   22.30
  -5   0   2   45.50   18.20
   4   0  -2  425.86   32.00
   4   0  -2  431.86   38.50
  -4   0   2  376.26   33.60
  -4   0   2  402.76   31.90
  -4   0   2  430.46   35.40
  -4   0   2  362.06   36.60
   3   0  -2  426.46   32.10
   3   0  -2  429.16   29.00
  -3   0   2  380.86   31.10
  -3   0   2  410.36   29.10
  -3   0   2  389.16   29.00
   2   0  -2  138.69   15.40
   2   0  -2  128.69   13.40
   2   0  -2  122.29   13.50
  -2   0   2  122.29   14.20
  -2   0   2  131.29   13.70
  -2   0   2  124.29   14.30
   1   0  -2 4808.82  100.39
   1   0  -2 4469.65   96.19
  -1   0   2 4735.73   98.49
  -1   0   2 4689.23   97.39
  -1   0   2 4924.11  100.59
   0   0  -2  156.68    9.40
   0   0  -2  143.59    8.80
   0   0   2  144.69    8.40
   0   0   2  166.28    9.50
  -1   0  -2 3326.67   73.49
  -1   0  -2 3345.57   73.09
  -1   0  -2 3340.87   72.99
   1   0   2 3186.88   72.69
   1   0   2 3245.28   72.69
   1   0   2 3322.87   72.89
  -2   0  -2  742.83   29.80
  -2   0  -2  740.23   35.40
  -2   0  -2  760.42   33.80
  -2   0  -2  765.82   20.80
   2   0   2  759.52   34.40
   2   0   2  713.43   29.60
   2   0   2  819.22   37.90
   2   0   2  790.52   21.50
  -3   0  -2 1839.42   47.30
  -3   0  -2 1840.52   71.19
  -3   0  -2 1899.91   55.89
  -3   0  -2 1911.51   67.89
   3   0   2 1839.92   71.29
   3   0   2 1759.22   55.39
   3   0   2 1872.11   48.40
  -4   0  -2   21.30   13.50
  -4   0  -2   30.70    9.60
  -4   0  -2   17.90   12.20
  -4   0  -2   36.20   13.30
   4   0   2   36.80    8.60
   4   0   2   37.80    9.20
   4   0   2   47.50   15.20
  -5   0  -2   76.79   22.90
   5   0   2  105.19   27.50
   5  -1  -2   22.50   18.10
  -5   1   2   38.70   19.60
   4  -1  -2   90.29   22.80
   4  -1  -2   75.59   16.40
  -4   1   2   72.89   18.00
  -4   1   2   81.49   18.70
  -4   1   2   61.09   21.00
  -4   1   2  123.69   22.30
   3  -1  -2   61.09   12.90
   3  -1  -2   45.70   14.40
  -3   1   2   50.39   12.80
  -3   1   2   57.49   13.90
  -3   1   2   45.10   14.70
   2  -1  -2  174.38   17.70
   2  -1  -2  149.09   20.60
  -2   1   2  137.09   14.90
  -2   1   2  148.69   16.50
   1  -1  -2  259.57   17.90
   1  -1  -2  244.48   16.10
   1  -1  -2  266.17   11.50
   1  -1  -2  248.38   16.70
  -1   1   2  268.77   17.30
  -1   1   2  246.98   11.10
  -1   1   2  282.27   18.50
  -1   1   2  257.17   16.90
  -1  -1  -2  427.56   17.80
  -1  -1  -2  442.36   22.10
  -1  -1  -2  451.65   21.50
   1   1   2  446.36   17.90
   1   1   2  434.46   22.10
   1   1   2  433.36   17.20
   1   1   2  423.86   21.00
  -2  -1  -2  195.38   15.10
  -2  -1  -2  218.18   12.80
  -2  -1  -2  221.08   16.30
  -2  -1  -2  202.18   18.30
   2   1   2  220.48   16.70
   2   1   2  218.18   19.40
   2   1   2  211.38   15.30
   2   1   2  215.58   12.90
  -3  -1  -2  258.77   19.60
  -3  -1  -2  240.78   25.10
  -3  -1  -2  261.07   21.80
  -3  -1  -2  239.88   16.00
   3   1   2  268.07   26.20
   3   1   2  243.78   16.50
   3   1   2  268.57   20.80
  -4  -1  -2  398.86   31.90
  -4  -1  -2  330.97   24.20
  -4  -1  -2  411.66   32.00
  -4  -1  -2  366.96   35.00
   4   1   2  382.96   37.20
  -5  -1  -2  119.69   24.80
   5   1   2   76.29   23.20
   5  -2  -2   34.50   21.00
  -5   2   2   -0.70   15.80
   4  -2  -2   50.49   15.50
   4  -2  -2   67.49   19.70
  -4   2   2  102.69   21.10
  -4   2   2   83.09   20.80
   3  -2  -2   23.20   11.20
   3  -2  -2   46.00   15.10
  -3   2   2    7.40   10.40
  -3   2   2   35.30    5.10
  -3   2   2   40.50    6.10
  -3   2   2   39.90   13.50
  -3   2   2   26.10   10.30
   2  -2  -2  129.69   16.40
   2  -2  -2  115.19   19.90
   2  -2  -2  102.99   14.60
  -2   2   2   81.29    8.80
  -2   2   2  112.09   16.60
  -2   2   2   87.29   15.90
  -2   2   2  132.39   15.60
   1  -2  -2  118.79   12.60
   1  -2  -2  111.99   10.90
   1  -2  -2  105.89   12.70
  -1   2   2  102.69   12.60
  -1   2   2  103.39   13.20
  -1   2   2   96.49   10.20
  -1   2   2  110.29   14.40
  -1   2   2  100.59   12.40
   0  -2  -2  930.11   29.80
   0  -2  -2  949.80   37.80
   0  -2  -2 1013.50   37.90
   0  -2  -2  923.61   35.40
   0   2   2  960.90   35.80
   0   2   2  958.00   37.10
   0   2   2  944.71   37.80
   0   2   2  964.60   30.40
  -1  -2  -2 2670.23   72.19
  -1  -2  -2 2562.94   72.29
  -1  -2  -2 2583.44   55.49
   1   2   2 2697.23   69.29
   1   2   2 2460.95   66.79
   1   2   2 2600.14   73.09
   1   2   2 2589.54   55.09
   1   2   2 2653.03   71.79
  -2  -2  -2   53.99    7.80
  -2  -2  -2   70.99   14.70
  -2  -2  -2   81.29   10.40
  -2  -2  -2   53.79   11.50
   2   2   2   63.09   13.70
   2   2   2   47.70    9.80
   2   2   2   61.39   12.20
   2   2   2   61.19    7.80
  -3  -2  -2   35.30    9.30
  -3  -2  -2   54.39   12.70
  -3  -2  -2   36.30    9.40
  -3  -2  -2   48.50   15.00
   3   2   2   27.40   10.10
   3   2   2   59.59   12.50
   3   2   2   28.60   12.70
  -4  -2  -2  855.21   43.70
  -4  -2  -2  787.52   53.59
  -4  -2  -2  784.32   41.50
  -4  -2  -2  813.02   43.70
   4   2   2  720.93   41.60
   4   2   2  743.23   37.90
   4   2   2  819.42   53.89
  -5  -2  -2  171.88   27.40
   5   2   2  178.78   34.70
   4  -3  -2   67.39   24.70
  -4   3   2   85.29   22.50
   3  -3  -2  613.84   41.00
  -3   3   2  564.84   39.60
  -3   3   2  550.24   45.30
  -3   3   2  599.44   43.60
  -3   3   2  692.83   45.40
   2  -3  -2   68.49   15.30
  -2   3   2   74.79   11.20
  -2   3   2   89.29   16.60
  -2   3   2   50.89   15.00
  -2   3   2  102.89   20.90
  -2   3   2   82.49   16.80
   1  -3  -2  705.03   34.10
   1  -3  -2  723.83   35.10
   1  -3  -2  665.03   37.10
  -1   3   2  693.83   40.60
  -1   3   2  674.73   33.70
  -1   3   2  694.93   34.30
  -1   3   2  672.43   37.70
  -1   3   2  679.33   39.60
   0  -3  -2   88.69   15.50
   0  -3  -2  118.39   15.60
   0  -3  -2  118.49   10.80
   0   3   2  100.29   15.20
   0   3   2   98.69   18.10
   0   3   2  104.39   10.90
   0   3   2  114.89   14.80
  -1  -3  -2  796.82   40.60
  -1  -3  -2  798.32   22.70
  -1  -3  -2  816.02   40.60
   1   3   2  767.32   39.30
   1   3   2  784.22   38.50
   1   3   2  777.92   40.00
   1   3   2  839.22   23.00
   1   3   2  738.73   38.00
  -2  -3  -2  410.06   30.10
  -2  -3  -2  432.26   31.40
  -2  -3  -2  416.36   28.40
  -2  -3  -2  412.56   17.20
   2   3   2  413.16   28.70
   2   3   2  400.66   29.20
   2   3   2  483.35   33.70
  -3  -3  -2  672.93   29.50
  -3  -3  -2  676.33   30.10
  -3  -3  -2  638.84   44.30
  -3  -3  -2  708.23   38.80
  -3  -3  -2  738.73   42.90
   3   3   2  753.42   48.40
   3   3   2  721.63   42.00
   3   3   2  744.53   40.30
  -4  -3  -2   32.90   15.00
  -4  -3  -2   24.70   10.60
  -4  -3  -2   22.10   10.00
  -4  -3  -2   32.60   13.60
   4   3   2   44.50   17.30
   4   3   2   44.00   13.80
   4   3   2   47.60   14.00
   5   3   2  123.39   29.30
  -4   4   2   31.50   24.50
   3  -4  -2   55.29   18.30
  -3   4   2   10.80   12.60
  -3   4   2    3.30   13.40
  -3   4   2   35.10   14.40
   2  -4  -2  192.08   24.00
  -2   4   2  151.78   22.70
  -2   4   2  162.98   18.40
  -2   4   2  155.78   21.60
  -2   4   2  131.19   27.60
  -2   4   2  191.38   24.20
   1  -4  -2  430.76   31.40
  -1   4   2  398.56   30.20
  -1   4   2  403.26   33.40
  -1   4   2  419.56   29.10
  -1   4   2  405.96   35.20
  -1   4   2  388.16   33.30
   0  -4  -2   99.39   18.60
   0  -4  -2  187.28   21.80
   0   4   2  125.49   18.70
   0   4   2  165.58   19.90
   0   4   2  133.29   19.50
   0   4   2  153.38   14.40
   0   4   2  156.28   20.00
  -1  -4  -2 1320.97   60.89
  -1  -4  -2 1248.48   57.59
   1   4   2 1331.27   59.59
   1   4   2 1230.98   57.89
   1   4   2 1227.68   58.09
   1   4   2 1261.17   57.69
   1   4   2 1214.58   29.70
  -2  -4  -2   41.40   14.30
  -2  -4  -2   43.40   14.00
   2   4   2   15.10   10.50
   2   4   2   31.10   12.60
   2   4   2   13.80    8.30
  -3  -4  -2  242.68   47.40
  -3  -4  -2  183.28   25.90
   3   4   2   86.59   30.40
   3   4   2  181.08   26.80
   3   4   2  195.18   23.70
  -4  -4  -2   46.70   15.50
   4   4   2   24.40   16.40
   4   4   2   30.50   16.60
   5   4   2  127.29   32.10
  -3   5   2   61.99   21.20
  -3   5   2   85.19   26.20
  -2   5   2  480.35   45.10
  -2   5   2  421.96   36.50
  -2   5   2  348.07   31.40
  -2   5   2  403.26   39.30
   1  -5  -2   26.50   13.80
  -1   5   2   32.70   10.10
  -1   5   2    9.30    8.90
  -1   5   2   41.60   15.60
  -1   5   2   35.00   16.10
  -1   5   2   16.40   12.90
  -1   5   2   18.90   10.10
   0  -5  -2   -5.10    8.80
   0  -5  -2   27.30   13.60
   0   5   2   17.10   11.90
   0   5   2   33.20   14.40
   0   5   2    2.80    9.50
   0   5   2   21.10   12.30
  -1  -5  -2   75.29   21.00
  -1  -5  -2   74.49   20.20
   1   5   2   95.89   20.10
   1   5   2   72.09   21.50
   1   5   2   67.89   18.20
   1   5   2  127.39   25.90
  -2  -5  -2  429.16   39.00
  -2  -5  -2  448.66   40.80
   2   5   2  424.16   37.90
   2   5   2  558.64   44.30
   2   5   2  527.95   41.30
   2   5   2  361.16   35.90
  -3  -5  -2   31.80   15.10
   3   5   2   62.99   18.40
   3   5   2   49.60   18.80
  -4  -5  -2   29.90   16.10
   4   5   2   13.00   14.90
   4   5   2   33.10   19.00
  -2   6   2   33.70   17.90
   1  -6  -2   20.80   17.00
  -1   6   2   22.00   18.80
  -1   6   2   27.90   14.90
   0  -6  -2   50.59   20.90
   0   6   2   38.50   18.30
   0   6   2   84.89   21.50
  -1  -6  -2  114.69   27.30
   1   6   2  127.89   27.70
   1   6   2  154.18   31.10
  -2  -6  -2  402.06   42.60
   2   6   2  399.56   41.50
   2   6   2  431.46   43.80
   3   6   2   23.10   16.90
   3   6   2   11.80   19.20
   1   6  -3   78.19   21.80
   0   6  -3  135.99   30.80
   0   6  -3  117.99   27.10
  -1   6  -3   70.19   25.20
  -1   6  -3   24.40   16.90
   4   5  -3  168.88   38.80
   3   5  -3   35.10   15.80
   3   5  -3   64.49   20.80
  -3  -5   3   25.50   14.20
   2   5  -3  250.97   31.60
   2   5  -3  261.67   28.50
  -2  -5   3  255.97   31.60
   1   5  -3   15.90   11.30
   1   5  -3    5.30    8.10
   1   5  -3   16.20   11.50
  -1  -5   3   12.60   10.40
  -1  -5   3   10.00    9.30
   0   5  -3  134.59   25.60
   0   5  -3  135.29   25.60
   0   5  -3  231.88   32.00
   0   5  -3  156.48   21.00
   0   5  -3  230.08   28.70
  -1   5  -3   50.99   16.10
  -1   5  -3   61.99   16.30
  -1   5  -3   51.39   14.40
  -1   5  -3   35.60   17.70
  -1   5  -3   51.19   18.30
  -1   5  -3   56.19   16.00
  -2   5  -3   39.90   14.70
  -2   5  -3    7.00   16.50
  -2   5  -3   30.90   18.20
  -2   5  -3   22.10   12.60
  -3   5  -3   -9.60   15.20
   4   4  -3  103.29   25.10
   4   4  -3  128.59   29.00
  -4  -4   3  175.88   24.90
   3   4  -3  156.58   22.70
   3   4  -3  186.28   26.30
   3   4  -3  110.39   37.10
  -3  -4   3  147.49   27.60
  -3  -4   3  161.28   28.60
  -3  -4   3  113.19   23.50
   2   4  -3  147.39   20.10
   2   4  -3  161.28   22.50
  -2  -4   3  147.49   18.80
  -2  -4   3  170.28   23.60
   1   4  -3  726.13   37.40
   1   4  -3  617.64   42.70
   1   4  -3  669.13   43.70
   1   4  -3  639.74   20.00
  -1  -4   3  636.44   41.70
  -1  -4   3  564.14   48.50
   0   4  -3   21.80    8.70
   0   4  -3    3.90    8.00
   0   4  -3    9.20    9.90
   0   4  -3    8.30    8.70
   0   4  -3   20.00    6.20
   0  -4   3   21.60   10.70
  -1   4  -3  222.78   26.80
  -1   4  -3  190.38   20.30
  -1   4  -3  180.28   20.00
  -1   4  -3  182.08   21.80
  -1   4  -3  163.78   18.40
  -1   4  -3  138.09   16.80
  -1   4  -3  183.38   23.10
  -1   4  -3  134.59   24.10
  -2   4  -3  220.98   25.70
  -2   4  -3  186.88   23.50
  -2   4  -3  189.88   25.60
  -2   4  -3  228.88   24.20
  -2   4  -3  208.58   23.60
  -2   4  -3  219.88   25.70
  -2   4  -3  202.58   22.80
  -2   4  -3  205.78   22.90
  -3   4  -3  214.78   28.90
  -3   4  -3  247.98   33.20
  -3   4  -3  258.87   33.80
  -4   4  -3  -34.70   13.90
   5   3  -3   81.99   24.60
   5   3  -3   50.29   21.20
   4   3  -3   67.89   20.30
   4   3  -3  105.99   23.20
  -4  -3   3   51.29   18.00
  -4  -3   3   52.99   17.00
  -4  -3   3   55.59   14.20
   3   3  -3  209.28   22.30
   3   3  -3  224.58   26.40
   3   3  -3  216.08   26.10
  -3  -3   3  254.17   24.80
  -3  -3   3  215.78   25.70
  -3  -3   3  211.78   17.60
  -3  -3   3  221.58   25.30
   2   3  -3  220.48   21.80
   2   3  -3  234.08   23.80
   2   3  -3  245.48   13.00
   2   3  -3  254.27   22.40
  -2  -3   3  285.67   29.30
  -2  -3   3  224.78   13.30
  -2  -3   3  254.87   24.30
  -2  -3   3  244.68   23.00
   1   3  -3 1058.19   40.60
   1   3  -3 1042.00   30.20
   1   3  -3 1080.09   50.09
   1   3  -3 1093.59   49.20
  -1  -3   3 1099.39   30.60
  -1  -3   3 1110.29   40.90
  -1  -3   3 1078.09   49.20
   0   3  -3 1415.56   44.30
   0   3  -3 1423.56   58.89
   0   3  -3 1395.36   56.89
   0   3  -3 1431.26   46.20
   0   3  -3 1404.46   55.89
   0  -3   3 1432.16   44.10
   0  -3   3 1370.86   54.39
   0  -3   3 1443.46   46.10
  -1   3  -3  178.58   19.80
  -1   3  -3  179.18   19.80
  -1   3  -3  171.88   16.90
  -1   3  -3  148.89   16.60
  -1   3  -3  147.19   15.60
  -1   3  -3  139.49   16.70
   1  -3   3  176.38   17.20
  -2   3  -3  361.06   26.00
  -2   3  -3  373.26   30.80
  -2   3  -3  382.66   31.90
  -2   3  -3  351.96   28.80
  -2   3  -3  346.87   28.10
  -2   3  -3  363.06   26.30
  -3   3  -3  711.63   44.20
  -3   3  -3  657.73   45.10
  -3   3  -3  742.63   49.10
  -3   3  -3  733.93   38.00
  -3   3  -3  688.43   40.80
  -3   3  -3  630.54   45.30
   3  -3   3  711.53   47.50
  -4   3  -3   85.59   24.80
   4  -3   3   68.09   21.10
   5   2  -3   70.19   23.30
   5   2  -3   26.80   16.80
   4   2  -3  246.88   28.60
   4   2  -3  207.48   29.10
  -4  -2   3  309.87   27.60
  -4  -2   3  232.78   24.80
  -4  -2   3  228.68   27.20
  -4  -2   3  259.27   30.90
   3   2  -3   90.49   18.30
   3   2  -3  124.19   18.30
   3   2  -3   98.49   13.50
   3   2  -3   99.89   12.60
  -3  -2   3  110.89   20.60
  -3  -2   3   83.69   18.10
  -3  -2   3   91.29   13.20
  -3  -2   3  100.09   14.50
   2   2  -3  708.43   28.30
   2   2  -3  766.42   36.70
   2   2  -3  747.03   34.70
   2   2  -3  812.52   40.90
  -2  -2   3  720.03   38.60
  -2  -2   3  775.72   35.50
  -2  -2   3  764.12   30.10
  -2  -2   3  701.83   34.50
   1   2  -3  693.63   27.30
   1   2  -3  724.13   33.60
   1   2  -3  679.73   34.30
   1   2  -3  675.63   23.80
  -1  -2   3  660.93   26.50
  -1  -2   3  714.53   24.50
  -1  -2   3  694.13   34.30
   0   2  -3  450.25   25.50
   0   2  -3  536.35   29.20
   0   2  -3  424.46   25.80
   0   2  -3  473.05   18.60
   0   2  -3  441.76   20.90
   0  -2   3  450.55   20.80
   0  -2   3  429.06   24.50
   0  -2   3  422.56   17.80
  -1   2  -3  546.15   30.70
  -1   2  -3  599.14   27.50
  -1   2  -3  548.65   28.50
  -1   2  -3  539.35   25.40
   1  -2   3  561.64   28.90
  -2   2  -3 1108.39   49.70
  -2   2  -3 1185.78   40.50
  -2   2  -3 1216.48   49.50
  -2   2  -3 1247.88   41.80
  -2   2  -3 1111.09   58.39
   2  -2   3 1164.58   50.59
   2  -2   3 1130.79   47.90
  -3   2  -3   42.40   12.80
  -3   2  -3   45.60    9.80
  -3   2  -3   28.30   13.80
  -3   2  -3   26.40    8.10
  -3   2  -3   30.30   12.40
   3  -2   3   32.50   13.00
  -4   2  -3   52.79   19.40
  -4   2  -3   72.59   21.10
   4  -2   3   84.79   23.60
  -5   2  -3   30.50   19.10
   5  -2   3   44.30   23.30
   5   1  -3   37.90   17.70
   5   1  -3   36.40   17.40
  -5  -1   3   22.20   13.50
   4   1  -3  315.87   33.10
   4   1  -3  207.68   24.50
  -4  -1   3  220.38   25.80
  -4  -1   3  218.38   29.70
  -4  -1   3  259.77   27.60
   3   1  -3  390.36   19.40
   3   1  -3  437.76   32.00
   3   1  -3  437.46   28.20
   3   1  -3  398.66   30.70
  -3  -1   3  431.76   29.20
  -3  -1   3  394.46   29.60
  -3  -1   3  391.96   31.60
   2   1  -3  481.25   29.70
   2   1  -3  484.55   22.10
   2   1  -3  479.35   24.90
   2   1  -3  483.35   29.30
  -2  -1   3  515.15   29.90
  -2  -1   3  515.65   29.10
  -2  -1   3  558.14   27.80
   1   1  -3 1317.17   38.30
   1   1  -3 1384.66   46.00
   1   1  -3 1322.37   40.40
   1   1  -3 1396.26   38.40
   1   1  -3 1373.16   40.70
  -1  -1   3 1354.56   37.90
  -1  -1   3 1328.17   39.10
  -1  -1   3 1273.47   44.10
   0   1  -3  187.78   14.60
   0   1  -3  184.08   13.30
   0   1  -3  194.98   12.90
   0  -1   3  163.68   12.30
   0  -1   3  189.58   12.60
   0  -1   3  204.98   14.80
  -1   1  -3  357.76   20.70
  -1   1  -3  323.57   15.00
  -1   1  -3  379.26   21.90
  -1   1  -3  338.17   17.30
   1  -1   3  375.86   18.10
   1  -1   3  368.46   21.30
   1  -1   3  370.66   15.70
   1  -1   3  358.56   20.80
  -2   1  -3 1205.28   45.70
  -2   1  -3 1221.68   49.10
  -2   1  -3 1197.08   31.50
  -2   1  -3 1210.08   47.30
  -2   1  -3 1196.38   31.30
   2  -1   3 1148.69   43.10
   2  -1   3 1183.38   47.10
   2  -1   3 1204.28   48.50
  -3   1  -3   37.50   10.60
  -3   1  -3   54.89    7.60
  -3   1  -3   39.10   12.10
  -3   1  -3   24.40   11.20
   3  -1   3   42.90   14.50
   3  -1   3   35.50    9.20
  -4   1  -3   26.50   15.30
  -4   1  -3   25.20    9.80
  -4   1  -3   24.00   12.00
  -4   1  -3   17.20   10.60
   4  -1   3   20.90   13.90
  -5   1  -3    3.10   16.40
   5  -1   3   24.40   17.20
   5   0  -3   18.40   14.40
   5   0  -3   38.10   18.00
  -5   0   3   77.39   21.70
   4   0  -3  290.77   29.20
   4   0  -3  309.57   34.00
  -4   0   3  278.37   33.50
   3   0  -3  638.54   37.60
   3   0  -3  703.03   41.80
   3   0  -3  677.23   37.90
  -3   0   3  636.74   38.20
  -3   0   3  611.34   40.00
  -3   0   3  676.03   38.60
   2   0  -3   73.29   13.60
   2   0  -3   82.49   10.80
   2   0  -3   98.89   13.40
  -2   0   3   82.29   11.90
  -2   0   3   62.89   13.10
  -2   0   3   85.29   12.10
   1   0  -3 4970.10  106.89
   1   0  -3 5297.37   98.29
   1   0  -3 5320.57  106.69
   1   0  -3 5073.89  111.69
  -1   0   3 5112.39   96.89
  -1   0   3 5093.19  111.49
  -1   0   3 5123.79  108.49
  -1   0   3 5174.78  107.19
   0   0  -3 1562.74   41.80
   0   0  -3 1481.25   40.50
   0   0  -3 1442.66   33.00
   0   0  -3 1529.75   39.70
   0   0   3 1480.25   33.20
   0   0   3 1504.75   39.20
   0   0   3 1480.35   40.90
   0   0   3 1395.16   39.50
  -1   0  -3 9020.60  170.78
  -1   0  -3 8805.22  166.08
   1   0   3 8758.72  170.18
  -2   0  -3 1115.39   44.40
  -2   0  -3 1136.49   41.60
  -2   0  -3 1123.59   44.00
   2   0   3 1095.09   43.50
   2   0   3 1086.29   41.10
   2   0   3 1151.88   45.40
  -3   0  -3   -5.30    5.50
  -3   0  -3  -12.30    5.50
  -3   0  -3   -0.90    1.90
  -3   0  -3    1.40    4.90
   3   0   3   -2.00    5.50
   3   0   3    5.30    5.60
   3   0   3    4.80    2.60
  -4   0  -3   35.90   14.90
  -4   0  -3   49.60   12.40
   4   0   3   51.39   15.90
   4   0   3   52.89   12.60
  -5   0  -3  121.39   26.60
   5   0   3   48.50   21.30
   5  -1  -3  175.28   37.30
  -5   1   3  251.97   36.00
   4  -1  -3  217.18   28.50
   4  -1  -3  165.18   22.80
  -4   1   3  167.48   28.10
  -4   1   3  206.68   25.30
  -4   1   3  149.99   30.40
   3  -1  -3  346.37   27.60
   3  -1  -3  258.47   25.20
   3  -1  -3  347.67   30.60
  -3   1   3  260.67   26.90
  -3   1   3  299.77   26.80
  -3   1   3  328.97   29.40
   2  -1  -3 1896.61   65.19
   2  -1  -3 1904.21   63.19
   2  -1  -3 1771.62   60.99
  -2   1   3 1843.22   63.29
  -2   1   3 1794.72   61.49
  -2   1   3 1818.12   65.39
   1  -1  -3  518.75   25.60
   1  -1  -3  574.94   27.90
   1  -1  -3  561.74   19.30
  -1   1   3  561.54   27.00
  -1   1   3  587.94   28.30
  -1   1   3  552.14   27.20
  -1   1   3  585.94   19.90
   0  -1  -3 2100.09   54.29
   0  -1  -3 2105.69   55.09
   0  -1  -3 2228.18   54.89
   0  -1  -3 2128.69   53.39
   0   1   3 2238.08   56.29
   0   1   3 2253.77   54.69
   0   1   3 2152.28   54.29
   0   1   3 2161.88   54.39
  -1  -1  -3 3803.22   86.49
  -1  -1  -3 3683.23   80.49
  -1  -1  -3 3671.63   86.19
   1   1   3 3592.64   79.99
   1   1   3 3631.74   74.89
   1   1   3 3602.44   85.19
   1   1   3 3568.44   85.59
  -2  -1  -3 1113.59   40.80
  -2  -1  -3 1179.98   43.80
  -2  -1  -3 1084.49   45.20
   2   1   3 1053.89   42.10
   2   1   3 1094.09   40.30
   2   1   3 1090.29   30.60
   2   1   3 1151.98   46.70
  -3  -1  -3  942.21   49.10
  -3  -1  -3  888.31   42.60
  -3  -1  -3  910.01   29.70
  -3  -1  -3  969.40   41.80
   3   1   3  915.11   49.10
   3   1   3  872.61   41.10
   3   1   3  946.91   43.40
   3   1   3  889.61   30.10
  -4  -1  -3   33.70   12.70
  -4  -1  -3   94.99   19.30
  -4  -1  -3   61.69   18.80
  -4  -1  -3   93.59   17.00
   4   1   3   49.30   16.30
   4   1   3   78.89   15.70
   4   1   3   59.69   10.70
  -5  -1  -3  407.26   38.90
   5   1   3  433.06   45.60
   5  -2  -3   48.60   24.70
  -5   2   3   95.89   26.80
   4  -2  -3  106.39   26.90
   4  -2  -3   84.59   18.80
  -4   2   3  112.99   27.00
  -4   2   3  128.59   24.90
   3  -2  -3    2.00    7.10
   3  -2  -3   -5.00    5.20
   3  -2  -3    3.90    8.40
  -3   2   3   17.10   11.30
  -3   2   3    4.60    8.50
  -3   2   3   -0.10    8.90
   2  -2  -3 1007.00   46.50
   2  -2  -3  975.60   30.80
   2  -2  -3  935.91   44.50
  -2   2   3  972.40   46.60
  -2   2   3  932.21   48.60
  -2   2   3  943.71   45.00
  -2   2   3  954.20   30.40
   1  -2  -3  589.64   25.70
   1  -2  -3  580.94   31.10
   1  -2  -3  529.65   27.80
  -1   2   3  579.24   30.90
  -1   2   3  577.54   29.80
  -1   2   3  551.64   32.40
  -1   2   3  511.65   23.80
  -1   2   3  549.65   31.90
   0  -2  -3 1091.29   41.70
   0  -2  -3  962.60   38.40
   0  -2  -3  975.10   33.30
   0  -2  -3  963.60   37.20
   0   2   3 1068.09   43.40
   0   2   3 1042.30   38.20
   0   2   3  993.50   38.90
   0   2   3 1002.30   34.40
  -1  -2  -3  614.54   31.80
  -1  -2  -3  645.94   32.10
  -1  -2  -3  658.43   24.50
   1   2   3  597.74   28.20
   1   2   3  629.24   23.70
   1   2   3  613.44   28.10
   1   2   3  622.94   32.30
   1   2   3  597.84   30.50
  -2  -2  -3  690.53   28.90
  -2  -2  -3  715.23   35.80
  -2  -2  -3  701.43   37.80
   2   2   3  678.33   55.99
   2   2   3  634.74   27.60
   2   2   3  722.93   30.90
   2   2   3  648.64   37.40
  -3  -2  -3   12.70    7.80
  -3  -2  -3   23.20    6.90
  -3  -2  -3   20.20    9.60
  -3  -2  -3   27.30   12.00
   3   2   3   39.40   10.40
   3   2   3   23.10    9.60
   3   2   3   32.30   13.10
  -4  -2  -3  670.13   39.20
  -4  -2  -3  611.54   47.40
  -4  -2  -3  618.44   38.70
  -4  -2  -3  591.44   37.00
   4   2   3  596.94   47.20
   4   2   3  568.74   31.50
   4   2   3  595.94   39.00
  -5  -2  -3   15.80   15.20
   5   2   3    1.10   14.20
   4  -3  -3   18.10   15.20
  -4   3   3   15.80   13.00
   3  -3  -3   -5.60   10.10
  -3   3   3   10.30   10.10
  -3   3   3   -1.20   13.00
  -3   3   3    1.30   10.20
   2  -3  -3   72.29   15.90
   2  -3  -3   69.09   15.20
  -2   3   3   69.89   18.00
  -2   3   3   53.09   10.40
  -2   3   3   65.39   15.50
  -2   3   3   31.70   12.10
  -2   3   3   54.49   15.70
   1  -3  -3  411.16   29.80
   1  -3  -3  401.06   31.30
   1  -3  -3  437.86   26.90
  -1   3   3  359.36   25.40
  -1   3   3  388.76   30.50
  -1   3   3  430.86   26.40
  -1   3   3  400.86   28.90
  -1   3   3  400.36   31.30
   0  -3  -3  594.94   34.90
   0  -3  -3  615.84   27.20
   0  -3  -3  627.94   34.30
   0  -3  -3  625.14   35.10
   0   3   3  630.94   28.20
   0   3   3  557.14   33.20
   0   3   3  641.04   36.80
   0   3   3  613.34   33.40
  -1  -3  -3  341.97   26.70
  -1  -3  -3  321.57   25.70
  -1  -3  -3  341.17   16.80
   1   3   3  361.36   26.70
   1   3   3  321.07   16.40
   1   3   3  343.77   24.70
   1   3   3  354.76   27.50
   1   3   3  296.57   23.90
  -2  -3  -3  454.85   32.20
  -2  -3  -3  424.86   20.30
  -2  -3  -3  440.56   32.30
   2   3   3  441.86   28.40
   2   3   3  374.46   29.20
   2   3   3  437.36   28.90
   2   3   3  426.56   32.70
   2   3   3  387.96   18.90
  -3  -3  -3  173.78   21.90
  -3  -3  -3  196.48   17.10
  -3  -3  -3  174.98   23.00
   3   3   3  197.78   20.50
   3   3   3  165.48   22.20
   3   3   3  212.48   26.40
  -4  -3  -3   77.79   15.30
  -4  -3  -3   64.29   17.20
   4   3   3   73.79   20.90
   4   3   3   47.60   15.30
   4   3   3   69.29   15.60
   5   3   3   27.70   23.20
   4  -4  -3   27.30   20.50
  -4   4   3    0.40   16.50
  -4   4   3  -22.10   16.30
   3  -4  -3   77.89   21.10
  -3   4   3   35.60   16.60
  -3   4   3   33.10   16.80
  -3   4   3   66.89   19.90
   2  -4  -3    7.10   12.60
   2  -4  -3   13.90    9.00
  -2   4   3   11.80   11.90
  -2   4   3   20.70   14.90
  -2   4   3   10.70    8.90
  -2   4   3   -6.80    6.80
  -2   4   3   -0.40   11.90
   1  -4  -3  420.46   34.20
   1  -4  -3  381.66   27.70
   1  -4  -3  403.86   30.50
  -1   4   3  439.56   38.00
  -1   4   3  458.75   30.80
  -1   4   3  468.85   37.40
  -1   4   3  429.86   34.50
  -1   4   3  414.16   31.20
   0  -4  -3  364.96   30.20
   0  -4  -3  356.96   31.00
   0  -4  -3  328.87   21.30
   0   4   3  376.76   30.40
   0   4   3  352.66   31.40
   0   4   3  318.57   29.80
   0   4   3  327.07   29.10
   0   4   3  334.37   25.50
  -1  -4  -3   64.79   16.40
  -1  -4  -3   28.50   11.80
  -1  -4  -3   32.80    6.20
   1   4   3   52.89   15.10
   1   4   3   27.30   11.90
   1   4   3   31.10    6.10
   1   4   3   22.00   10.90
   1   4   3   21.00   10.80
  -2  -4  -3    2.10    3.30
  -2  -4  -3   -7.30    7.40
  -2  -4  -3  -11.00    8.00
   2   4   3   -3.20    6.90
   2   4   3    4.60    9.60
   2   4   3    6.70    7.40
   2   4   3    2.40    9.10
   2   4   3    7.60    2.90
  -3  -4  -3  376.26   36.60
  -3  -4  -3  352.56   34.50
   3   4   3  307.37   34.20
   3   4   3  369.06   32.60
   3   4   3  305.57   31.70
  -4  -4  -3  131.99   26.90
   4   4   3   70.89   21.00
   4   4   3   84.99   19.80
   4   4   3   50.19   20.20
   5   4   3  182.38   36.70
  -3   5   3   15.20   16.40
  -3   5   3    7.60   16.30
  -2   5   3    9.80   13.00
  -2   5   3   44.90   22.60
  -2   5   3   25.90   12.80
   1  -5  -3   82.59   19.50
  -1   5   3   59.89   17.80
  -1   5   3   88.09   17.60
  -1   5   3   64.89   21.30
  -1   5   3  101.29   24.50
  -1   5   3   62.59   18.80
  -1   5   3   60.19   19.60
  -1   5   3   81.69   22.90
   0  -5  -3   23.10   13.60
   0  -5  -3   24.80   13.60
   0   5   3   34.30    9.90
   0   5   3   37.00   13.10
   0   5   3   38.50   15.50
   0   5   3   55.69   15.90
   0   5   3   48.30   17.10
  -1  -5  -3  266.57   30.20
  -1  -5  -3  218.88   28.00
   1   5   3  283.47   30.70
   1   5   3  288.47   31.10
   1   5   3  281.47   31.80
   1   5   3  312.57   33.80
  -2  -5  -3   34.10   14.90
  -2  -5  -3   81.79   21.30
   2   5   3   36.20   16.70
   2   5   3   58.99   17.20
   2   5   3   36.30   19.90
   2   5   3   50.79   17.40
  -3  -5  -3   91.39   24.30
   3   5   3   69.39   23.30
   3   5   3   82.49   20.60
   3   5   3   55.59   18.60
  -4  -5  -3   20.30   16.10
   4   5   3   43.40   25.40
   4   5   3   58.79   20.20
  -2   6   3   19.10   18.10
   1  -6  -3   67.29   21.10
  -1   6   3   69.89   21.60
  -1   6   3   40.60   21.00
   0  -6  -3  199.38   34.80
   0   6   3  220.28   31.50
   0   6   3  236.48   32.70
  -1  -6  -3   39.30   17.30
   1   6   3   15.40   14.50
   1   6   3   69.89   23.30
  -2  -6  -3   -0.50   14.50
   2   6   3    6.70   17.00
   2   6   3  -23.60   10.10
  -3  -6  -3   29.30   16.50
   3   6   3    9.10   16.40
   3   6   3   16.90   20.20
   2   6  -4   35.30   21.30
   2   6  -4    0.20   14.90
   1   6  -4    1.70   14.10
   1   6  -4   38.60   25.60
   0   6  -4    5.50   19.20
   0   6  -4   11.50   12.50
  -1   6  -4   32.70   14.90
   3   5  -4   78.39   24.20
   2   5  -4   68.59   22.20
   1   5  -4   15.10   11.70
   1   5  -4    6.90   14.60
   0   5  -4  335.77   34.50
   0   5  -4  416.16   39.70
  -1   5  -4   26.40   16.10
  -1   5  -4   39.80   16.00
  -1   5  -4   30.80   14.60
  -2   5  -4   43.70   18.20
  -2   5  -4   64.49   17.10
  -2   5  -4   66.19   19.70
  -3   5  -4    8.80   14.50
   4   4  -4  183.48   27.60
   4   4  -4  213.08   31.00
   3   4  -4   92.69   20.90
   3   4  -4   88.79   22.40
   3   4  -4   83.39   18.80
  -3  -4   4  103.09   22.10
   2   4  -4  361.76   34.50
   2   4  -4  410.26   30.10
   2   4  -4  356.36   32.80
  -2  -4   4  400.36   35.60
  -2  -4   4  395.46   29.60
   1   4  -4  275.37   30.20
   1   4  -4  215.68   26.40
   1   4  -4  268.37   29.10
   1   4  -4  247.28   14.70
   1   4  -4  278.77   21.90
  -1  -4   4  265.47   27.60
  -1  -4   4  281.67   21.70
  -1  -4   4  236.18   14.70
   0   4  -4  148.19   21.40
   0   4  -4  123.99   23.30
   0   4  -4  114.19   21.80
   0   4  -4  116.99   13.90
   0   4  -4  132.59   15.10
   0  -4   4  137.69   18.30
   0  -4   4  154.78   14.80
  -1   4  -4  256.37   22.30
  -1   4  -4  251.07   27.90
  -1   4  -4  241.58   22.10
  -1   4  -4  257.07   23.00
  -1   4  -4  240.38   25.50
  -1   4  -4  243.28   25.00
  -1   4  -4  250.07   28.10
  -2   4  -4   51.09   13.00
  -2   4  -4   66.89   16.10
  -2   4  -4  103.19   19.60
  -2   4  -4   62.59   16.40
  -2   4  -4   99.49   35.20
  -2   4  -4   75.29   15.80
  -2   4  -4   71.59   20.70
  -2   4  -4   76.59   16.20
  -3   4  -4    1.40   11.90
  -3   4  -4   -2.60   13.00
  -3   4  -4   -3.30   11.70
   5   3  -4   69.99   22.80
   5   3  -4   50.19   22.10
   4   3  -4   77.69   20.60
   4   3  -4   68.89   19.70
  -4  -3   4   64.79   18.40
   3   3  -4  354.06   31.30
   3   3  -4  322.47   28.20
  -3  -3   4  336.77   26.80
  -3  -3   4  313.37   28.50
   2   3  -4   63.19   14.90
   2   3  -4   72.19   14.60
   2   3  -4   71.29    8.50
   2   3  -4   65.39   16.40
  -2  -3   4   56.99    9.80
  -2  -3   4   47.80   12.50
  -2  -3   4   81.19   18.20
   1   3  -4  792.82   44.00
   1   3  -4  809.12   42.80
   1   3  -4  753.32   42.50
   1   3  -4  789.82   28.80
   1   3  -4  792.42   32.90
  -1  -3   4  778.12   42.30
  -1  -3   4  796.92   32.30
  -1  -3   4  766.52   28.20
   0   3  -4  337.57   27.20
   0   3  -4  346.27   19.60
   0   3  -4  370.26   29.40
   0   3  -4  323.37   26.10
   0   3  -4  374.46   22.20
   0  -3   4  351.66   21.50
   0  -3   4  360.56   26.70
  -1   3  -4  357.06   29.10
  -1   3  -4  353.36   29.50
  -1   3  -4  350.66   22.50
  -1   3  -4  329.57   24.60
  -1   3  -4  310.37   21.40
  -1   3  -4  352.36   26.00
   1  -3   4  372.06   25.60
  -2   3  -4  692.23   38.60
  -2   3  -4  652.43   42.70
  -2   3  -4  657.63   41.70
  -2   3  -4  696.43   35.80
  -2   3  -4  616.74   39.70
  -2   3  -4  653.93   35.70
   2  -3   4  733.13   42.70
  -3   3  -4  448.46   38.40
  -3   3  -4  397.06   33.90
  -3   3  -4  468.85   38.40
  -3   3  -4  387.46   32.40
  -3   3  -4  438.16   35.10
   3  -3   4  407.46   36.20
  -4   3  -4   54.39   18.60
   4  -3   4   75.39   21.40
   5   2  -4  -20.60   12.00
   5   2  -4   17.50   16.30
   4   2  -4  162.08   28.90
   4   2  -4  126.89   25.90
  -4  -2   4  128.69   26.10
  -4  -2   4  175.08   22.50
  -4  -2   4  212.68   27.40
   3   2  -4  101.49   13.80
   3   2  -4  143.29   20.50
   3   2  -4  103.29   14.20
   3   2  -4  112.89   21.80
  -3  -2   4   89.69   16.20
  -3  -2   4  119.19   21.50
  -3  -2   4   89.39   18.30
   2   2  -4 1228.08   47.40
   2   2  -4 1153.78   40.50
   2   2  -4 1184.48   46.30
   2   2  -4 1203.68   47.50
   2   2  -4 1210.68   53.79
  -2  -2   4 1139.09   41.70
  -2  -2   4 1214.58   52.89
  -2  -2   4 1145.49   45.10
   1   2  -4  662.93   33.50
   1   2  -4  742.03   36.10
   1   2  -4  673.83   35.60
   1   2  -4  642.54   26.60
   1   2  -4  723.23   26.50
  -1  -2   4  666.93   36.80
  -1  -2   4  673.53   25.50
  -1  -2   4  666.93   26.90
   0   2  -4  799.82   22.80
   0   2  -4  773.32   31.30
   0   2  -4  792.02   35.60
   0   2  -4  784.32   37.30
   0   2  -4  754.92   36.70
   0   2  -4  773.52   22.70
   0  -2   4  787.42   31.20
   0  -2   4  727.73   33.90
  -1   2  -4  280.57   23.00
  -1   2  -4  234.48   17.80
  -1   2  -4  252.07   19.80
  -1   2  -4  251.77   16.00
   1  -2   4  219.98   16.60
   1  -2   4  275.57   20.70
   1  -2   4  228.88   20.80
  -2   2  -4  184.58   20.40
  -2   2  -4  188.38   15.60
  -2   2  -4  228.48   23.00
  -2   2  -4  229.58   16.30
  -2   2  -4  195.88   19.00
   2  -2   4  232.78   22.40
   2  -2   4  227.58   22.30
   2  -2   4  214.58   20.00
  -3   2  -4  942.61   53.09
  -3   2  -4  759.62   46.20
  -3   2  -4  890.71   33.10
  -3   2  -4  857.71   33.60
  -3   2  -4  971.10   49.30
   3  -2   4  830.02   47.60
   3  -2   4  808.72   42.80
  -4   2  -4  116.99   26.00
  -4   2  -4   35.80   15.30
   4  -2   4   39.30   16.70
  -5   2  -4   11.50   19.30
   5  -2   4   39.50   24.40
   5   1  -4   11.90   13.20
   5   1  -4   -3.80   14.10
  -5  -1   4   53.49   21.10
   4   1  -4   22.60   12.70
   4   1  -4   36.20   14.90
  -4  -1   4   31.50   13.40
  -4  -1   4   15.40   12.50
  -4  -1   4   -1.40   10.80
   3   1  -4   75.49   17.40
   3   1  -4   68.29   15.90
   3   1  -4   74.59    9.40
   3   1  -4   74.59    9.20
   3   1  -4   74.39   15.10
  -3  -1   4   56.29   14.50
  -3  -1   4   62.59   15.40
  -3  -1   4   73.89   15.90
   2   1  -4 3964.50   88.79
   2   1  -4 3843.22  104.79
   2   1  -4 3796.52  101.89
   2   1  -4 3999.40   96.59
   2   1  -4 3972.90   88.79
  -2  -1   4 3918.31  105.29
  -2  -1   4 4153.18  101.69
  -2  -1   4 3987.20   97.99
   1   1  -4  430.76   22.70
   1   1  -4  432.86   31.70
   1   1  -4  447.56   19.20
   1   1  -4  488.45   23.00
  -1  -1   4  452.25   22.90
  -1  -1   4  433.36   25.30
  -1  -1   4  452.15   19.40
   0   1  -4 1525.45   45.60
   0   1  -4 1513.75   45.70
   0   1  -4 1516.25   48.70
   0  -1   4 1499.25   44.90
   0  -1   4 1466.65   47.60
   0  -1   4 1453.35   44.60
  -1   1  -4  236.78   18.10
  -1   1  -4  253.17   14.40
  -1   1  -4  233.08   13.40
   1  -1   4  238.88   13.20
   1  -1   4  261.97   14.80
   1  -1   4  247.98   19.00
  -2   1  -4 2871.41   81.29
  -2   1  -4 2992.90   60.29
  -2   1  -4 2990.40   85.39
  -2   1  -4 3031.10   60.39
  -2   1  -4 2998.10   87.29
   2  -1   4 2800.02   81.69
   2  -1   4 3039.00   87.99
   2  -1   4 3118.29   83.99
  -3   1  -4   29.40    4.60
  -3   1  -4   29.20    3.80
  -3   1  -4   35.20   11.60
  -3   1  -4   42.60   13.40
  -3   1  -4   19.70   11.20
   3  -1   4   36.50   13.20
   3  -1   4   51.29   13.80
   3  -1   4   16.00    6.70
  -4   1  -4  216.78   22.70
  -4   1  -4  177.78   25.20
  -4   1  -4  174.78   26.90
   4  -1   4  218.08   27.80
  -5   1  -4   17.70   15.80
   5  -1   4   44.00   21.60
   5   0  -4   67.89   21.10
   5   0  -4   85.19   24.00
  -5   0   4   90.09   23.70
   4   0  -4   33.50   15.60
   4   0  -4   18.10   10.60
  -4   0   4   39.60   15.30
  -4   0   4   15.80   11.80
  -4   0   4   42.30   15.10
   3   0  -4  292.77   26.40
   3   0  -4  213.78   22.40
   3   0  -4  233.88   22.80
  -3   0   4  200.08   22.50
  -3   0   4  231.18   25.90
  -3   0   4  251.67   24.90
   2   0  -4  172.28    9.70
   2   0  -4  171.38    9.30
   2   0  -4  187.58   19.00
   2   0  -4  209.28   20.80
   2   0  -4  171.28   17.10
  -2   0   4  187.68   18.70
  -2   0   4  197.38   18.90
   1   0  -4 1324.67   46.00
   1   0  -4 1245.58   36.20
   1   0  -4 1308.67   39.60
   1   0  -4 1132.39   40.30
  -1   0   4 1180.08   38.60
  -1   0   4 1216.98   44.20
  -1   0   4 1194.68   41.90
  -1   0   4 1158.48   34.70
   0   0  -4   15.10    5.70
   0   0  -4   10.70    5.70
   0   0  -4   19.80    6.20
   0   0  -4   13.70    3.60
   0   0   4    9.40    5.10
   0   0   4   16.70    5.80
   0   0   4    8.70    4.70
   0   0   4   12.50    3.70
  -1   0  -4  236.28   14.60
  -1   0  -4  251.97   17.70
  -1   0  -4  251.17   18.80
  -1   0  -4  241.38   10.70
   1   0   4  256.97   18.60
   1   0   4  239.78   10.30
   1   0   4  257.27   15.20
   1   0   4  238.78   17.10
  -2   0  -4 1131.59   45.20
  -2   0  -4 1092.09   44.50
   2   0   4 1054.89   43.80
   2   0   4 1163.08   46.20
   2   0   4 1149.19   45.50
  -3   0  -4  752.72   42.80
  -3   0  -4  753.42   43.70
  -3   0  -4  770.42   39.00
   3   0   4  817.22   45.20
   3   0   4  768.52   39.90
   3   0   4  735.03   41.60
  -4   0  -4   77.09   16.10
  -4   0  -4   81.99   20.60
  -4   0  -4   77.69   19.30
   4   0   4  125.09   26.10
   4   0   4   81.39   16.30
  -5   0  -4   70.59   22.90
   5   0   4   55.09   21.60
  -5   1   4  128.69   30.70
   4  -1  -4   32.50   14.20
   4  -1  -4   25.60   13.60
  -4   1   4   45.60   18.60
  -4   1   4   13.60   14.00
  -4   1   4   51.99   16.60
   3  -1  -4  129.69   17.80
   3  -1  -4  166.38   21.20
   3  -1  -4  131.09   19.50
  -3   1   4  148.09   19.70
  -3   1   4  160.98   21.70
  -3   1   4  189.28   22.80
   2  -1  -4  247.18   22.40
   2  -1  -4  271.97   23.60
   2  -1  -4  266.27   22.00
  -2   1   4  243.08   21.50
  -2   1   4  224.18   21.50
  -2   1   4  287.27   24.20
   1  -1  -4 2190.68   63.69
   1  -1  -4 2263.27   54.19
  -1   1   4 2287.37   66.19
  -1   1   4 2346.67   66.29
  -1   1   4 2216.78   66.29
  -1   1   4 2332.47   54.79
   0  -1  -4 3932.61   89.59
   0  -1  -4 3975.20   89.69
   0  -1  -4 3993.90   90.09
   0  -1  -4 3963.90   89.49
   0   1   4 4005.50   90.39
   0   1   4 3965.30   90.09
   0   1   4 4023.00   90.29
   0   1   4 3898.61   89.19
  -1  -1  -4 1099.79   33.00
  -1  -1  -4 1134.19   39.00
  -1  -1  -4 1055.69   39.60
  -1  -1  -4 1143.29   42.50
   1   1   4 1218.48   40.00
   1   1   4 1196.98   43.50
   1   1   4 1190.68   41.20
   1   1   4 1154.58   33.40
  -2  -1  -4  557.54   31.80
  -2  -1  -4  522.65   29.90
  -2  -1  -4  551.24   29.00
   2   1   4  547.35   31.70
   2   1   4  546.05   28.70
   2   1   4  556.14   19.00
   2   1   4  554.24   30.90
   2   1   4  543.75   18.80
  -3  -1  -4  173.28   19.10
  -3  -1  -4  154.08   19.50
  -3  -1  -4  152.78   18.60
   3   1   4  180.38   21.90
   3   1   4  169.58   19.50
   3   1   4  156.48   17.30
   3   1   4  161.68   10.20
  -4  -1  -4   18.60    9.40
  -4  -1  -4   13.80   10.30
  -4  -1  -4    0.90   11.10
   4   1   4   19.00   13.00
   4   1   4   20.20   10.30
  -5  -1  -4  109.69   25.80
   5   1   4   91.19   25.60
  -5   2   4  -13.70   18.30
   4  -2  -4  167.78   25.70
   4  -2  -4  123.29   24.30
  -4   2   4  138.09   28.10
  -4   2   4  169.08   24.60
   3  -2  -4   30.20   12.20
   3  -2  -4   16.20   10.00
   3  -2  -4   23.20   10.20
  -3   2   4   16.00    9.90
  -3   2   4   -4.10    9.10
   2  -2  -4 1043.10   48.50
   2  -2  -4  996.30   32.20
   2  -2  -4 1071.29   50.69
  -2   2   4 1114.59   51.49
  -2   2   4 1083.79   49.99
  -2   2   4  986.20   51.49
  -2   2   4 1070.39   32.90
   1  -2  -4  558.64   30.00
   1  -2  -4  585.44   32.90
   1  -2  -4  613.24   26.70
  -1   2   4  559.84   25.90
  -1   2   4  509.95   34.10
  -1   2   4  570.64   33.50
  -1   2   4  553.54   30.90
  -1   2   4  509.45   37.30
   0  -2  -4  532.45   25.80
   0  -2  -4  540.35   28.20
   0  -2  -4  560.04   30.00
   0  -2  -4  563.74   29.50
   0   2   4  560.44   29.20
   0   2   4  597.14   27.60
   0   2   4  587.94   29.00
   0   2   4  584.14   30.90
  -1  -2  -4 1856.91   61.59
  -1  -2  -4 1768.22   51.49
  -1  -2  -4 1892.71   61.69
   1   2   4 1814.02   60.69
   1   2   4 1872.71   55.29
   1   2   4 1834.82   51.59
   1   2   4 1891.11   62.19
  -2  -2  -4   90.79   13.40
  -2  -2  -4  115.19   15.90
  -2  -2  -4   77.29   10.90
   2   2   4  104.29   12.10
   2   2   4   99.99   11.50
   2   2   4  109.99   16.40
   2   2   4  101.79   11.50
   2   2   4  105.59   14.50
  -3  -2  -4  183.38   17.90
  -3  -2  -4  165.18   22.40
  -3  -2  -4  184.88   20.70
   3   2   4  191.28   24.00
   3   2   4  169.38   17.40
   3   2   4  139.79   19.10
   3   2   4  192.68   15.80
  -4  -2  -4  301.47   26.90
  -4  -2  -4  210.88   28.70
  -4  -2  -4  283.87   27.60
   4   2   4  270.47   31.40
   4   2   4  255.47   26.40
  -5  -2  -4   28.40   15.00
   5   2   4   37.80   19.40
   4  -3  -4   26.80   15.80
  -4   3   4   71.39   20.70
   3  -3  -4   42.80   14.30
  -3   3   4   60.09   18.10
  -3   3   4   66.59   19.20
  -3   3   4   27.70   15.10
   2  -3  -4  233.48   24.30
   2  -3  -4  234.88   25.20
  -2   3   4  218.38   26.00
  -2   3   4  261.47   26.40
  -2   3   4  249.68   28.70
  -2   3   4  185.48   23.20
  -2   3   4  239.88   18.00
   1  -3  -4  316.67   26.90
   1  -3  -4  307.57   22.90
   1  -3  -4  300.47   23.20
  -1   3   4  351.46   26.80
  -1   3   4  374.56   30.80
  -1   3   4  296.47   22.00
  -1   3   4  317.07   26.90
  -1   3   4  308.97   29.30
   0  -3  -4  981.60   46.10
   0  -3  -4  956.00   46.70
   0  -3  -4 1025.20   45.60
   0  -3  -4  962.40   37.80
   0   3   4 1017.60   44.80
   0   3   4 1043.80   49.00
   0   3   4  969.60   39.20
   0   3   4 1020.80   46.70
  -1  -3  -4  309.57   25.90
  -1  -3  -4  292.77   25.20
  -1  -3  -4  275.17   17.50
   1   3   4  307.97   24.50
   1   3   4  294.57   17.80
   1   3   4  281.97   23.20
   1   3   4  308.17   26.20
   1   3   4  270.97   23.80
  -2  -3  -4  329.67   28.70
  -2  -3  -4  330.57   29.30
  -2  -3  -4  331.17   20.00
   2   3   4  296.77   26.70
   2   3   4  345.57   30.30
   2   3   4  331.07   19.70
   2   3   4  349.96   25.20
   2   3   4  318.47   24.80
  -3  -3  -4   52.99   16.40
  -3  -3  -4   54.89   11.60
  -3  -3  -4   72.29   18.40
   3   3   4   28.10   11.60
   3   3   4   41.40   12.70
   3   3   4   55.59   10.40
   3   3   4   64.19   18.30
   3   3   4   40.00   12.40
  -4  -3  -4  576.34   60.19
   4   3   4  525.15   46.70
   4   3   4  526.35   40.30
   4  -4  -4  -11.90   17.50
  -4   4   4   -7.30   19.50
  -4   4   4   69.09   26.30
   3  -4  -4  163.68   29.70
  -3   4   4   62.59   20.80
  -3   4   4   95.69   22.80
   2  -4  -4   94.19   20.90
   2  -4  -4   98.39   17.30
   2  -4  -4   66.39   17.30
  -2   4   4   98.59   14.80
  -2   4   4   54.49   18.30
  -2   4   4   84.09   21.30
  -2   4   4   85.59   19.50
  -2   4   4   74.49   19.80
   1  -4  -4   45.30   11.60
   1  -4  -4   73.49   16.30
   1  -4  -4   96.79   21.60
  -1   4   4   42.50   15.10
  -1   4   4   44.50   13.10
  -1   4   4   55.59   14.70
  -1   4   4   27.20   11.40
  -1   4   4   54.19   17.90
   0  -4  -4   78.49   12.90
   0  -4  -4   82.29   18.00
   0  -4  -4   90.09   18.60
   0   4   4   64.59   12.60
   0   4   4   54.19   15.00
   0   4   4   58.69   15.20
   0   4   4   71.69   19.10
  -1  -4  -4  358.76   31.20
  -1  -4  -4  479.85   36.50
  -1  -4  -4  348.37   19.80
   1   4   4  351.06   30.50
   1   4   4  397.46   31.90
   1   4   4  393.36   31.80
   1   4   4  356.56   20.10
   1   4   4  383.66   33.50
  -2  -4  -4   81.29   18.90
  -2  -4  -4   44.50    8.10
  -2  -4  -4   66.79   16.10
   2   4   4   54.99    8.50
   2   4   4   58.99   15.50
   2   4   4   66.29   19.10
   2   4   4   45.30   14.30
   2   4   4   59.09   17.10
  -3  -4  -4  362.36   36.50
  -3  -4  -4  430.56   38.60
   3   4   4  458.65   35.70
   3   4   4  485.55   42.00
   3   4   4  358.96   33.80
   3   4   4  437.66   33.60
  -4  -4  -4   10.70   10.40
   4   4   4    3.80   10.70
   4   4   4    4.30    9.90
   3  -5  -4  104.19   28.90
  -3   5   4   62.09   24.40
  -3   5   4  127.79   29.40
   2  -5  -4  188.28   23.90
  -2   5   4  180.68   34.30
  -2   5   4  133.29   24.60
   1  -5  -4    5.60    9.80
  -1   5   4   -7.40    9.40
  -1   5   4   19.20   16.40
  -1   5   4   -3.80    7.50
   0  -5  -4  181.38   24.70
   0  -5  -4  232.58   27.20
   0   5   4  173.18   29.90
   0   5   4  177.78   26.20
   0   5   4  195.88   26.70
   0   5   4  153.08   26.90
   0   5   4  187.78   19.30
  -1  -5  -4  631.54   46.70
  -1  -5  -4  673.03   48.70
   1   5   4  624.34   46.40
   1   5   4  573.84   45.00
   1   5   4  604.74   44.90
   1   5   4  661.13   46.70
  -2  -5  -4   10.30   11.00
  -2  -5  -4   47.60   16.50
   2   5   4   36.40   15.30
   2   5   4    7.20    9.60
   2   5   4   34.70   14.70
  -3  -5  -4   39.40   18.40
   3   5   4   54.19   17.30
   3   5   4   30.00   17.30
   3   5   4   38.90   17.50
  -4  -5  -4   76.19   23.90
   4   5   4   51.19   25.90
  -2   6   4    1.20   14.60
  -2   6   4   16.50   19.70
   1  -6  -4   11.80   15.50
  -1   6   4   17.70   15.10
  -1   6   4   -0.40   15.00
   0  -6  -4   24.20   17.20
   0   6   4   33.70   17.90
   0   6   4   24.30   16.30
  -1  -6  -4  -12.70   13.00
   1   6   4   19.50   15.70
   1   6   4   24.40   16.40
  -2  -6  -4   48.00   20.60
   2   6   4   33.60   17.70
   2   6   4    7.70   16.60
  -3  -6  -4   -8.00   14.40
   3   6   4   29.50   18.20
   3   6   4    0.30   17.10
   2   6  -5  102.79   26.30
   2   6  -5   54.09   28.40
   1   6  -5   85.89   27.40
   0   6  -5   -1.70   13.80
   0   6  -5   23.60   16.70
  -1   6  -5  134.99   29.00
  -1   6  -5  136.79   34.80
   3   5  -5   58.89   21.50
   3   5  -5    9.70   15.30
   2   5  -5  112.89   26.60
   2   5  -5  144.39   29.00
   1   5  -5   35.20   15.80
   1   5  -5   10.30   15.50
   0   5  -5  241.58   30.30
   0   5  -5  190.18   32.10
  -1   5  -5  145.59   27.80
  -1   5  -5  128.89   24.90
  -1   5  -5   86.19   25.00
  -2   5  -5  115.49   29.40
  -2   5  -5  101.59   20.90
   4   4  -5   52.89   20.70
   3   4  -5   67.99   21.10
   3   4  -5   47.30   15.40
   3   4  -5   84.39   22.30
   3   4  -5   49.40   16.70
   2   4  -5  801.02   52.79
   2   4  -5  740.73   50.49
   2   4  -5  745.03   50.19
   2   4  -5  733.63   39.10
  -2  -4   5  682.93   47.70
  -2  -4   5  735.33   43.60
   1   4  -5  101.89   32.70
  -1  -4   5  145.79   15.70
  -1  -4   5  144.59   13.60
   0   4  -5  297.07   29.20
   0   4  -5  255.57   19.00
   0   4  -5  269.17   20.00
   0   4  -5  243.28   20.80
   0   4  -5  220.08   47.80
   0  -4   5  261.97   27.00
   0  -4   5  293.97   22.10
  -1   4  -5  316.97   32.80
  -1   4  -5  375.66   34.60
  -1   4  -5  308.87   27.00
  -1   4  -5  347.67   31.10
  -1   4  -5  300.27   23.40
   1  -4   5  327.87   27.20
  -2   4  -5   96.79   22.20
  -2   4  -5   85.69   17.40
  -2   4  -5   81.39   19.80
  -2   4  -5   95.09   23.60
  -2   4  -5  128.39   18.70
  -2   4  -5  116.29   24.50
  -3   4  -5  113.19   25.70
  -3   4  -5   67.09   21.70
   4   3  -5    5.10   11.70
   4   3  -5   16.10   12.20
  -4  -3   5   27.20   15.80
   3   3  -5  542.65   36.50
   3   3  -5  579.54   43.70
   3   3  -5  513.15   36.70
   3   3  -5  532.55   37.50
  -3  -3   5  474.35   34.60
  -3  -3   5  496.95   40.90
  -3  -3   5  578.94   32.20
   2   3  -5   37.50   12.60
   2   3  -5   11.90   10.60
   2   3  -5   13.90    8.00
   2   3  -5   20.50    6.60
   2   3  -5   18.00   10.60
  -2  -3   5   19.00    8.70
  -2  -3   5   18.80    6.50
  -2  -3   5   22.20   12.30
   1   3  -5   19.80    6.50
   1   3  -5    5.70    6.70
   1   3  -5   25.20    6.30
   1   3  -5   10.80    9.70
   1   3  -5    3.90    5.70
  -1  -3   5   31.30   11.10
  -1  -3   5    9.40    5.90
  -1  -3   5   14.30    5.70
   0   3  -5   39.50    7.20
   0   3  -5   38.00   11.80
   0   3  -5   38.00    9.80
   0   3  -5   65.09   15.30
   0   3  -5   47.90    7.30
   0   3  -5   45.70   14.20
   0  -3   5   35.00   11.20
   0  -3   5   42.30    9.90
  -1   3  -5  263.07   26.50
  -1   3  -5  263.07   26.20
  -1   3  -5  222.48   17.30
  -1   3  -5  278.37   23.90
  -1   3  -5  272.27   18.70
  -1   3  -5  262.47   22.70
   1  -3   5  269.07   24.00
   1  -3   5  260.97   22.60
  -2   3  -5  588.54   33.20
  -2   3  -5  584.04   34.20
  -2   3  -5  584.64   39.90
  -2   3  -5  537.55   38.90
  -2   3  -5  593.14   33.20
  -2   3  -5  601.24   43.00
   2  -3   5  554.24   38.10
  -3   3  -5   24.80   13.10
  -3   3  -5   18.30   12.20
  -3   3  -5   29.80   12.40
  -3   3  -5    7.10   10.40
   3  -3   5   45.10   14.70
  -4   3  -5    3.90   14.20
   4  -3   5  -16.50   10.80
   5   2  -5   68.19   24.00
   5   2  -5   99.69   25.00
   4   2  -5   30.20   14.50
   4   2  -5   40.50   17.10
  -4  -2   5   16.80   12.40
  -4  -2   5   16.90   13.60
  -4  -2   5   67.59   16.70
   3   2  -5  395.36   26.80
   3   2  -5  331.77   27.90
   3   2  -5  411.26   35.20
   3   2  -5  445.76   33.10
   3   2  -5  408.26   27.30
  -3  -2   5  404.06   32.90
  -3  -2   5  403.16   34.90
  -3  -2   5  429.96   30.60
   2   2  -5   96.69   14.10
   2   2  -5  111.69   12.80
   2   2  -5  100.29   20.00
   2   2  -5  111.09   14.70
   2   2  -5  100.19   14.40
  -2  -2   5   99.39   13.60
  -2  -2   5  100.39   19.30
  -2  -2   5  107.19   13.90
   1   2  -5 1485.15   57.59
   1   2  -5 1411.36   53.79
   1   2  -5 1403.96   53.79
   1   2  -5 1393.86   46.30
   1   2  -5 1422.76   39.30
  -1  -2   5 1435.96   56.09
  -1  -2   5 1477.15   47.30
  -1  -2   5 1413.06   38.90
   0   2  -5  542.85   32.40
   0   2  -5  506.75   12.70
   0   2  -5  502.05   29.40
   0   2  -5  486.35   26.30
   0  -2   5  489.65   30.40
   0  -2   5  503.45   28.70
  -1   2  -5 1208.68   44.90
  -1   2  -5 1305.97   39.00
  -1   2  -5 1315.57   51.09
  -1   2  -5 1338.57   55.39
   1  -2   5 1309.47   45.30
   1  -2   5 1276.57   49.90
   1  -2   5 1267.87   53.69
  -2   2  -5  147.79   13.90
  -2   2  -5  130.69   19.50
  -2   2  -5  167.38   13.80
  -2   2  -5  166.48   17.50
  -2   2  -5  173.08   20.60
   2  -2   5  162.58   17.10
   2  -2   5  177.78   20.70
   2  -2   5  148.69   19.50
  -3   2  -5  169.68   22.90
  -3   2  -5  168.98   23.60
  -3   2  -5  176.58   21.40
   3  -2   5  166.58   27.30
   3  -2   5  160.18   21.10
   3  -2   5  154.78   21.50
  -4   2  -5   79.39   20.50
   4  -2   5   46.50   17.30
   5   1  -5   26.60   17.90
   5   1  -5   25.40   17.60
  -5  -1   5   38.90   19.40
   4   1  -5  281.17   32.70
   4   1  -5  277.37   30.70
   4   1  -5  237.18   25.90
  -4  -1   5  205.38   29.40
  -4  -1   5  229.88   26.80
  -4  -1   5  274.27   30.50
   3   1  -5  184.68   23.60
   3   1  -5  237.48   16.10
   3   1  -5  248.78   23.30
   3   1  -5  199.88   15.40
   3   1  -5  220.48   24.00
  -3  -1   5  213.78   23.20
  -3  -1   5  223.58   24.50
  -3  -1   5  185.08   23.70
   2   1  -5 1207.08   46.40
   2   1  -5 1200.08   52.99
   2   1  -5 1189.18   46.70
   2   1  -5 1209.58   42.00
   2   1  -5 1224.48   41.50
  -2  -1   5 1266.07   53.99
  -2  -1   5 1213.48   47.40
  -2  -1   5 1193.38   48.00
   1   1  -5  809.62   26.90
   1   1  -5  787.02   33.50
   1   1  -5  840.92   39.00
   1   1  -5  857.21   35.50
  -1  -1   5  790.02   27.40
  -1  -1   5  821.92   38.10
  -1  -1   5  786.62   34.30
  -1  -1   5  839.02   35.30
   0   1  -5  348.67   21.60
   0   1  -5  354.26   24.20
   0   1  -5  325.77   20.70
   0  -1   5  355.96   21.60
   0  -1   5  333.57   22.30
   0  -1   5  334.77   20.40
  -1   1  -5 1042.30   44.80
  -1   1  -5  972.70   31.00
  -1   1  -5  972.30   41.40
  -1   1  -5 1055.69   33.70
   1  -1   5 1036.00   32.80
   1  -1   5 1019.20   31.80
   1  -1   5  979.30   41.60
   1  -1   5 1139.19   45.70
  -2   1  -5  659.83   19.50
  -2   1  -5  642.04   37.60
  -2   1  -5  574.64   31.30
  -2   1  -5  606.54   19.20
  -2   1  -5  661.33   37.00
   2  -1   5  593.74   34.70
   2  -1   5  635.54   36.40
   2  -1   5  707.93   34.40
  -3   1  -5   10.90    7.70
  -3   1  -5   14.10    9.20
  -3   1  -5   16.40   11.80
   3  -1   5   12.30    8.30
   3  -1   5   -1.60    5.30
   3  -1   5   10.20    8.10
  -4   1  -5   53.59   16.60
  -4   1  -5   68.49   19.10
   4  -1   5   91.29   21.40
   4  -1   5   56.49   19.00
   5  -1   5   86.99   26.20
   5   0  -5   20.20   12.00
   5   0  -5    7.90   16.10
  -5   0   5   -9.50   16.20
   4   0  -5  357.46   41.80
   4   0  -5  505.45   42.70
   4   0  -5  381.86   34.60
  -4   0   5  511.55   40.10
  -4   0   5  391.26   43.40
   3   0  -5  892.71   48.80
   3   0  -5  900.41   49.60
   3   0  -5  945.01   48.10
  -3   0   5  983.90   51.49
  -3   0   5  854.51   48.10
  -3   0   5  878.11   50.19
   2   0  -5  870.21   40.80
   2   0  -5  891.71   40.70
   2   0  -5  922.91   45.20
   2   0  -5  865.51   28.70
  -2   0   5  874.81   41.70
  -2   0   5  928.81   43.30
  -2   0   5  887.41   44.20
   1   0  -5  296.77   18.00
   1   0  -5  293.67   20.60
   1   0  -5  278.17   21.40
  -1   0   5  318.87   18.10
  -1   0   5  296.87   18.40
  -1   0   5  283.37   21.30
  -1   0   5  352.56   23.90
   0   0  -5 2982.20   64.09
   0   0  -5 2975.40   78.19
   0   0  -5 3054.29   77.69
   0   0  -5 3006.50   75.09
   0   0   5 2908.61   63.79
   0   0   5 3018.00   77.19
   0   0   5 3092.99   78.19
   0   0   5 3048.79   74.59
  -1   0  -5 1968.60   60.99
  -1   0  -5 1930.11   52.29
  -1   0  -5 2091.39   48.10
  -1   0  -5 2008.20   66.09
   1   0   5 2091.89   47.40
   1   0   5 1966.30   60.49
   1   0   5 1878.71   61.99
   1   0   5 2052.09   53.39
  -2   0  -5 1218.78   47.50
  -2   0  -5 1280.87   51.59
  -2   0  -5 1172.58   49.20
   2   0   5 1243.58   48.20
   2   0   5 1237.78   50.19
  -3   0  -5   60.19   15.30
  -3   0  -5  110.39   20.80
  -3   0  -5  101.79   18.80
   3   0   5  109.59   20.00
   3   0   5  110.99   20.40
   3   0   5   92.39   17.00
  -4   0  -5  258.57   29.30
  -4   0  -5  297.77   32.20
  -4   0  -5  323.27   27.50
   4   0   5  280.77   26.40
   4   0   5  303.37   33.30
   4   0   5  334.07   34.40
  -5   0  -5   17.50   14.80
   5   0   5    4.80   16.70
   5  -1  -5  103.89   30.50
   5  -1  -5   61.29   21.10
   4  -1  -5  253.37   31.40
   4  -1  -5  250.57   30.20
  -4   1   5  236.38   29.00
  -4   1   5  301.67   34.30
   3  -1  -5  134.99   24.20
   3  -1  -5  151.08   22.00
   3  -1  -5  153.28   20.60
  -3   1   5  174.88   23.50
  -3   1   5  161.78   22.90
  -3   1   5  149.39   23.00
   2  -1  -5   56.19   13.10
   2  -1  -5   40.20    5.30
   2  -1  -5   36.60   11.50
   2  -1  -5   34.70   11.00
  -2   1   5   36.80   11.10
  -2   1   5   47.50   13.00
  -2   1   5   35.90   11.10
  -2   1   5   34.80    5.10
   1  -1  -5 1299.67   50.99
   1  -1  -5 1345.47   40.90
   1  -1  -5 1215.08   46.80
  -1   1   5 1338.17   50.69
  -1   1   5 1323.57   41.00
  -1   1   5 1296.07   49.10
  -1   1   5 1309.97   48.40
   0  -1  -5  801.72   34.00
   0  -1  -5  819.82   33.70
   0  -1  -5  819.82   34.40
   0  -1  -5  784.32   32.00
   0   1   5  803.72   33.80
   0   1   5  840.62   35.10
   0   1   5  778.62   33.10
   0   1   5  845.92   33.30
  -1  -1  -5 1450.15   48.70
  -1  -1  -5 1420.16   41.10
  -1  -1  -5 1491.05   53.19
  -1  -1  -5 1459.45   49.20
   1   1   5 1422.46   51.89
   1   1   5 1556.04   50.09
   1   1   5 1502.75   42.60
   1   1   5 1496.35   49.00
  -2  -1  -5   31.20   10.80
  -2  -1  -5   28.40    9.90
   2   1   5   37.80   10.10
   2   1   5   57.29   13.30
   2   1   5   53.49   11.40
   2   1   5   45.30    5.50
   2   1   5   44.80    5.50
  -3  -1  -5  431.56   33.00
  -3  -1  -5  439.86   32.10
  -3  -1  -5  451.15   32.10
   3   1   5  431.36   31.30
   3   1   5  444.16   34.10
   3   1   5  420.16   31.60
  -4  -1  -5   86.29   19.70
  -4  -1  -5   36.70   15.50
  -4  -1  -5   98.09   20.10
   4   1   5   72.99   21.00
   4   1   5   77.99   18.10
   4   1   5  107.19   22.70
  -5  -1  -5   80.59   20.40
   5   1   5   44.10   20.60
   4  -2  -5   50.39   19.10
   4  -2  -5   61.09   17.60
  -4   2   5   52.09   17.20
   3  -2  -5   38.20   15.30
   3  -2  -5   40.20   12.30
  -3   2   5   27.50   13.20
  -3   2   5   34.10   12.40
  -3   2   5   17.80   11.50
   2  -2  -5  116.49   10.50
   2  -2  -5   86.99   17.40
   2  -2  -5   73.79   16.50
  -2   2   5   98.19   19.90
  -2   2   5   91.79   18.20
  -2   2   5   80.39    9.50
  -2   2   5  100.29   20.10
  -2   2   5   78.59   16.80
   1  -2  -5   98.79   11.90
   1  -2  -5  125.99   14.60
   1  -2  -5  113.69   15.90
  -1   2   5  121.59   15.50
  -1   2   5  113.59   15.80
  -1   2   5  114.09   15.20
  -1   2   5  121.09   15.50
  -1   2   5  109.19   12.20
   0  -2  -5  837.92   35.70
   0  -2  -5  829.62   38.80
   0  -2  -5  900.41   39.10
   0  -2  -5  870.31   38.20
   0   2   5  826.62   39.20
   0   2   5  808.02   36.70
   0   2   5  854.81   38.00
   0   2   5  784.42   42.70
  -1  -2  -5 1241.88   51.99
  -1  -2  -5 1310.27   45.70
  -1  -2  -5 1244.18   44.30
  -1  -2  -5 1309.77   51.79
   1   2   5 1293.07   45.10
   1   2   5 1201.68   50.29
   1   2   5 1306.67   51.39
   1   2   5 1185.58   43.20
  -2  -2  -5  828.02   43.20
  -2  -2  -5  814.62   43.50
  -2  -2  -5  852.41   37.60
   2   2   5  838.12   44.00
   2   2   5  795.12   33.00
   2   2   5  768.72   42.00
   2   2   5  906.41   38.60
   2   2   5  887.41   34.20
  -3  -2  -5  286.57   29.20
  -3  -2  -5  299.07   27.60
  -3  -2  -5  303.07   24.50
   3   2   5  310.77   19.60
   3   2   5  303.37   30.20
   3   2   5  340.27   28.60
   3   2   5  341.07   26.80
   3   2   5  313.37   19.50
  -4  -2  -5   89.49   22.30
  -4  -2  -5   52.19   14.60
  -4  -2  -5   70.09   18.10
   4   2   5   80.09   18.80
   4   2   5   37.10   14.40
   4   2   5   68.99   20.20
  -5  -2  -5  335.57   37.70
   5   2   5  276.27   38.60
   4  -3  -5   31.80   17.90
  -4   3   5   10.90   16.10
   3  -3  -5   81.69   19.40
   3  -3  -5   83.09   20.40
  -3   3   5   75.39   22.00
  -3   3   5   68.09   22.30
  -3   3   5   35.40   18.40
  -3   3   5   67.59   18.10
   2  -3  -5   70.09   17.10
   2  -3  -5  121.69   14.60
   2  -3  -5  101.59   19.50
  -2   3   5  122.79   14.10
  -2   3   5  100.19   20.70
  -2   3   5  115.89   23.50
  -2   3   5   92.59   19.00
  -2   3   5   82.49   19.70
   1  -3  -5   54.19   15.50
   1  -3  -5   68.99   14.10
   1  -3  -5   71.29   13.90
  -1   3   5   67.29   15.30
  -1   3   5   48.00   12.40
  -1   3   5   66.29   16.40
  -1   3   5   63.29   18.40
   0  -3  -5  211.78   22.40
   0  -3  -5  204.28   20.80
   0  -3  -5  196.28   20.30
   0  -3  -5  218.68   18.70
   0   3   5  229.78   24.50
   0   3   5  201.58   19.10
   0   3   5  269.97   23.80
   0   3   5  201.48   20.60
  -1  -3  -5   10.70    8.50
  -1  -3  -5    5.70    5.80
  -1  -3  -5    9.10    5.60
   1   3   5   20.50    9.80
   1   3   5    3.70    4.70
   1   3   5   -0.60    5.00
   1   3   5    9.60    7.50
  -2  -3  -5   79.29   18.00
  -2  -3  -5   72.39   17.40
  -2  -3  -5   67.69   12.30
   2   3   5   89.99   15.70
   2   3   5   61.79   13.30
   2   3   5   59.39   15.40
   2   3   5   84.59   18.00
  -3  -3  -5   39.00   13.50
  -3  -3  -5   54.69   12.70
   3   3   5   41.60   13.70
   3   3   5   57.59   12.80
   3   3   5   60.29   13.80
   3   3   5   77.39   14.00
  -4  -3  -5  574.54   42.80
   4   3   5  571.14   43.70
   4   3   5  565.24   47.80
   5   3   5   62.59   22.90
   3  -4  -5   -1.90   12.20
  -3   4   5   14.20   13.40
  -3   4   5    2.10   11.30
   2  -4  -5  248.98   28.80
   2  -4  -5  233.78   23.20
  -2   4   5  180.48   26.70
  -2   4   5  232.78   32.50
  -2   4   5  296.77   34.10
   1  -4  -5  168.68   20.80
   1  -4  -5  174.98   23.80
   1  -4  -5  196.68   20.90
  -1   4   5  169.08   20.30
  -1   4   5  163.58   24.70
  -1   4   5  159.88   35.00
  -1   4   5  150.18   33.20
  -1   4   5  184.78   22.10
   0  -4  -5  487.75   38.30
   0  -4  -5  510.15   29.90
   0  -4  -5  528.45   37.80
   0  -4  -5  500.35   36.70
   0   4   5  464.25   30.30
   0   4   5  520.45   40.20
   0   4   5  482.75   36.10
   0   4   5  450.65   34.20
  -1  -4  -5   26.40   13.90
  -1  -4  -5   41.00    9.50
  -1  -4  -5   22.90    9.90
   1   4   5   23.20   11.00
   1   4   5   30.00   11.70
   1   4   5   34.00   10.50
   1   4   5   44.00   16.10
   1   4   5   16.00   10.60
  -2  -4  -5  164.08   15.60
  -2  -4  -5  171.98   30.70
   2   4   5  171.98   21.70
   2   4   5  170.18   15.10
   2   4   5  148.39   21.30
   2   4   5  146.19   42.50
  -3  -4  -5   11.80   14.10
  -3  -4  -5   55.69   17.20
   3   4   5   55.79   16.70
   3   4   5   45.40   15.60
   3   4   5   21.60   10.00
   3   4   5   34.40   14.10
  -4  -4  -5   71.59   23.10
   4   4   5   80.69   23.40
   3  -5  -5    9.70   20.50
  -3   5   5   54.79   25.10
  -3   5   5    1.90   18.50
   2  -5  -5   96.99   26.00
  -2   5   5  145.79   28.90
  -2   5   5  142.19   31.80
   1  -5  -5  145.29   38.30
   1  -5  -5   93.39   18.10
  -1   5   5  109.89   33.10
  -1   5   5   89.79   24.20
  -1   5   5  118.29   22.20
   0  -5  -5  194.98   26.30
   0  -5  -5  191.28   27.50
   0   5   5  140.79   26.50
   0   5   5  162.28   24.20
   0   5   5  209.48   22.10
   0   5   5  133.99   25.00
   0   5   5  194.38   33.40
  -1  -5  -5   32.60   14.60
  -1  -5  -5   38.30   17.20
   1   5   5   21.80   12.80
   1   5   5   29.80   14.30
   1   5   5   33.70   16.90
   1   5   5   40.30   15.30
  -2  -5  -5   11.00   13.50
   2   5   5   28.20   16.20
   2   5   5   10.50   10.80
   2   5   5    1.80   10.00
  -3  -5  -5   97.89   24.70
   3   5   5  119.69   28.00
   3   5   5   84.49   20.80
   3   5   5   52.49   19.40
  -4  -5  -5   81.19   24.10
   4   5   5   60.39   24.30
   1  -6  -5   22.80   16.90
  -1   6   5   19.30   22.00
  -1   6   5  -19.80   14.30
   0   6   5    0.60   11.90
   0   6   5   24.70   18.10
  -1  -6  -5  110.99   28.40
   1   6   5   90.79   25.50
  -2  -6  -5  -19.30   12.70
   2   6   5   -7.60   11.40
   2   6   5   31.10   17.40
  -3  -6  -5   72.49   26.60
   3   6   5  131.89   31.00
   3   6   5   65.59   26.30
   1   6  -6   37.70   20.20
   1   6  -6   25.30   21.10
   0   6  -6  -23.30   13.20
   3   5  -6  135.49   31.00
   3   5  -6   56.59   22.50
   2   5  -6   32.00   20.40
   2   5  -6   30.30   17.10
   1   5  -6  239.48   32.00
   1   5  -6  322.97   36.00
   0   5  -6   43.50   19.40
   0   5  -6   39.30   16.40
  -1   5  -6   41.10   16.80
  -1   5  -6   76.99   20.20
  -1   5  -6   35.00   18.20
  -2   5  -6   19.60   15.70
   4   4  -6  181.08   38.90
   3   4  -6   53.59   19.70
   3   4  -6   53.99   19.10
   3   4  -6   53.49   20.80
   2   4  -6  261.07   30.70
   2   4  -6  231.38   28.50
   2   4  -6  225.58   28.90
  -2  -4   6  202.78   39.00
   1   4  -6  129.49   25.20
   1   4  -6  152.18   27.40
   1   4  -6  145.99   27.90
  -1  -4   6  156.08   15.70
  -1  -4   6  173.58   28.90
   0   4  -6   43.50   15.90
   0   4  -6   53.49   12.30
   0   4  -6   47.90   16.20
   0   4  -6   30.10   13.60
   0  -4   6   50.39   15.40
   0  -4   6   83.09   14.00
  -1   4  -6  269.27   29.50
  -1   4  -6  225.38   25.30
  -1   4  -6  271.57   27.90
  -1   4  -6  280.07   32.20
   1  -4   6  277.17   25.30
  -2   4  -6   71.29   22.30
  -2   4  -6   63.49   20.40
  -2   4  -6   83.89   17.50
  -2   4  -6  100.39   21.30
   2  -4   6  104.79   22.10
  -3   4  -6   53.89   20.20
   4   3  -6   47.50   17.60
   4   3  -6   67.99   22.00
   3   3  -6   72.39   17.40
   3   3  -6   73.59   17.80
   3   3  -6   82.49   18.50
   3   3  -6   35.80   15.80
  -3  -3   6   68.99   15.00
  -3  -3   6   53.99   14.00
  -3  -3   6   61.69   18.50
   2   3  -6  460.95   34.80
   2   3  -6  516.35   29.40
   2   3  -6  488.35   35.30
   2   3  -6  441.66   25.40
   2   3  -6  483.25   46.10
  -2  -3   6  401.66   37.40
  -2  -3   6  441.76   27.50
  -2  -3   6  493.75   28.10
   1   3  -6  743.63   43.70
   1   3  -6  640.54   31.90
   1   3  -6  732.63   44.80
   1   3  -6  682.63   26.20
   1   3  -6  713.73   43.40
  -1  -3   6  653.73   31.90
  -1  -3   6  628.64   40.80
  -1  -3   6  708.53   26.20
   0   3  -6  695.63   44.10
   0   3  -6  766.82   46.20
   0   3  -6  723.03   37.10
   0   3  -6  670.43   21.40
   0   3  -6  772.22   43.00
   0   3  -6  743.63   22.20
   0  -3   6  740.93   41.30
   0  -3   6  745.13   36.40
  -1   3  -6  794.62   42.50
  -1   3  -6  729.23   46.50
  -1   3  -6  741.03   30.00
  -1   3  -6  792.02   30.50
  -1   3  -6  808.32   42.00
  -1   3  -6  813.32   48.50
   1  -3   6  747.03   39.50
   1  -3   6  764.32   41.00
  -2   3  -6   68.99   13.30
  -2   3  -6   89.89   21.70
  -2   3  -6   69.19   14.10
  -2   3  -6   64.29   16.90
  -2   3  -6   42.30   16.40
   2  -3   6   73.09   15.90
  -3   3  -6   37.10   15.60
   3  -3   6   -1.40   12.50
   3  -3   6   -7.60   11.10
   5   2  -6   26.10   17.30
   5   2  -6  -11.00   16.00
   4   2  -6   33.00   14.10
   4   2  -6   46.90   17.40
  -4  -2   6   15.70   16.40
  -4  -2   6   36.30   15.50
   3   2  -6  870.11   42.30
   3   2  -6  948.11   44.50
   3   2  -6  926.21   67.39
   3   2  -6  947.51   48.70
   3   2  -6  919.91   43.10
  -3  -2   6 1026.90   67.69
  -3  -2   6 1022.10   49.40
  -3  -2   6  891.71   48.30
   2   2  -6  227.28   26.00
   2   2  -6  252.37   22.50
   2   2  -6  305.27   24.50
  -2  -2   6  249.48   26.20
  -2  -2   6  270.57   22.60
  -2  -2   6  228.98   19.50
   1   2  -6  591.94   30.40
   1   2  -6  587.04   36.90
   1   2  -6  559.74   34.50
   1   2  -6  566.74   20.50
   1   2  -6  599.44   34.80
  -1  -2   6  597.94   21.10
  -1  -2   6  591.04   35.70
  -1  -2   6  577.64   30.20
   0   2  -6  245.98   21.40
   0   2  -6  256.47   20.30
   0   2  -6  266.27   24.10
   0  -2   6  239.98   22.90
   0  -2   6  231.58   21.00
   0  -2   6  244.28   20.20
  -1   2  -6  485.55   27.10
  -1   2  -6  475.25   33.60
  -1   2  -6  459.75   19.60
  -1   2  -6  446.26   30.50
   1  -2   6  448.36   25.80
   1  -2   6  422.96   31.90
   1  -2   6  484.65   31.30
  -2   2  -6  119.79   20.30
  -2   2  -6  155.08   22.10
  -2   2  -6  125.29   12.60
  -2   2  -6  110.99   12.60
  -2   2  -6  123.89   14.90
   2  -2   6  117.79   21.10
   2  -2   6  112.39   14.70
   2  -2   6  156.18   20.50
  -3   2  -6 1110.19   59.19
  -3   2  -6 1110.19   60.39
   3  -2   6  976.40   53.39
   3  -2   6 1091.89   59.19
   3  -2   6 1077.49   54.19
  -4   2  -6   43.40   20.50
  -4   2  -6   33.20   22.30
   4  -2   6   47.10   18.60
   5   1  -6   -4.20   14.70
   5   1  -6   -1.80   16.60
  -5  -1   6   42.70   20.20
   4   1  -6   66.79   20.00
   4   1  -6   94.49   23.20
   4   1  -6   49.00   16.10
  -4  -1   6   55.09   17.80
  -4  -1   6   67.29   20.00
  -4  -1   6   50.89   16.20
   3   1  -6  397.86   35.20
   3   1  -6  421.76   23.10
   3   1  -6  474.95   34.40
   3   1  -6  436.16   23.90
   3   1  -6  386.46   30.00
  -3  -1   6  391.66   32.10
  -3  -1   6  404.46   35.20
  -3  -1   6  469.75   35.10
   2   1  -6  477.55   34.90
   2   1  -6  530.15   29.10
   2   1  -6  486.95   30.10
   2   1  -6  484.45   26.40
   2   1  -6  473.25   38.50
  -2  -1   6  465.45   33.80
  -2  -1   6  493.55   31.30
  -2  -1   6  442.06   28.00
   1   1  -6   78.19   15.80
   1   1  -6   96.09   13.00
   1   1  -6   63.09   12.80
   1   1  -6   81.09    8.10
  -1  -1   6  108.39   17.90
  -1  -1   6   80.99    8.60
  -1  -1   6   72.89   13.60
  -1  -1   6   57.59   11.90
   0   1  -6  706.03   41.30
   0   1  -6  700.03   36.40
   0   1  -6  746.43   35.30
   0  -1   6  702.63   34.00
   0  -1   6  749.73   36.90
   0  -1   6  785.62   34.30
  -1   1  -6 1306.97   36.80
  -1   1  -6 1367.26   42.60
  -1   1  -6 1282.97   51.29
  -1   1  -6 1435.56   56.99
   1  -1   6 1369.36   52.49
   1  -1   6 1397.86   42.10
   1  -1   6 1321.77   54.09
   1  -1   6 1367.66   38.20
  -2   1  -6   73.69   14.60
  -2   1  -6   81.39    7.40
  -2   1  -6  107.39   13.90
  -2   1  -6   99.69   19.50
  -2   1  -6   81.19    6.80
   2  -1   6   90.29   16.90
   2  -1   6   99.29   18.40
   2  -1   6   91.09   13.20
  -3   1  -6  201.38   25.60
  -3   1  -6  217.68   26.70
  -3   1  -6  176.28   21.50
   3  -1   6  206.58   23.30
   3  -1   6  218.48   24.00
   3  -1   6  236.98   26.10
  -4   1  -6   56.69   16.60
  -4   1  -6   43.10   17.70
   4  -1   6   98.69   23.20
   4  -1   6   72.09   17.80
   4  -1   6  103.59   24.20
  -5   1  -6    9.40   16.00
   5  -1   6  -12.80   15.60
   5   0  -6   10.10   15.90
   5   0  -6   17.40   18.90
  -5   0   6   -1.50   13.20
   4   0  -6  371.36   34.20
   4   0  -6  392.86   38.80
   4   0  -6  421.06   39.00
  -4   0   6  421.46   38.30
  -4   0   6  325.27   35.20
  -4   0   6  406.86   39.00
   3   0  -6  290.87   28.00
   3   0  -6  310.27   29.70
   3   0  -6  279.17   26.50
   3   0  -6  240.38   11.00
   3   0  -6  264.27   11.10
  -3   0   6  256.77   28.10
  -3   0   6  269.07   29.30
  -3   0   6  267.67   27.90
   2   0  -6  690.73   37.00
   2   0  -6  682.53   40.30
   2   0  -6  691.73   36.20
   2   0  -6  614.04   26.70
  -2   0   6  623.64   38.50
  -2   0   6  638.94   37.60
   1   0  -6  411.06   27.80
   1   0  -6  388.26   25.20
   1   0  -6  402.46   23.60
  -1   0   6  398.46   22.00
  -1   0   6  400.96   26.60
  -1   0   6  338.97   39.80
  -1   0   6  393.16   22.80
   0   0  -6 1979.10   60.09
   0   0  -6 2014.40   62.99
   0   0  -6 1922.31   48.70
   0   0  -6 2070.69   66.39
   0   0   6 1982.40   62.29
   0   0   6 2072.39   60.39
   0   0   6 1976.40   48.90
   0   0   6 1917.81   61.79
  -1   0  -6  457.15   22.30
  -1   0  -6  492.95   21.70
  -1   0  -6  482.45   30.40
  -1   0  -6  489.75   29.70
   1   0   6  448.66   29.60
   1   0   6  479.55   20.90
   1   0   6  454.35   27.90
   1   0   6  449.66   22.50
  -2   0  -6  136.89   15.20
  -2   0  -6  132.79   17.90
  -2   0  -6  122.19   15.90
   2   0   6  128.89   17.10
   2   0   6  148.59   16.30
   2   0   6  141.79   17.40
  -3   0  -6   58.89   17.40
  -3   0  -6   52.39   15.70
  -3   0  -6   37.80   12.70
   3   0   6   44.40   12.80
   3   0   6   55.09   15.30
   3   0   6   77.19   17.40
  -4   0  -6  127.69   23.50
  -4   0  -6  106.09   23.40
  -4   0  -6  117.99   24.90
   4   0   6  103.49   23.50
   4   0   6  160.38   29.50
   4   0   6   82.79   18.50
   5   0   6   40.70   18.30
   5  -1  -6   33.10   21.50
  -5   1   6   32.60   19.80
   4  -1  -6  208.68   31.60
   4  -1  -6  271.97   32.30
  -4   1   6  295.57   35.00
  -4   1   6  157.58   29.00
   3  -1  -6  462.05   36.10
   3  -1  -6  542.45   41.60
   3  -1  -6  564.54   40.10
  -3   1   6  529.95   41.70
  -3   1   6  491.55   39.20
  -3   1   6  612.34   42.70
   2  -1  -6  256.57   25.40
   2  -1  -6  268.07   24.00
   2  -1  -6  242.18   14.50
  -2   1   6  248.18   14.40
  -2   1   6  266.57   24.40
  -2   1   6  276.87   25.60
  -2   1   6  233.18   24.20
   1  -1  -6  449.16   30.20
   1  -1  -6  352.26   25.10
   1  -1  -6  405.96   22.80
  -1   1   6  400.36   26.20
  -1   1   6  475.15   30.30
  -1   1   6  413.86   23.20
  -1   1   6  409.86   26.70
  -1   1   6  403.46   27.80
   0  -1  -6  333.67   20.80
   0  -1  -6  344.87   23.50
   0  -1  -6  285.77   22.50
   0   1   6  274.27   21.20
   0   1   6  316.37   20.70
   0   1   6  309.17   22.20
   0   1   6  311.07   21.70
  -1  -1  -6  111.49   13.60
  -1  -1  -6  123.59   13.20
  -1  -1  -6  117.29   11.20
  -1  -1  -6  119.19   15.30
   1   1   6  106.59   14.10
   1   1   6  122.69   14.40
   1   1   6  110.19   11.00
  -2  -1  -6 1211.58   53.09
  -2  -1  -6 1205.38   49.99
  -2  -1  -6 1141.29   49.10
   2   1   6 1102.79   31.30
   2   1   6 1145.09   49.00
   2   1   6 1174.48   32.70
   2   1   6 1134.69   51.89
   2   1   6 1135.89   49.60
  -3  -1  -6  539.95   38.60
  -3  -1  -6  611.74   39.60
  -3  -1  -6  604.74   38.30
   3   1   6  571.64   39.20
   3   1   6  642.04   39.00
   3   1   6  576.64   39.30
  -4  -1  -6  277.37   27.60
  -4  -1  -6  284.17   31.10
  -4  -1  -6  284.07   31.50
   4   1   6  312.67   36.50
   4   1   6  251.77   28.20
   4   1   6  333.57   31.20
   5   1   6   31.20   16.80
   4  -2  -6   23.00   16.90
   4  -2  -6    5.70   13.60
  -4   2   6   42.40   17.40
   3  -2  -6  173.18   24.40
  -3   2   6  193.98   27.00
  -3   2   6  121.69   25.40
   2  -2  -6   26.30    6.80
   2  -2  -6   34.60   12.70
   2  -2  -6   12.80    9.30
  -2   2   6   37.70    7.90
  -2   2   6   12.10   10.80
  -2   2   6   20.70    9.90
  -2   2   6   33.80   12.10
  -2   2   6   12.20   10.80
   1  -2  -6  890.11   45.90
   1  -2  -6  967.20   54.29
   1  -2  -6  891.01   42.60
  -1   2   6  883.01   44.20
  -1   2   6  883.01   45.20
  -1   2   6  899.21   37.60
  -1   2   6  866.21   44.20
  -1   2   6  859.21   44.90
   0  -2  -6  324.27   24.30
   0  -2  -6  333.87   24.60
   0  -2  -6  316.07   29.30
   0  -2  -6  343.37   23.60
   0   2   6  296.27   25.80
   0   2   6  345.07   24.60
   0   2   6  318.07   25.00
   0   2   6  337.37   24.30
  -1  -2  -6 1577.64   55.39
  -1  -2  -6 1520.25   58.79
  -1  -2  -6 1671.03   62.79
  -1  -2  -6 1633.94   54.79
   1   2   6 1745.23   62.39
   1   2   6 1635.24   54.29
   1   2   6 1759.32   57.29
   1   2   6 1658.63   62.29
  -2  -2  -6  154.18   20.10
  -2  -2  -6  117.39   14.90
  -2  -2  -6  145.09   18.80
   2   2   6  168.58   20.40
   2   2   6  150.58   14.20
   2   2   6  147.69   19.10
   2   2   6  138.39   13.60
   2   2   6  170.28   17.30
  -3  -2  -6  553.84   36.50
  -3  -2  -6  478.85   37.80
  -3  -2  -6  587.94   40.60
   3   2   6  573.84   26.00
   3   2   6  558.64   39.50
   3   2   6  644.74   37.60
   3   2   6  544.85   41.00
   3   2   6  599.74   26.20
  -4  -2  -6   31.00   14.60
  -4  -2  -6   20.10   14.20
  -4  -2  -6   25.70   13.70
   4   2   6   43.50   18.70
   4   2   6   47.50   11.90
   5   2   6  215.38   40.30
   4  -3  -6   98.29   27.70
  -4   3   6   33.10   22.40
  -4   3   6   37.50   26.30
   3  -3  -6   37.40   13.60
  -3   3   6   13.40   11.60
  -3   3   6   10.50   14.30
  -3   3   6    9.40   14.00
   2  -3  -6   89.59   20.80
   2  -3  -6  102.59   14.00
   2  -3  -6   65.19   16.10
  -2   3   6   95.29   22.80
  -2   3   6   80.29   12.10
  -2   3   6   89.59   19.00
  -2   3   6   59.49   23.80
  -2   3   6  112.49   21.60
   1  -3  -6  282.77   24.80
   1  -3  -6  287.37   27.90
   1  -3  -6  212.58   21.10
  -1   3   6  210.68   24.70
  -1   3   6  255.57   27.10
  -1   3   6  274.77   22.50
  -1   3   6  266.87   25.30
  -1   3   6  228.58   28.20
   0  -3  -6  309.37   26.60
   0  -3  -6  290.17   23.30
   0  -3  -6  344.57   27.80
   0  -3  -6  291.97   26.90
   0   3   6  319.67   26.80
   0   3   6  350.36   29.30
   0   3   6  294.57   23.80
   0   3   6  266.27   24.70
  -1  -3  -6  283.47   27.10
  -1  -3  -6  350.26   24.20
  -1  -3  -6  368.66   27.10
  -1  -3  -6  342.77   28.40
   1   3   6  321.57   28.00
   1   3   6  324.17   23.00
   1   3   6  319.07   28.70
   1   3   6  345.87   26.60
  -2  -3  -6  326.67   30.50
  -2  -3  -6  298.17   29.20
  -2  -3  -6  309.27   24.20
   2   3   6  336.67   23.50
   2   3   6  317.97   30.00
   2   3   6  336.87   25.60
   2   3   6  326.37   25.10
   2   3   6  349.67   31.70
  -3  -3  -6  108.99   23.00
  -3  -3  -6  111.89   26.30
  -3  -3  -6   66.99   15.10
   3   3   6  100.09   25.10
   3   3   6   76.19   15.20
   3   3   6  111.19   15.70
   3   3   6   93.99   17.00
   3   3   6   86.89   22.50
  -4  -3  -6   59.19   20.40
   4   3   6   51.19   17.60
   4   3   6   56.49   22.90
   4   3   6   58.99   14.70
   5   3   6   34.90   17.90
   3  -4  -6   25.70   16.40
  -3   4   6   12.30   14.90
  -3   4   6   24.90   15.20
   2  -4  -6   68.09   15.00
   2  -4  -6   51.09   16.50
   2  -4  -6   42.20   16.10
  -2   4   6   43.10   20.50
  -2   4   6   79.29   21.10
  -2   4   6   59.59   17.20
   1  -4  -6  604.34   39.30
   1  -4  -6  605.94   44.60
   1  -4  -6  551.54   37.00
  -1   4   6  537.05   46.30
  -1   4   6  579.24   37.80
  -1   4   6  566.44   42.80
  -1   4   6  571.04   45.80
  -1   4   6  635.54   42.30
   0  -4  -6  138.49   25.50
   0  -4  -6  140.39   25.20
   0  -4  -6  122.69   15.20
   0  -4  -6  148.79   21.20
   0   4   6   94.59   22.40
   0   4   6  120.69   22.10
   0   4   6  138.89   19.30
   0   4   6   89.39   19.20
  -1  -4  -6   89.09   19.50
  -1  -4  -6   63.19   13.10
  -1  -4  -6   83.39   19.10
   1   4   6   54.49   14.60
   1   4   6   90.99   19.00
   1   4   6   85.49   15.70
   1   4   6   66.79   19.30
   1   4   6   67.39   18.00
  -2  -4  -6  211.08   26.00
  -2  -4  -6  183.18   18.50
  -2  -4  -6  130.19   24.50
   2   4   6  186.08   17.80
   2   4   6  153.18   20.90
   2   4   6  157.88   20.90
   2   4   6  188.28   25.70
   2   4   6  190.48   26.40
  -3  -4  -6    7.10   10.70
   3   4   6    8.30   11.40
   3   4   6  -13.30    7.20
   3   4   6  -10.00   10.90
   3   4   6   19.50   12.00
  -4  -4  -6  123.29   27.30
   4   4   6   97.29   27.40
   2  -5  -6   -2.30   14.50
  -2   5   6    0.10   14.40
  -2   5   6   -9.80   14.80
   1  -5  -6   44.00   19.00
   1  -5  -6   89.79   18.70
   1  -5  -6   53.19   21.60
  -1   5   6   47.40   17.70
  -1   5   6   63.09   16.90
  -1   5   6   52.49   19.60
   0  -5  -6  213.48   28.30
   0   5   6  246.58   31.50
   0   5   6  219.58   24.20
   0   5   6  216.68   28.20
  -1  -5  -6   32.30   15.40
   1   5   6   19.50   11.80
   1   5   6   21.30   12.50
   1   5   6   18.70   14.50
   1   5   6    7.90   10.60
  -2  -5  -6    5.70   11.80
   2   5   6    5.70   10.60
   2   5   6  -10.20    8.70
   2   5   6   12.60   12.90
  -3  -5  -6  104.99   26.40
   3   5   6   75.29   20.90
   3   5   6   88.59   27.20
  -4  -5  -6    2.90   20.90
   4   5   6   33.20   21.60
   1  -6  -6   92.49   26.90
  -1   6   6   72.09   24.60
  -1   6   6   23.50   22.50
   0  -6  -6   31.40   19.00
   0   6   6   41.30   15.80
   0   6   6    2.60   15.10
  -1  -6  -6   30.30   19.40
   1   6   6   41.10   17.20
   1   6   6   23.80   18.90
   2   6   6   -3.40   16.50
   2   6   6    2.60   15.00
   3   5  -7  132.79   33.50
   2   5  -7   37.70   15.50
   2   5  -7   76.89   21.20
   1   5  -7   69.99   23.00
   1   5  -7   32.30   19.00
   0   5  -7   35.20   19.00
   0   5  -7   25.90   15.50
  -1   5  -7   92.39   23.70
  -1   5  -7   92.99   28.40
   3   4  -7   62.59   17.50
   3   4  -7   70.29   21.50
   3   4  -7   53.89   20.20
   2   4  -7   27.10   12.20
   2   4  -7   20.70   14.10
   2   4  -7   -2.60   11.20
   1   4  -7   23.20   14.60
   1   4  -7   11.80   10.10
   1   4  -7   41.80   15.80
  -1  -4   7   42.50   16.30
  -1  -4   7   17.90    8.90
   0   4  -7  432.06   38.50
   0   4  -7  436.66   40.60
   0   4  -7  475.25   41.80
   0  -4   7  445.96   31.10
   0  -4   7  408.96   41.40
  -1   4  -7  483.95   36.30
  -1   4  -7  473.25   36.10
  -1   4  -7  540.85   46.30
   1  -4   7  465.15   36.20
   1  -4   7  497.35   37.30
  -2   4  -7   62.19   18.40
  -2   4  -7   70.89   21.30
   2  -4   7   89.39   19.90
  -3   4  -7   28.00   17.40
   4   3  -7  181.98   35.10
   3   3  -7   33.10   14.30
   3   3  -7   44.90   14.80
   2   3  -7  257.47   27.30
   2   3  -7  213.78   25.20
   2   3  -7  249.78   21.20
   2   3  -7  277.57   30.50
  -2  -3   7  270.07   22.40
  -2  -3   7  227.78   29.30
   1   3  -7   11.70   10.40
   1   3  -7   21.60    9.60
   1   3  -7   22.50    4.50
   1   3  -7    9.90   12.10
   1   3  -7    1.90    9.60
  -1  -3   7   12.50   10.20
  -1  -3   7   29.40    5.30
  -1  -3   7   34.40    9.90
   0   3  -7  666.13   45.10
   0   3  -7  612.84   43.20
   0   3  -7  659.63   37.00
   0   3  -7  650.73   41.20
   0  -3   7  643.64   39.70
   0  -3   7  667.33   37.00
  -1   3  -7  156.58   27.60
  -1   3  -7  106.49    9.60
  -1   3  -7  113.69   19.90
  -1   3  -7   82.99   16.50
   1  -3   7  142.09   22.60
   1  -3   7  100.39   15.00
  -2   3  -7   29.70   13.10
  -2   3  -7   12.20   11.20
  -2   3  -7    7.90    7.60
   2  -3   7   16.00   11.30
  -3   3  -7  160.18   31.40
   3  -3   7  124.59   25.80
   4   2  -7   46.60   18.50
   4   2  -7   36.50   15.60
   3   2  -7  424.56   39.20
   3   2  -7  475.45   32.80
   3   2  -7  457.35   30.40
   3   2  -7  469.35   31.70
   3   2  -7  493.25   34.40
  -3  -2   7  468.35   34.60
  -3  -2   7  424.46   38.20
  -3  -2   7  454.05   33.60
   2   2  -7  257.87   24.00
   2   2  -7  252.87   27.40
   2   2  -7  290.37   25.40
   2   2  -7  290.47   23.30
   2   2  -7  276.57   23.50
  -2  -2   7  308.77   25.80
  -2  -2   7  247.68   27.70
  -2  -2   7  256.67   20.30
   1   2  -7  274.37   22.50
   1   2  -7  239.68   10.80
   1   2  -7  267.97   25.10
   1   2  -7  203.78   22.50
  -1  -2   7  270.27   25.30
  -1  -2   7  248.28   20.90
  -1  -2   7  263.97   12.00
   0   2  -7  308.67   25.80
   0   2  -7  345.07   28.90
   0   2  -7  308.77   25.10
   0  -2   7  363.66   26.50
   0  -2   7  306.97   27.80
   0  -2   7  351.36   26.20
  -1   2  -7  452.05   34.90
  -1   2  -7  451.65   32.00
  -1   2  -7  426.16   16.60
  -1   2  -7  399.36   26.10
  -1   2  -7  432.86   16.80
   1  -2   7  428.16   30.50
   1  -2   7  469.05   27.50
   1  -2   7  445.96   33.80
  -2   2  -7  187.68   17.80
  -2   2  -7  230.68   26.40
  -2   2  -7  221.28   27.10
  -2   2  -7  208.38   16.90
   2  -2   7  206.78   18.60
   2  -2   7  172.68   22.60
   2  -2   7  233.28   25.20
  -3   2  -7    7.90    7.80
  -3   2  -7   35.70   14.10
  -3   2  -7   12.90   15.40
   3  -2   7   23.80   11.10
   3  -2   7   16.00    8.90
   3  -2   7   25.50   15.40
  -4   2  -7   76.79   21.20
   4  -2   7   84.69   26.80
   4  -2   7  100.29   24.30
   5   1  -7  101.49   26.80
   5   1  -7  119.19   26.80
   4   1  -7   88.99   21.70
   4   1  -7   60.69   20.20
   4   1  -7   80.89   18.30
  -4  -1   7   74.39   20.70
  -4  -1   7   50.59   17.70
   3   1  -7  388.86   23.70
   3   1  -7  394.96   31.30
   3   1  -7  411.86   44.80
   3   1  -7  422.36   32.40
  -3  -1   7  356.86   32.20
  -3  -1   7  473.45   46.80
  -3  -1   7  486.25   36.90
   2   1  -7  422.86   26.30
   2   1  -7  403.76   28.70
   2   1  -7  459.15   27.20
   2   1  -7  397.56   33.30
   2   1  -7  453.55   27.60
  -2  -1   7  430.86   31.50
  -2  -1   7  363.66   31.80
  -2  -1   7  454.85   28.60
   1   1  -7 1272.37   51.19
   1   1  -7 1270.27   54.89
   1   1  -7 1208.58   49.50
  -1  -1   7 1262.67   53.79
  -1  -1   7 1192.18   36.60
  -1  -1   7 1216.68   50.49
   0   1  -7  519.45   30.30
   0   1  -7  446.46   28.90
   0   1  -7  434.06   30.80
   0  -1   7  478.05   27.70
   0  -1   7  399.46   27.30
   0  -1   7  472.05   31.10
  -1   1  -7 1801.42   69.49
  -1   1  -7 1721.03   44.80
  -1   1  -7 1787.12   65.79
  -1   1  -7 1926.11   55.69
   1  -1   7 1769.02   67.89
   1  -1   7 1858.91   66.09
   1  -1   7 1840.12   46.70
   1  -1   7 1822.02   53.29
  -2   1  -7   49.70   14.30
  -2   1  -7   52.69    8.20
  -2   1  -7   57.79   16.60
  -2   1  -7   76.09   11.10
   2  -1   7   66.59   15.40
   2  -1   7   72.09   13.40
   2  -1   7   58.89   15.80
  -3   1  -7  197.08   22.50
  -3   1  -7  248.18   27.70
  -3   1  -7  274.97   30.50
   3  -1   7  255.17   30.10
   3  -1   7  190.48   25.10
   3  -1   7  245.28   25.10
  -4   1  -7   16.20   12.30
  -4   1  -7   51.79   19.90
   4  -1   7   47.90   19.60
   4  -1   7   21.70   13.00
   4  -1   7   20.40   15.20
   5  -1   7  154.48   34.80
   5   0  -7   -2.90   16.90
   4   0  -7   72.19   20.10
   4   0  -7   75.49   20.80
  -4   0   7  100.99   22.60
  -4   0   7   34.50   16.60
   3   0  -7  102.59   22.80
   3   0  -7  153.08   21.40
   3   0  -7   78.59   17.10
   3   0  -7  107.29   11.00
  -3   0   7   71.79   18.30
  -3   0   7   73.09   22.00
  -3   0   7  123.69   23.90
   2   0  -7  446.66   31.10
   2   0  -7  458.15   34.80
   2   0  -7  418.56   23.90
   2   0  -7  466.55   29.90
  -2   0   7  542.95   36.00
  -2   0   7  443.36   31.00
  -2   0   7  458.55   34.90
   1   0  -7  528.95   34.00
   1   0  -7  490.25   30.50
   1   0  -7  535.65   30.20
  -1   0   7  505.55   32.30
  -1   0   7  486.35   25.40
  -1   0   7  545.05   26.70
  -1   0   7  539.45   29.30
  -1   0   7  531.25   33.50
   0   0  -7   32.60   10.30
   0   0  -7   35.10    9.00
   0   0  -7   34.20   10.60
   0   0   7   28.00    9.60
   0   0   7   28.30    6.30
   0   0   7   52.69   11.80
   0   0   7   54.89   12.10
  -1   0  -7  230.88   16.50
  -1   0  -7  249.88   22.00
  -1   0  -7  204.58   15.30
  -1   0  -7  287.57   25.30
   1   0   7  218.48   20.90
   1   0   7  236.38   16.20
   1   0   7  233.68   22.20
   1   0   7  226.88   16.10
  -2   0  -7  702.13   42.30
  -2   0  -7  683.13   40.60
  -2   0  -7  707.33   18.10
  -2   0  -7  627.54   33.90
   2   0   7  687.53   41.40
   2   0   7  685.83   18.50
   2   0   7  713.43   36.00
   2   0   7  667.43   39.20
  -3   0  -7  331.97   29.70
  -3   0  -7  430.16   35.30
  -3   0  -7  456.05   37.00
   3   0   7  447.96   34.40
   3   0   7  417.46   34.00
   3   0   7  438.96   35.10
  -4   0  -7   78.69   20.30
  -4   0  -7   71.69   18.90
   4   0   7   68.29   18.60
   4   0   7   57.79   19.80
   4   0   7   76.29   20.20
   5   0   7  100.59   29.50
   4  -1  -7   66.69   19.70
   4  -1  -7   94.39   22.90
  -4   1   7   84.89   23.60
   3  -1  -7  138.59   23.70
   3  -1  -7  160.08   27.80
  -3   1   7  137.59   24.00
  -3   1   7   82.69   22.60
   2  -1  -7  164.98   20.10
   2  -1  -7  164.08   13.70
   2  -1  -7  135.99   19.80
  -2   1   7  180.08   20.70
  -2   1   7  147.89   20.60
  -2   1   7  146.29   23.80
   1  -1  -7  730.03   41.50
   1  -1  -7  903.91   57.99
   1  -1  -7  709.83   38.60
  -1   1   7  748.73   34.60
  -1   1   7  770.92   38.10
  -1   1   7  704.83   40.10
  -1   1   7  855.01   43.60
  -1   1   7  739.33   37.40
   0  -1  -7 1231.48   49.60
   0  -1  -7 1200.58   44.20
   0  -1  -7 1108.99   47.50
   0  -1  -7 1159.38   46.70
   0   1   7 1085.79   47.50
   0   1   7 1150.78   46.30
   0   1   7 1077.89   45.70
   0   1   7 1103.59   47.10
  -1  -1  -7  698.73   37.20
  -1  -1  -7  751.22   41.40
  -1  -1  -7  741.03   31.60
  -1  -1  -7  747.63   35.10
   1   1   7  684.93   36.70
   1   1   7  781.62   35.80
   1   1   7  741.73   32.20
   1   1   7  739.93   40.60
  -2  -1  -7  887.31   47.80
  -2  -1  -7  896.41   44.10
  -2  -1  -7  932.51   46.30
   2   1   7  916.11   49.00
   2   1   7  961.10   30.90
   2   1   7  991.20   46.50
   2   1   7  950.50   46.00
  -3  -1  -7   22.60   11.40
  -3  -1  -7   18.00   11.20
  -3  -1  -7   22.70   12.00
   3   1   7   19.00   10.90
   3   1   7   22.40   12.10
   3   1   7   13.90   10.40
  -4  -1  -7   74.49   19.20
  -4  -1  -7   55.89   18.30
   4   1   7   64.09   21.20
   4   1   7   83.39   19.30
   5   1   7   12.50   18.10
   4  -2  -7   -9.70   11.90
  -4   2   7  -25.00   14.00
   3  -2  -7   59.09   18.80
   3  -2  -7   38.10   14.50
  -3   2   7   41.80   17.30
  -3   2   7    6.60   11.90
  -3   2   7   35.10   14.60
   2  -2  -7   58.79   14.50
   2  -2  -7   66.19   10.90
   2  -2  -7   40.00   13.70
  -2   2   7   46.20    9.60
  -2   2   7   65.99   17.40
  -2   2   7  118.59   23.60
  -2   2   7   38.10   13.90
  -2   2   7   41.20   15.50
   1  -2  -7  536.65   30.00
   1  -2  -7  461.85   31.60
   1  -2  -7  466.45   34.10
  -1   2   7  438.86   33.30
  -1   2   7  495.05   34.70
  -1   2   7  495.65   34.40
  -1   2   7  480.35   28.70
  -1   2   7  519.85   35.30
   0  -2  -7  632.94   35.00
   0  -2  -7  688.23   37.40
   0  -2  -7  651.53   36.60
   0  -2  -7  635.34   36.30
   0   2   7  643.54   36.40
   0   2   7  690.63   38.20
   0   2   7  604.24   34.80
   0   2   7  610.44   35.60
  -1  -2  -7  197.78   21.70
  -1  -2  -7  165.78   17.80
  -1  -2  -7  167.88   18.70
  -1  -2  -7  174.08   17.40
   1   2   7  135.59   18.80
   1   2   7  137.49   17.70
   1   2   7  142.09   15.40
   1   2   7  159.08   17.50
  -2  -2  -7  134.59   19.40
  -2  -2  -7   94.39   16.40
  -2  -2  -7  107.79   16.60
   2   2   7  106.39   12.80
   2   2   7  115.69   20.90
   2   2   7  123.99   22.00
   2   2   7  103.39   17.80
  -3  -2  -7  633.94   43.80
  -3  -2  -7  611.54   44.20
  -3  -2  -7  593.44   39.10
   3   2   7  639.24   39.20
   3   2   7  582.14   42.20
   3   2   7  568.44   42.20
   3   2   7  587.04   26.00
   3   2   7  584.44   26.60
  -4  -2  -7   88.09   20.80
  -4  -2  -7   38.50   15.30
   4   2   7   50.09   15.60
   4   2   7   83.69   18.40
   4   2   7   67.89   21.90
   5   2   7   79.99   41.60
   4  -3  -7   53.59   20.20
  -4   3   7   50.39   23.60
  -4   3   7   -1.60   15.40
   3  -3  -7   98.99   22.10
  -3   3   7  107.39   24.70
  -3   3   7  101.09   25.00
   2  -3  -7  115.59   15.30
   2  -3  -7  115.79   24.60
   2  -3  -7   87.39   22.60
  -2   3   7   87.29   21.40
  -2   3   7   88.59   21.30
  -2   3   7  109.19   14.40
  -2   3   7  114.79   24.30
   1  -3  -7  636.94   38.80
   1  -3  -7  671.03   37.10
   1  -3  -7  565.24   40.10
  -1   3   7  688.93   44.70
  -1   3   7  563.04   40.80
  -1   3   7  645.24   45.40
  -1   3   7  629.44   40.90
  -1   3   7  622.24   35.50
   0  -3  -7  229.78   24.10
   0  -3  -7  233.78   22.20
   0  -3  -7  266.27   25.30
   0  -3  -7  266.97   25.60
   0   3   7  236.38   23.60
   0   3   7  233.98   24.10
   0   3   7  240.08   24.10
   0   3   7  253.77   25.70
  -1  -3  -7   13.80    7.50
  -1  -3  -7   -9.30    5.30
  -1  -3  -7    4.50    5.30
  -1  -3  -7   -7.50    4.60
   1   3   7    6.60    6.90
   1   3   7    7.70    7.00
   1   3   7   17.80    9.50
   1   3   7    2.50    7.50
  -2  -3  -7   31.00   12.20
  -2  -3  -7   52.09   17.00
  -2  -3  -7   33.60   12.40
   2   3   7   23.40   12.60
   2   3   7   29.90   10.50
   2   3   7   22.90    9.10
   2   3   7   14.40   10.50
   2   3   7   23.60    9.70
  -3  -3  -7  628.74   39.10
  -3  -3  -7  662.43   46.90
  -3  -3  -7  640.54   46.40
   3   3   7  557.94   40.50
   3   3   7  668.33   49.70
   3   3   7  641.64   38.40
   3   3   7  623.24   34.30
  -4  -3  -7   29.20   17.00
   4   3   7   44.80   20.30
   4   3   7   52.19   14.40
   3  -4  -7   34.10   17.90
  -3   4   7   67.39   24.80
  -3   4   7   44.60   19.00
   2  -4  -7   -0.80    9.40
   2  -4  -7    9.90   11.40
  -2   4   7    5.00   10.90
  -2   4   7    3.00   11.90
   1  -4  -7   45.90   13.20
   1  -4  -7   46.30   15.10
   1  -4  -7   64.09   16.40
  -1   4   7   47.40   14.20
  -1   4   7   85.79   23.10
  -1   4   7   36.60   16.50
  -1   4   7   55.39   19.20
  -1   4   7   60.29   15.20
   0  -4  -7   66.29   17.30
   0  -4  -7   20.50    8.20
   0  -4  -7   40.30   14.40
   0  -4  -7   15.20   10.30
   0   4   7   26.70   12.60
   0   4   7   44.00   18.50
   0   4   7    2.50    8.90
   0   4   7   32.80   18.80
  -1  -4  -7   56.89   21.50
  -1  -4  -7   81.79   30.70
  -1  -4  -7   62.99   14.20
   1   4   7   88.59   26.00
   1   4   7   80.59   14.90
  -2  -4  -7  156.28   29.00
  -2  -4  -7  197.98   19.80
  -2  -4  -7  163.28   25.00
   2   4   7  129.49   16.70
   2   4   7  181.48   23.20
   2   4   7  160.28   23.50
   2   4   7  185.08   32.10
   2   4   7  158.18   20.80
  -3  -4  -7   19.30   14.30
   3   4   7   28.60   12.60
   3   4   7   -0.80   13.60
  -4  -4  -7   36.30   17.90
   4   4   7   70.89   23.10
   2  -5  -7  166.58   32.10
  -2   5   7  174.88   31.90
  -2   5   7  174.38   38.10
   1  -5  -7  183.58   26.40
   1  -5  -7  200.58   28.30
   1  -5  -7  169.38   30.60
  -1   5   7  238.48   28.60
  -1   5   7  199.88   26.60
  -1   5   7  204.18   37.00
   0  -5  -7   36.40   17.40
   0   5   7   46.10   18.70
   0   5   7   61.89   19.20
   0   5   7   36.10   14.20
  -1  -5  -7    9.00   13.10
   1   5   7   23.90   14.40
   1   5   7   46.20   16.30
   1   5   7   18.50   14.90
  -2  -5  -7  165.38   33.10
   2   5   7  127.89   26.50
   2   5   7  124.69   29.30
   2   5   7  124.09   25.50
  -3  -5  -7   51.19   18.30
   3   5   7   20.30   13.30
   3   5   7   66.49   20.60
   1  -6  -7   97.99   25.40
  -1   6   7   66.39   21.80
   0  -6  -7   41.10   19.20
   0   6   7   13.80   17.70
  -1  -6  -7  152.48   32.20
   1   6   7  136.19   33.40
   1   6   7  115.49   28.10
  -2  -6  -7   99.69   25.20
   2   6   7   28.10   16.10
   2   6   7   51.99   21.80
   2   5  -8   25.40   18.30
   2   5  -8   27.40   18.40
   1   5  -8   43.20   18.50
   1   5  -8   12.20   18.80
   0   5  -8  123.39   27.10
   0   5  -8   75.39   21.50
  -1   5  -8   78.89   22.40
   3   4  -8  125.69   28.40
   3   4  -8  220.18   49.80
   2   4  -8  127.99   27.50
   2   4  -8  177.58   26.40
   1   4  -8  446.66   40.10
   1   4  -8  409.86   39.20
   0   4  -8  197.78   27.50
   0   4  -8  185.98   33.10
   0  -4   8  150.18   20.20
   0  -4   8  139.49   26.00
  -1   4  -8   36.10   19.00
  -1   4  -8   64.09   17.90
  -1   4  -8   48.10   16.50
   1  -4   8   44.20   16.80
   1  -4   8   67.39   15.70
  -2   4  -8  149.88   30.40
   2  -4   8  129.39   24.00
  -3   4  -8   47.00   24.00
   4   3  -8  528.65   61.69
   3   3  -8   -0.90    9.70
   3   3  -8  -10.10   11.10
   2   3  -8  469.25   41.50
   2   3  -8  489.35   37.80
   2   3  -8  498.05   38.20
  -2  -3   8  429.26   31.10
  -2  -3   8  412.96   38.60
   1   3  -8   21.90   13.20
   1   3  -8   17.10    9.10
   1   3  -8   24.40   13.40
   1   3  -8   13.60   14.60
  -1  -3   8   14.70    9.90
  -1  -3   8   23.80   13.60
   0   3  -8  130.69   17.70
   0   3  -8  145.69   24.20
   0   3  -8   93.39   21.80
   0  -3   8  123.89   17.10
   0  -3   8  149.79   19.60
  -1   3  -8  352.36   29.40
  -1   3  -8  317.37   29.30
  -1   3  -8  305.27   33.30
   1  -3   8  319.27   27.40
   1  -3   8  365.86   30.10
  -2   3  -8  301.17   32.00
  -2   3  -8  256.47   33.50
   2  -3   8  307.87   32.70
  -3   3  -8   90.19   25.50
   3  -3   8  110.19   24.20
   4   2  -8   98.19   27.90
  -4  -2   8   69.39   21.90
   3   2  -8   11.00    9.20
   3   2  -8   24.90   11.30
   3   2  -8  -12.90    8.20
   3   2  -8   30.20   12.90
  -3  -2   8   35.60   13.70
   2   2  -8   51.29   10.60
   2   2  -8   80.49   15.10
   2   2  -8   58.09   14.80
   2   2  -8   81.89   17.10
  -2  -2   8  104.89   13.40
  -2  -2   8   94.89   18.60
   1   2  -8  845.92   48.30
   1   2  -8  847.32   46.80
   1   2  -8  824.02   42.30
  -1  -2   8  760.32   44.80
  -1  -2   8  773.52   41.00
   0   2  -8  728.53   45.50
   0   2  -8  671.43   39.40
   0   2  -8  739.33   41.90
   0  -2   8  688.53   43.80
   0  -2   8  730.83   40.20
   0  -2   8  726.13   39.80
  -1   2  -8  140.59   24.90
  -1   2  -8  122.19   21.30
  -1   2  -8  121.89    5.70
  -1   2  -8  130.19   16.80
   1  -2   8   72.49   18.30
   1  -2   8  136.59   15.80
   1  -2   8  140.29   18.90
  -2   2  -8  490.85   43.00
  -2   2  -8  480.85   39.90
  -2   2  -8  552.74   39.40
   2  -2   8  508.05   40.00
   2  -2   8  555.34   48.70
  -3   2  -8  156.08   29.70
   3  -2   8   88.39   21.80
   3  -2   8   93.79   20.50
   3  -2   8   63.29   15.50
  -4   2  -8   93.89   25.60
   4  -2   8   33.20   20.40
   4   1  -8   25.40   14.00
   4   1  -8   17.00   14.30
  -4  -1   8    5.00   14.30
  -4  -1   8   37.20   20.50
   3   1  -8  101.49   18.70
   3   1  -8  103.69   19.30
   3   1  -8   71.19   14.00
   3   1  -8  101.39   21.70
  -3  -1   8   69.29   18.30
  -3  -1   8   47.10   17.90
  -3  -1   8   73.89   17.60
   2   1  -8  330.97   26.10
   2   1  -8  367.86   33.70
   2   1  -8  363.76   29.00
   2   1  -8  332.57   23.20
  -2  -1   8  302.37   30.60
  -2  -1   8  324.77   29.50
   1   1  -8  205.38   23.40
   1   1  -8  217.18   21.30
   1   1  -8  177.38   20.60
  -1  -1   8  161.78   20.00
  -1  -1   8  202.68   20.70
  -1  -1   8  239.28   22.80
  -1  -1   8  196.28   13.40
  -1  -1   8  224.28   14.40
   0   1  -8  315.47   25.90
   0   1  -8  356.36   26.90
   0   1  -8  378.16   30.30
   0  -1   8  343.77   25.50
   0  -1   8  336.77   27.50
   0  -1   8  341.97   26.80
  -1   1  -8   74.39   18.40
  -1   1  -8   69.79   21.10
  -1   1  -8   56.39   14.10
  -1   1  -8   47.70    6.30
   1  -1   8   53.19    7.60
   1  -1   8   52.19   12.90
   1  -1   8   57.39   11.10
   1  -1   8   45.20   13.20
  -2   1  -8    4.20    5.30
  -2   1  -8   10.40    5.10
  -2   1  -8   10.40    9.70
  -2   1  -8   -7.90    8.00
   2  -1   8    3.50    5.30
   2  -1   8    5.10    8.90
   2  -1   8   15.30    9.40
   2  -1   8    4.30    3.80
  -3   1  -8  440.66   47.80
  -3   1  -8  289.67   33.50
  -3   1  -8  313.47   27.70
   3  -1   8  357.66   34.10
   3  -1   8  232.38   32.60
   3  -1   8  352.06   30.50
  -4   1  -8   37.70   15.80
   4  -1   8   30.40   15.50
   4  -1   8   15.10   11.00
   4  -1   8   12.90   12.50
   4   0  -8   82.79   23.60
   4   0  -8   44.90   19.80
  -4   0   8   88.69   23.30
   3   0  -8  892.11   50.29
   3   0  -8  939.71   57.19
   3   0  -8  867.91   50.29
  -3   0   8  949.90   57.79
  -3   0   8  813.82   54.59
  -3   0   8  891.31   51.99
   2   0  -8  391.26   25.10
   2   0  -8  377.46   33.90
   2   0  -8  415.66   31.60
  -2   0   8  379.06   32.90
  -2   0   8  414.86   33.10
  -2   0   8  373.36   28.90
  -2   0   8  380.46   24.10
   1   0  -8  224.68   23.80
   1   0  -8  215.18   20.90
   1   0  -8  211.18   21.10
  -1   0   8  247.28   18.50
  -1   0   8  234.78   23.40
  -1   0   8  222.18   17.60
  -1   0   8  231.88   23.60
  -1   0   8  208.08   30.20
   0   0  -8  213.68   22.10
   0   0  -8  202.28   20.70
   0   0  -8  197.68   19.80
   0   0   8  176.98   19.20
   0   0   8  236.18   22.40
   0   0   8  234.18   15.40
  -1   0  -8 1121.89   41.30
  -1   0  -8 1128.09   51.39
  -1   0  -8 1041.70   38.00
  -1   0  -8 1083.59   53.19
   1   0   8 1043.40   51.19
   1   0   8 1003.60   38.70
   1   0   8 1060.49   38.60
   1   0   8 1024.80   49.10
  -2   0  -8    3.80    2.70
  -2   0  -8   12.70    9.70
  -2   0  -8    2.60    6.50
  -2   0  -8    3.70    8.80
   2   0   8   14.50    9.70
   2   0   8    4.00    3.20
   2   0   8    6.80    8.00
   2   0   8   -1.50    5.80
  -3   0  -8  454.45   34.50
  -3   0  -8  410.96   36.30
  -3   0  -8  426.66   36.80
   3   0   8  427.66   36.70
   3   0   8  460.55   38.40
   3   0   8  433.06   34.90
  -4   0  -8   62.69   18.50
  -4   0  -8  109.19   23.90
   4   0   8   64.89   19.00
   4   0   8   23.00   14.80
   4   0   8   32.30   16.60
   5   0   8   18.30   19.80
   5   0   8   25.90   21.80
   4  -1  -8  324.67   40.10
   4  -1  -8  247.48   33.30
  -4   1   8  347.27   39.10
   3  -1  -8  192.48   28.30
   3  -1  -8  203.88   24.20
  -3   1   8  135.99   31.90
  -3   1   8  188.38   26.50
  -3   1   8  222.18   28.50
   2  -1  -8  183.58   22.60
   2  -1  -8  196.68   25.10
   2  -1  -8  197.98   17.30
  -2   1   8  194.08   16.50
  -2   1   8  209.98   25.50
  -2   1   8  243.58   26.80
  -2   1   8  235.18   24.80
  -2   1   8  191.38   22.10
   1  -1  -8  211.28   20.20
   1  -1  -8  187.58   23.20
   1  -1  -8  202.18   21.70
  -1   1   8  209.18   22.90
  -1   1   8  191.98   19.50
  -1   1   8  195.48   20.20
  -1   1   8  154.88   20.60
  -1   1   8  242.58   24.30
   0  -1  -8 1570.44   61.29
   0  -1  -8 1570.44   61.49
   0  -1  -8 1605.44   59.69
   0  -1  -8 1540.25   53.89
   0   1   8 1607.74   59.99
   0   1   8 1555.44   60.39
   0   1   8 1623.64   55.19
   0   1   8 1586.24   61.59
  -1  -1  -8  293.27   27.80
  -1  -1  -8  300.97   22.40
  -1  -1  -8  284.97   25.30
  -1  -1  -8  306.17   33.00
   1   1   8  279.57   26.60
   1   1   8  344.97   27.30
   1   1   8  306.37   21.60
   1   1   8  315.97   22.90
  -2  -1  -8 1041.00   55.19
  -2  -1  -8 1009.80   51.09
  -2  -1  -8  988.00   47.50
  -2  -1  -8 1018.60   33.50
   2   1   8 1065.49   55.19
   2   1   8  917.71   47.80
   2   1   8 1122.49   50.89
   2   1   8  994.10   34.20
  -3  -1  -8   15.30   10.50
  -3  -1  -8    0.00    7.30
  -3  -1  -8   12.00   11.70
   3   1   8   -3.90    6.90
   3   1   8   10.10    9.00
   3   1   8    0.30    8.70
  -4  -1  -8   78.09   19.40
  -4  -1  -8  146.29   28.00
   4   1   8   98.49   23.30
   4   1   8  129.09   28.70
   4   1   8   78.69   21.00
   5   1   8   42.50   23.40
   5   1   8   13.80   21.20
   4  -2  -8   51.19   20.90
  -4   2   8   12.10   18.10
   3  -2  -8  208.88   29.80
  -3   2   8  265.77   33.30
  -3   2   8  291.27   33.20
   2  -2  -8  129.79   27.50
   2  -2  -8  132.19   26.80
  -2   2   8  152.68   26.50
  -2   2   8  132.59   14.90
  -2   2   8  148.99   27.20
  -2   2   8   95.09   21.10
   1  -2  -8  146.19   23.40
   1  -2  -8  142.69   17.30
   1  -2  -8  147.69   20.40
  -1   2   8  154.38   21.10
  -1   2   8  133.09   23.30
  -1   2   8  158.38   17.50
  -1   2   8  132.49   19.10
  -1   2   8  130.19   17.90
   0  -2  -8  134.29   18.00
   0  -2  -8  154.88   19.00
   0  -2  -8  144.79   18.90
   0  -2  -8  133.79   17.60
   0   2   8  139.69   18.80
   0   2   8  207.48   21.70
   0   2   8  143.39   18.40
   0   2   8  174.08   20.30
  -1  -2  -8  981.50   51.09
  -1  -2  -8  970.80   47.20
  -1  -2  -8  959.30   43.30
  -1  -2  -8  979.30   48.10
   1   2   8  959.80   44.40
   1   2   8  960.20   50.29
   1   2   8  982.80   48.50
   1   2   8  974.50   47.00
  -2  -2  -8   95.19   19.40
  -2  -2  -8  130.39   24.30
  -2  -2  -8   95.69   18.70
   2   2   8   93.99   18.90
   2   2   8   98.09   18.00
   2   2   8   60.69   17.10
   2   2   8   96.59   13.50
  -3  -2  -8  194.48   39.30
  -3  -2  -8  127.19   23.00
  -3  -2  -8  113.49   23.30
   3   2   8  119.89   24.50
   3   2   8  133.29   22.70
   3   2   8  164.28   30.10
  -4  -2  -8  225.98   30.20
  -4  -2  -8  264.57   31.90
   4   2   8  283.17   33.50
   4   2   8  256.77   33.20
   4   2   8  315.67   36.10
   5   2   8   -9.10   18.30
   5   2   8    4.60   16.80
   4  -3  -8   23.70   25.90
  -4   3   8   64.89   24.30
  -4   3   8   17.10   27.30
   3  -3  -8   18.80   14.40
  -3   3   8   22.30   19.00
  -3   3   8   46.10   18.80
   2  -3  -8  104.99   21.90
   2  -3  -8  150.48   17.50
   2  -3  -8   98.89   22.90
  -2   3   8  104.09   23.70
  -2   3   8  136.19   26.10
  -2   3   8  116.19   24.00
  -2   3   8  111.09   25.10
   1  -3  -8  171.78   24.10
   1  -3  -8  152.58   19.80
  -1   3   8  163.98   19.00
  -1   3   8  124.29   24.50
  -1   3   8  215.48   27.80
  -1   3   8  143.29   21.50
  -1   3   8  149.99   25.40
   0  -3  -8  172.38   21.90
   0  -3  -8  183.98   23.10
   0  -3  -8  145.79   20.80
   0  -3  -8  163.98   19.90
   0   3   8  205.88   23.60
   0   3   8  149.79   20.70
   0   3   8  213.88   25.30
   0   3   8  167.08   22.70
  -1  -3  -8  347.27   27.60
  -1  -3  -8  297.87   26.60
  -1  -3  -8  330.77   30.90
  -1  -3  -8  346.17   30.80
   1   3   8  302.17   25.70
   1   3   8  338.67   27.60
   1   3   8  305.37   30.10
   1   3   8  339.57   32.30
  -2  -3  -8   16.40    8.90
  -2  -3  -8    7.70    7.80
   2   3   8  -11.60    7.90
   2   3   8   -2.90    6.90
   2   3   8    3.30    7.80
   2   3   8    4.30    7.80
  -3  -3  -8   97.39   23.30
  -3  -3  -8  172.18   30.00
  -3  -3  -8  109.69   19.20
   3   3   8  138.09   19.60
   3   3   8  153.18   30.10
   3   3   8  116.29   16.60
   3   3   8  105.69   23.30
  -4  -3  -8   27.80   16.30
   4   3   8   29.30   13.70
   4   3   8    7.10   17.60
   3  -4  -8  -13.60   15.30
  -3   4   8   36.40   16.60
   2  -4  -8   21.60   13.10
  -2   4   8    4.20   12.70
  -2   4   8   40.50   15.50
   1  -4  -8  672.23   42.10
   1  -4  -8  653.03   48.50
  -1   4   8  688.33   53.69
  -1   4   8  651.03   54.59
  -1   4   8  643.74   41.50
  -1   4   8  470.15   42.80
  -1   4   8  604.34   49.10
   0  -4  -8    3.70    9.70
   0  -4  -8   36.70   13.80
   0  -4  -8   49.40   16.30
   0  -4  -8   38.70   15.80
   0   4   8   44.00   15.00
   0   4   8   21.60   13.20
   0   4   8   23.40   11.40
   0   4   8   26.00   12.50
  -1  -4  -8   75.59   18.50
  -1  -4  -8   74.09   16.40
  -1  -4  -8   54.39   17.30
   1   4   8   67.49   18.10
   1   4   8   84.49   19.50
   1   4   8   55.69   14.10
   1   4   8   78.49   20.00
  -2  -4  -8  174.28   22.30
  -2  -4  -8  168.78   30.40
  -2  -4  -8  143.79   26.40
   2   4   8  153.78   22.20
   2   4   8  170.98   31.20
   2   4   8  169.08   20.70
   2   4   8  178.58   22.70
   2   4   8  111.29   24.60
  -3  -4  -8   63.69   21.80
   3   4   8   85.39   19.50
   3   4   8   53.79   22.00
  -4  -4  -8   51.29   20.60
   4   4   8   25.30   28.80
  -2   5   8  100.69   33.80
  -2   5   8   76.09   26.90
   1  -5  -8   -3.90    9.20
   1  -5  -8   25.50   16.00
   1  -5  -8    6.10   14.00
  -1   5   8   35.60   16.50
  -1   5   8   18.20   16.90
   0  -5  -8   28.00   14.10
   0  -5  -8   14.70   12.30
   0   5   8    5.90   11.70
   0   5   8    9.80   11.30
  -1  -5  -8   18.90   13.10
   1   5   8   28.80   16.10
   1   5   8   16.90   11.10
  -2  -5  -8  167.28   32.80
   2   5   8  158.18   34.20
   2   5   8  135.79   28.60
   2   5   8  143.39   28.50
  -3  -5  -8   25.70   16.20
   0  -6  -8   26.40   21.10
   0   6   8    1.00   13.20
   0   6   8   16.00   19.40
   1   6   8   -2.50   10.60
   1   6   8   22.10   20.40
  -2  -6  -8   20.30   18.70
   2   6   8   14.40   14.90
   2   6   8   42.70   21.00
   1   5  -9  104.19   32.70
   1   5  -9  109.09   28.50
   0   5  -9  284.77   39.20
   0   5  -9  174.78   31.30
  -1   5  -9  -16.10   16.70
   3   4  -9   25.70   20.30
   3   4  -9  113.49   26.90
   2   4  -9  -19.90    9.20
   2   4  -9   14.00   14.50
   1   4  -9  282.47   35.80
   1   4  -9  294.07   36.40
   0   4  -9   67.79   21.50
   0   4  -9  110.09   24.90
   0  -4   9  122.19   21.20
   0  -4   9  126.09   26.00
  -1   4  -9    9.20   11.60
  -1   4  -9   -8.70   10.50
   1  -4   9    4.80    7.80
  -2   4  -9    5.90   16.80
   2  -4   9  -13.60   10.30
   3   3  -9   83.49   20.60
   3   3  -9  105.89   25.90
   2   3  -9   18.60   11.90
   2   3  -9   23.30   15.00
   2   3  -9   -8.40    9.20
  -2  -3   9    8.60    8.90
   1   3  -9  386.06   35.90
   1   3  -9  437.76   38.60
   1   3  -9  410.46   31.50
   1   3  -9  429.36   38.80
  -1  -3   9  434.76   37.90
  -1  -3   9  463.15   33.20
   0   3  -9  681.13   43.80
   0   3  -9  736.73   50.49
   0   3  -9  670.93   46.00
   0  -3   9  709.63   42.80
   0  -3   9  764.12   45.90
  -1   3  -9   61.29   19.50
  -1   3  -9   71.09   18.30
  -1   3  -9   77.29   21.60
   1  -3   9  128.99   24.00
   1  -3   9   52.69   16.30
  -2   3  -9   23.00   15.90
   2  -3   9    1.00   10.10
  -3   3  -9  158.28   33.10
   3  -3   9  146.79   27.30
   3   2  -9  143.59   24.30
   3   2  -9  108.49   25.00
   3   2  -9  176.38   32.70
  -3  -2   9  152.48   26.70
   2   2  -9   43.70   13.80
   2   2  -9   22.40   10.80
   2   2  -9   26.20   14.90
   2   2  -9   31.10   13.50
  -2  -2   9   36.10   13.10
  -2  -2   9   53.39   17.50
   1   2  -9  358.46   32.40
   1   2  -9  334.97   32.10
   1   2  -9  288.47   27.90
  -1  -2   9  317.87   30.70
  -1  -2   9  343.17   29.20
   0   2  -9  448.66   34.00
   0   2  -9  489.65   38.80
   0   2  -9  480.65   34.70
   0  -2   9  453.45   37.00
   0  -2   9  463.15   33.10
   0  -2   9  495.55   34.50
  -1   2  -9  -10.60    6.60
  -1   2  -9   11.00    9.80
   1  -2   9   -1.60    5.20
   1  -2   9  -13.00    5.70
  -2   2  -9  108.59   22.60
  -2   2  -9   94.19   19.40
   2  -2   9   93.39   20.90
   2  -2   9  100.89   21.20
  -3   2  -9   17.20   15.50
   3  -2   9    5.30   11.00
  -4   2  -9  355.86   39.50
   4  -2   9  309.57   38.60
   4   1  -9   25.70   13.70
   4   1  -9    2.50   15.80
  -4  -1   9    4.00   15.60
   3   1  -9  163.28   21.80
   3   1  -9  136.79   28.00
   3   1  -9  146.09   24.20
  -3  -1   9  118.59   29.50
  -3  -1   9  123.19   25.30
   2   1  -9  803.52   45.40
   2   1  -9  706.63   40.40
  -2  -1   9  801.62   47.50
   1   1  -9  490.05   35.40
   1   1  -9  540.95   39.10
   1   1  -9  531.05   36.20
  -1  -1   9  511.05   37.60
  -1  -1   9  573.24   23.70
  -1  -1   9  577.34   37.90
  -1  -1   9  562.44   36.30
  -1  -1   9  556.74   22.90
   0   1  -9  288.87   28.50
   0   1  -9  318.47   28.20
   0   1  -9  283.87   26.90
   0  -1   9  276.47   24.50
   0  -1   9  243.28   24.90
   0  -1   9  261.57   25.10
  -1   1  -9  467.55   18.90
  -1   1  -9  469.15   35.70
  -1   1  -9  495.75   39.40
  -1   1  -9  507.05   30.60
   1  -1   9  429.06   35.30
   1  -1   9  516.05   36.20
   1  -1   9  473.85   20.00
   1  -1   9  534.45   29.00
  -2   1  -9  504.45   42.00
  -2   1  -9  455.35   26.40
  -2   1  -9  466.35   23.00
   2  -1   9  440.46   37.30
   2  -1   9  392.46   40.60
   2  -1   9  480.15   28.40
   2  -1   9  493.05   22.80
  -3   1  -9   20.00   13.50
   3  -1   9   34.50   14.40
   3  -1   9    7.90   11.50
   3  -1   9   31.20   13.30
  -4   1  -9  225.98   36.00
   4  -1   9  205.18   31.20
   4  -1   9  230.28   29.90
   4   0  -9   -3.50    8.10
   4   0  -9    5.80   16.50
  -4   0   9   -0.70   12.50
   3   0  -9  136.89   25.00
   3   0  -9  117.69   22.60
   3   0  -9  131.19   26.60
  -3   0   9  156.18   22.90
  -3   0   9  113.09   31.10
  -3   0   9  155.88   27.80
   2   0  -9   69.09   18.00
   2   0  -9   45.80   12.30
   2   0  -9   74.19   16.90
  -2   0   9   91.19   20.20
  -2   0   9   67.39   15.50
  -2   0   9   52.19   13.50
  -2   0   9   58.19   18.30
   1   0  -9  484.15   33.70
   1   0  -9  475.95   35.70
   1   0  -9  500.75   33.50
  -1   0   9  425.16   28.10
  -1   0   9  474.25   34.60
  -1   0   9  498.55   35.60
  -1   0   9  449.86   26.00
  -1   0   9  475.55   32.00
   0   0  -9  154.18   20.40
   0   0  -9  154.38   19.50
   0   0  -9  138.29   19.10
   0   0   9  155.38   20.10
   0   0   9  149.88   18.00
   0   0   9  152.68   13.80
   0   0   9  136.19   18.10
  -1   0  -9 1172.48   42.10
  -1   0  -9 1163.78   57.09
  -1   0  -9 1304.67   48.60
  -1   0  -9 1267.77   61.29
   1   0   9 1197.08   56.39
   1   0   9 1241.18   59.49
   1   0   9 1244.18   46.20
   1   0   9 1230.88   43.40
  -2   0  -9   45.00   15.70
  -2   0  -9   30.80    6.40
  -2   0  -9   26.00   13.20
   2   0   9   39.10   13.10
   2   0   9   23.70    6.30
   2   0   9   19.20   12.20
   2   0   9   21.40   10.50
  -3   0  -9   91.79   20.10
  -3   0  -9  108.79   24.90
  -3   0  -9   54.89   14.60
   3   0   9   81.79   20.30
   3   0   9   88.09   20.60
   3   0   9   56.09   19.10
  -4   0  -9   42.70   18.30
   4   0   9   42.50   17.10
   4   0   9   37.10   18.80
   4  -1  -9   71.89   22.90
  -4   1   9   43.90   22.90
   3  -1  -9   62.79   19.00
  -3   1   9   29.80   16.30
  -3   1   9  111.89   24.80
   2  -1  -9  616.04   32.60
  -2   1   9  679.23   42.80
  -2   1   9  602.04   39.60
  -2   1   9  587.64   31.20
  -2   1   9  634.94   53.09
   1  -1  -9  134.09   17.60
   1  -1  -9  114.59   20.70
   1  -1  -9  101.59   21.30
  -1   1   9  119.29   16.20
  -1   1   9   83.49   16.00
  -1   1   9  121.19   22.40
  -1   1   9  122.29   16.80
  -1   1   9  104.29   20.40
   0  -1  -9   14.60    9.30
   0  -1  -9   -1.90    4.70
   0  -1  -9   -0.60    6.60
   0  -1  -9    4.90    7.70
   0   1   9    5.50    7.00
   0   1   9   -9.20    7.10
   0   1   9    0.40    6.30
   0   1   9   -4.70    5.00
  -1  -1  -9  164.68   21.20
  -1  -1  -9  143.19   20.00
  -1  -1  -9  145.59   21.20
  -1  -1  -9  154.78   16.70
   1   1   9  176.98   21.70
   1   1   9  169.58   18.50
   1   1   9  156.88   17.80
   1   1   9  163.18   21.60
  -2  -1  -9  493.15   23.80
  -2  -1  -9  492.45   33.00
  -2  -1  -9  508.05   39.70
  -2  -1  -9  473.05   37.50
   2   1   9  487.85   34.60
   2   1   9  451.25   23.30
   2   1   9  493.55   36.40
   2   1   9  387.66   34.30
  -3  -1  -9  122.99   25.80
  -3  -1  -9   73.09   17.70
  -3  -1  -9  108.19   20.90
   3   1   9  100.79   22.80
   3   1   9   81.89   20.40
   3   1   9   95.29   21.60
  -4  -1  -9   84.29   22.90
   4   1   9   70.29   21.50
   4   1   9   64.29   21.20
   4  -2  -9   35.50   30.10
  -4   2   9    5.80   15.80
  -4   2   9   53.79   24.50
   3  -2  -9   76.29   21.40
  -3   2   9  102.39   23.50
  -3   2   9   47.40   21.10
   2  -2  -9  149.88   17.20
   2  -2  -9  128.99   27.00
   2  -2  -9  174.18   22.20
  -2   2   9  221.08   28.00
  -2   2   9  164.48   24.30
  -2   2   9  209.68   27.50
  -2   2   9  160.28   28.50
   1  -2  -9   17.50   10.20
   1  -2  -9   20.50   10.20
   1  -2  -9   18.10   10.30
  -1   2   9   10.10    9.40
  -1   2   9   26.60    9.50
  -1   2   9    9.70    8.50
  -1   2   9   16.50   12.20
  -1   2   9   14.20    9.70
   0  -2  -9   17.60   10.60
   0  -2  -9   21.60   11.50
   0  -2  -9   33.80   12.30
   0  -2  -9   43.70   11.90
   0   2   9   34.50   12.80
   0   2   9   28.70   11.40
   0   2   9   17.50    9.90
   0   2   9   20.60   10.80
  -1  -2  -9   25.40   13.80
  -1  -2  -9   24.80   10.70
  -1  -2  -9   50.29   12.80
  -1  -2  -9   24.30    9.90
   1   2   9   36.10   10.40
   1   2   9   25.80   11.50
   1   2   9   19.50   11.00
   1   2   9   42.90   12.40
  -2  -2  -9  881.11   49.70
  -2  -2  -9  812.92   52.19
  -2  -2  -9  895.21   49.90
  -2  -2  -9  929.41   39.80
   2   2   9  907.41   50.39
   2   2   9  796.52   51.59
   2   2   9  865.51   39.20
   2   2   9  927.21   49.60
  -3  -2  -9  116.49   24.10
  -3  -2  -9   71.09   20.50
   3   2   9   81.89   23.20
   3   2   9   93.19   23.70
   3   2   9   74.99   19.10
  -4  -2  -9   22.50   15.20
   4   2   9   11.10   15.90
   4   2   9    1.90   11.70
   3  -3  -9    2.40   14.10
  -3   3   9   54.49   21.30
  -3   3   9   12.80   19.60
   2  -3  -9   87.59   22.50
   2  -3  -9   81.89   19.90
  -2   3   9   91.19   24.50
  -2   3   9  103.39   23.00
  -2   3   9   82.39   22.20
   1  -3  -9   69.79   15.90
   1  -3  -9  132.79   27.90
   1  -3  -9   80.39   20.90
  -1   3   9   86.39   20.10
  -1   3   9  102.69   19.20
  -1   3   9   64.09   22.40
  -1   3   9   68.59   18.60
  -1   3   9  128.19   32.30
   0  -3  -9  481.85   37.40
   0  -3  -9  497.15   37.40
   0  -3  -9  438.16   34.40
   0  -3  -9  446.16   36.10
   0   3   9  520.75   40.30
   0   3   9  412.36   35.40
   0   3   9  489.05   37.00
   0   3   9  453.45   35.60
  -1  -3  -9   60.59   16.70
  -1  -3  -9   69.99   17.30
  -1  -3  -9   81.49   19.10
  -1  -3  -9   87.99   18.40
   1   3   9   59.19   16.20
   1   3   9   60.69   18.10
   1   3   9   57.09   15.40
   1   3   9   73.09   16.20
  -2  -3  -9  211.18   28.40
  -2  -3  -9  210.78   23.60
   2   3   9  190.08   23.70
   2   3   9  238.58   23.40
   2   3   9  194.08   48.00
  -3  -3  -9   31.50   16.80
  -3  -3  -9   24.10   15.50
  -3  -3  -9   10.50   15.30
   3   3   9   32.50   14.90
   3   3   9   44.30   18.70
  -4  -3  -9  103.49   25.60
   4   3   9   67.69   20.00
   4   3   9   84.29   26.50
   3  -4  -9   65.39   23.70
  -3   4   9   78.09   25.80
  -3   4   9   28.90   23.50
   2  -4  -9   78.19   21.10
  -2   4   9   79.79   22.00
  -2   4   9   73.79   24.70
   1  -4  -9   78.89   22.20
   1  -4  -9  102.29   22.20
   1  -4  -9   79.49   19.80
  -1   4   9  106.89   28.10
  -1   4   9  102.99   19.30
  -1   4   9  123.89   23.90
   0  -4  -9  253.17   26.00
   0  -4  -9  208.58   28.40
   0  -4  -9  282.37   32.20
   0  -4  -9  222.28   28.40
   0   4   9  227.98   28.50
   0   4   9  183.38   28.20
   0   4   9  235.78   28.00
   0   4   9  234.38   27.90
  -1  -4  -9    2.60    9.60
  -1  -4  -9    9.30   10.80
  -1  -4  -9   -2.50   10.50
   1   4   9   13.40   10.30
   1   4   9   11.40   12.90
   1   4   9   12.60   11.00
  -2  -4  -9   22.00   13.60
   2   4   9    5.60   12.50
   2   4   9   -4.70   10.70
   2   4   9    9.90   10.40
   2   4   9  -10.00    8.10
  -3  -4  -9  309.27   37.70
   3   4   9  251.57   38.50
  -4  -4  -9  -32.30   18.20
   4   4   9   41.90   20.90
   2  -5  -9    2.00   15.50
  -2   5   9  -30.10   19.20
  -2   5   9  -15.60   16.80
   1  -5  -9   32.90   17.90
   1  -5  -9   11.10   15.50
  -1   5   9   29.90   15.70
  -1   5   9    0.80   19.70
   0  -5  -9   43.90   18.60
   0  -5  -9   82.39   21.50
   0   5   9   36.70   20.10
   0   5   9   15.80   14.90
  -1  -5  -9   37.10   17.00
   1   5   9   44.20   21.50
  -2  -5  -9   58.19   21.30
   2   5   9   37.30   15.60
   2   5   9   60.69   25.10
  -3  -5  -9    9.70   15.70
   3   5   9   -6.70   15.40
   0   6   9   41.00   23.60
  -1  -6  -9   20.70   16.60
   1   6   9    3.50   22.40
   1   6   9   15.30   20.90
   2   4 -10   13.60   17.40
   2   4 -10   10.40   13.20
   1   4 -10  164.28   33.90
   1   4 -10  126.29   27.70
   0   4 -10   25.20   18.50
   0   4 -10   48.40   17.90
   0  -4  10   50.09   21.60
  -1   4 -10  232.48   33.90
   1  -4  10  241.58   33.10
  -2   4 -10   72.09   22.80
   2  -4  10   53.09   22.60
   2   3 -10  196.28   28.00
   2   3 -10  196.28   28.10
   2   3 -10  176.68   32.80
  -2  -3  10  235.18   28.20
   1   3 -10   97.79   23.40
   1   3 -10  112.49   25.10
   1   3 -10   82.59   20.10
   1   3 -10  113.99   21.40
  -1  -3  10  116.49   20.80
  -1  -3  10   86.99   22.10
   0   3 -10  103.09   26.00
   0   3 -10  121.19   22.40
   0   3 -10   92.29   22.30
   0  -3  10  110.39   36.00
   0  -3  10  151.98   24.30
  -1   3 -10  235.38   29.90
  -1   3 -10  205.78   29.60
  -1   3 -10  187.18   25.20
   1  -3  10  205.08   27.50
  -2   3 -10   76.39   22.60
   2  -3  10   68.89   19.20
  -3   3 -10   31.80   22.80
   4   2 -10   85.89   27.20
   3   2 -10   57.79   19.80
  -3  -2  10   66.99   19.80
   2   2 -10  169.38   30.20
   2   2 -10  167.68   23.80
   2   2 -10  190.78   23.50
   2   2 -10  151.48   22.60
  -2  -2  10  227.98   26.70
   1   2 -10  632.04   74.59
   1   2 -10  836.82   51.39
   1   2 -10  688.63   43.90
  -1  -2  10  752.52   45.80
   0   2 -10   79.29   19.70
   0   2 -10   94.19   21.10
   0   2 -10  116.09   22.60
   0  -2  10   92.29   18.30
   0  -2  10   64.99   17.20
   0  -2  10   78.29   20.10
  -1   2 -10   40.60   16.20
  -1   2 -10   55.39   14.70
  -1   2 -10   32.70   14.40
   1  -2  10   52.29   12.30
   1  -2  10   24.90   12.10
  -2   2 -10   80.39   22.60
   2  -2  10   84.79   19.20
  -3   2 -10   40.40   19.50
   3  -2  10   35.40   18.60
   4   1 -10  119.69   31.70
  -4  -1  10  110.09   29.70
   3   1 -10   32.30   13.50
   3   1 -10   23.50   13.30
  -3  -1  10   15.90   15.20
   2   1 -10  161.98   29.70
   2   1 -10  180.48   21.30
   2   1 -10  154.38   28.10
  -2  -1  10  140.89   27.40
  -2  -1  10  179.68   19.10
  -2  -1  10  163.78   27.00
   1   1 -10  343.87   31.40
   1   1 -10  340.07   33.20
   1   1 -10  359.36   31.90
  -1  -1  10  342.77   32.10
  -1  -1  10  359.26   31.70
  -1  -1  10  357.26   19.00
  -1  -1  10  306.27   29.90
  -1  -1  10  384.46   18.70
   0   1 -10  389.86   32.70
   0   1 -10  391.06   34.60
   0   1 -10  369.36   32.80
   0  -1  10  406.16   33.10
   0  -1  10  348.07   32.40
   0  -1  10  386.66   30.80
  -1   1 -10   20.70   12.30
  -1   1 -10    7.00    9.10
  -1   1 -10    9.50    8.50
   1  -1  10   21.20    5.10
   1  -1  10   29.40   11.50
   1  -1  10   20.10    9.80
   1  -1  10   15.40    7.60
  -2   1 -10  648.24   50.09
  -2   1 -10  735.93   50.09
   2  -1  10  729.83   36.30
   2  -1  10  651.43   45.20
  -3   1 -10   87.19   23.80
   3  -1  10  123.39   28.50
   4  -1  10   37.40   17.20
   4   0 -10   -0.10   13.70
  -4   0  10   25.00   17.30
   3   0 -10  117.59   27.70
  -3   0  10   55.99   19.70
  -3   0  10   88.59   21.90
   2   0 -10  263.67   24.40
   2   0 -10  237.68   29.80
   2   0 -10  221.78   26.40
  -2   0  10  258.47   23.30
  -2   0  10  323.47   26.70
  -2   0  10  272.77   31.80
  -2   0  10  208.38   24.10
  -2   0  10  251.67   30.00
   1   0 -10  492.35   36.80
   1   0 -10  517.65   37.10
   1   0 -10  521.95   39.90
  -1   0  10  507.05   39.00
  -1   0  10  594.94   41.50
  -1   0  10  553.34   32.00
   0   0 -10   61.69   16.00
   0   0 -10   53.29   15.00
   0   0 -10   44.70   14.20
   0   0  10   26.80   12.50
   0   0  10   58.99   10.90
   0   0  10   66.59   15.80
   0   0  10   81.99   17.10
  -1   0 -10  105.59   21.90
  -1   0 -10  177.68   18.60
  -1   0 -10  180.18   15.30
  -1   0 -10  178.58   25.20
   1   0  10  161.08   21.50
   1   0  10  181.98   24.60
   1   0  10  158.98   15.80
   1   0  10  136.79   19.50
  -2   0 -10   75.89   21.90
  -2   0 -10   66.89    9.70
  -2   0 -10   60.39   15.40
  -2   0 -10   53.39   12.10
   2   0  10   65.19   16.10
   2   0  10   51.89   18.00
   2   0  10   62.79   13.80
  -3   0 -10  216.18   35.80
   3   0  10  215.98   27.20
   3   0  10  213.18   27.60
   3   0  10  263.27   29.40
  -4   0 -10  127.09   28.80
   4   0  10  131.59   26.80
   4   0  10  139.19   27.10
   4  -1 -10   93.99   30.90
  -4   1  10   95.39   29.30
   3  -1 -10  120.39   26.20
  -3   1  10  220.08   29.50
  -3   1  10  127.09   26.10
   2  -1 -10   63.99   17.00
   2  -1 -10   24.50   14.90
   2  -1 -10   29.80   11.30
  -2   1  10   33.70   15.30
  -2   1  10   46.10   16.70
  -2   1  10   22.00   12.60
  -2   1  10   50.49   16.60
   1  -1 -10  119.49   22.70
   1  -1 -10  131.19   24.20
   1  -1 -10  154.58   20.00
  -1   1  10  112.49   15.00
  -1   1  10  144.19   25.50
  -1   1  10  103.99   21.10
  -1   1  10  145.79   19.00
  -1   1  10  127.79   17.90
   0  -1 -10  285.37   27.40
   0  -1 -10  286.07   27.10
   0  -1 -10  260.07   27.00
   0  -1 -10  259.27   26.90
   0   1  10  291.87   28.60
   0   1  10  265.17   27.30
   0   1  10  284.57   23.30
   0   1  10  283.07   27.00
  -1  -1 -10  397.46   27.50
  -1  -1 -10  438.06   29.10
  -1  -1 -10  394.46   35.20
  -1  -1 -10  377.26   33.40
   1   1  10  436.96   36.20
   1   1  10  447.86   30.10
   1   1  10  466.35   30.00
   1   1  10  456.65   35.30
  -2  -1 -10  244.38   30.50
  -2  -1 -10  165.58   30.90
  -2  -1 -10  194.78   16.40
  -2  -1 -10  149.49   20.00
   2   1  10  197.18   25.40
   2   1  10  176.78   23.00
   2   1  10  202.78   17.00
   2   1  10  186.98   25.30
  -3  -1 -10   87.29   22.60
  -3  -1 -10  152.28   29.20
  -3  -1 -10  119.99   22.40
   3   1  10  153.38   28.40
   3   1  10  100.49   24.70
   3   1  10  170.78   29.70
  -4  -1 -10   -3.60   15.70
   4   1  10    1.80   11.10
   4   1  10    4.80   16.00
   3  -2 -10  118.99   27.90
  -3   2  10   67.39   24.00
  -3   2  10   54.79   19.40
   2  -2 -10   49.99   13.90
   2  -2 -10   41.30   16.40
   2  -2 -10   40.70   16.50
  -2   2  10   70.79   19.70
  -2   2  10   39.70   25.60
  -2   2  10   22.70   15.80
   1  -2 -10   39.10   12.50
   1  -2 -10   56.59   25.30
   1  -2 -10   50.09   15.80
  -1   2  10   14.30    8.80
  -1   2  10   20.00   13.90
  -1   2  10   70.79   17.60
  -1   2  10   24.70    9.40
   0  -2 -10  212.98   25.70
   0  -2 -10  242.48   26.90
   0  -2 -10  269.47   27.60
   0  -2 -10  222.98   24.00
   0   2  10  256.77   27.00
   0   2  10  249.97   26.30
   0   2  10  204.88   24.20
   0   2  10  267.57   27.50
  -1  -2 -10  272.97   30.20
  -1  -2 -10  229.88   27.00
  -1  -2 -10  236.08   23.90
  -1  -2 -10  213.68   24.00
   1   2  10  230.48   26.10
   1   2  10  219.18   25.00
   1   2  10  187.18   21.30
   1   2  10  248.28   28.20
  -2  -2 -10  909.91   51.69
  -2  -2 -10 1039.70   61.49
  -2  -2 -10 1001.70   56.29
  -2  -2 -10  940.71   41.60
   2   2  10  908.51   51.99
   2   2  10  869.71   56.19
   2   2  10  991.30   53.69
  -3  -2 -10   31.30   16.60
  -3  -2 -10   21.20   15.50
  -3  -2 -10   18.80   11.40
   3   2  10   -2.00   11.50
   3   2  10    8.90   10.20
  -4  -2 -10  196.78   35.80
   4   2  10  210.48   39.00
   4   2  10  151.28   27.30
   3  -3 -10   88.89   28.70
  -3   3  10  116.99   29.80
  -3   3  10  121.49   29.60
   2  -3 -10   85.69   23.50
  -2   3  10  108.39   25.50
  -2   3  10  134.49   26.80
   1  -3 -10    7.60    8.50
   1  -3 -10    4.70    8.70
   1  -3 -10   -6.30    8.00
  -1   3  10    3.50   11.90
  -1   3  10  -18.90    9.40
  -1   3  10  -11.20    7.20
  -1   3  10    7.40   11.70
  -1   3  10  -16.30    7.20
   0  -3 -10  319.57   31.90
   0  -3 -10  327.47   32.80
   0  -3 -10  300.77   31.50
   0  -3 -10  278.87   30.60
   0   3  10  281.57   31.20
   0   3  10  390.56   35.30
   0   3  10  316.57   33.20
   0   3  10  324.97   31.40
  -1  -3 -10  551.64   40.20
  -1  -3 -10  680.43   47.70
  -1  -3 -10  605.84   44.60
  -1  -3 -10  586.64   39.80
   1   3  10  549.05   40.10
   1   3  10  566.24   43.00
   1   3  10  700.13   47.10
   1   3  10  603.34   41.60
  -2  -3 -10   13.70   11.20
  -2  -3 -10    1.10   10.90
   2   3  10   -3.40    7.80
   2   3  10   23.60   12.00
   2   3  10   -0.60   10.10
   2   3  10   -1.80   10.20
  -3  -3 -10   10.50   14.40
  -3  -3 -10    7.20   14.80
   3   3  10  -13.80    9.30
   3   3  10    4.60   13.50
  -4  -3 -10  187.98   37.00
   4   3  10  113.29   28.60
   4   3  10  182.48   38.10
   2  -4 -10   30.80   18.60
  -2   4  10   52.29   21.70
  -2   4  10   45.30   21.10
   1  -4 -10    6.80   13.20
   1  -4 -10   29.00   14.90
  -1   4  10   32.50   15.60
  -1   4  10   29.80   19.10
   0  -4 -10  102.09   21.10
   0  -4 -10  113.39   24.20
   0  -4 -10   78.09   22.50
   0   4  10   65.49   25.60
   0   4  10   78.29   20.20
   0   4  10   52.59   21.00
   0   4  10   89.29   22.00
  -1  -4 -10  114.39   26.70
  -1  -4 -10  125.69   25.90
  -1  -4 -10   80.89   21.60
   1   4  10  143.59   29.80
   1   4  10  109.79   22.60
   1   4  10  127.99   23.30
  -2  -4 -10   34.50   18.00
   2   4  10   41.20   15.10
   2   4  10   10.50   16.20
   2   4  10   24.70   14.30
  -3  -4 -10   34.60   18.20
   3   4  10    7.10   22.70
  -1   5  10   57.99   19.00
   0  -5 -10  -13.10    8.80
   0  -5 -10   12.40   14.00
   0   5  10   34.90   20.30
   0   5  10    8.00   13.00
  -1  -5 -10   17.70   15.50
   1   5  10    7.60   19.00
  -2  -5 -10   29.20   19.30
   2   5  10   21.60   15.40
   2   5  10   19.80   21.20
   2   4 -11  131.19   33.80
   2   4 -11  100.59   27.70
   1   4 -11   27.90   18.80
   1   4 -11   26.60   16.50
   0   4 -11   17.30   13.90
  -1   4 -11   19.60   19.10
   1  -4  11   13.10   17.10
   3   3 -11  154.98   34.10
   2   3 -11   -9.90   11.40
   2   3 -11    4.70   12.80
   1   3 -11  185.58   33.20
   1   3 -11  206.18   30.90
  -1  -3  11  231.38   27.00
   0   3 -11   57.99   18.40
   0   3 -11   36.80   14.90
   0   3 -11   72.19   23.30
   0  -3  11   91.09   20.60
   0  -3  11   69.49   19.00
  -1   3 -11  183.58   35.00
   1  -3  11  174.18   29.10
  -2   3 -11   55.49   22.20
   2  -3  11   33.40   19.10
   3   2 -11   16.20   19.10
  -3  -2  11    3.20   18.20
   2   2 -11  109.59   25.60
   2   2 -11  100.89   22.50
   2   2 -11   81.29   20.90
   2   2 -11   65.89   21.30
  -2  -2  11  115.59   23.20
   1   2 -11  385.16   39.60
   1   2 -11  375.16   36.80
   1   2 -11  350.56   36.40
  -1  -2  11  372.36   36.10
   0   2 -11  652.33   45.70
   0   2 -11  597.24   44.40
   0   2 -11  582.24   47.20
   0  -2  11  656.53   44.30
   0  -2  11  519.95   43.60
   0  -2  11  611.64   41.60
  -1   2 -11  214.38   23.60
  -1   2 -11  230.58   29.30
  -1   2 -11  208.28   30.90
   1  -2  11  251.87   27.60
  -2   2 -11   16.70   15.80
   2  -2  11   26.70   13.40
  -3   2 -11  228.68   40.20
   3  -2  11  261.27   32.70
   3   1 -11    5.40    9.50
  -3  -1  11   -9.20   12.70
   2   1 -11    0.60   10.60
   2   1 -11   -3.70   11.70
   2   1 -11   14.30   10.50
  -2  -1  11    2.60   11.90
   1   1 -11   88.99   21.00
   1   1 -11   66.89   19.90
   1   1 -11  105.89   28.10
  -1  -1  11  101.29   25.10
  -1  -1  11   56.69   17.00
   0   1 -11  274.67   28.00
   0  -1  11  269.97   25.80
  -1   1 -11   27.80   14.80
  -1   1 -11   42.80   12.30
  -1   1 -11   11.90   12.40
   1  -1  11    9.60   11.30
   1  -1  11   23.60   10.90
   1  -1  11    9.70   10.80
  -2   1 -11    7.70    8.90
   2  -1  11   32.90   14.70
  -3   1 -11   15.20   16.20
   3  -1  11   -4.40   12.70
   4  -1  11  226.08   37.60
  -4   0  11   22.00   21.90
   3   0 -11   80.49   23.90
  -3   0  11   93.89   23.50
  -3   0  11   60.99   21.10
   2   0 -11  121.19   25.80
   2   0 -11  145.29   23.50
   2   0 -11  141.89   25.90
  -2   0  11  170.18   23.40
  -2   0  11  118.09   28.70
  -2   0  11  200.78   22.90
   1   0 -11   56.99   15.70
   1   0 -11   35.80   14.50
   1   0 -11   57.09   18.60
  -1   0  11   38.20   12.30
  -1   0  11   56.29   16.50
  -1   0  11   27.00   12.90
  -1   0  11   31.70    9.60
  -1   0  11   42.50   11.70
   0   0 -11  102.39   21.40
   0   0 -11   71.29   19.80
   0   0  11   65.89   19.90
   0   0  11   78.69   17.90
   0   0  11   46.30    9.00
   0   0  11   79.99   18.80
   0   0  11   52.39   10.90
  -1   0 -11  153.58   27.20
  -1   0 -11  137.19   26.90
  -1   0 -11  140.79   18.60
  -1   0 -11  124.89   23.60
   1   0  11  123.49   24.50
   1   0  11  158.18   18.30
   1   0  11  136.99   23.60
  -2   0 -11   77.09   22.20
  -2   0 -11   73.89   20.90
   2   0  11   94.99   17.20
   2   0  11   87.69   19.00
   2   0  11   47.10   18.20
  -3   0 -11    4.60   15.10
   3   0  11   48.20   16.80
   3   0  11   48.30   19.70
  -4   0 -11  123.09   30.60
   4   0  11   57.19   24.10
   3  -1 -11   46.40   20.70
  -3   1  11   15.50   17.80
  -3   1  11   46.80   19.60
   2  -1 -11   11.40   13.10
   2  -1 -11   46.40   13.70
  -2   1  11   78.89   19.10
  -2   1  11   44.60   16.20
  -2   1  11    8.40   13.70
   1  -1 -11   82.69   19.70
   1  -1 -11  127.09   22.80
  -1   1  11  121.89   21.40
  -1   1  11  140.09   18.80
  -1   1  11  117.49   24.20
   0  -1 -11   71.59   18.30
   0  -1 -11   63.69   17.60
   0   1  11   35.00   12.40
   0   1  11   34.70   13.10
   0   1  11   33.00   13.00
  -1  -1 -11  663.63   37.40
  -1  -1 -11  619.94   44.10
  -1  -1 -11  649.64   37.60
   1   1  11  576.84   50.49
   1   1  11  684.83   38.20
   1   1  11  684.03   39.20
  -2  -1 -11  144.39   18.30
  -2  -1 -11  172.48   31.20
  -2  -1 -11  150.18   26.80
   2   1  11  199.38   23.50
   2   1  11  190.58   28.70
   2   1  11  142.89   25.50
  -3  -1 -11  146.99   29.10
   3   1  11  198.08   26.70
   3   1  11  175.68   30.60
  -4  -1 -11   22.80   20.50
   4   1  11   16.40   19.90
   4   1  11   -0.20   13.00
  -3   2  11  192.58   36.70
  -3   2  11  158.48   34.30
   2  -2 -11  302.47   36.30
  -2   2  11  384.66   38.90
  -2   2  11  406.36   39.10
   1  -2 -11   39.50   15.30
   1  -2 -11   32.30   12.20
   1  -2 -11   12.60   10.80
  -1   2  11    7.20   11.80
  -1   2  11    6.00   12.50
  -1   2  11   17.60   13.20
  -1   2  11   21.90   12.10
  -1   2  11   28.20   10.50
   0  -2 -11   34.30   14.10
   0  -2 -11   28.70   12.70
   0  -2 -11    5.00    9.10
   0  -2 -11   11.80    9.90
   0   2  11   20.00   12.90
   0   2  11   33.00   14.50
   0   2  11   33.60   14.20
   0   2  11   47.80   15.20
  -1  -2 -11  514.45   42.00
  -1  -2 -11  513.85   38.10
  -1  -2 -11  559.14   36.90
  -1  -2 -11  449.16   39.40
   1   2  11  606.14   41.20
   1   2  11  509.55   36.50
   1   2  11  584.74   49.50
   1   2  11  504.85   41.50
  -2  -2 -11  106.39   20.30
  -2  -2 -11  102.59   26.10
  -2  -2 -11   78.89   19.60
  -2  -2 -11   71.59   16.80
   2   2  11   81.29   22.90
   2   2  11  125.89   24.70
   2   2  11  125.79   23.40
  -3  -2 -11   26.10   12.70
  -3  -2 -11   19.80   13.10
   3   2  11   23.90   11.40
   3   2  11   14.30   13.40
  -4  -2 -11   13.30   16.80
   4   2  11   32.90   14.80
   4   2  11   -6.90   19.10
   3  -3 -11   33.60   18.40
  -3   3  11  -19.00   26.40
  -3   3  11   28.80   21.30
   2  -3 -11   60.89   20.30
  -2   3  11   83.19   22.80
  -2   3  11   80.39   22.50
   1  -3 -11   14.30   12.90
   1  -3 -11   23.70   11.30
  -1   3  11   38.00   14.00
  -1   3  11   23.90   15.60
  -1   3  11   16.90   12.10
  -1   3  11   19.40   15.50
   0  -3 -11   11.10   11.50
   0  -3 -11    4.60   10.40
   0  -3 -11   23.10   12.00
   0  -3 -11   25.00   12.30
   0   3  11    9.60   12.60
   0   3  11   26.00   13.10
   0   3  11   19.70   10.50
   0   3  11   21.20   11.90
  -1  -3 -11  135.19   25.10
  -1  -3 -11  185.78   23.40
  -1  -3 -11  206.78   27.30
  -1  -3 -11  186.18   26.40
   1   3  11  183.98   26.40
   1   3  11  143.29   27.50
   1   3  11  195.38   24.90
   1   3  11  226.78   30.00
  -2  -3 -11  154.28   27.90
  -2  -3 -11  203.28   28.90
  -2  -3 -11  173.18   32.70
   2   3  11  253.77   28.50
   2   3  11  199.18   28.90
  -3  -3 -11  -10.50   14.10
  -3  -3 -11   -0.40   13.00
   3   3  11   -9.80   14.70
   3   3  11  -18.50    8.40
   2  -4 -11    8.40   14.80
  -2   4  11   10.60   25.00
  -2   4  11  -21.10   15.70
   1  -4 -11   36.30   18.20
   1  -4 -11   36.90   17.90
  -1   4  11   45.30   21.50
  -1   4  11   81.29   24.00
   0  -4 -11   66.79   20.80
   0  -4 -11   74.69   19.50
   0  -4 -11   39.50   17.70
   0   4  11   77.19   22.10
   0   4  11   60.49   18.60
  -1  -4 -11   -3.30   14.10
  -1  -4 -11   34.10   15.60
  -1  -4 -11   27.30   16.60
   1   4  11   13.10   15.10
   1   4  11   -9.30   10.90
   1   4  11   39.00   18.40
  -2  -4 -11   33.90   15.80
   2   4  11   71.19   23.50
   2   4  11    3.30   11.50
  -3  -4 -11   32.60   22.40
   3   4  11   11.00   20.90
   1  -5 -11   16.50   17.00
  -1   5  11   28.30   23.50
  -1   5  11   -0.60   17.20
   0  -5 -11   11.70   14.60
   0  -5 -11   35.60   16.40
   0   5  11   31.60   30.30
   0   5  11   -6.30   11.60
  -1  -5 -11   61.89   23.60
   1   5  11   27.60   29.70
  -2  -5 -11   16.70   20.30
   2   5  11    1.60   15.00
   2   5  11   21.00   22.10
   0   4 -12   58.79   22.10
   0   4 -12   36.80   22.40
   2   3 -12   44.50   36.00
   2   3 -12   92.69   26.30
   1   3 -12   57.89   21.50
   1   3 -12   79.19   24.10
  -1  -3  12   71.49   20.90
   0   3 -12  310.07   34.90
   0   3 -12  203.18   38.70
   0  -3  12  209.08   29.70
  -1   3 -12  156.38   31.60
   1  -3  12  257.27   33.20
  -2   3 -12  -17.90   16.70
   2  -3  12   14.20   18.70
   3   2 -12   79.59   27.80
  -3  -2  12   85.09   27.20
   2   2 -12   78.19   25.50
   2   2 -12   50.49   19.60
  -2  -2  12   97.59   23.60
   1   2 -12    7.90   15.10
   1   2 -12   20.20   15.10
   1   2 -12   -5.70   10.70
  -1  -2  12   26.60   14.10
   0   2 -12  215.18   30.30
   0   2 -12  191.88   34.70
   0   2 -12  209.28   28.60
   0  -2  12  224.48   28.50
   0  -2  12  200.88   26.00
  -1   2 -12  223.28   31.40
   1  -2  12  215.18   27.20
  -2   2 -12   47.20   19.10
   2  -2  12   10.50   16.60
  -3   2 -12   31.20   22.90
   3  -2  12   23.90   15.40
   3   1 -12   40.50   31.70
  -3  -1  12   92.09   26.90
   2   1 -12   77.89   22.50
   2   1 -12  125.19   26.10
  -2  -1  12   86.29   22.20
   1   1 -12  266.27   31.10
   1   1 -12  224.28   30.90
   1   1 -12  244.48   29.60
  -1  -1  12  249.58   30.70
  -1  -1  12  220.68   28.30
   0   1 -12  143.29   25.80
   0   1 -12   77.19   20.60
   0  -1  12  102.89   19.90
   0  -1  12   96.09   22.80
   0  -1  12  136.29   24.90
  -1   1 -12  138.49   20.20
  -1   1 -12  144.49   28.10
   1  -1  12  172.88   28.90
  -2   1 -12   92.99   25.50
   2  -1  12   92.49   22.00
  -3   1 -12  122.89   27.00
   3  -1  12  106.59   27.10
   3   0 -12  -19.00   14.00
  -3   0  12   -6.70   14.10
   2   0 -12   37.70   18.30
   2   0 -12   33.20   14.30
  -2   0  12   29.80   18.00
   1   0 -12   13.20   12.10
   1   0 -12   18.00   10.90
   1   0 -12   14.10   10.60
  -1   0  12    8.20    9.10
  -1   0  12   28.40   14.80
  -1   0  12    1.00   10.50
   0   0 -12  767.02   50.79
   0   0 -12  662.33   47.80
   0   0 -12  776.92   48.20
   0   0  12  574.74   43.20
   0   0  12  709.73   45.80
   0   0  12  853.31   52.79
  -1   0 -12   47.20   17.40
  -1   0 -12   58.29   14.80
  -1   0 -12   39.40   15.60
   1   0  12   71.99   16.00
   1   0  12   50.69   16.80
   1   0  12   43.20   15.20
  -2   0 -12  258.17   33.50
   2   0  12  266.27   30.30
  -3   0 -12   64.59   21.10
   3   0  12   23.90   17.20
  -3   1  12   65.89   23.80
  -3   1  12   90.69   26.50
   2  -1 -12    6.10   11.30
  -2   1  12   20.90   14.40
  -2   1  12   -0.60   13.70
   1  -1 -12  410.96   39.40
   1  -1 -12  274.87   37.60
   1  -1 -12  370.06   34.80
  -1   1  12  347.67   31.50
  -1   1  12  366.86   36.60
  -1   1  12  269.37   30.40
  -1   1  12  331.47   31.30
  -1   1  12  374.56   38.40
   0  -1 -12   24.80   12.70
   0  -1 -12   22.30   11.10
   0   1  12   24.90   12.00
   0   1  12    6.50   12.60
   0   1  12   10.20   10.20
   0   1  12   21.70   14.10
  -1  -1 -12  301.67   33.30
  -1  -1 -12  267.47   25.00
  -1  -1 -12  255.77   30.10
   1   1  12  269.37   30.20
   1   1  12  218.88   23.30
   1   1  12  238.98   25.10
   1   1  12  299.57   32.00
  -2  -1 -12   31.80   17.60
   2   1  12   48.80   16.10
   2   1  12   24.30   13.40
  -3  -1 -12  272.47   34.00
   3   1  12  268.57   34.20
   4   1  12  108.79   26.70
   3  -2 -12   40.90   19.70
  -3   2  12   25.00   21.90
  -3   2  12   22.30   20.00
   2  -2 -12   60.69   19.80
  -2   2  12   69.59   20.10
  -2   2  12   44.30   21.30
  -2   2  12   95.59   23.30
   1  -2 -12   51.69   19.50
   1  -2 -12   42.70   15.90
  -1   2  12    1.40   14.10
  -1   2  12   44.80   16.80
  -1   2  12   39.20   16.80
  -1   2  12   37.20   19.70
  -1   2  12   50.29   16.10
   0  -2 -12   41.70   15.60
   0  -2 -12   72.19   25.10
   0  -2 -12   86.49   22.00
   0   2  12   67.49   17.60
   0   2  12   72.99   18.80
   0   2  12   66.19   18.00
  -1  -2 -12   24.20   16.20
  -1  -2 -12   48.70   17.90
  -1  -2 -12   54.59   15.00
  -1  -2 -12   64.09   18.50
   1   2  12   85.99   21.40
   1   2  12   48.50   16.70
   1   2  12   55.29   18.50
   1   2  12   17.90   12.00
  -2  -2 -12   72.19   23.10
  -2  -2 -12   50.99   17.90
   2   2  12  111.49   23.70
   2   2  12   83.09   25.20
  -3  -2 -12   19.20   15.80
   3   2  12   56.19   19.10
   3   2  12   61.89   20.50
   2  -3 -12   -6.90   12.10
  -2   3  12  -25.80   12.00
  -2   3  12    4.30   16.80
   1  -3 -12   10.40   13.90
   1  -3 -12   48.70   18.50
  -1   3  12   18.40   17.80
  -1   3  12   20.90   18.20
   0  -3 -12  144.29   27.80
   0  -3 -12   79.29   21.80
   0  -3 -12   98.09   21.20
   0   3  12  114.89   23.90
   0   3  12  144.89   28.00
   0   3  12  106.99   22.90
   0   3  12  107.49   24.40
  -1  -3 -12   70.59   21.20
  -1  -3 -12   73.19   20.10
  -1  -3 -12   73.19   21.30
   1   3  12  101.79   22.30
   1   3  12   96.79   23.60
  -2  -3 -12   46.80   18.10
   2   3  12   26.80   16.70
   2   3  12   42.40   16.70
  -3  -3 -12   29.70   32.80
   3   3  12  120.29   28.90
   3   3  12   92.49   24.50
   1  -4 -12   33.00   17.20
  -1   4  12    7.80   15.50
  -1   4  12   70.49   24.30
   0  -4 -12   32.10   17.10
   0  -4 -12   56.79   21.10
   0   4  12   58.49   18.50
   0   4  12   65.89   22.30
  -1  -4 -12   17.40   11.80
  -1  -4 -12   46.10   19.70
   1   4  12   35.20   19.90
   1   4  12   45.50   18.20
  -2  -4 -12   43.00   22.00
   2   4  12   19.50   13.40
   2   4  12   23.40   19.60
   0  -5 -12   31.30   18.80
   0   5  12   61.79   26.90
   1   5  12  140.99   33.20
   1   3 -13   53.99   23.90
   1   3 -13   45.10   21.50
  -1  -3  13   52.19   19.90
   0   3 -13   38.80   19.30
   0  -3  13   29.50   17.40
  -1   3 -13   23.40   19.20
   1  -3  13    6.40   17.90
   2   2 -13   56.49   20.00
   2   2 -13   43.10   27.30
  -2  -2  13   89.09   23.30
   1   2 -13  145.19   28.80
   1   2 -13  147.49   31.80
  -1  -2  13  228.58   31.80
   0   2 -13   22.10   17.20
   0   2 -13   41.70   18.40
   0  -2  13   43.10   16.80
   0  -2  13   67.09   24.50
  -1   2 -13   25.90   18.30
   1  -2  13   -8.80   10.40
  -2   2 -13   85.09   25.00
   2  -2  13   45.40   27.70
   3   1 -13   12.20   17.80
  -3  -1  13   -4.50   15.80
   2   1 -13   -7.90   12.70
   2   1 -13   21.80   14.50
  -2  -1  13    9.20   16.50
   1   1 -13  169.38   31.50
   1   1 -13  116.09   25.50
  -1  -1  13  118.69   25.50
  -1  -1  13   55.49   20.50
   0   1 -13   47.40   17.10
   0   1 -13   14.50   12.10
   0  -1  13   23.00   13.10
   0  -1  13   36.80   14.90
  -1   1 -13  142.59   30.30
   1  -1  13  161.28   28.50
  -2   1 -13   22.90   16.50
   2  -1  13   15.60   15.00
  -3   1 -13   85.99   29.80
   3  -1  13  151.08   30.40
   3   0 -13   71.99   26.20
  -3   0  13  -17.70   31.40
   2   0 -13  104.99   27.60
  -2   0  13  126.29   30.20
   1   0 -13    7.90   12.80
   1   0 -13   16.10   13.50
  -1   0  13   15.80   13.80
  -1   0  13   12.00   12.70
   0   0 -13  256.27   31.90
   0   0  13  326.97   33.40
   0   0  13  241.38   31.80
  -1   0 -13    5.50    8.20
  -1   0 -13   -0.70   13.10
   1   0  13   13.10   12.30
  -2   0 -13   48.20   21.10
   2   0  13   71.29   19.60
  -3   0 -13  113.39   45.70
   3  -1 -13   32.60   22.10
  -3   1  13   41.20   24.20
   2  -1 -13   44.40   18.80
  -2   1  13   11.10   14.00
   1  -1 -13   10.70   11.80
   1  -1 -13    1.40   10.70
  -1   1  13    3.40   11.40
  -1   1  13    5.00   10.70
   0  -1 -13  236.68   31.70
   0  -1 -13  293.47   32.60
   0   1  13  267.27   31.90
   0   1  13  258.27   32.30
   0   1  13  237.78   28.90
  -1  -1 -13   14.80    9.70
  -1  -1 -13   31.20   16.50
   1   1  13   37.90   14.70
  -2  -1 -13   74.99   24.30
   2   1  13  136.79   27.50
  -3  -1 -13   55.29   26.60
   3   1  13   43.00   21.30
   2  -2 -13  -24.10   13.80
  -2   2  13    3.80   18.00
  -2   2  13  -11.10   16.30
   1  -2 -13   52.19   18.40
   1  -2 -13   68.79   21.30
  -1   2  13   53.09   20.00
  -1   2  13   52.29   20.60
   0  -2 -13   77.99   20.10
   0  -2 -13   82.59   22.40
   0   2  13   74.99   21.50
   0   2  13   65.99   19.50
   0   2  13   69.29   20.10
   0   2  13   63.99   20.80
  -1  -2 -13  111.29   26.10
  -1  -2 -13   90.59   19.70
   1   2  13   85.09   22.60
   1   2  13   95.29   21.90
  -2  -2 -13  107.09   27.30
   2   2  13  133.39   28.50
   2   2  13   90.59   23.10
  -3  -2 -13   67.89   29.90
   3   2  13   89.69   25.40
   3   2  13  114.29   29.70
   2  -3 -13   37.60   21.20
  -2   3  13   18.30   24.30
  -2   3  13  -25.30   17.60
   1  -3 -13    5.80   13.60
  -1   3  13   -2.10   17.50
  -1   3  13   13.90   13.60
   0  -3 -13   -1.20   13.50
   0  -3 -13   26.90   15.90
   0   3  13   16.20   16.70
   0   3  13    2.40   12.50
  -1  -3 -13   48.40   18.90
  -1  -3 -13    5.90   12.80
  -1  -3 -13   40.50   19.30
   1   3  13   30.10   14.90
   1   3  13   35.10   17.30
  -2  -3 -13  201.78   37.70
   2   3  13  149.79   31.10
   2   3  13  230.78   31.70
  -3  -3 -13    8.20   14.70
   3   3  13   55.79   25.70
   3   3  13   24.60   18.90
   1  -4 -13  -29.80   12.00
  -1   4  13    3.10   20.90
   0  -4 -13   10.30   15.20
   0  -4 -13    2.20   13.50
   0   4  13   26.40   19.10
   0   4  13   41.10   21.40
  -1  -4 -13   29.70   15.10
   1   4  13   16.20   19.60
   1   4  13   29.30   15.10
  -2  -4 -13  111.39   28.80
   2   4  13  101.29   30.40
   2   4  13   73.79   22.10
   1   2 -14   25.30   18.00
   1   2 -14  -16.40   14.80
  -1  -2  14   37.60   16.60
   0   2 -14  330.37   37.10
   0   2 -14  364.56   43.50
   0  -2  14  373.56   40.60
  -1   2 -14   61.49   23.10
   1  -2  14   47.20   18.80
   2   1 -14   11.20   17.50
  -2  -1  14   10.30   18.10
   1   1 -14  211.58   36.30
   1   1 -14  249.38   33.10
  -1  -1  14  230.68   37.80
   0   1 -14   19.70   16.00
   0   1 -14   52.09   19.20
   0  -1  14   16.50   17.00
  -1   1 -14  164.38   36.20
   1  -1  14  129.89   27.70
  -2   1 -14   35.00   17.60
   2  -1  14    5.10   18.10
   2   0 -14   -3.50   19.20
  -2   0  14   46.60   20.90
   1   0 -14   37.00   17.60
   1   0 -14   26.20   17.30
  -1   0  14    8.90   18.40
   0   0 -14   23.40   17.80
   0   0 -14   -1.20   11.00
   0   0  14    4.50   12.80
   0   0  14   15.00   12.40
  -1   0 -14   30.60   17.40
   1   0  14   12.00   12.10
  -2   0 -14   54.49   23.80
   2   0  14   52.69   19.90
  -2   1  14    2.00   18.40
   1  -1 -14  -20.40   10.00
   1  -1 -14   24.60   16.60
  -1   1  14    0.70   15.90
   0  -1 -14  259.27   35.20
   0  -1 -14  252.67   31.00
   0   1  14  191.48   28.70
   0   1  14  267.67   36.60
  -1  -1 -14   -2.70   14.00
   1   1  14    8.90   14.30
  -2  -1 -14   29.90   18.30
   2   1  14   22.90   18.40
  -3  -1 -14   34.80   20.20
   3   1  14   32.60   18.50
   2  -2 -14   48.90   21.80
  -2   2  14   34.00   20.00
   1  -2 -14  130.49   27.20
   1  -2 -14  141.19   30.80
  -1   2  14  163.58   33.00
   0  -2 -14    0.20   11.60
   0  -2 -14   24.20   16.60
   0   2  14   -6.90   15.00
  -1  -2 -14  -24.10   10.20
   1   2  14   26.40   15.70
  -2  -2 -14   66.79   29.00
   2   2  14   95.89   26.30
  -1   3  14   -1.80   22.70
  -1   3  14   45.40   27.20
   0  -3 -14    8.50   14.70
   0  -3 -14   31.40   18.60
   0   3  14  -22.90   17.90
   0   3  14   14.80   18.60
  -1  -3 -14   -1.70   14.00
  -1  -3 -14   11.80   12.20
   1   3  14   -2.90   15.10
   1   3  14   -0.80   16.90
  -2  -3 -14   61.19   20.70
   2   3  14   52.79   21.90
   2   3  14  100.09   29.20
   1   1 -15   93.59   29.00
   1   1 -15   94.79   25.90
   0   1 -15   20.80   17.50
   0   1 -15   11.30   19.70
  -1   1 -15   72.19   21.30
   1  -1  15   57.89   19.50
   1   0 -15  194.28   38.30
   1   0 -15  128.79   28.20
   0   0 -15   83.59   25.80
   0   0 -15   62.39   19.90
   0   0  15   76.09   25.00
  -1   0 -15  150.08   31.90
  -2   0 -15   -0.80   14.80
   2   0  15   11.40   14.60
   1  -1 -15    2.00   16.80
   1  -1 -15   32.60   17.50
  -1   1  15   -5.30   13.70
   0  -1 -15   21.90   15.60
   0  -1 -15   27.40   15.90
   0   1  15   33.50   24.20
  -1  -1 -15  -28.60   13.90
  -2  -1 -15   56.39   23.00
   2   1  15   31.00   17.10
  -1   2  15    2.40   19.20
   0  -2 -15   61.69   22.90
   0  -2 -15   67.99   21.60
  -1  -2 -15   19.10   14.90
  -2  -2 -15   -9.90   16.20
   2   2  15   13.30   15.80
   0  -3 -15   23.60   21.20
   0  -3 -15   39.80   20.10
   0   3  15   34.00   21.70
   1   3  15   34.70   22.10
   0   1  16  -11.70   14.40
   0   0   0    0.00    0.00

_computing_structure_solution     'SHELXT 2014/5 (Sheldrick, 2014)'
;
_shelx_hkl_checksum              88923
loop_
_space_group_symop_operation_xyz
'x, y, z'
loop_
_atom_site_label
_atom_site_type_symbol
_atom_site_fract_x
_atom_site_fract_y
_atom_site_fract_z
_atom_site_U_iso_or_equiv
_atom_site_adp_type
_atom_site_occupancy
_atom_site_site_symmetry_order
_atom_site_calc_flag
_atom_site_refinement_flags_posn
_atom_site_refinement_flags_adp
_atom_site_refinement_flags_occupancy
_atom_site_disorder_assembly
_atom_site_disorder_group
C1 C 0.6937(10) 1.1222(8) 0.2963(4) 0.0338(12) Uani 1 1 d . . . . .
H1 H 0.6315 1.1525 0.3608 0.041 Uiso 1 1 calc R U . . .
C2 C 0.8761(10) 1.2632(8) 0.2435(4) 0.0356(13) Uani 1 1 d . . . . .
H2 H 0.9343 1.3884 0.2719 0.043 Uiso 1 1 calc R U . . .
C3 C 0.9685(9) 1.2156(8) 0.1496(4) 0.0346(13) Uani 1 1 d . . . . .
C4 C 0.8888(11) 1.0294(9) 0.1057(4) 0.0416(13) Uani 1 1 d . . . . .
H4 H 0.9557 0.9977 0.0419 0.050 Uiso 1 1 calc R U . . .
C5 C 0.7071(10) 0.8917(8) 0.1591(4) 0.0375(13) Uani 1 1 d . . . . .
H5 H 0.6528 0.7651 0.1306 0.045 Uiso 1 1 calc R U . . .
C6 C 0.6032(9) 0.9366(8) 0.2540(3) 0.0280(11) Uani 1 1 d . . . . .
C7 C 0.3955(9) 0.7841(8) 0.3050(4) 0.0314(11) Uani 1 1 d . . . . .
H7A H 0.2096 0.8470 0.2834 0.038 Uiso 1 1 calc R U . . .
H7B H 0.4361 0.6289 0.2827 0.038 Uiso 1 1 calc R U . . .
C8 C 0.1887(10) -0.3094(8) 0.6866(4) 0.0378(12) Uani 1 1 d . . . . .
H8 H 0.1537 -0.4086 0.6396 0.045 Uiso 1 1 calc R U . . .
C9 C 0.3824(10) -0.3891(9) 0.7585(4) 0.0405(13) Uani 1 1 d . . . . .
H9 H 0.4773 -0.5393 0.7595 0.049 Uiso 1 1 calc R U . . .
C10 C 0.4329(10) -0.2450(9) 0.8280(3) 0.0373(13) Uani 1 1 d . . . . .
C11 C 0.2968(11) -0.0232(9) 0.8268(4) 0.0431(14) Uani 1 1 d . . . . .
H11 H 0.3341 0.0738 0.8743 0.052 Uiso 1 1 calc R U . . .
C12 C 0.1023(11) 0.0566(9) 0.7541(4) 0.0400(13) Uani 1 1 d . . . . .
H12 H 0.0092 0.2073 0.7535 0.048 Uiso 1 1 calc R U . . .
C13 C 0.0453(10) -0.0868(8) 0.6823(4) 0.0300(11) Uani 1 1 d . . . . .
C14 C -0.1693(10) -0.0154(8) 0.6039(4) 0.0360(12) Uani 1 1 d . . . . .
H14A H -0.1208 -0.1081 0.5481 0.043 Uiso 1 1 calc R U . . .
H14B H -0.3495 -0.0540 0.6317 0.043 Uiso 1 1 calc R U . . .
C15 C -0.0031(9) 0.3242(8) 0.5013(3) 0.0256(11) Uani 1 1 d . . . . .
Cl1 Cl 1.2000(2) 1.3895(2) 0.08234(11) 0.0484(4) Uani 1 1 d . . . . .
Cl2 Cl 0.6815(3) -0.3481(2) 0.91747(11) 0.0592(5) Uani 1 1 d . . . . .
N1 N 0.3919(8) 0.7616(6) 0.4162(3) 0.0304(10) Uani 1 1 d . . . . .
H1A H 0.5539 0.6861 0.4373 0.046 Uiso 1 1 calc R U . . .
H1B H 0.2522 0.6817 0.4402 0.046 Uiso 1 1 calc R U . . .
H1C H 0.3673 0.9034 0.4377 0.046 Uiso 1 1 calc R U . . .
N2 N -0.1993(8) 0.2310(6) 0.5658(3) 0.0329(9) Uani 1 1 d . . . . .
H2A H -0.3443 0.3207 0.5842 0.040 Uiso 1 1 calc R U . . .
O1 O 0.2329(6) 0.2077(5) 0.4904(2) 0.0349(8) Uani 1 1 d . . . . .
O2 O -0.0716(6) 0.5276(5) 0.4581(2) 0.0320(8) Uani 1 1 d . . . . .
loop_
_atom_site_aniso_label
_atom_site_aniso_U_11
_atom_site_aniso_U_22
_atom_site_aniso_U_33
_atom_site_aniso_U_23
_atom_site_aniso_U_13
_atom_site_aniso_U_12
C1 0.033(3) 0.033(3) 0.035(3) -0.001(2) 0.000(2) -0.003(2)
C2 0.037(3) 0.034(3) 0.037(3) -0.005(2) 0.000(3) -0.011(2)
C3 0.026(3) 0.033(3) 0.042(3) 0.008(2) -0.002(2) -0.004(2)
C4 0.051(3) 0.041(3) 0.032(3) -0.002(3) 0.007(3) -0.005(3)
C5 0.045(3) 0.031(3) 0.038(3) -0.003(2) -0.001(3) -0.010(2)
C6 0.022(3) 0.028(3) 0.033(3) 0.001(2) -0.005(2) -0.002(2)
C7 0.026(3) 0.031(3) 0.037(3) 0.001(2) -0.009(2) -0.003(2)
C8 0.041(3) 0.036(3) 0.039(3) -0.005(2) -0.006(2) -0.010(2)
C9 0.044(3) 0.032(3) 0.046(3) 0.003(3) -0.008(3) -0.006(2)
C10 0.034(3) 0.048(4) 0.030(3) 0.010(3) -0.005(2) -0.014(3)
C11 0.052(3) 0.050(4) 0.032(3) -0.009(3) -0.004(3) -0.019(3)
C12 0.047(3) 0.029(3) 0.044(3) -0.004(3) 0.002(3) -0.004(3)
C13 0.030(3) 0.030(3) 0.031(3) 0.001(2) 0.002(2) -0.011(2)
C14 0.031(3) 0.036(3) 0.041(3) 0.005(2) 0.002(2) -0.013(2)
C15 0.022(3) 0.029(3) 0.027(3) -0.005(2) -0.005(2) -0.005(2)
Cl1 0.0410(8) 0.0492(9) 0.0524(9) 0.0118(7) 0.0055(7) -0.0119(6)
Cl2 0.0557(10) 0.0804(12) 0.0420(9) 0.0143(8) -0.0182(7) -0.0204(9)
N1 0.026(2) 0.026(2) 0.039(2) -0.0005(18) -0.0021(18) -0.0070(17)
N2 0.023(2) 0.030(2) 0.043(2) 0.0050(18) 0.0086(18) 0.0011(17)
O1 0.0234(18) 0.0324(18) 0.047(2) -0.0016(16) 0.0040(16) -0.0008(15)
O2 0.0296(19) 0.028(2) 0.038(2) 0.0036(17) -0.0032(16) -0.0047(15)
loop_
_atom_type_symbol
_atom_type_description
_atom_type_scat_dispersion_real
_atom_type_scat_dispersion_imag
_atom_type_scat_source
C C 0.0033 0.0016 'International Tables Vol C Tables 4.2.6.8 and 6.1.1.4'
H H 0.0000 0.0000 'International Tables Vol C Tables 4.2.6.8 and 6.1.1.4'
N N 0.0061 0.0033 'International Tables Vol C Tables 4.2.6.8 and 6.1.1.4'
O O 0.0106 0.0060 'International Tables Vol C Tables 4.2.6.8 and 6.1.1.4'
Cl Cl 0.1484 0.1585 'International Tables Vol C Tables 4.2.6.8 and 6.1.1.4'
loop_
_geom_angle_atom_site_label_1
_geom_angle_atom_site_label_2
_geom_angle_atom_site_label_3
_geom_angle
_geom_angle_site_symmetry_1
_geom_angle_site_symmetry_3
_geom_angle_publ_flag
C6 C1 C2 120.8(5) . . ?
C6 C1 H1 119.6 . . ?
C2 C1 H1 119.6 . . ?
C3 C2 C1 119.2(4) . . ?
C3 C2 H2 120.4 . . ?
C1 C2 H2 120.4 . . ?
C2 C3 C4 121.9(4) . . ?
C2 C3 Cl1 119.9(4) . . ?
C4 C3 Cl1 118.3(4) . . ?
C5 C4 C3 118.2(5) . . ?
C5 C4 H4 120.9 . . ?
C3 C4 H4 120.9 . . ?
C4 C5 C6 121.9(5) . . ?
C4 C5 H5 119.0 . . ?
C6 C5 H5 119.0 . . ?
C1 C6 C5 118.1(4) . . ?
C1 C6 C7 123.5(4) . . ?
C5 C6 C7 118.4(4) . . ?
N1 C7 C6 115.3(4) . . ?
N1 C7 H7A 108.4 . . ?
C6 C7 H7A 108.4 . . ?
N1 C7 H7B 108.4 . . ?
C6 C7 H7B 108.4 . . ?
H7A C7 H7B 107.5 . . ?
C9 C8 C13 122.1(5) . . ?
C9 C8 H8 119.0 . . ?
C13 C8 H8 119.0 . . ?
C10 C9 C8 119.2(5) . . ?
C10 C9 H9 120.4 . . ?
C8 C9 H9 120.4 . . ?
C11 C10 C9 121.0(4) . . ?
C11 C10 Cl2 120.6(4) . . ?
C9 C10 Cl2 118.4(4) . . ?
C10 C11 C12 119.7(5) . . ?
C10 C11 H11 120.2 . . ?
C12 C11 H11 120.2 . . ?
C11 C12 C13 120.7(5) . . ?
C11 C12 H12 119.6 . . ?
C13 C12 H12 119.6 . . ?
C8 C13 C12 117.4(5) . . ?
C8 C13 C14 119.0(4) . . ?
C12 C13 C14 123.6(5) . . ?
N2 C14 C13 115.7(4) . . ?
N2 C14 H14A 108.4 . . ?
C13 C14 H14A 108.4 . . ?
N2 C14 H14B 108.4 . . ?
C13 C14 H14B 108.4 . . ?
H14A C14 H14B 107.4 . . ?
O1 C15 O2 124.2(4) . . ?
O1 C15 N2 118.8(4) . . ?
O2 C15 N2 116.9(4) . . ?
C7 N1 H1A 109.5 . . ?
C7 N1 H1B 109.5 . . ?
H1A N1 H1B 109.5 . . ?
C7 N1 H1C 109.5 . . ?
H1A N1 H1C 109.5 . . ?
H1B N1 H1C 109.5 . . ?
C15 N2 C14 121.9(4) . . ?
C15 N2 H2A 119.0 . . ?
C14 N2 H2A 119.0 . . ?
loop_
_geom_bond_atom_site_label_1
_geom_bond_atom_site_label_2
_geom_bond_distance
_geom_bond_site_symmetry_2
_geom_bond_publ_flag
C1 C6 1.388(6) . ?
C1 C2 1.391(6) . ?
C1 H1 0.9300 . ?
C2 C3 1.362(6) . ?
C2 H2 0.9300 . ?
C3 C4 1.381(7) . ?
C3 Cl1 1.749(5) . ?
C4 C5 1.380(7) . ?
C4 H4 0.9300 . ?
C5 C6 1.386(7) . ?
C5 H5 0.9300 . ?
C6 C7 1.507(7) . ?
C7 N1 1.488(6) . ?
C7 H7A 0.9700 . ?
C7 H7B 0.9700 . ?
C8 C9 1.381(7) . ?
C8 C13 1.382(6) . ?
C8 H8 0.9300 . ?
C9 C10 1.363(7) . ?
C9 H9 0.9300 . ?
C10 C11 1.366(7) . ?
C10 Cl2 1.747(5) . ?
C11 C12 1.390(7) . ?
C11 H11 0.9300 . ?
C12 C13 1.394(7) . ?
C12 H12 0.9300 . ?
C13 C14 1.503(7) . ?
C14 N2 1.457(6) . ?
C14 H14A 0.9700 . ?
C14 H14B 0.9700 . ?
C15 O1 1.259(5) . ?
C15 O2 1.270(5) . ?
C15 N2 1.371(6) . ?
N1 H1A 0.8900 . ?
N1 H1B 0.8900 . ?
N1 H1C 0.8900 . ?
N2 H2A 0.8600 . ?
loop_
_geom_torsion_atom_site_label_1
_geom_torsion_atom_site_label_2
_geom_torsion_atom_site_label_3
_geom_torsion_atom_site_label_4
_geom_torsion
_geom_torsion_site_symmetry_1
_geom_torsion_site_symmetry_2
_geom_torsion_site_symmetry_3
_geom_torsion_site_symmetry_4
_geom_torsion_publ_flag
C6 C1 C2 C3 -0.8(7) . . . . ?
C1 C2 C3 C4 -0.8(7) . . . . ?
C1 C2 C3 Cl1 -179.5(4) . . . . ?
C2 C3 C4 C5 0.9(7) . . . . ?
Cl1 C3 C4 C5 179.7(4) . . . . ?
C3 C4 C5 C6 0.5(7) . . . . ?
C2 C1 C6 C5 2.1(7) . . . . ?
C2 C1 C6 C7 -177.0(5) . . . . ?
C4 C5 C6 C1 -1.9(7) . . . . ?
C4 C5 C6 C7 177.2(4) . . . . ?
C1 C6 C7 N1 -28.2(7) . . . . ?
C5 C6 C7 N1 152.8(4) . . . . ?
C13 C8 C9 C10 0.5(7) . . . . ?
C8 C9 C10 C11 -0.6(7) . . . . ?
C8 C9 C10 Cl2 -179.3(4) . . . . ?
C9 C10 C11 C12 0.5(7) . . . . ?
Cl2 C10 C11 C12 179.2(4) . . . . ?
C10 C11 C12 C13 -0.3(7) . . . . ?
C9 C8 C13 C12 -0.3(7) . . . . ?
C9 C8 C13 C14 -178.0(4) . . . . ?
C11 C12 C13 C8 0.2(7) . . . . ?
C11 C12 C13 C14 177.8(5) . . . . ?
C8 C13 C14 N2 -147.6(4) . . . . ?
C12 C13 C14 N2 34.8(6) . . . . ?
O1 C15 N2 C14 -14.4(6) . . . . ?
O2 C15 N2 C14 167.3(4) . . . . ?
C13 C14 N2 C15 74.1(5) . . . . ?
