#------------------------------------------------------------------------------
#$Date: 2022-08-31 00:56:23 +0300 (Wed, 31 Aug 2022) $
#$Revision: 277467 $
#$URL: file:///home/coder/svn-repositories/cod/cif/7/13/06/7130618.cif $
#------------------------------------------------------------------------------
#
# This file is available in the Crystallography Open Database (COD),
# http://www.crystallography.net/
#
# All data on this site have been placed in the public domain by the
# contributors.
#
data_7130618
loop_
_publ_author_name
'Dhaka, Arun'
'Jeannin, olivier'
'Aubert, Emmanuel'
'Espinosa, Enrique'
'Fourmigu\'e, Marc'
'Jeon, Ie-Rang'
_publ_section_title
;
 N-chlorobenzimidazoles as efficient and structurally diverse amphoteric
 halogen bond donors in crystal engineering
;
_journal_name_full               'Chemical Communications'
_journal_paper_doi               10.1039/D2CC03971K
_journal_year                    2022
_chemical_formula_moiety         'C8 H5 Cl3 N2'
_chemical_formula_sum            'C8 H5 Cl3 N2'
_chemical_formula_weight         235.49
_space_group_IT_number           14
_space_group_name_Hall           '-P 2ybc'
_space_group_name_H-M_alt        'P 1 21/c 1'
_symmetry_cell_setting           monoclinic
_symmetry_Int_Tables_number      14
_symmetry_space_group_name_Hall  '-P 2ybc'
_symmetry_space_group_name_H-M   'P 1 21/c 1'
_atom_sites_solution_hydrogens   geom
_atom_sites_solution_primary     'direct - structure invariant direct methods'
_atom_sites_solution_secondary   'direct - structure invariant direct methods'
_audit_conform_dict_location     ftp://ftp.iucr.org/pub/cif_core.dic
_audit_conform_dict_name         cif_core.dic
_audit_conform_dict_version      2.4.3
_audit_creation_date             2022-05-16T10:20:22-00:00
_audit_creation_method           'WinGX routine CIF_UPDATE'
_audit_update_record
;
2022-05-17 deposited with the CCDC.	2022-08-24 downloaded from the CCDC.
;
_cell_angle_alpha                90
_cell_angle_beta                 94.528(3)
_cell_angle_gamma                90
_cell_formula_units_Z            4
_cell_length_a                   3.9218(4)
_cell_length_b                   12.4195(11)
_cell_length_c                   18.9195(16)
_cell_measurement_reflns_used    8301
_cell_measurement_temperature    296(2)
_cell_measurement_theta_max      27.43
_cell_measurement_theta_min      2.71
_cell_measurement_wavelength     0.71073
_cell_volume                     918.63(15)
_computing_cell_refinement       'Bruker APEX2 (Bruker, 2014)'
_computing_data_collection       'Bruker APEX2 (Bruker, 2014)'
_computing_data_reduction        'Bruker APEX2 (Bruker, 2014)'
_computing_molecular_graphics    'Ortep for Windows (Farrugia, 2012)'
_computing_publication_material  'WinGX publication routines (Farrugia, 2012)'
_computing_structure_refinement  'SHELXL-2014/7 (Sheldrick, 2014)'
_computing_structure_solution    'SIR-97 (Altomare et al., 1999)'
_diffrn_ambient_temperature      296(2)
_diffrn_detector                 'CCD plate'
_diffrn_measured_fraction_theta_full 0.999
_diffrn_measured_fraction_theta_max 0.999
_diffrn_measurement_device_type  'APEXII, Bruker-AXS'
_diffrn_measurement_method       'CCD rotation images, thin slices'
_diffrn_orient_matrix_UB_11      -0.091622
_diffrn_orient_matrix_UB_12      0.042139
_diffrn_orient_matrix_UB_13      0.039367
_diffrn_orient_matrix_UB_21      -0.213412
_diffrn_orient_matrix_UB_22      -0.044371
_diffrn_orient_matrix_UB_23      -0.004208
_diffrn_orient_matrix_UB_31      0.107171
_diffrn_orient_matrix_UB_32      -0.052333
_diffrn_orient_matrix_UB_33      0.035267
_diffrn_radiation_probe          x-ray
_diffrn_radiation_source         'fine-focus sealed tube'
_diffrn_radiation_type           MoK\a
_diffrn_radiation_wavelength     0.71073
_diffrn_reflns_av_R_equivalents  0.0388
_diffrn_reflns_av_unetI/netI     0.0216
_diffrn_reflns_Laue_measured_fraction_full 0.999
_diffrn_reflns_Laue_measured_fraction_max 0.999
_diffrn_reflns_limit_h_max       5
_diffrn_reflns_limit_h_min       -5
_diffrn_reflns_limit_k_max       16
_diffrn_reflns_limit_k_min       -14
_diffrn_reflns_limit_l_max       22
_diffrn_reflns_limit_l_min       -24
_diffrn_reflns_number            19525
_diffrn_reflns_point_group_measured_fraction_full 0.999
_diffrn_reflns_point_group_measured_fraction_max 0.999
_diffrn_reflns_theta_full        25.242
_diffrn_reflns_theta_max         27.516
_diffrn_reflns_theta_min         2.712
_diffrn_standards_number         0
_exptl_absorpt_coefficient_mu    0.944
_exptl_absorpt_correction_T_max  0.954
_exptl_absorpt_correction_T_min  0.883
_exptl_absorpt_correction_type   multi-scan
_exptl_absorpt_process_details
;
  [Sheldrick, G.M. (2002). SADABS Bruker AXS Inc., Madison, Wisconsin, USA]
;
_exptl_crystal_colour            colorless
_exptl_crystal_density_diffrn    1.703
_exptl_crystal_density_method    'not measured'
_exptl_crystal_description       prism
_exptl_crystal_F_000             472
_exptl_crystal_size_max          0.24
_exptl_crystal_size_mid          0.11
_exptl_crystal_size_min          0.05
_refine_diff_density_max         0.274
_refine_diff_density_min         -0.232
_refine_diff_density_rms         0.053
_refine_ls_extinction_method     none
_refine_ls_goodness_of_fit_ref   1.059
_refine_ls_hydrogen_treatment    constr
_refine_ls_matrix_type           full
_refine_ls_number_constraints    0
_refine_ls_number_parameters     119
_refine_ls_number_reflns         2099
_refine_ls_number_restraints     0
_refine_ls_restrained_S_all      1.059
_refine_ls_R_factor_all          0.0477
_refine_ls_R_factor_gt           0.0354
_refine_ls_shift/su_max          0
_refine_ls_shift/su_mean         0
_refine_ls_structure_factor_coef Fsqd
_refine_ls_weighting_details
'w=1/[\s^2^(Fo^2^)+(0.0313P)^2^+0.7891P] where P=(Fo^2^+2Fc^2^)/3'
_refine_ls_weighting_scheme      calc
_refine_ls_wR_factor_gt          0.0787
_refine_ls_wR_factor_ref         0.0844
_reflns_Friedel_coverage         0
_reflns_number_gt                1740
_reflns_number_total             2099
_reflns_threshold_expression     'I > 2\s(I)'
_cod_data_source_file            d2cc03971k2.cif
_cod_data_source_block           shelx_CCDC3
_cod_original_sg_symbol_H-M      'P 21/c'
_cod_database_code               7130618
_shelx_res_file
;
 
    shelx.res created by SHELXL-2014/7
 
TITL shelxt_a.res in P2(1)/c
CELL  0.71073   3.9218  12.4195  18.9195   90.000   94.528   90.000
ZERR     4.00   0.0004   0.0011   0.0016    0.000    0.003    0.000
LATT   1
SYMM  - X, 1/2 + Y, 1/2 - Z
SFAC  C    H    N    CL
UNIT  32 20 8 12
MERG   2
OMIT     0   1   1
OMIT     0   0   2
FMAP   2
PLAN   20
ACTA
BOND   $H
CONF
LIST   4
L.S.  10
WGHT    0.031300    0.789100
FVAR       0.58636
C1    1    0.314781    0.265895    0.689692    11.00000    0.02990    0.02569 =
         0.02863    0.00161   -0.00137   -0.00357
C2    1    0.461548    0.192312    0.646252    11.00000    0.03392    0.02493 =
         0.03750    0.00148   -0.00014   -0.00002
AFIX  43
H2    2    0.540099    0.126061    0.663705    11.00000   -1.20000
AFIX   0
C3    1    0.487837    0.220194    0.576271    11.00000    0.02922    0.02951 =
         0.03468   -0.00613    0.00193   -0.00492
C4    1    0.373223    0.320547    0.549864    11.00000    0.03324    0.03156 =
         0.02988    0.00033    0.00152   -0.00876
C5    1    0.228513    0.395245    0.592551    11.00000    0.03592    0.02379 =
         0.03273    0.00356    0.00133   -0.00294
AFIX  43
H5    2    0.151621    0.461824    0.575366    11.00000   -1.20000
AFIX   0
C6    1    0.204749    0.365166    0.662345    11.00000    0.02822    0.02285 =
         0.03148   -0.00192    0.00133   -0.00319
C7    1    0.107028    0.348130    0.776522    11.00000    0.03022    0.03568 =
         0.02956    0.00014    0.00072   -0.00581
C8    1   -0.010890    0.378052    0.846467    11.00000    0.05031    0.05112 =
         0.03223   -0.00184    0.00773    0.00050
AFIX 137
H8A   2   -0.041550    0.314087    0.873740    11.00000   -1.50000
H8B   2   -0.224230    0.415992    0.839671    11.00000   -1.50000
H8C   2    0.156785    0.423444    0.871262    11.00000   -1.50000
AFIX   0
N1    3    0.251576    0.257488    0.760948    11.00000    0.03985    0.03169 =
         0.02984    0.00345    0.00091   -0.00053
N2    3    0.072335    0.416069    0.718759    11.00000    0.03756    0.02493 =
         0.03161   -0.00101    0.00446    0.00033
CL1   4    0.662853    0.127758    0.521181    11.00000    0.05588    0.04112 =
         0.04543   -0.01330    0.00901    0.00379
CL2   4    0.406194    0.352116    0.461537    11.00000    0.07019    0.04867 =
         0.03156    0.00467    0.01189   -0.00342
CL3   4   -0.074638    0.544617    0.717549    11.00000    0.04078    0.02846 =
         0.03830   -0.00401    0.00207    0.00402
HKLF    4
 
REM  shelxt_a.res in P2(1)/c
REM R1 =  0.0354 for    1740 Fo > 4sig(Fo)  and  0.0477 for all    2099 data
REM    119 parameters refined using      0 restraints
 
END
 
WGHT      0.0313      0.7887
 
REM Highest difference peak  0.274,  deepest hole -0.232,  1-sigma level  0.053
Q1    1   0.3459  0.2599  0.7302  11.00000  0.05    0.27
Q2    1   0.1216  0.3617  0.6260  11.00000  0.05    0.25
Q3    1   0.1477  0.5419  0.7040  11.00000  0.05    0.24
Q4    1   0.0768  0.3619  0.8102  11.00000  0.05    0.24
Q5    1   0.1254  0.3569  0.8898  11.00000  0.05    0.23
Q6    1   0.3748  0.3633  0.5750  11.00000  0.05    0.22
Q7    1  -0.0353  0.4634  0.8556  11.00000  0.05    0.22
Q8    1  -0.2350  0.3449  0.8578  11.00000  0.05    0.21
Q9    1   0.3101  0.3233  0.6723  11.00000  0.05    0.21
Q10   1   0.4559  0.2136  0.6083  11.00000  0.05    0.21
Q11   1   0.1668  0.3027  0.6733  11.00000  0.05    0.21
Q12   1   0.4958  0.2779  0.5662  11.00000  0.05    0.20
Q13   1   0.1669  0.4020  0.6871  11.00000  0.05    0.20
Q14   1   0.4655  0.1057  0.5201  11.00000  0.05    0.20
Q15   1   0.4949  0.2386  0.6792  11.00000  0.05    0.20
Q16   1   0.2799  0.4153  0.7078  11.00000  0.05    0.19
Q17   1   0.0726  0.2756  0.7529  11.00000  0.05    0.19
Q18   1  -0.0019  0.4614  0.7171  11.00000  0.05    0.19
Q19   1   0.3350  0.2598  0.5577  11.00000  0.05    0.18
Q20   1   0.3201  0.3961  0.6406  11.00000  0.05    0.18
;
_shelx_res_checksum              17350
_shelx_hkl_file
;
   1   0   0   97.87    4.43   3
   1   0   0   94.60    4.30   4
   1   0   0   95.56    4.37   4
  -1   0   0   96.24    4.41   3
  -1   0   0   88.96    4.39   3
  -1   0   0  100.45    4.36   4
  -1   0   0   98.36    4.45   4
   1   0   0   90.46    4.78   1
   1   0   0   95.33    4.35   3
  -1   0   0   88.53    4.80   1
  -2   0   0  103.51    5.37   4
  -2   0   0   96.97    5.47   4
  -2   0   0   99.44    6.22   1
  -2   0   0  110.68    5.83   3
   2   0   0  101.13    6.13   1
   2   0   0   97.74    5.38   3
   2   0   0   99.38    5.31   4
  -2   0   0   98.34    5.41   3
   3   0   0  125.62    7.21   3
  -3   0   0  118.11    6.98   4
  -3   0   0  138.26    7.55   4
  -3   0   0  128.39    7.75   3
  -3   0   0  120.02    8.41   1
   3   0   0  128.70    7.09   4
  -3   0   0  121.14    7.13   3
  -4   0   0   15.19    4.29   4
   4   0   0   18.52    4.33   3
  -4   0   0   17.48    5.04   3
  -4   0   0   18.54    5.86   1
  -5   0   0    9.36    7.33   1
  -5   0   0   22.83    5.35   4
  -5   0   0   16.72    6.41   3
   0  -1   0    0.02    0.06   4
   0  -1   0    0.35    0.22   3
   0  -1   0   -0.01    0.18   3
   0  -1   0   -0.01    0.19   4
   0  -1   0    0.05    0.35   2
   0   1   0    0.05    0.19   4
   0   1   0   -0.49    0.20   3
   0   1   0    0.23    0.19   3
   0   1   0   -0.11    0.15   4
   0   1   0   -0.25    0.22   2
  -1  -1   0 2671.01   95.26   4
  -1  -1   0 2540.95   95.37   3
   1  -1   0 2747.14   95.19   4
   1  -1   0 2549.68   95.53   1
   1  -1   0 2708.04   95.11   3
  -1  -1   0 2824.59   95.47   4
  -1  -1   0 2482.19   95.65   1
  -1  -1   0 2572.20   95.22   3
   1  -1   0 2585.65   95.18   3
   1   1   0 2668.06   95.33   4
   1   1   0 2603.92   95.30   3
  -1   1   0 2688.34   95.14   4
  -1   1   0 2546.41   95.16   3
  -1   1   0 2609.05   95.17   4
   1   1   0 2505.21   95.29   4
   1   1   0 2603.24   95.68   1
   1   1   0 2769.61   95.32   3
  -1   1   0 2597.69   95.11   3
  -1   1   0 2516.83   95.55   1
  -2  -1   0    0.13    1.75   4
   2  -1   0    0.54    2.39   1
   2  -1   0    0.21    0.36   4
  -2  -1   0    2.39    2.77   1
  -2  -1   0    0.25    1.74   3
   2  -1   0    1.28    1.72   3
  -2  -1   0   -0.40    1.92   3
   2  -1   0    2.85    1.50   4
  -2  -1   0    1.79    2.00   4
   2  -1   0    1.11    1.63   3
  -2   1   0    1.89    1.62   3
   2   1   0    0.91    2.03   3
   2   1   0    0.34    2.29   1
  -2   1   0    2.85    1.83   4
   2   1   0    3.80    1.87   4
   2   1   0    1.40    1.96   4
  -2   1   0    5.16    2.79   1
  -2   1   0   -0.20    1.96   3
  -2   1   0    1.28    1.79   4
   2   1   0    0.71    1.66   3
  -3  -1   0   91.65    6.38   4
  -3  -1   0   88.48    5.96   4
  -3  -1   0   94.57    7.81   1
  -3  -1   0  101.98    7.00   3
   3  -1   0   97.94    6.06   3
  -3   1   0  102.89    6.35   4
  -3   1   0   92.77    6.32   3
   3   1   0  102.19    6.73   3
  -3   1   0   98.13    6.38   4
   3   1   0  104.50    6.30   4
  -3   1   0  102.07    7.84   1
  -3   1   0   98.35    6.18   3
  -4  -1   0   12.02    4.42   3
  -4  -1   0   22.99    4.83   4
  -4  -1   0   11.40    5.31   1
   4  -1   0   15.22    4.29   3
  -4   1   0   20.56    6.26   1
   4   1   0    9.27    4.41   3
  -4   1   0   16.99    4.34   3
  -4   1   0   17.14    4.28   4
  -5  -1   0   20.75    6.97   3
  -5  -1   0   22.57    5.54   4
  -5  -1   0   16.37    7.88   1
  -5   1   0   29.79    5.74   4
  -5   1   0   13.09    7.54   1
  -5   1   0   19.44    5.59   3
   0  -2   0  833.47   32.26   2
   0  -2   0  877.68   31.67   3
   0  -2   0  909.25   32.38   4
   0  -2   0  839.05   31.66   3
   0   2   0  873.64   31.69   4
   0   2   0  860.49   32.31   2
   0   2   0  889.79   31.82   1
   0   2   0  847.17   31.68   4
   0   2   0  873.34   31.67   3
   0   2   0  895.84   31.68   3
   1  -2   0 3176.98  121.15   4
  -1  -2   0 3389.50  122.39   2
  -1  -2   0 3347.51  121.40   3
   1  -2   0 3380.76  121.59   1
   1  -2   0 3342.11  121.82   3
   1  -2   0 3409.49  121.56   4
   1  -2   0 3359.44  122.45   3
  -1  -2   0 3216.10  121.81   1
  -1  -2   0 3350.67  121.42   4
  -1   2   0 3526.83  121.23   3
   1   2   0 3218.15  121.79   1
  -1   2   0 3342.10  121.62   1
  -1   2   0 3316.89  121.15   3
  -1   2   0 3363.60  121.21   4
  -1   2   0 3476.96  121.76   4
   1   2   0 3341.65  121.52   4
   1   2   0 3404.91  121.47   4
   1   2   0 3425.91  121.51   3
   1   2   0 3232.34  122.44   2
   1   2   0 3267.14  121.43   3
   2  -2   0  107.72    6.58   1
  -2  -2   0  116.95    5.99   3
  -2  -2   0  118.64    6.41   3
  -2  -2   0  114.48    5.98   4
  -2  -2   0  110.08    6.24   4
  -2  -2   0  108.55    6.87   1
  -2  -2   0  116.32    7.47   2
   2  -2   0  109.89    5.72   3
   2  -2   0  113.58    5.75   3
   2  -2   0  115.12    5.75   4
   2  -2   0  114.98    5.66   4
   2   2   0  126.20    6.26   4
  -2   2   0  127.42    5.88   4
  -2   2   0  116.19    6.68   1
   2   2   0  106.42    5.96   3
   2   2   0  112.06    6.80   1
  -2   2   0  124.13    5.96   4
  -2   2   0  113.16    5.98   3
   2   2   0  113.99    6.08   4
  -2   2   0  120.20    5.77   3
   2   2   0  107.74    6.12   3
   3  -2   0    3.00    2.65   3
  -3  -2   0    4.59    3.87   1
   3  -2   0    6.09    2.54   4
  -3  -2   0    1.37    2.74   4
  -3  -2   0    4.89    3.11   3
  -3  -2   0    6.26    2.55   4
  -3   2   0    2.62    2.48   3
   3   2   0    3.62    3.25   3
  -3   2   0    9.49    3.79   1
  -3   2   0   11.02    2.85   4
  -3   2   0   -0.46    2.61   3
  -3   2   0    3.90    2.29   4
   3   2   0    0.95    2.93   4
  -4  -2   0    7.90    4.19   3
  -4  -2   0   14.07    5.54   1
  -4  -2   0   10.20    4.18   4
   4  -2   0   12.05    3.97   3
  -4   2   0   17.17    4.32   3
  -4   2   0   10.91    5.46   1
  -4   2   0   11.53    3.92   4
   4   2   0   20.47    4.72   3
  -5  -2   0   -6.92    6.13   3
  -5  -2   0    5.27    4.44   4
  -5   2   0    4.81    5.53   3
  -5   2   0    6.63    6.91   1
  -5   2   0    6.35    4.30   4
   0  -3   0   -0.03    0.68   4
   0  -3   0   -0.26    0.79   3
   0  -3   0   -0.18    0.62   4
   0  -3   0    0.54    1.27   2
   0  -3   0    0.02    0.75   3
   0   3   0   -0.52    1.23   2
   0   3   0    1.01    0.71   4
   0   3   0   -0.18    0.80   3
   0   3   0   -0.84    0.67   4
   0   3   0    0.99    0.63   1
   0   3   0   -0.16    0.78   3
  -1  -3   0    9.84    2.29   2
   1  -3   0   12.80    1.37   4
   1  -3   0   14.68    1.49   4
   1  -3   0   16.01    1.99   1
   1  -3   0   15.81    1.54   3
  -1  -3   0   13.86    2.02   4
  -1  -3   0   15.73    2.13   3
  -1  -3   0   16.92    2.05   3
  -1  -3   0   13.25    1.84   4
  -1  -3   0   10.80    2.20   1
   1  -3   0   15.23    1.60   3
   1   3   0   17.82    2.09   4
  -1   3   0   11.24    1.84   1
   1   3   0   16.98    2.76   2
   1   3   0   14.60    2.01   3
  -1   3   0   15.89    1.59   3
  -1   3   0   15.24    1.58   3
   1   3   0   14.67    1.96   4
  -1   3   0   14.97    1.62   4
  -1   3   0   18.41    1.69   4
   1   3   0   17.44    2.61   1
   1   3   0   15.79    2.02   3
  -2  -3   0 1021.08   39.38   4
   2  -3   0 1057.08   38.85   4
  -2  -3   0 1080.74   39.43   3
   2  -3   0  987.31   39.09   3
  -2  -3   0 1051.72   39.76   4
   2  -3   0 1077.57   39.10   4
  -2  -3   0 1019.40   39.78   3
  -2  -3   0 1044.26   41.25   2
   2  -3   0 1073.16   38.93   3
  -2  -3   0 1043.14   40.43   1
   2  -3   0 1047.10   39.89   1
  -2   3   0 1078.42   39.18   4
  -2   3   0 1011.41   39.95   1
  -2   3   0 1048.52   39.10   4
   2   3   0 1043.45   39.64   4
   2   3   0 1002.87   39.50   4
  -2   3   0 1090.56   39.17   3
   2   3   0 1052.56   39.53   3
  -2   3   0 1010.12   39.02   3
   2   3   0 1053.40   39.60   3
   2   3   0 1025.65   40.29   1
  -3  -3   0  168.95    9.56   3
   3  -3   0  176.79    8.35   4
   3  -3   0  179.57    8.58   3
  -3  -3   0  168.86    8.83   4
  -3  -3   0  186.26    9.56   4
  -3  -3   0  174.17   10.72   1
  -3   3   0  164.63    8.56   4
  -3   3   0  171.42   10.33   1
   3   3   0  178.17    9.36   3
  -3   3   0  172.31    8.65   3
   3   3   0  174.30    9.18   4
  -3   3   0  163.63    8.72   4
  -3   3   0  162.83    8.67   3
   4  -3   0    5.25    4.48   3
  -4  -3   0   -4.01    3.52   4
  -4  -3   0    3.98    5.16   1
  -4  -3   0   -2.92    3.62   3
   4   3   0    1.34    4.29   3
  -4   3   0    3.98    3.67   4
  -4   3   0    6.32    5.31   1
  -4   3   0    6.52    3.97   3
   0  -4   0 3020.38  106.34   3
   0  -4   0 2649.93  106.29   4
   0  -4   0 2875.38  108.67   4
   0  -4   0 2948.13  106.90   3
   0  -4   0 2952.25  112.69   2
   0   4   0 2922.21  106.43   1
   0   4   0 3052.67  106.33   3
   0   4   0 2918.14  107.96   4
   0   4   0 2933.12  109.86   2
   0   4   0 3105.19  107.65   4
   0   4   0 2881.07  106.30   3
   1  -4   0  131.68    5.70   4
   1  -4   0  137.02    5.66   3
  -1  -4   0  131.84    6.34   3
   1  -4   0  140.02    5.65   4
  -1  -4   0  134.97    6.11   4
  -1  -4   0  136.38    6.44   4
  -1  -4   0  132.75    6.54   1
   1  -4   0  132.02    5.74   3
  -1  -4   0  132.32    6.10   3
  -1  -4   0  145.87    7.33   2
   1  -4   0  144.48    5.97   1
   1   4   0  134.53    6.58   1
   1   4   0  149.62    6.32   3
   1   4   0  138.76    7.61   2
  -1   4   0  126.15    5.99   1
   1   4   0  139.64    6.28   3
   1   4   0  141.87    6.31   4
  -1   4   0  132.72    5.72   3
   1   4   0  133.16    6.29   4
  -1   4   0  137.08    5.77   4
  -1   4   0  133.51    7.53   2
  -1   4   0  139.95    5.78   3
  -1   4   0  132.39    5.75   4
  -2  -4   0   14.20    2.82   4
  -2  -4   0   10.60    2.86   3
  -2  -4   0   12.61    2.49   3
   2  -4   0    9.38    2.06   3
  -2  -4   0    9.03    3.26   1
   2  -4   0    9.14    1.80   4
   2  -4   0   12.02    2.83   1
  -2  -4   0   13.26    2.29   4
   2  -4   0   10.88    2.03   3
   2   4   0   12.48    2.32   4
  -2   4   0   14.80    2.74   1
   2   4   0   15.18    2.76   4
  -2   4   0    8.18    1.87   4
   2   4   0   15.41    2.90   3
   2   4   0   12.07    3.34   1
  -2   4   0   10.96    2.05   3
   2   4   0   11.37    2.41   3
  -2   4   0   10.46    2.12   3
  -2   4   0   10.73    2.07   4
  -3  -4   0   77.28    6.43   3
  -3  -4   0   67.91    5.38   4
  -3  -4   0   75.18    6.08   4
   3  -4   0   79.06    4.93   4
   3  -4   0   74.07    5.11   3
  -3  -4   0   76.60    7.09   1
  -3   4   0   74.09    5.09   3
  -3   4   0   70.96    5.38   4
  -3   4   0   78.85    5.38   4
  -3   4   0   78.65    5.64   3
   3   4   0   72.07    6.51   3
   3   4   0   73.13    5.83   4
  -3   4   0   76.48    6.98   1
  -4  -4   0   30.67    7.15   1
  -4  -4   0   36.85    6.37   3
  -4  -4   0   41.06    5.99   4
  -4   4   0   37.28    5.25   3
   4   4   0   31.26    5.60   3
  -4   4   0   32.60    4.76   4
  -4   4   0   44.94    7.61   1
   0  -5   0   -0.30    1.41   2
   0  -5   0    2.26    1.08   4
   0  -5   0   -0.04    0.97   3
   0  -5   0    0.74    1.13   3
   0  -5   0    0.00    0.82   4
   0   5   0   -0.26    1.00   3
   0   5   0    0.27    0.93   4
   0   5   0    1.02    1.19   3
   0   5   0   -0.04    0.78   1
   0   5   0    3.08    2.11   2
   0   5   0   -1.11    0.91   4
  -1  -5   0  290.37   12.02   2
   1  -5   0  246.56    9.83   3
   1  -5   0  240.46    9.74   3
   1  -5   0  235.90    9.74   4
  -1  -5   0  239.10   10.55   1
  -1  -5   0  251.91   10.56   3
   1  -5   0  262.93    9.83   1
   1  -5   0  247.60    9.72   4
  -1  -5   0  254.25   10.67   4
  -1  -5   0  257.29   10.30   4
  -1  -5   0  251.85   10.31   3
  -1   5   0  242.44    9.86   4
  -1   5   0  240.98    9.87   4
   1   5   0  261.31   10.42   3
  -1   5   0  252.15    9.83   3
  -1   5   0  245.85   11.91   2
   1   5   0  248.40   10.40   4
   1   5   0  251.36   11.91   2
   1   5   0  245.44   10.38   3
   1   5   0  255.30   10.50   4
   1   5   0  227.13   10.49   1
  -1   5   0  240.63    9.83   3
  -1   5   0  231.65    9.93   1
  -2  -5   0  113.18    6.04   4
  -2  -5   0   95.55    7.94   2
  -2  -5   0  114.87    7.20   1
   2  -5   0  108.00    6.09   1
   2  -5   0  111.16    5.39   3
   2  -5   0  106.03    5.63   3
  -2  -5   0  106.70    6.51   4
   2  -5   0  115.05    5.32   4
   2   5   0  110.45    6.38   3
  -2   5   0  114.56    5.75   3
  -2   5   0  111.52    5.72   4
   2   5   0  101.69    6.78   1
  -2   5   0  119.52    5.64   3
  -2   5   0  108.54    5.56   4
   2   5   0  118.29    7.08   3
   2   5   0  109.69    6.27   4
  -2   5   0  120.83    6.43   1
   2   5   0  123.72    6.42   4
   3  -5   0    1.04    1.96   4
   3  -5   0   -1.55    2.20   3
  -3  -5   0    0.89    2.79   4
  -3  -5   0   -1.74    2.30   4
  -3  -5   0   -1.04    4.03   1
  -3  -5   0    0.43    3.20   3
  -3   5   0    1.97    2.58   4
   3   5   0   -2.50    3.41   3
  -3   5   0    0.77    2.57   3
  -3   5   0    2.91    3.01   1
  -3   5   0   -0.90    2.63   4
   3   5   0    0.61    2.87   4
  -3   5   0   -1.60    2.29   3
  -4  -5   0  183.41   11.90   4
  -4  -5   0  231.94   14.52   1
  -4  -5   0  203.57   12.61   3
  -4   5   0  233.02   11.58   3
  -4   5   0  214.42   11.23   4
  -4   5   0  238.10   13.89   1
   4   5   0  215.76   12.36   3
   0  -6   0    8.00    1.62   3
   0  -6   0    6.48    2.37   2
   0  -6   0    5.74    1.54   4
   0  -6   0   10.31    1.65   3
   0  -6   0    9.32    1.53   4
   0   6   0    6.16    1.58   3
   0   6   0    7.50    1.08   1
   0   6   0    9.67    1.61   4
   0   6   0    8.32    2.88   2
   0   6   0   11.93    1.65   3
   0   6   0    7.98    1.64   4
   1  -6   0  372.02   14.11   3
   1  -6   0  374.52   14.02   4
   1  -6   0  377.93   14.04   4
  -1  -6   0  386.17   14.60   4
  -1  -6   0  344.97   14.84   3
  -1  -6   0  352.35   14.86   4
  -1  -6   0  371.54   14.79   1
  -1  -6   0  367.20   14.53   3
  -1  -6   0  330.56   15.93   2
   1  -6   0  357.54   14.01   3
  -1   6   0  374.96   14.21   4
  -1   6   0  357.71   14.15   4
   1   6   0  356.06   14.69   4
   1   6   0  373.52   14.74   3
   1   6   0  376.35   14.63   3
  -1   6   0  364.97   14.13   3
   1   6   0  346.80   14.69   4
  -1   6   0  351.05   14.02   1
  -1   6   0  364.05   16.45   2
   1   6   0  355.67   14.75   1
  -1   6   0  369.88   14.16   3
   1   6   0  367.28   16.49   2
  -2  -6   0   50.02    4.58   4
  -2  -6   0   43.97    4.62   1
   2  -6   0   53.14    3.42   3
  -2  -6   0   46.97    3.86   4
   2  -6   0   48.18    3.09   4
   2  -6   0   49.99    3.94   1
  -2   6   0   49.80    3.59   4
  -2   6   0   58.20    3.58   3
  -2   6   0   43.46    3.53   4
   2   6   0   46.87    6.07   2
  -2   6   0   49.26    6.28   2
  -2   6   0   48.16    4.21   1
  -2   6   0   44.90    3.53   3
   2   6   0   55.84    4.41   4
   2   6   0   44.16    4.53   3
   2   6   0   48.78    4.17   4
  -3  -6   0    3.63    3.96   1
   3  -6   0    2.28    2.33   3
  -3  -6   0    6.10    3.45   4
  -3  -6   0    0.47    3.35   3
   3   6   0    4.94    3.23   4
  -3   6   0   -0.89    2.18   4
   3   6   0    0.89    3.39   3
  -3   6   0    0.20    2.32   4
  -3   6   0    5.53    3.35   1
  -3   6   0    3.84    2.57   3
  -3   6   0    6.62    2.69   3
  -4  -6   0   34.39    7.28   1
  -4  -6   0   47.56    6.80   3
  -4  -6   0   32.46    6.35   4
   4   6   0   31.97    6.37   3
  -4   6   0   39.43    5.26   4
  -4   6   0   41.37    5.20   3
  -4   6   0   38.94    6.85   1
   0  -7   0    0.17    1.25   4
   0  -7   0    0.41    1.39   3
   0  -7   0    0.61    1.72   2
   0  -7   0    0.96    1.22   3
   0  -7   0   -0.66    0.99   4
   0   7   0    0.49    1.16   3
   0   7   0    1.06    1.41   3
   0   7   0    0.00    2.40   2
   0   7   0    0.84    1.13   4
   0   7   0    1.85    1.23   4
   0   7   0   -0.32    0.73   1
  -1  -7   0   49.56    3.71   1
  -1  -7   0   48.33    3.80   4
   1  -7   0   50.04    3.09   3
  -1  -7   0   49.09    3.78   3
  -1  -7   0   47.09    3.29   4
   1  -7   0   45.83    2.92   3
   1  -7   0   54.47    3.03   4
  -1  -7   0   47.50    4.63   2
  -1   7   0   48.05    3.10   3
  -1   7   0   53.66    5.46   2
   1   7   0   47.67    3.69   1
  -1   7   0   44.55    3.06   4
   1   7   0   50.02    3.88   3
   1   7   0   47.77    3.56   3
  -1   7   0   45.11    3.07   3
   1   7   0   51.60    5.61   2
   1   7   0   48.14    3.56   4
  -1   7   0   45.37    2.73   1
  -1   7   0   43.49    3.04   4
   1   7   0   49.25    3.66   4
   2  -7   0    4.00    2.04   1
  -2  -7   0   -1.15    2.30   4
   2  -7   0    5.98    1.77   3
  -2  -7   0    6.01    3.25   1
   2  -7   0    4.48    1.49   4
   2   7   0    5.88    2.87   3
   2   7   0    5.14    2.40   4
  -2   7   0    5.25    1.97   3
  -2   7   0    6.46    1.83   3
   2   7   0    6.20    3.62   2
  -2   7   0    3.48    3.84   2
  -2   7   0    6.20    1.97   4
  -2   7   0    7.19    2.00   4
  -2   7   0    8.26    2.45   1
   2   7   0    6.11    2.64   4
  -3  -7   0  296.70   15.14   3
  -3  -7   0  321.08   15.90   1
  -3  -7   0  302.48   14.89   4
   3  -7   0  318.15   14.08   3
  -3   7   0  303.31   13.68   4
   3   7   0  286.64   14.56   4
  -3   7   0  330.64   13.71   4
  -3   7   0  308.62   14.85   1
  -3   7   0  317.29   17.90   2
   3   7   0  293.27   14.70   3
  -3   7   0  309.33   13.41   3
  -4  -7   0   23.44    7.41   1
  -4  -7   0   17.26    5.31   3
  -4   7   0   28.73    6.33   1
   4   7   0   25.93    6.36   3
  -4   7   0   25.16    4.64   4
  -4   7   0   28.07    4.55   3
  -4   7   0   32.96    8.35   2
   0  -8   0  352.94   14.72   4
   0  -8   0  383.47   14.85   3
   0   8   0  378.37   14.77   4
   0   8   0  364.79   14.73   3
   0   8   0  363.99   14.74   4
   0   8   0  370.50   14.66   3
   0   8   0  359.90   17.20   2
  -1  -8   0  176.44    8.47   3
   1  -8   0  182.64    7.61   3
  -1  -8   0  150.56    8.26   4
   1  -8   0  177.97    7.46   4
  -1  -8   0  194.47    8.14   1
  -1   8   0  176.80    7.76   4
  -1   8   0  177.11   10.47   2
   1   8   0  168.12   10.57   2
   1   8   0  191.01    8.39   4
  -1   8   0  177.01    7.63   3
   1   8   0  168.85    8.23   4
   1   8   0  172.43    8.25   3
  -1   8   0  164.94    7.61   4
   1   8   0  160.38    7.99   1
  -1   8   0  168.39    6.80   1
  -1   8   0  159.05    7.56   3
   1   8   0  170.57    8.05   3
  -2  -8   0  312.38   14.22   1
  -2  -8   0  287.14   13.92   4
   2  -8   0  311.01   12.43   3
   2  -8   0  315.11   12.28   4
   2   8   0  321.83   13.99   3
  -2   8   0  297.19   12.98   1
  -2   8   0  302.65   12.86   4
  -2   8   0  301.69   12.74   3
  -2   8   0  303.38   12.75   4
   2   8   0  288.21   13.68   4
   2   8   0  301.45   16.66   2
  -2   8   0  304.05   16.53   2
   2   8   0  297.73   13.60   4
  -2   8   0  314.04   12.66   3
  -3  -8   0   52.47    6.75   3
  -3  -8   0   44.38    5.80   4
  -3  -8   0   40.25    6.46   1
  -3   8   0   49.04    4.57   3
  -3   8   0   45.04    8.12   2
   3   8   0   45.22    5.87   4
  -3   8   0   46.25    5.54   4
   3   8   0   49.18    6.22   3
  -3   8   0   58.42    6.15   1
  -3   8   0   45.38    4.23   4
  -4  -8   0   -6.59    4.96   1
  -4  -8   0    7.26    5.02   3
  -4   8   0    0.70    3.10   3
  -4   8   0   -3.39    6.04   2
  -4   8   0    1.99    3.21   4
   4   8   0    3.25    5.28   3
  -4   8   0    4.96    4.94   1
   0  -9   0   -2.14    1.71   3
   0  -9   0   -0.03    1.65   4
   0   9   0    1.28    1.82   3
   0   9   0    3.37    1.81   4
   0   9   0   -0.49    1.35   3
   0   9   0    0.66    3.40   2
   0   9   0   -0.69    1.29   4
  -1  -9   0   44.27    4.51   3
   1  -9   0   43.12    3.02   4
   1  -9   0   42.75    3.25   3
  -1   9   0   38.36    3.20   4
   1   9   0   45.35    4.39   4
   1   9   0   38.14    3.37   3
  -1   9   0   37.20    5.91   2
   1   9   0   34.70    3.49   1
   1   9   0   51.21    4.60   3
  -1   9   0   41.56    3.34   3
  -1   9   0   32.76    2.96   3
   1   9   0   44.48    3.72   4
  -1   9   0   41.37    3.29   4
   1   9   0   48.73    6.82   2
  -2  -9   0   59.17    5.34   4
   2  -9   0   56.03    3.48   4
   2  -9   0   56.65    3.81   3
  -2  -9   0   57.81    5.74   1
  -2   9   0   54.03    7.72   2
  -2   9   0   53.41    4.12   3
  -2   9   0   50.98    4.16   4
   2   9   0   71.92    9.50   2
   2   9   0   48.24    4.93   4
  -2   9   0   57.04    4.19   3
  -2   9   0   55.97    4.16   4
  -2   9   0   52.15    4.23   1
   2   9   0   58.25    5.24   4
   2   9   0   66.43    6.17   3
  -3  -9   0   11.59    4.38   3
  -3  -9   0    5.25    4.44   1
   3   9   0    9.32    4.04   4
  -3   9   0    6.76    2.69   3
  -3   9   0    9.57    3.65   1
  -3   9   0    8.96    5.81   2
   3   9   0    6.07    4.26   3
  -3   9   0   11.70    3.15   4
  -4  -9   0    5.46    4.65   3
  -4  -9   0   -1.57    5.69   1
  -4   9   0    2.62    3.16   4
   4   9   0   10.93    5.17   3
  -4   9   0    2.11    6.55   2
  -4   9   0    0.85    3.09   3
   0 -10   0  595.14   23.54   4
   0 -10   0  606.08   23.59   3
   0  10   0  599.03   23.53   4
   0  10   0  602.32   23.47   4
   0  10   0  571.01   23.26   3
   0  10   0  614.41   26.99   2
   0  10   0  604.07   23.50   3
   1 -10   0   40.04    3.35   3
  -1 -10   0   33.81    4.22   3
   1 -10   0   35.45    2.98   4
   1  10   0   37.15    3.86   4
   1  10   0   43.06    4.51   4
   1  10   0   40.15    6.81   2
   1  10   0   44.67    4.79   3
  -1  10   0   33.11    3.37   4
  -1  10   0   34.83    3.28   3
   1  10   0   38.44    3.51   3
   1  10   0   31.53    3.37   1
  -1  10   0   34.20    3.27   4
  -1  10   0   21.51    2.83   3
  -1  10   0   38.26    6.47   2
  -2 -10   0   -2.26    2.87   1
  -2  10   0    0.75    1.85   4
  -2  10   0    4.34    2.17   4
   2  10   0    6.63    3.71   3
   2  10   0   16.77    6.86   2
   2  10   0    1.16    3.02   4
  -2  10   0    2.97    2.05   3
  -2  10   0    4.39    4.92   2
  -2  10   0    2.75    1.97   1
  -3 -10   0   23.64    5.20   3
  -3 -10   0   28.75    6.21   1
  -3  10   0   24.99    3.79   4
   3  10   0   27.69    5.55   3
  -3  10   0   24.32    7.43   2
  -3  10   0   21.98    5.28   1
   3  10   0   30.80    5.39   4
  -3  10   0   23.49    3.72   3
   0 -11   0    0.31    2.43   4
   0 -11   0    4.91    2.34   3
   0  11   0    1.87    2.14   4
   0  11   0    6.32    2.50   3
   0  11   0    2.42    1.62   4
   0  11   0    4.51    4.49   2
   0  11   0    5.07    1.91   3
   1 -11   0   96.12    5.33   3
  -1 -11   0   92.57    6.43   3
   1  11   0   89.15    6.03   3
  -1  11   0   85.49    5.36   4
  -1  11   0   93.42    9.24   2
  -1  11   0   90.06    5.39   4
   1  11   0   83.43    4.96   1
   1  11   0   80.71    9.00   2
   1  11   0   96.09    5.77   4
  -1  11   0   89.96    5.32   3
   1  11   0   85.98    5.99   4
  -2 -11   0   53.14    5.67   1
   2  11   0   50.84    6.11   3
   2  11   0   56.28    9.39   2
  -2  11   0   47.32    4.06   3
  -2  11   0   38.02    5.68   4
   2  11   0   48.84    5.84   4
  -2  11   0   47.90    8.36   2
  -2  11   0   37.52    4.13   4
  -3 -11   0   17.27    4.82   3
  -3 -11   0    9.00    4.78   1
  -3  11   0   15.17    3.22   3
   3  11   0   17.19    5.42   3
   3  11   0   17.02    4.85   4
  -3  11   0   14.69    3.49   4
  -3  11   0   11.46    6.64   2
   0 -12   0  233.38   10.96   3
   0  12   0  235.27   15.03   2
   0  12   0  231.70   10.87   4
   0  12   0  239.55   10.97   3
   0  12   0  227.98   10.78   4
  -1 -12   0   13.24    3.65   3
   1  12   0   14.94    3.42   4
   1  12   0    8.69    5.95   2
  -1  12   0   16.80    2.90   4
  -1  12   0   13.15    2.66   4
   1  12   0   16.41    3.83   3
  -1  12   0   18.77    6.27   2
  -1  12   0   15.53    3.01   3
   2  12   0   25.37    5.39   3
  -2  12   0   26.37    7.22   2
   2  12   0   22.99    7.85   2
  -2  12   0   11.03    2.89   4
  -2  12   0   17.68    3.14   3
   2  12   0   23.09    4.73   4
  -3 -12   0    1.16    4.21   3
  -3  12   0    1.73    6.49   2
  -3  12   0    5.77    2.98   3
  -3  12   0    4.24    3.07   4
   3  12   0    0.06    3.93   4
   3  12   0   10.37    5.45   3
   0  13   0    3.02    2.57   4
   0  13   0    2.37    4.99   2
   0  13   0   -1.51    2.70   3
   1  13   0   24.73    4.69   3
  -1  13   0   29.95    3.85   3
  -1  13   0   24.57    6.85   2
  -1  13   0   25.02    3.51   4
   1  13   0   29.36    4.57   4
   1  13   0   21.87    7.36   2
  -2  13   0   40.56    9.35   2
  -2  13   0   38.50    4.11   3
  -2  13   0   33.18    4.11   4
   2  13   0   45.97    6.24   3
   2  13   0   39.17    5.84   4
   2  13   0   38.09    9.29   2
   3  13   0   29.26    7.18   2
   0  14   0    6.60    3.46   3
   0  14   0   -1.16    5.88   2
   0  14   0    2.45    2.92   4
  -1  14   0   36.57    4.52   3
   1  14   0   43.95    5.52   4
  -1  14   0   42.01    4.60   4
   1  14   0   30.45    8.39   2
   1  14   0   39.89    5.95   3
  -1  14   0   44.08    8.71   2
   2  14   0   -6.36    4.07   3
   2  14   0    5.36    7.56   2
  -2  14   0   10.17    7.32   2
   2  14   0    4.37    4.43   4
  -2  14   0   -0.81    2.48   3
  -2  14   0    2.09    2.61   4
   0  15   0   -5.36    2.82   3
   0  15   0   -2.47    2.75   4
   0  15   0    0.41    5.90   2
  -1  15   0   -0.14    2.62   4
   1  15   0  -11.39    5.52   2
   1  15   0   -5.89    3.57   3
   1  15   0    0.35    3.36   4
  -1  15   0   -3.31    5.56   2
  -1  15   0    3.73    2.84   3
   0  16   0    1.04    3.41   4
   0  16   0   -7.90    6.25   2
   0  16   0    0.84    3.44   3
  -5   0   1    7.53    5.26   3
  -5   0   1    8.12    4.43   4
  -5   0   1   -4.03    5.86   1
   4   0  -1    9.35    3.83   3
  -4   0   1    2.69    3.65   3
  -4   0   1   -1.72    3.74   4
  -4   0   1    7.30    5.08   1
   3   0  -1    1.23    2.86   3
   3   0  -1   -3.31    2.15   4
  -3   0   1    1.52    2.58   4
  -3   0   1    0.68    2.80   3
  -3   0   1   -1.03    2.17   3
  -3   0   1   -1.37    2.15   4
  -3   0   1    4.26    3.49   1
   2   0  -1   -0.79    1.49   4
   2   0  -1   -0.31    2.06   3
   2   0  -1    0.81    1.81   4
   2   0  -1    0.74    2.20   1
   2   0  -1   -0.93    1.55   3
  -2   0   1    0.30    1.80   4
  -2   0   1   -1.39    1.56   4
  -2   0   1   -2.63    1.83   3
  -2   0   1    0.09    2.25   1
  -2   0   1   -0.71    1.74   3
   1   0  -1   -1.68    1.66   1
  -1   0   1    0.68    1.27   3
   1   0  -1    0.12    1.25   3
   1   0  -1    0.59    1.29   4
   1   0  -1   -0.86    1.11   4
  -1   0   1    0.50    1.64   1
   1   0  -1   -0.40    1.19   3
  -1   0   1   -0.12    1.17   4
  -1   0   1    0.35    1.30   3
  -1   0   1   -0.71    1.25   4
   0   0   1   -0.02    0.09   3
   0   0   1    0.02    0.02   4
   0   0  -1   -0.01    0.08   3
   0   0  -1    0.02    0.05   4
   0   0  -1    0.01    0.03   4
   0   0  -1   -0.01    0.03   3
   0   0   1   -0.02    0.10   4
   0   0   1   -0.01    0.03   3
   1   0   1    0.49    1.28   3
   1   0   1   -0.87    1.15   3
  -1   0  -1    0.23    1.08   4
   1   0   1   -0.14    0.14   4
  -1   0  -1    1.57    1.27   4
   1   0   1   -0.14    1.05   4
  -1   0  -1   -0.67    1.11   3
   1   0   1   -1.60    1.57   1
  -1   0  -1    3.21    1.31   3
  -1   0  -1    0.22    1.59   1
  -2   0  -1    1.58    2.58   1
  -2   0  -1   -0.64    1.56   3
   2   0   1    2.17    2.16   1
   2   0   1   -0.47    1.95   3
   2   0   1    1.69    1.58   3
   2   0   1   -1.32    1.09   4
  -2   0  -1   -1.78    1.49   4
  -2   0  -1   -0.75    1.98   3
   2   0   1   -2.81    1.31   4
  -2   0  -1    0.56    1.73   4
   3   0   1    1.12    2.85   3
  -3   0  -1    4.94    2.42   4
  -3   0  -1   -0.06    3.40   1
   3   0   1    0.02    1.68   4
  -3   0  -1    0.74    2.80   3
  -3   0  -1    2.33    2.48   3
  -3   0  -1   -0.45    2.34   4
   4   0   1    4.06    3.39   3
  -4   0  -1   -0.49    3.36   3
  -4   0  -1    0.74    3.29   4
  -4   0  -1    3.83    4.76   1
  -5   0  -1    3.55    5.64   3
  -5   0  -1   -4.54    5.53   1
  -5   0  -1    1.13    4.15   4
  -5  -1   1   -0.95    6.68   1
  -5  -1   1   -1.85    5.21   3
  -5  -1   1    6.00    4.72   4
  -5   1   1    7.08    4.75   3
  -5   1   1   -0.43    6.11   1
  -5   1   1   -3.41    3.79   4
  -4  -1   1   34.94    5.99   3
  -4  -1   1   28.43    6.37   1
  -4  -1   1   30.38    5.07   4
   4  -1  -1   32.74    5.15   3
   4   1  -1   27.95    5.43   3
  -4   1   1   38.79    5.93   3
  -4   1   1   39.09    7.25   1
  -4   1   1   22.46    4.76   4
  -3  -1   1  284.69   12.40   4
   3  -1  -1  264.61   12.10   4
   3  -1  -1  292.17   12.51   3
  -3  -1   1  277.40   12.82   4
  -3  -1   1  255.18   13.60   1
  -3  -1   1  271.86   12.98   3
  -3   1   1  262.40   12.19   4
  -3   1   1  268.03   12.55   3
   3   1  -1  271.70   12.53   3
   3   1  -1  266.10   12.41   4
  -3   1   1  275.27   12.55   4
  -3   1   1  267.80   13.61   1
  -3   1   1  265.29   12.15   3
   2  -1  -1    4.58    2.62   1
   2  -1  -1    4.68    1.81   4
   2  -1  -1    4.45    1.82   4
  -2  -1   1    3.64    2.62   1
  -2  -1   1    5.26    2.19   4
  -2  -1   1    3.49    1.62   4
   2  -1  -1    3.89    1.93   3
  -2  -1   1    6.74    2.27   3
  -2  -1   1    5.52    1.92   3
   2  -1  -1    2.46    1.84   3
   2   1  -1    0.51    2.30   3
  -2   1   1    6.05    2.28   3
  -2   1   1    5.13    1.97   3
  -2   1   1    4.33    1.83   4
   2   1  -1    4.38    2.04   4
  -2   1   1    2.51    1.85   4
  -2   1   1    4.20    2.71   1
   2   1  -1    3.75    2.48   1
  -1  -1   1   74.20    3.96   3
   1  -1  -1   76.31    3.70   4
   1  -1  -1   84.18    3.83   3
  -1  -1   1   85.06    4.52   1
   1  -1  -1   80.11    3.84   4
  -1  -1   1   64.04    4.00   3
   1  -1  -1   81.74    3.89   3
  -1  -1   1   84.52    4.04   4
   1  -1  -1   80.53    4.24   1
  -1  -1   1   73.60    4.06   4
   1   1  -1   77.97    4.02   3
   1   1  -1   84.00    4.04   4
  -1   1   1   85.13    4.39   1
  -1   1   1   79.31    3.81   3
  -1   1   1   81.84    3.90   3
   1   1  -1   84.34    4.08   4
  -1   1   1   83.48    3.92   4
  -1   1   1   85.86    3.93   4
   1   1  -1   83.68    4.12   3
   1   1  -1   74.31    4.39   1
   0  -1   1   -0.07    0.16   4
   0  -1   1   -0.18    0.32   2
   0  -1  -1   -0.31    0.27   4
   0  -1   1   -0.08    0.21   4
   0  -1  -1   -0.02    0.39   2
   0  -1  -1    0.32    0.30   3
   0  -1   1    0.23    0.19   3
   0  -1  -1   -0.23    0.29   3
   0  -1  -1    0.11    0.29   4
   0   1  -1   -0.09    0.19   3
   0   1  -1   -0.06    0.20   4
   0   1   1    0.29    0.41   2
   0   1   1    0.10    0.26   3
   0   1  -1    0.58    0.37   2
   0   1   1    0.01    0.21   4
   0   1  -1   -0.09    0.15   4
   0   1   1    0.07    0.24   4
   0   1   1   -0.13    0.29   3
   0   1  -1   -0.27    0.21   3
   1  -1   1   21.77    1.65   4
  -1  -1  -1   19.72    2.03   4
  -1  -1  -1   28.94    2.72   1
  -1  -1  -1   22.19    2.06   3
  -1  -1  -1   24.70    2.02   4
   1  -1   1   24.68    1.97   3
  -1  -1  -1   23.41    2.11   3
   1  -1   1   24.05    2.49   1
   1  -1   1   21.32    1.88   3
   1   1   1   28.20    2.80   1
   1   1   1   25.62    2.07   4
   1   1   1   23.95    2.11   3
  -1   1  -1   21.88    1.96   3
  -1   1  -1   22.60    1.78   4
  -1   1  -1   21.62    1.88   3
  -1   1  -1   23.31    1.87   4
   1   1   1   21.58    2.03   4
   1   1   1   22.53    2.05   3
  -1   1  -1   22.78    2.39   1
   2  -1   1   35.03    3.77   1
   2  -1   1   39.86    3.14   4
  -2  -1  -1   38.66    3.25   4
  -2  -1  -1   39.50    3.57   4
  -2  -1  -1   44.17    3.36   3
  -2  -1  -1   46.11    3.67   3
   2  -1   1   39.42    3.39   3
  -2  -1  -1   44.44    4.79   1
   2  -1   1   39.23    3.16   4
   2   1   1   40.12    3.27   3
  -2   1  -1   39.31    3.37   4
  -2   1  -1   45.72    4.50   1
  -2   1  -1   41.95    3.58   3
   2   1   1   46.10    3.97   3
  -2   1  -1   39.55    3.29   4
  -2   1  -1   38.95    3.27   3
   2   1   1   34.80    3.26   4
   2   1   1   47.61    4.78   1
   2   1   1   38.99    3.25   4
   3  -1   1   24.49    3.41   4
   3  -1   1   25.74    3.81   3
  -3  -1  -1   28.41    3.84   3
  -3  -1  -1   24.80    3.57   4
  -3  -1  -1   27.91    4.39   3
  -3  -1  -1   22.15    3.89   4
  -3  -1  -1   23.52    4.78   1
  -3   1  -1   22.43    3.37   3
  -3   1  -1   23.16    3.65   4
  -3   1  -1   23.59    3.67   4
   3   1   1   24.42    3.83   3
   3   1   1   25.99    3.67   4
  -3   1  -1   26.69    3.89   3
  -3   1  -1   21.72    4.58   1
   4  -1   1   20.92    4.31   3
  -4  -1  -1   14.12    4.33   4
  -4  -1  -1   19.60    4.82   3
  -4  -1  -1   22.85    6.23   1
  -4   1  -1   15.15    4.10   4
   4   1   1   12.56    4.41   3
  -4   1  -1   16.38    4.46   3
  -4   1  -1   13.36    5.71   1
  -5  -1  -1   12.37    8.84   3
  -5  -1  -1   26.73   11.83   1
  -5  -1  -1   28.91    5.82   4
  -5   1  -1   24.81    6.51   3
  -5   1  -1   18.26    5.07   4
  -5   1  -1   15.49    7.09   1
  -5  -2   1   14.52    4.91   4
  -5  -2   1   12.87   11.86   1
  -5  -2   1   12.97    6.16   3
  -5   2   1    7.52    7.35   3
  -5   2   1   13.13    7.13   1
  -5   2   1    3.89    4.07   4
  -4  -2   1    2.63    4.79   1
   4  -2  -1    5.55    3.70   3
  -4  -2   1    1.05    3.46   4
  -4  -2   1   -3.16    3.91   3
   4   2  -1    3.31    3.76   3
  -4   2   1    0.00    3.76   3
  -4   2   1    1.93    4.96   1
  -4   2   1   -1.82    3.12   4
  -3  -2   1   71.22    5.99   3
  -3  -2   1   77.67    6.84   1
   3  -2  -1   77.49    5.42   3
  -3  -2   1   70.67    5.70   4
  -3  -2   1   67.06    5.18   4
  -3   2   1   72.82    6.54   1
  -3   2   1   66.26    5.07   4
  -3   2   1   75.65    5.48   4
  -3   2   1   71.19    5.78   3
   3   2  -1   78.91    5.89   3
  -3   2   1   74.77    5.31   3
   3   2  -1   75.63    5.61   4
  -2  -2   1  322.13   14.42   1
  -2  -2   1  323.89   14.95   2
  -2  -2   1  316.32   13.31   3
  -2  -2   1  326.53   13.43   4
  -2  -2   1  317.04   13.62   4
   2  -2  -1  314.38   13.09   3
   2  -2  -1  313.13   13.96   1
   2  -2  -1  347.68   13.41   3
   2  -2  -1  322.67   13.16   4
  -2  -2   1  310.49   13.65   3
   2   2  -1  320.43   13.47   4
   2   2  -1  283.80   13.26   3
  -2   2   1  316.48   13.97   1
   2   2  -1  313.14   14.19   1
   2   2  -1  340.26   13.59   4
  -2   2   1  333.97   13.19   3
  -2   2   1  323.64   13.34   4
  -2   2   1  321.58   13.26   3
  -2   2   1  320.36   13.17   4
   2   2  -1  340.83   13.66   3
   1  -2  -1 1016.84   37.33   3
  -1  -2   1  993.66   37.75   3
   1  -2  -1 1018.69   37.42   4
  -1  -2   1 1002.62   37.57   4
  -1  -2   1 1037.49   37.76   4
  -1  -2   1 1067.24   38.41   2
   1  -2  -1 1000.85   37.43   3
  -1  -2   1 1013.91   37.57   3
  -1  -2   1 1027.53   38.02   1
   1  -2  -1 1007.00   37.72   1
  -1   2   1 1032.50   37.39   3
   1   2  -1 1023.75   37.64   4
   1   2  -1 1043.41   37.65   3
  -1   2   1 1025.66   37.41   4
   1   2  -1 1050.01   37.75   4
  -1   2   1 1024.79   37.42   3
  -1   2   1  993.26   37.71   1
  -1   2   1  959.50   37.38   4
   1   2  -1  979.66   37.62   3
   1   2  -1 1011.59   38.01   1
   0  -2   1  386.69   13.82   4
   0  -2  -1  386.04   14.01   3
   0  -2   1  391.38   13.83   3
   0  -2   1  369.91   13.86   4
   0  -2   1  385.29   14.47   2
   0  -2  -1  376.88   14.62   2
   0  -2  -1  320.92   13.70   1
   0  -2  -1  360.22   14.02   4
   0  -2  -1  367.70   13.98   3
   0   2   1  350.64   14.00   4
   0   2  -1  389.62   13.87   4
   0   2   1  376.15   13.99   3
   0   2  -1  390.50   13.84   3
   0   2   1  400.11   14.02   4
   0   2  -1  385.16   13.83   3
   0   2   1  383.35   14.01   3
   0   2  -1  378.77   14.45   2
   0   2  -1  366.25   13.82   4
   0   2   1  384.92   14.66   2
  -1  -2  -1 7396.11  261.06   4
   1  -2   1 6718.27  258.73   3
  -1  -2  -1 7515.64  264.89   2
  -1  -2  -1 7476.67  261.65   4
  -1  -2  -1 7340.96  259.97   3
  -1  -2  -1 6891.47  260.60   3
   1  -2   1 7219.82  259.06   3
   1  -2   1 7477.68  259.94   4
   1  -2   1 7217.50  260.03   1
  -1  -2  -1 6703.79  260.64   1
   1  -2   1 7303.29  259.23   4
  -1   2  -1 7055.90  259.67   4
   1   2   1 6983.95  259.88   4
   1   2   1 7042.40  259.83   3
  -1   2  -1 7373.23  259.45   4
  -1   2  -1 6762.17  258.85   3
   1   2   1 6828.44  259.83   1
   1   2   1 7076.08  260.39   4
  -1   2  -1 7375.54  259.17   3
   1   2   1 6750.06  265.69   2
   1   2   1 7261.89  259.15   3
  -1   2  -1 6767.64  260.90   1
  -2  -2  -1 1296.46   51.44   3
  -2  -2  -1 1401.96   53.30   2
  -2  -2  -1 1376.72   51.26   4
  -2  -2  -1 1348.06   52.22   1
   2  -2   1 1388.83   51.87   1
   2  -2   1 1420.69   50.80   4
  -2  -2  -1 1417.34   51.19   3
   2  -2   1 1327.79   50.78   3
  -2  -2  -1 1375.21   51.48   4
   2  -2   1 1409.70   51.06   3
   2   2   1 1357.83   51.29   4
   2   2   1 1348.60   51.27   3
  -2   2  -1 1292.21   51.88   1
  -2   2  -1 1431.13   51.11   3
   2   2   1 1441.92   51.37   3
  -2   2  -1 1326.33   50.87   3
   2   2   1 1346.82   52.05   1
  -2   2  -1 1436.53   51.00   4
  -2   2  -1 1354.60   51.03   4
   2   2   1 1381.08   51.31   4
  -3  -2  -1   35.66    4.59   4
   3  -2   1   35.45    3.78   4
  -3  -2  -1   28.06    4.42   3
  -3  -2  -1   30.91    3.94   4
  -3  -2  -1   32.38    5.44   1
   3  -2   1   31.51    3.75   3
  -3   2  -1   33.42    4.09   3
  -3   2  -1   32.28    3.66   3
   3   2   1   37.06    4.46   4
  -3   2  -1   28.24    3.88   4
  -3   2  -1   34.24    5.50   1
   3   2   1   41.02    4.73   3
  -3   2  -1   36.63    3.91   4
  -4  -2  -1   19.62    5.26   3
  -4  -2  -1   20.45    4.89   4
  -4  -2  -1   18.58    5.67   1
   4  -2   1   12.64    3.74   3
  -4   2  -1    9.59    3.79   3
  -4   2  -1   12.05    5.61   1
  -4   2  -1   13.32    4.18   4
   4   2   1    8.95    4.37   3
  -5  -2  -1    1.72    4.14   4
  -5   2  -1    9.64    4.53   4
  -5   2  -1   11.06    7.28   3
  -5   2  -1    6.85    6.53   1
  -5   3   1   20.76    8.20   3
   5   3  -1   25.38    7.00   3
  -5   3   1   21.54    7.91   1
  -4  -3   1   20.11    4.75   4
   4  -3  -1   16.82    4.03   3
  -4  -3   1   22.67    6.43   1
  -4  -3   1   25.43    5.57   3
   4   3  -1   14.37    4.68   3
  -4   3   1   17.01    6.08   1
  -4   3   1   14.18    4.10   4
  -4   3   1    8.53    4.29   3
  -3  -3   1    1.75    2.39   4
   3  -3  -1    3.71    2.60   3
  -3  -3   1    5.95    3.44   3
   3  -3  -1    2.67    2.34   4
  -3  -3   1    4.16    2.93   4
  -3  -3   1    3.10    3.66   1
   3   3  -1    2.21    2.82   4
  -3   3   1    5.23    3.46   1
  -3   3   1    8.93    2.63   4
  -3   3   1    1.32    2.77   3
  -3   3   1    9.07    2.82   3
  -3   3   1    2.21    2.45   4
   3   3  -1   10.01    3.28   3
   2  -3  -1  269.66   10.96   3
  -2  -3   1  235.18   11.50   4
  -2  -3   1  273.52   11.40   4
  -2  -3   1  264.74   11.39   3
   2  -3  -1  261.15   11.01   4
   2  -3  -1  264.80   11.16   3
  -2  -3   1  255.43   11.72   3
  -2  -3   1  251.64   12.85   2
   2  -3  -1  267.77   11.87   1
  -2  -3   1  256.61   12.23   1
   2  -3  -1  279.13   10.91   4
  -2   3   1  261.51   11.87   1
   2   3  -1  244.58   11.35   3
  -2   3   1  277.67   11.21   3
  -2   3   1  262.39   11.05   4
   2   3  -1  260.66   11.53   3
  -2   3   1  285.72   11.22   4
   2   3  -1  252.75   11.45   4
   2   3  -1  246.33   12.10   1
   2   3  -1  255.46   11.49   4
  -2   3   1  285.51   11.19   3
  -1  -3   1  110.35    5.13   4
  -1  -3   1   96.55    4.76   3
   1  -3  -1   95.90    4.48   3
  -1  -3   1   97.98    5.31   1
   1  -3  -1  100.51    4.49   4
   1  -3  -1   98.71    4.81   1
   1  -3  -1  104.88    4.51   3
  -1  -3   1   99.96    5.50   2
   1  -3  -1  104.39    4.43   4
  -1  -3   1  105.05    4.77   4
   1   3  -1   92.82    5.27   1
   1   3  -1   97.68    4.87   3
  -1   3   1   97.82    4.75   1
   1   3  -1   93.92    4.83   3
  -1   3   1  100.97    4.50   4
  -1   3   1   98.38    4.55   3
   1   3  -1  104.81    5.73   2
   1   3  -1  101.11    4.84   4
  -1   3   1   96.17    5.83   2
  -1   3   1  104.00    4.56   3
   1   3  -1  107.84    4.99   4
  -1   3   1  101.98    4.53   4
   0  -3  -1    0.49    0.51   4
   0  -3   1    3.22    0.78   4
   0  -3  -1    2.04    0.99   3
   0  -3   1    1.15    0.73   3
   0  -3  -1    4.26    1.36   2
   0  -3   1    0.60    1.14   2
   0  -3  -1    4.49    0.97   4
   0  -3   1    1.46    0.79   3
   0  -3  -1    1.36    1.01   3
   0  -3   1    0.41    0.77   4
   0  -3  -1    1.68    0.50   1
   0   3   1    1.47    0.87   4
   0   3  -1    1.35    0.73   4
   0   3  -1    1.06    0.74   4
   0   3   1    2.73    1.03   3
   0   3  -1    1.45    1.19   2
   0   3   1    1.94    1.58   2
   0   3  -1    0.36    0.75   3
   0   3   1    2.94    0.93   4
   0   3   1    3.36    1.04   3
   0   3  -1    1.32    0.76   3
   0   3   1    1.18    0.46   1
  -1  -3  -1 1395.83   49.19   4
  -1  -3  -1 1293.42   48.90   3
   1  -3   1 1406.57   48.99   1
  -1  -3  -1 1373.43   50.15   2
   1  -3   1 1339.18   48.54   3
  -1  -3  -1 1314.80   48.92   4
  -1  -3  -1 1298.93   49.34   1
   1  -3   1 1337.66   48.40   3
   1  -3   1 1338.67   48.35   4
  -1  -3  -1 1326.92   49.09   3
   1  -3   1 1392.48   48.50   4
  -1   3  -1 1323.12   48.52   4
  -1   3  -1 1351.65   48.49   3
  -1   3  -1 1371.33   48.51   4
   1   3   1 1268.35   48.93   3
   1   3   1 1272.53   50.17   2
   1   3   1 1273.23   48.95   4
   1   3   1 1297.86   49.28   1
  -1   3  -1 1325.27   48.49   3
   1   3   1 1403.80   49.13   4
  -1   3  -1 1297.96   49.02   1
   1   3   1 1231.47   48.90   3
   2  -3   1  315.80   13.00   4
  -2  -3  -1  318.02   14.66   1
  -2  -3  -1  316.04   13.98   4
  -2  -3  -1  351.66   13.75   3
   2  -3   1  324.14   13.36   3
  -2  -3  -1  329.30   13.69   4
   2  -3   1  336.93   14.26   1
   2  -3   1  328.67   13.15   3
  -2  -3  -1  324.32   14.11   3
   2  -3   1  328.27   13.22   4
  -2  -3  -1  321.07   15.61   2
  -2   3  -1  330.35   13.40   4
  -2   3  -1  333.20   13.40   4
   2   3   1  320.97   14.59   1
  -2   3  -1  328.90   14.36   1
   2   3   1  339.07   13.91   4
  -2   3  -1  325.87   13.38   3
  -2   3  -1  329.66   13.33   3
   2   3   1  360.65   13.98   4
   2   3   1  320.53   13.73   3
   2   3   1  337.08   13.90   3
  -3  -3  -1   60.43    5.44   4
  -3  -3  -1   59.01    4.85   4
  -3  -3  -1   67.76    7.31   1
  -3  -3  -1   57.82    5.95   3
   3  -3   1   46.13    4.08   4
   3  -3   1   46.28    4.34   3
  -3   3  -1   58.03    6.80   1
  -3   3  -1   50.24    4.60   4
  -3   3  -1   57.59    4.58   3
   3   3   1   60.31    5.10   4
  -3   3  -1   53.16    4.41   4
  -3   3  -1   55.94    5.00   3
   3   3   1   69.52    6.11   3
  -4  -3  -1   75.98    7.06   4
  -4  -3  -1   82.52    8.25   3
  -4  -3  -1   73.04    9.07   1
  -4   3  -1   74.69    7.04   3
  -4   3  -1   76.57    9.32   1
  -4   3  -1   68.30    6.41   4
   4   3   1   87.24    8.08   3
  -4  -4   1   22.59    5.12   3
  -4  -4   1   12.18    6.11   1
  -4  -4   1   14.04    4.57   4
  -4   4   1   13.19    5.72   1
  -4   4   1   19.77    4.14   4
  -4   4   1   12.43    4.07   3
   4   4  -1   13.91    4.77   3
   3  -4  -1    4.40    2.38   4
  -3  -4   1    6.14    3.31   3
  -3  -4   1    3.23    2.99   4
  -3  -4   1    7.20    2.83   4
   3  -4  -1    3.02    2.34   3
  -3  -4   1   11.32    4.54   1
  -3   4   1    9.70    4.08   1
   3   4  -1   11.89    3.68   3
  -3   4   1    9.91    2.91   4
  -3   4   1    1.45    2.50   3
  -3   4   1    4.72    2.52   4
   3   4  -1    7.91    3.38   4
  -3   4   1    3.19    2.71   3
   2  -4  -1  198.00    8.51   3
  -2  -4   1  195.83    9.04   4
  -2  -4   1  183.70    9.32   4
   2  -4  -1  194.86    8.43   4
  -2  -4   1  190.22    9.85   1
  -2  -4   1  191.60    9.02   3
  -2  -4   1  201.01   10.62   2
   2  -4  -1  189.24    8.61   3
  -2  -4   1  208.25    9.76   3
   2  -4  -1  194.20    9.30   1
   2   4  -1  191.56    9.82   1
   2   4  -1  195.54    9.18   4
  -2   4   1  204.32    8.71   4
  -2   4   1  188.85    8.65   3
   2   4  -1  202.71    9.30   3
   2   4  -1  196.15    9.13   4
  -2   4   1  202.76    8.71   3
  -2   4   1  192.45    8.71   4
   2   4  -1  189.10    9.05   3
  -2   4   1  202.79    9.43   1
  -1  -4   1  293.31   10.96   4
  -1  -4   1  279.86   11.32   1
   1  -4  -1  268.24   10.48   4
   1  -4  -1  262.75   10.49   3
   1  -4  -1  271.01   10.66   1
  -1  -4   1  272.12   10.86   3
  -1  -4   1  265.51   11.82   2
  -1  -4   1  269.39   11.09   3
   1  -4  -1  279.46   10.61   3
   1  -4  -1  252.62   10.51   4
  -1   4   1  272.96   10.60   4
   1   4  -1  262.45   10.93   4
   1   4  -1  267.33   10.96   3
   1   4  -1  272.25   10.98   3
  -1   4   1  267.08   10.57   4
  -1   4   1  278.79   12.35   2
   1   4  -1  238.29   11.17   1
  -1   4   1  250.28   10.63   1
  -1   4   1  270.75   10.59   3
  -1   4   1  289.50   10.61   3
   1   4  -1  248.16   11.86   2
   1   4  -1  277.07   11.09   4
   0  -4  -1  205.33    7.94   3
   0  -4   1  200.90    7.74   3
   0  -4   1  202.51    7.82   3
   0  -4   1  203.15    9.02   2
   0  -4   1  199.72    7.83   4
   0  -4  -1  196.93    9.08   2
   0  -4   1  193.32    7.74   4
   0  -4  -1  178.44    7.84   3
   0  -4  -1  196.64    7.96   4
   0   4  -1  197.88    7.74   3
   0   4   1  203.28    7.95   3
   0   4  -1  193.68    8.98   2
   0   4   1  201.76    7.96   3
   0   4   1  203.80    9.31   2
   0   4  -1  199.24    7.76   3
   0   4  -1  194.57    7.76   4
   0   4   1  185.93    7.89   4
   0   4   1  197.03    7.95   4
   0   4  -1  191.64    7.77   4
   0   4   1  196.41    7.29   1
   1  -4   1  899.99   33.03   3
  -1  -4  -1  931.87   35.11   2
  -1  -4  -1  939.12   33.68   3
  -1  -4  -1  793.04   33.70   3
   1  -4   1  911.62   33.00   4
   1  -4   1  916.46   33.11   4
   1  -4   1  932.40   33.18   3
  -1  -4  -1  941.36   33.71   4
  -1  -4  -1  849.06   33.94   1
   1  -4   1  971.30   33.53   1
  -1  -4  -1  815.62   33.78   4
  -1   4  -1  860.66   35.04   2
   1   4   1  891.41   33.73   4
  -1   4  -1  889.31   33.60   1
   1   4   1  939.95   33.74   3
  -1   4  -1  887.54   33.13   3
  -1   4  -1  940.04   33.13   3
  -1   4  -1  907.88   33.16   4
   1   4   1  962.92   33.90   4
  -1   4  -1  882.59   33.14   4
   1   4   1  910.29   35.16   2
   1   4   1  893.84   33.95   1
   1   4   1  857.25   33.67   3
  -2  -4  -1  243.67   12.75   2
   2  -4   1  251.49   10.10   4
   2  -4   1  250.11   10.20   3
  -2  -4  -1  243.48   10.87   4
   2  -4   1  249.18   10.48   3
   2  -4   1  260.95   11.34   1
  -2  -4  -1  255.59   11.46   4
  -2  -4  -1  243.68   11.84   1
  -2  -4  -1  237.91   10.82   3
   2   4   1  252.38   11.13   4
  -2   4  -1  252.85   10.44   3
  -2   4  -1  247.20   10.49   4
  -2   4  -1  235.02   10.38   3
   2   4   1  246.35   11.23   3
   2   4   1  274.91   11.30   4
  -2   4  -1  256.56   10.54   4
   2   4   1  236.76   11.59   1
  -2   4  -1  249.43   11.40   1
   2   4   1  261.72   11.32   3
  -3  -4  -1   53.50    6.94   1
  -3  -4  -1   37.96    5.08   3
  -3  -4  -1   46.89    5.30   4
   3  -4   1   43.96    4.12   3
   3  -4   1   42.25    3.81   4
  -3  -4  -1   37.61    4.41   4
  -3   4  -1   30.69    4.07   4
  -3   4  -1   40.88    4.35   3
   3   4   1   40.54    5.04   3
  -3   4  -1   36.31    4.14   3
   3   4   1   49.97    5.23   4
  -3   4  -1   44.47    5.84   1
  -3   4  -1   40.08    4.23   4
  -4  -4  -1   21.99    5.29   3
  -4  -4  -1   30.15    6.71   1
  -4  -4  -1   21.37    4.86   4
  -4   4  -1   19.37    4.37   3
  -4   4  -1   27.68    4.83   4
   4   4   1   23.73    5.47   3
  -4   4  -1   23.45    6.32   1
  -4  -5   1   28.89    5.33   4
  -4  -5   1   28.85    7.11   1
  -4  -5   1   30.28    6.16   3
  -4   5   1   25.87    4.80   3
  -4   5   1   23.71    4.65   4
  -4   5   1   28.09    6.48   1
   4   5  -1   27.65    5.59   3
  -3  -5   1   43.03    5.62   3
  -3  -5   1   54.69    6.84   1
  -3  -5   1   60.04    4.98   4
   3  -5  -1   55.22    4.41   3
   3  -5  -1   53.27    4.20   4
  -3  -5   1   55.71    5.86   4
   3   5  -1   56.85    5.89   4
  -3   5   1   62.69    6.07   1
   3   5  -1   68.36    6.37   3
  -3   5   1   44.95    4.44   4
  -3   5   1   55.49    4.74   4
  -3   5   1   48.26    4.59   3
  -3   5   1   57.62    4.97   3
  -2  -5   1  126.66    8.23   2
   2  -5  -1  120.70    6.55   1
   2  -5  -1  125.28    5.90   3
   2  -5  -1  127.47    5.80   4
  -2  -5   1  126.43    7.34   1
  -2  -5   1  115.27    6.85   4
  -2  -5   1  115.06    6.24   4
  -2  -5   1  120.76    7.07   3
  -2   5   1  112.25    8.31   2
   2   5  -1  121.82    6.72   4
  -2   5   1  116.25    6.06   3
   2   5  -1  123.46    7.43   1
  -2   5   1  128.79    6.11   4
  -2   5   1  127.32    6.72   1
   2   5  -1  115.11    6.56   4
  -2   5   1  123.10    6.02   3
  -2   5   1  115.51    5.97   4
   2   5  -1  122.32    6.56   3
   2   5  -1  121.50    6.79   3
   1  -5  -1   97.73    4.37   1
   1  -5  -1   92.94    4.48   3
   1  -5  -1   90.94    4.44   4
   1  -5  -1  100.07    4.55   3
  -1  -5   1   97.96    4.80   4
   1  -5  -1  100.01    4.50   4
  -1  -5   1  103.71    4.88   3
  -1  -5   1   96.64    5.13   3
  -1  -5   1  103.01    5.30   1
  -1   5   1   95.88    4.60   3
  -1   5   1   97.72    4.64   4
   1   5  -1   93.41    4.94   4
   1   5  -1  104.51    6.37   2
  -1   5   1  101.08    4.57   3
   1   5  -1   96.00    5.04   4
   1   5  -1   94.66    5.36   1
  -1   5   1   98.39    4.62   4
  -1   5   1   78.97    4.39   1
  -1   5   1   92.70    6.34   2
   1   5  -1   91.21    5.07   3
   1   5  -1  110.09    5.04   3
   0  -5  -1   37.43    2.40   4
   0  -5   1   36.33    2.28   3
   0  -5  -1   37.32    3.50   2
   0  -5  -1   35.22    2.40   3
   0  -5   1   38.54    2.39   4
   0  -5   1   33.82    3.38   2
   0  -5  -1   36.81    2.37   3
   0  -5   1   35.24    2.20   4
   0  -5   1   37.09    2.34   3
   0   5   1   35.16    1.52   1
   0   5  -1   27.97    2.03   1
   0   5  -1   37.96    2.25   3
   0   5  -1   38.98    3.72   2
   0   5   1   35.19    2.50   3
   0   5   1   34.60    2.36   4
   0   5   1   40.38    2.49   3
   0   5   1   34.08    2.37   4
   0   5  -1   33.77    2.25   4
   0   5  -1   32.57    2.26   4
   0   5  -1   38.66    2.35   3
   0   5   1   32.56    3.87   2
   1  -5   1   42.88    2.34   4
  -1  -5  -1   45.91    3.36   4
   1  -5   1   43.02    2.38   4
  -1  -5  -1   47.02    3.09   3
   1  -5   1   42.33    2.43   3
  -1  -5  -1   43.87    3.04   4
  -1  -5  -1   43.58    3.52   1
   1  -5   1   46.59    2.52   3
  -1  -5  -1   36.08    3.17   3
  -1   5  -1   43.62    2.59   3
   1   5   1   42.55    3.16   4
   1   5   1   44.75    3.20   4
  -1   5  -1   50.09    3.00   1
   1   5   1   41.85    3.47   1
  -1   5  -1   46.75    2.57   4
  -1   5  -1   42.51    4.58   2
   1   5   1   43.11    3.08   3
   1   5   1   48.24    5.12   2
  -1   5  -1   40.68    2.48   3
  -1   5  -1   45.86    2.54   4
   1   5   1   45.98    3.22   3
   2  -5   1   12.02    2.50   1
  -2  -5  -1    7.71    3.16   1
   2  -5   1    9.23    1.59   4
   2  -5   1    8.02    1.73   3
   2  -5   1    8.00    1.82   3
  -2  -5  -1   12.16    2.40   4
  -2   5  -1    7.15    1.92   4
  -2   5  -1    9.54    1.96   4
  -2   5  -1    8.38    1.96   3
  -2   5  -1    8.88    2.47   1
   2   5   1   15.81    2.93   4
   2   5   1    6.48    2.32   4
   2   5   1   10.75    3.10   1
  -2   5  -1    8.39    1.95   3
   2   5   1   10.72    2.71   3
   3  -5   1  260.94   11.08   3
   3  -5   1  246.53   10.70   4
  -3  -5  -1  260.34   13.09   3
  -3  -5  -1  244.70   13.47   1
  -3  -5  -1  240.58   12.45   4
  -3  -5  -1  239.43   11.77   4
   3   5   1  265.81   12.55   3
  -3   5  -1  258.81   11.61   4
  -3   5  -1  270.48   11.57   3
  -3   5  -1  230.95   11.26   3
  -3   5  -1  252.65   11.56   4
  -3   5  -1  245.96   12.90   1
   3   5   1  251.07   12.28   4
  -4  -5  -1   38.05    5.98   4
  -4  -5  -1   41.51    7.51   1
  -4  -5  -1   40.69    6.58   3
  -4   5  -1   36.98    5.12   3
  -4   5  -1   31.56    4.78   4
  -4   5  -1   31.92    6.43   1
   4   5   1   50.36    6.41   3
  -4  -6   1   14.27    6.56   1
  -4  -6   1   13.98    5.45   3
  -4   6   1    3.04    3.39   3
  -4   6   1    8.22    5.16   1
   4   6  -1   11.39    4.88   3
  -4   6   1    5.66    3.66   4
  -3  -6   1   30.71    5.13   3
  -3  -6   1   38.04    6.37   1
  -3  -6   1   32.25    4.86   4
   3  -6  -1   35.54    3.85   3
  -3   6   1   34.28    4.20   4
   3   6  -1   48.11    5.79   3
  -3   6   1   29.92    4.89   1
  -3   6   1   34.69    4.06   4
   3   6  -1   35.96    5.22   4
  -3   6   1   20.33    3.41   3
  -3   6   1   36.23    3.97   3
  -3   6   1   35.79    6.59   2
  -2  -6   1 1099.07   40.53   4
  -2  -6   1 1043.10   39.88   4
  -2  -6   1 1001.89   40.44   3
  -2  -6   1 1050.80   40.76   1
   2  -6  -1 1047.68   39.13   3
   2  -6  -1 1084.29   39.12   4
   2  -6  -1 1068.77   39.78   1
  -2   6   1 1091.95   39.57   4
   2   6  -1 1038.09   42.35   2
   2   6  -1 1042.82   40.15   4
   2   6  -1 1073.90   40.21   4
  -2   6   1 1004.33   39.35   3
  -2   6   1 1017.53   39.83   1
  -2   6   1 1069.07   42.58   2
  -2   6   1 1038.08   39.39   4
  -2   6   1 1049.13   39.28   3
   2   6  -1 1009.35   40.11   3
   1  -6  -1    3.03    1.37   3
  -1  -6   1    0.21    1.76   2
  -1  -6   1    0.78    1.71   3
   1  -6  -1    2.24    1.15   3
  -1  -6   1   -0.88    1.68   1
  -1  -6   1    0.37    1.35   3
   1  -6  -1    2.42    1.23   4
  -1  -6   1    3.65    1.71   4
   1  -6  -1    1.64    1.02   4
  -1  -6   1    2.35    1.47   4
   1   6  -1    0.80    1.68   3
  -1   6   1    2.44    1.17   4
   1   6  -1    2.29    1.68   4
  -1   6   1    1.50    1.18   3
   1   6  -1    3.17    2.47   2
  -1   6   1    0.25    1.13   4
  -1   6   1    0.37    2.16   2
   1   6  -1    2.13    1.52   3
  -1   6   1    1.09    1.15   3
   1   6  -1   -0.62    1.88   1
   1   6  -1    2.37    1.58   4
   0  -6  -1 1024.97   39.00   2
   0  -6   1 1016.39   36.88   4
   0  -6   1  988.02   38.68   2
   0  -6   1 1005.82   36.84   3
   0  -6  -1  965.04   36.99   3
   0  -6   1 1016.96   36.94   3
   0  -6  -1  988.78   37.02   3
   0  -6  -1 1004.24   37.08   4
   0  -6   1  932.26   36.88   4
   0   6  -1  962.46   36.80   3
   0   6   1  969.85   36.97   3
   0   6  -1 1023.89   36.89   3
   0   6  -1  979.18   36.52   1
   0   6  -1  992.32   36.88   4
   0   6   1 1043.01   37.10   4
   0   6  -1  992.14   36.90   4
   0   6   1 1021.24   39.06   2
   0   6  -1  998.83   38.81   2
   0   6   1  982.84   37.03   3
   0   6   1 1019.36   37.11   4
   1  -6   1 2345.48   83.64   4
   1  -6   1 2348.00   83.69   4
   1  -6   1 2305.44   83.75   3
  -1  -6  -1 2305.30   84.68   3
  -1  -6  -1 2329.89   84.75   4
   1  -6   1 2256.69   83.68   3
  -1  -6  -1 2270.61   86.18   2
  -1  -6  -1 2243.14   84.31   3
  -1  -6  -1 2298.16   84.53   1
  -1  -6  -1 2314.31   84.37   4
   1   6   1 2262.44   86.37   2
   1   6   1 2190.52   84.44   3
   1   6   1 2230.10   84.44   1
  -1   6  -1 2262.72   83.77   3
   1   6   1 2290.96   84.59   4
  -1   6  -1 2176.41   83.92   1
  -1   6  -1 2308.98   86.36   2
   1   6   1 2437.49   84.49   3
  -1   6  -1 2408.79   83.90   4
   1   6   1 2456.03   84.62   4
  -1   6  -1 2333.78   83.82   3
  -1   6  -1 2259.22   83.82   4
  -2  -6  -1   24.35    3.65   3
  -2  -6  -1   22.33    3.12   4
  -2  -6  -1   27.51    4.41   1
   2  -6   1   25.14    3.10   1
   2  -6   1   25.27    2.18   4
   2  -6   1   25.14    2.39   3
  -2   6  -1   25.46    3.46   1
  -2   6  -1   21.48    4.71   2
  -2   6  -1   21.21    2.57   4
  -2   6  -1   17.09    2.39   4
   2   6   1   24.33    3.42   4
  -2   6  -1   22.03    2.44   3
   2   6   1   24.69    3.26   4
   2   6   1   20.97    3.47   3
   2   6   1   23.76    5.07   2
  -2   6  -1   22.20    2.60   3
  -3  -6  -1   18.33    4.06   4
   3  -6   1   16.90    2.80   3
  -3  -6  -1   15.21    3.56   4
  -3  -6  -1   17.78    4.83   1
  -3  -6  -1   16.15    4.48   3
   3   6   1   17.83    3.93   4
  -3   6  -1    8.07    2.83   4
  -3   6  -1   17.22    3.18   3
   3   6   1   13.67    4.23   3
  -3   6  -1   16.80    3.19   4
  -3   6  -1   14.78    3.04   3
  -3   6  -1   11.65    3.74   1
  -4  -6  -1    5.94    4.12   4
  -4  -6  -1    6.64    4.59   3
  -4  -6  -1    0.15    5.31   1
  -4   6  -1    4.22    3.43   3
  -4   6  -1    5.00    4.94   1
   4   6   1    0.68    4.62   3
  -4   6  -1   -0.05    3.21   4
  -4  -7   1   -9.49    4.65   1
  -4  -7   1    0.65    4.45   3
  -4   7   1    4.20    5.29   1
  -4   7   1    3.01    6.01   2
   4   7  -1   10.04    5.43   3
  -4   7   1    0.01    3.28   3
  -4   7   1   -2.30    3.22   4
   3  -7  -1   51.21    4.31   3
  -3  -7   1   52.66    6.02   4
  -3  -7   1   42.03    5.98   3
  -3  -7   1   54.41    6.78   1
  -3   7   1   30.76    5.88   3
   3   7  -1   49.98    5.93   3
  -3   7   1   59.70    6.20   1
  -3   7   1   50.15    4.75   4
   3   7  -1   38.05    6.06   4
  -3   7   1   55.98    8.33   2
   3   7  -1   52.03    5.73   4
  -3   7   1   40.37    4.29   4
  -3   7   1   51.53    4.62   3
   2  -7  -1  226.65   10.03   3
  -2  -7   1  248.40   11.51   4
  -2  -7   1  255.46   11.93   1
   2  -7  -1  256.66   10.56   1
   2  -7  -1  233.34    9.95   4
  -2   7   1  233.94   10.65   1
   2   7  -1  223.14   11.09   4
  -2   7   1  246.49   10.47   4
  -2   7   1  235.52   13.66   2
   2   7  -1  246.09   13.73   2
  -2   7   1  241.65   10.28   3
   2   7  -1  254.30   11.25   4
  -2   7   1  227.47   10.45   4
  -2   7   1  232.92   10.43   3
   2   7  -1  225.87   11.19   3
  -1  -7   1  158.86    7.03   1
  -1  -7   1  145.54    6.61   4
   1  -7  -1  148.80    6.40   3
   1  -7  -1  142.02    6.36   3
  -1  -7   1  133.85    8.12   2
   1  -7  -1  143.67    6.30   4
  -1  -7   1  139.51    7.03   3
  -1   7   1  138.85    6.41   4
   1   7  -1  142.80    6.69   3
   1   7  -1  127.93    6.88   1
  -1   7   1  147.99    6.54   4
  -1   7   1  142.72    5.64   1
  -1   7   1  133.37    8.63   2
  -1   7   1  136.17    6.36   3
   1   7  -1  137.86    8.73   2
   1   7  -1  140.10    6.87   3
  -1   7   1  131.37    6.32   3
   1   7  -1  135.68    6.82   4
   1   7  -1  134.67    6.78   4
   0  -7   1   20.86    2.21   4
   0  -7  -1   28.21    2.61   4
   0  -7  -1   23.38    2.38   3
   0  -7  -1   20.27    2.32   3
   0  -7   1   21.70    2.35   3
   0  -7  -1   26.36    2.57   4
   0  -7   1   25.77    3.91   2
   0  -7   1   20.77    2.13   3
   0  -7  -1   22.49    3.69   2
   0  -7   1   21.84    1.96   4
   0   7   1   20.74    2.37   4
   0   7   1   23.47    2.49   4
   0   7   1   20.69    4.01   2
   0   7  -1   26.09    2.36   3
   0   7  -1   23.53    3.95   2
   0   7   1   24.29    2.49   3
   0   7  -1   20.87    2.15   4
   0   7  -1   22.94    2.36   3
   0   7   1   24.69    2.58   3
   0   7  -1   21.43    1.88   1
   0   7  -1   21.96    2.25   4
   1  -7   1  235.12    9.63   3
  -1  -7  -1  233.07   10.71   3
  -1  -7  -1  245.27   10.42   1
   1  -7   1  237.66    9.54   4
  -1  -7  -1  240.99   10.71   4
   1  -7   1  248.19    9.68   3
  -1  -7  -1  250.00   10.34   4
  -1   7  -1  231.75    9.79   4
  -1   7  -1  242.58    9.85   4
   1   7   1  256.75   10.56   4
  -1   7  -1  240.11    9.75   3
  -1   7  -1  225.44    9.68   1
   1   7   1  236.75   12.66   2
   1   7   1  234.01   10.50   4
   1   7   1  237.02   10.49   3
  -1   7  -1  245.34   12.46   2
  -1   7  -1  234.99    9.71   3
   1   7   1  235.56   10.32   1
   1   7   1  262.39   10.46   3
   2  -7   1    8.01    1.66   3
   2  -7   1    3.25    1.23   4
  -2  -7  -1   13.39    3.58   1
  -2  -7  -1    4.14    2.68   3
  -2  -7  -1    2.37    2.20   4
   2   7   1    7.31    3.92   2
  -2   7  -1    2.43    1.66   4
   2   7   1    5.37    2.31   4
  -2   7  -1    5.38    1.91   3
  -2   7  -1    5.00    1.65   3
   2   7   1    3.04    2.44   4
  -2   7  -1    7.21    2.01   4
  -2   7  -1    1.20    3.53   2
  -2   7  -1    0.38    2.06   1
   2   7   1    7.86    2.92   3
  -3  -7  -1  142.98   10.02   1
  -3  -7  -1  138.07    9.56   3
  -3  -7  -1  119.18    8.47   4
  -3   7  -1  126.94    7.32   4
  -3   7  -1  147.94    7.23   3
  -3   7  -1  139.38   11.49   2
  -3   7  -1  148.35    9.04   1
  -3   7  -1  134.83    7.52   4
   3   7   1  137.97    9.18   3
   3   7   1  119.99    8.30   4
  -4  -7  -1    6.45    4.47   3
  -4  -7  -1   -1.71    5.55   1
  -4   7  -1    6.62    6.12   2
  -4   7  -1    4.57    3.48   4
  -4   7  -1    3.73    4.83   1
   4   7   1    7.35    5.18   3
  -4   7  -1    1.86    3.23   3
  -4  -8   1    1.11    4.33   3
  -4  -8   1   -1.07    5.83   1
  -4   8   1   -4.27    4.59   1
   4   8  -1    6.65    5.27   3
  -4   8   1   -0.52    6.02   2
  -4   8   1    0.18    3.15   3
  -4   8   1    9.44    3.59   4
  -3  -8   1  127.10    9.41   1
  -3  -8   1  105.22   12.71   4
  -3  -8   1  144.57    9.36   3
  -3   8   1  129.21    7.55   4
  -3   8   1  140.79    7.59   3
   3   8  -1  144.62    9.07   3
   3   8  -1  125.44    8.62   4
  -3   8   1  149.52   12.04   2
  -3   8   1  138.75    8.70   1
   2  -8  -1   42.21    3.33   4
   2  -8  -1   50.82    3.61   1
   2  -8  -1   54.60    3.83   3
  -2  -8   1   51.21    5.25   4
  -2  -8   1   54.80    5.40   1
  -2   8   1   53.97    4.17   1
   2   8  -1   52.44    5.23   4
   2   8  -1   64.09    5.25   3
  -2   8   1   47.29    3.92   4
   2   8  -1   60.83    8.05   2
   2   8  -1   54.36    4.62   4
  -2   8   1   45.99    3.80   3
  -2   8   1   32.08    3.66   4
  -2   8   1   46.77    3.95   3
  -2   8   1   57.04    7.36   2
   1  -8  -1  363.68   14.36   4
  -1  -8   1  353.01   15.14   3
   1  -8  -1  357.02   14.39   3
  -1   8   1  355.87   17.28   2
   1   8  -1  367.39   15.08   3
  -1   8   1  359.19   14.49   3
   1   8  -1  332.37   14.81   1
  -1   8   1  375.68   14.72   4
   1   8  -1  375.05   15.01   4
  -1   8   1  347.04   14.48   3
  -1   8   1  366.93   14.64   4
   1   8  -1  368.93   14.80   3
   1   8  -1  365.67   17.40   2
   1   8  -1  379.31   15.09   4
   0  -8  -1  375.17   15.38   4
   0  -8   1  374.40   15.21   3
   0  -8   1  400.29   15.41   3
   0  -8  -1  387.76   15.39   3
   0  -8   1  390.01   15.26   4
   0   8  -1  377.09   15.16   3
   0   8  -1  378.07   15.18   4
   0   8   1  392.99   15.29   3
   0   8   1  390.97   17.97   2
   0   8   1  388.99   15.37   3
   0   8   1  395.71   15.39   4
   0   8  -1  378.13   15.07   3
   0   8  -1  384.52   17.72   2
   0   8  -1  349.80   14.42   1
   0   8   1  367.42   15.34   4
   0   8  -1  391.13   15.17   4
   1  -8   1   16.58    1.93   3
  -1  -8  -1   19.82    3.03   4
   1  -8   1   13.60    1.76   4
   1  -8   1   19.91    2.09   3
  -1  -8  -1   15.42    2.90   3
  -1  -8  -1   22.27    2.82   1
   1   8   1   14.94    2.76   3
  -1   8  -1   13.91    1.93   4
  -1   8  -1   18.74    2.18   3
  -1   8  -1   18.94    2.20   4
  -1   8  -1   12.29    3.87   2
  -1   8  -1   12.45    1.88   3
   1   8   1   18.69    2.67   1
   1   8   1   18.17    2.60   3
   1   8   1   20.35    3.03   4
   1   8   1   15.31    2.55   4
  -1   8  -1   15.58    1.82   1
   1   8   1   21.86    4.81   2
  -2  -8  -1  133.58    7.97   1
  -2  -8  -1  120.40    7.59   3
   2  -8   1  122.57    5.90   3
   2  -8   1  128.97    5.77   4
  -2   8  -1  130.25    6.32   4
  -2   8  -1  134.28   10.29   2
  -2   8  -1  137.68    6.26   3
   2   8   1  121.33   10.29   2
   2   8   1  124.67    7.49   4
  -2   8  -1  110.98    6.68   1
   2   8   1  128.22    7.24   4
   2   8   1  134.38    7.97   3
  -2   8  -1  123.72    6.34   3
  -2   8  -1  126.81    6.42   4
  -3  -8  -1    5.08    4.48   1
  -3  -8  -1    1.38    3.31   4
  -3  -8  -1    3.39    3.86   3
  -3   8  -1    1.90    2.42   4
   3   8   1    2.60    3.29   4
  -3   8  -1   -0.77    2.25   3
  -3   8  -1   12.54    5.77   2
   3   8   1    0.18    3.83   3
  -3   8  -1    7.64    2.70   4
  -3   8  -1    3.46    3.34   1
  -4  -8  -1   -4.95    5.82   1
  -4  -8  -1   -6.23    3.80   3
  -4   8  -1    2.92    6.07   2
  -4   8  -1    4.22    3.15   3
   4   8   1   -3.05    4.56   3
  -4   8  -1   12.10    5.75   1
  -4   8  -1    0.84    3.35   4
  -4  -9   1   37.15    8.27   1
  -4  -9   1   33.42    6.86   3
   4   9  -1   32.30    6.66   3
  -4   9   1   33.79    4.72   3
  -4   9   1   45.01    9.61   2
  -4   9   1   37.48    5.16   4
  -3  -9   1    0.15    3.54   3
  -3  -9   1    1.82    4.48   1
  -3   9   1    7.91    5.54   2
  -3   9   1   -0.56    2.36   3
   3   9  -1    2.68    3.58   4
  -3   9   1    4.17    3.43   1
   3   9  -1   -0.26    4.21   3
  -3   9   1   -0.06    2.41   4
  -2  -9   1    6.35    2.95   4
  -2  -9   1    3.92    3.20   1
   2  -9  -1    8.22    2.19   3
   2  -9  -1    7.08    1.83   4
   2   9  -1    9.82    3.76   3
  -2   9   1    9.28    2.42   1
  -2   9   1   10.99    2.49   4
  -2   9   1    5.39    4.61   2
  -2   9   1    3.05    2.08   3
   2   9  -1   10.48    2.88   4
  -2   9   1    6.79    2.24   3
  -2   9   1    4.34    2.17   4
   2   9  -1   14.48    5.17   2
   2   9  -1    7.49    3.10   4
  -1  -9   1  420.83   17.81   3
   1  -9  -1  429.15   17.01   3
   1  -9  -1  427.29   16.95   4
   1   9  -1  427.29   17.71   3
  -1   9   1  419.72   17.20   4
   1   9  -1  446.10   17.76   4
  -1   9   1  398.90   17.06   3
  -1   9   1  432.49   20.45   2
  -1   9   1  450.90   17.18   3
   1   9  -1  433.89   17.57   4
   1   9  -1  412.76   17.32   1
   1   9  -1  437.86   20.46   2
  -1   9   1  424.98   17.24   4
   1   9  -1  452.33   17.47   3
   0  -9   1  352.23   14.01   3
   0  -9  -1  329.58   14.05   4
   0  -9   1  352.53   13.97   4
   0  -9  -1  348.05   14.14   3
   0   9   1  335.33   16.87   2
   0   9  -1  343.96   16.96   2
   0   9  -1  353.85   13.88   4
   0   9  -1  337.80   13.94   4
   0   9   1  348.74   14.10   3
   0   9  -1  340.40   13.88   3
   0   9  -1  331.67   13.71   3
   0   9   1  348.55   14.01   4
   0   9   1  334.74   13.90   3
   0   9   1  334.52   14.04   4
   0   9  -1  315.24   12.81   1
   1  -9   1   -0.75    1.14   4
  -1  -9  -1    0.81    1.79   1
  -1  -9  -1    1.86    2.06   4
  -1  -9  -1    2.13    2.27   3
   1  -9   1   -0.62    1.41   3
  -1   9  -1    1.47    1.58   3
  -1   9  -1    0.88    1.33   3
   1   9   1    0.99    1.96   3
  -1   9  -1    2.55    1.10   1
   1   9   1   -0.65    1.78   1
  -1   9  -1    1.78    3.25   2
  -1   9  -1    1.91    1.47   4
   1   9   1    1.53    2.10   4
  -1   9  -1    0.17    1.36   4
   1   9   1    1.85    2.46   3
   1   9   1    1.37    1.91   4
   1   9   1    4.23    3.97   2
  -2  -9  -1  104.61    7.09   1
   2  -9   1  100.22    5.17   3
  -2  -9  -1   93.31    7.25   3
   2  -9   1  101.42    4.83   4
  -2   9  -1   90.07    5.71   1
  -2   9  -1  108.56    5.52   3
  -2   9  -1  104.02    5.56   4
   2   9   1   95.68    6.33   4
   2   9   1  114.83   10.40   2
   2   9   1  102.18    6.96   3
   2   9   1   99.53    6.79   4
  -2   9  -1   96.09    5.60   4
  -2   9  -1  109.64    9.57   2
  -2   9  -1   97.48    5.56   3
  -3  -9  -1   38.45    6.53   1
  -3  -9  -1   53.94    7.13   3
  -3   9  -1   60.75    4.68   3
  -3   9  -1   49.43    8.63   2
  -3   9  -1   58.79    6.22   1
  -3   9  -1   43.19    4.57   4
   3   9   1   53.26    6.34   4
   3   9   1   51.02    6.54   3
  -4  -9  -1   -3.10    5.09   1
  -4  -9  -1   -3.46    4.03   3
   4   9   1   -0.04    4.80   3
  -4   9  -1    3.51    7.58   1
  -4   9  -1    5.85    3.38   4
  -4   9  -1    2.67    3.09   3
  -4   9  -1   13.02    7.38   2
  -4  10   1    3.50    3.39   3
  -3 -10   1    3.85    4.39   3
  -3 -10   1    2.16    4.58   1
  -3  10   1    1.93    2.80   3
  -3  10   1    4.09    5.61   2
  -3  10   1    4.11    2.95   4
   3  10  -1    2.37    3.74   4
   3  10  -1    4.85    4.30   3
  -2 -10   1   -2.12    2.89   1
   2  10  -1   -3.06    2.64   4
  -2  10   1   -1.54    1.87   3
   2  10  -1    7.54    5.65   2
  -2  10   1    1.29    1.81   1
  -2  10   1   -0.61    1.86   4
   2  10  -1   -4.67    2.83   3
  -2  10   1   -1.71    4.46   2
  -2  10   1    0.66    2.11   4
   1 -10  -1  185.16    8.45   3
  -1 -10   1  183.15    9.44   3
   1 -10  -1  183.25    8.31   4
   1  10  -1  180.97   12.05   2
  -1  10   1  181.21    8.58   4
   1  10  -1  196.43    8.90   3
   1  10  -1  170.95    8.57   1
  -1  10   1  182.81    8.69   4
  -1  10   1  158.04    8.38   3
   1  10  -1  189.32    8.97   4
  -1  10   1  199.94   12.44   2
   1  10  -1  190.26    9.22   4
   1  10  -1  190.24    9.35   3
  -1  10   1  194.17    8.62   3
   0 -10  -1   11.29    2.65   3
   0 -10  -1    9.15    2.36   4
   0 -10   1    6.93    2.09   4
   0 -10   1    2.49    2.07   3
   0  10   1    5.85    1.85   3
   0  10  -1    4.12    1.94   4
   0  10   1    7.55    2.39   3
   0  10  -1    5.94    2.33   3
   0  10   1    3.04    1.73   4
   0  10   1    8.68    4.40   2
   0  10  -1    5.50    1.81   3
   0  10   1    5.51    2.05   4
   0  10  -1    3.93    1.87   4
   0  10  -1    9.34    4.21   2
   1 -10   1   60.80    3.65   4
  -1 -10  -1   55.05    4.85   3
   1 -10   1   66.58    3.94   3
   1  10   1   55.87    4.73   4
   1  10   1   59.26    4.51   4
   1  10   1   52.80    3.91   1
  -1  10  -1   57.98    4.05   3
  -1  10  -1   51.39    3.79   3
  -1  10  -1   59.57    7.44   2
  -1  10  -1   65.08    4.08   4
   1  10   1   63.41    8.42   2
   1  10   1   63.53    4.86   3
  -1  10  -1   60.48    4.03   4
  -2 -10  -1  107.36    7.92   3
  -2 -10  -1  118.28    7.62   1
   2  10   1  108.88    7.49   3
  -2  10  -1   98.50    5.87   1
   2  10   1  112.32    7.46   4
  -2  10  -1  107.10    5.89   3
  -2  10  -1  125.56   10.67   2
   2  10   1  108.34   11.57   2
  -2  10  -1  110.82    6.15   4
  -2  10  -1  113.95    6.11   4
  -3 -10  -1    1.88    4.48   3
  -3 -10  -1    3.52    4.63   1
  -3  10  -1    2.78    5.66   2
  -3  10  -1    3.80    2.65   4
  -3  10  -1    4.77    3.39   1
   3  10   1    2.16    3.57   4
   3  10   1    4.66    4.64   3
  -3  10  -1    2.44    2.49   3
  -3 -11   1  138.41   10.77   1
  -3 -11   1  160.34   11.06   3
  -3  11   1  157.74   13.87   2
   3  11  -1  167.10   10.53   4
  -3  11   1  162.12    8.83   4
   3  11  -1  146.75   10.34   3
  -3  11   1  167.04    8.73   3
  -2  11   1   27.14    3.52   3
  -2  11   1   18.53    6.55   2
   2  11  -1   34.88    5.07   3
   2  11  -1   23.11    4.50   4
  -2  11   1   16.34    3.22   4
   2  11  -1   28.05    7.41   2
  -1 -11   1    2.62    2.48   3
   1 -11  -1    5.91    2.12   3
  -1  11   1    2.40    1.84   4
   1  11  -1    1.62    2.45   4
  -1  11   1    5.05    2.25   3
  -1  11   1    3.09    4.34   2
   1  11  -1   -2.65    4.22   2
   1  11  -1    4.00    2.01   3
  -1  11   1    0.91    1.73   3
   1  11  -1    3.01    2.34   4
   1  11  -1    7.82    2.95   3
   1  11  -1    3.91    2.06   1
  -1  11   1    5.89    2.30   4
   0 -11   1    7.75    2.50   3
   0 -11   1    7.36    2.31   4
   0 -11  -1    8.22    2.66   3
   0  11   1   12.04    5.27   2
   0  11  -1   11.24    2.65   4
   0  11  -1   16.07    5.30   2
   0  11  -1   14.19    2.42   3
   0  11  -1    9.23    2.41   4
   0  11   1   13.69    2.54   3
   0  11   1   16.31    3.16   3
   0  11   1   11.26    2.44   4
   0  11  -1   12.56    2.81   3
   0  11   1   12.35    2.66   4
   1 -11   1   10.84    3.04   4
   1 -11   1   18.28    3.73   3
  -1 -11  -1   14.28    3.61   3
   1  11   1   13.09    3.40   3
  -1  11  -1    9.50    2.23   3
   1  11   1   12.49    2.80   4
   1  11   1   17.14    3.36   4
  -1  11  -1   10.40    5.11   2
   1  11   1    9.86    2.08   1
   1  11   1    8.61    5.35   2
  -1  11  -1   13.79    2.55   4
  -1  11  -1   11.60    2.32   4
  -1  11  -1   14.35    2.61   3
  -2 -11  -1  120.79    7.78   1
  -2 -11  -1  109.77    8.08   3
   2  11   1  130.83    8.33   3
   2  11   1  129.50   12.50   2
  -2  11  -1  113.06    6.61   4
  -2  11  -1  114.93    6.60   4
  -2  11  -1  119.57    6.42   3
   2  11   1  117.91    7.96   4
  -2  11  -1  123.18   11.27   2
  -3 -11  -1   22.07    5.66   1
  -3 -11  -1   39.16    6.77   3
  -3  11  -1   33.91    8.19   2
   3  11   1   38.63    6.03   4
  -3  11  -1   36.14    3.98   3
  -3  11  -1   30.44    3.99   4
   3  11   1   35.63    6.08   3
  -3 -12   1   15.72    5.39   3
  -3  12   1   13.59    3.52   4
  -3  12   1   14.10    3.41   3
   3  12  -1   15.56    5.04   4
   3  12  -1   23.70    6.08   3
  -3  12   1    5.65    6.53   2
   2  12  -1    3.02    3.87   3
  -2  12   1    3.42    2.58   4
  -2  12   1   -3.81    5.20   2
  -2  12   1    5.96    2.65   3
   2  12  -1    3.64    3.49   4
   2  12  -1    3.07    5.92   2
  -1 -12   1   25.70    4.16   3
  -1  12   1   25.72    3.49   3
   1  12  -1   13.59    6.50   2
  -1  12   1   16.45    2.96   4
   1  12  -1   25.18    4.42   3
  -1  12   1   22.52    6.28   2
   1  12  -1   25.81    4.04   4
   0 -12   1    5.14    3.33   3
   0 -12  -1    3.98    2.52   3
   0  12  -1    1.16    2.20   4
   0  12  -1    1.22    1.86   4
   0  12  -1    1.75    2.41   3
   0  12   1    2.69    2.30   4
   0  12  -1   -0.64    4.34   2
   0  12   1   -0.53    4.84   2
   0  12   1    4.82    2.68   3
  -1 -12  -1    6.13    3.29   3
  -1  12  -1    4.57    2.44   3
   1  12   1   10.39    3.31   4
   1  12   1    4.30    5.76   2
   1  12   1    3.54    3.11   3
  -1  12  -1    1.08    2.05   4
  -1  12  -1    3.74    4.91   2
  -1  12  -1    8.00    2.39   4
  -2 -12  -1   74.50    7.46   3
  -2  12  -1   72.63    4.88   3
  -2  12  -1   52.95    4.75   4
   2  12   1   81.16    7.52   3
  -2  12  -1   62.91    9.90   2
   2  12   1   63.66    6.86   4
   2  12   1   62.42   10.55   2
  -3 -12  -1   -3.38    4.30   3
  -3  12  -1   -1.04    2.40   3
  -3  12  -1    8.79    6.74   2
  -3  12  -1    2.78    2.86   4
   3  12   1    3.27    4.50   3
  -3  13   1   65.76    5.76   3
   3  13  -1   81.03    8.61   4
  -2  13   1   63.63    5.30   3
   2  13  -1   58.95   10.49   2
  -2  13   1   69.57   10.57   2
   2  13  -1   63.43    7.16   4
   2  13  -1   64.13    7.40   3
  -2  13   1   64.23    5.42   4
  -1  13   1   -1.84    2.51   3
  -1  13   1   -2.19    2.23   4
   1  13  -1  -10.23    5.09   2
   1  13  -1    2.63    3.47   3
  -1  13   1    6.24    5.45   2
   1  13  -1   -4.45    2.95   4
   0  13   1   56.16    5.43   4
   0  13  -1   48.27    8.71   2
   0  13  -1   48.89    4.94   4
   0  13   1   43.96    8.61   2
   0  13   1   45.49    5.05   3
   0  13  -1   43.96    4.88   3
  -1 -13  -1  157.74    9.59   3
   1  13   1  167.60    9.38   4
   1  13   1  156.32   13.28   2
  -1  13  -1  163.90    8.30   3
   1  13   1  160.05    9.28   3
  -1  13  -1  171.25   13.30   2
  -1  13  -1  170.99    8.45   4
  -2 -13  -1   39.72    5.62   3
  -2  13  -1   41.62    4.25   4
   2  13   1   43.40   10.50   2
  -2  13  -1   38.44    8.70   2
   2  13   1   43.39    6.55   3
  -2  13  -1   41.07    4.14   3
   2  13   1   37.81    5.88   4
  -2  14   1    6.39    6.65   2
  -2  14   1    3.73    2.92   3
   2  14  -1    0.84    6.75   2
  -2  14   1    3.82    2.70   4
   2  14  -1    0.30    4.54   3
   2  14  -1   -1.24    3.66   4
  -1  14   1   70.45   10.56   2
   1  14  -1   61.00    6.59   3
   1  14  -1   55.18    9.81   2
   1  14  -1   67.16    6.68   4
  -1  14   1   63.41    5.17   4
  -1  14   1   71.32    5.60   3
   0  14   1  132.80    7.90   3
   0  14  -1  127.09    7.77   3
   0  14  -1  118.32    7.52   4
   0  14   1  110.50    7.34   4
   0  14   1  122.10   12.32   2
   0  14  -1  109.38   11.88   2
   1  14   1   -4.21    2.92   3
  -1  14  -1    3.29    2.87   3
  -1  14  -1   -0.74    2.34   4
  -1  14  -1    2.98    5.63   2
   1  14   1    4.78    3.70   4
   1  14   1   -2.52    5.86   2
   2  14   1   10.08    4.72   4
   2  14   1   27.88    9.88   2
   2  14   1    6.10    4.43   3
  -2  14  -1    9.75    7.12   2
  -2  14  -1   10.94    3.11   4
  -2  14  -1    5.66    2.79   3
   1  15  -1    4.11    4.11   3
  -1  15   1   -0.27    2.73   4
   1  15  -1  -13.06    5.83   2
  -1  15   1   -9.67    5.31   2
   1  15  -1    4.22    3.61   4
  -1  15   1    0.24    3.03   3
   0  15  -1   36.83    4.99   3
   0  15   1   30.88    4.87   3
   0  15   1   31.95    8.49   2
   0  15   1   38.93    5.16   4
   0  15  -1   35.08    4.96   4
   0  15  -1   31.97    8.41   2
   1  15   1    7.31    3.96   3
  -1  15  -1    2.88    2.91   3
   1  15   1    5.52    3.99   4
  -1  15  -1    5.37    6.16   2
  -1  15  -1    1.74    2.85   4
   1  15   1   -4.48    6.54   2
   0  16  -1   12.20    3.91   4
   0  16   1    1.97    7.56   2
   0  16  -1   18.12    4.44   3
   0  16  -1   13.82    8.28   2
   0  16   1   23.61    4.53   4
   0  16   1   15.06    4.29   3
  -5   0   2   33.10    6.52   3
  -5   0   2   41.84    6.83   4
  -5   0   2   29.61    8.50   1
   4   0  -2   92.83    7.67   3
  -4   0   2   78.33    7.84   3
  -4   0   2   92.55    7.46   4
  -4   0   2   90.99    9.53   1
  -3   0   2    1.76    3.24   1
  -3   0   2    2.00    2.69   4
   3   0  -2    1.93    2.73   4
   3   0  -2    0.13    2.73   3
  -3   0   2    0.13    2.33   4
  -3   0   2   -3.96    2.36   3
   2   0  -2   40.45    4.03   1
   2   0  -2   45.38    3.51   3
  -2   0   2   42.06    3.95   3
   2   0  -2   40.14    3.34   4
   2   0  -2   42.84    3.55   3
  -2   0   2   42.17    3.40   4
  -2   0   2   44.96    4.24   1
  -2   0   2   36.94    3.48   4
   2   0  -2   46.41    3.52   4
  -2   0   2   35.91    3.25   3
  -1   0   2 6113.53  224.75   4
   1   0  -2 5531.52  222.59   1
   1   0  -2 6276.59  224.27   4
  -1   0   2 6325.96  224.35   4
   1   0  -2 5757.15  222.99   3
  -1   0   2 6022.39  224.39   3
  -1   0   2 6473.81  225.83   1
  -1   0   2 6406.11  224.53   3
   1   0  -2 6073.64  223.10   3
   1   0  -2 6312.96  224.19   4
   0   0  -2    0.05    0.24   4
   0   0  -2   -0.23    0.27   3
   0   0  -2   -0.07    0.28   4
   0   0   2    0.26    0.32   4
   0   0   2   -0.19    0.22   3
   0   0   2    0.32    0.29   3
   0   0  -2   -0.37    0.26   2
   0   0   2   -0.04    0.08   4
   0   0  -2    0.12    0.29   3
   1   0   2 9553.45  354.99   1
  -1   0  -2 9821.61  353.73   4
   1   0   2 9999.99  352.27   3
   1   0   2 9596.66  353.24   3
  -1   0  -2 9715.75  352.32   3
  -1   0  -2 9988.45  352.99   4
   1   0   2 9700.75  351.92   4
  -1   0  -2 9118.28  354.85   1
  -2   0  -2   91.23    4.79   4
   2   0   2   92.00    4.75   3
  -2   0  -2   85.01    4.95   4
  -2   0  -2   80.08    5.72   1
   2   0   2   86.20    4.65   4
  -2   0  -2   82.53    4.77   3
  -2   0  -2   86.55    5.15   3
   2   0   2   90.58    5.85   1
   2   0   2   77.80    4.72   3
  -3   0  -2  277.18   13.96   1
  -3   0  -2  273.60   12.69   4
   3   0   2  283.25   12.38   3
  -3   0  -2  260.87   12.01   3
  -3   0  -2  278.33   12.25   4
  -3   0  -2  256.56   12.66   3
  -4   0  -2    0.25    3.32   4
  -4   0  -2   -0.07    3.45   3
  -4   0  -2    6.41    5.03   1
   4   0   2    1.38    3.11   3
  -5   0  -2   14.81   11.02   1
  -5   0  -2   22.00    5.40   4
  -5   0  -2    4.09    7.97   3
  -5  -1   2    8.85    4.53   4
  -5  -1   2    2.10    4.70   3
  -5  -1   2    2.77    6.66   1
  -5   1   2    6.65    4.71   3
  -5   1   2    5.59    7.21   1
  -5   1   2    3.76    4.47   4
   4  -1  -2  166.11    9.75   3
  -4  -1   2  165.84   10.01   4
  -4  -1   2  144.29   11.29   1
  -4  -1   2  149.37    9.99   3
   4   1  -2  160.74   10.04   3
  -4   1   2  165.20   12.02   1
  -4   1   2  156.58    9.69   4
  -4   1   2  158.69    9.80   3
  -3  -1   2   83.86    5.99   4
  -3  -1   2   78.09    6.37   3
   3  -1  -2   83.17    5.50   4
  -3  -1   2   79.02    5.53   4
  -3  -1   2   75.03    6.84   1
   3  -1  -2   82.90    5.61   3
   3   1  -2   80.76    5.76   4
  -3   1   2   87.02    6.95   1
   3   1  -2   82.65    5.94   3
  -3   1   2   77.13    5.40   3
  -3   1   2   70.54    5.66   4
  -3   1   2   78.94    6.13   3
  -3   1   2   81.12    5.54   4
  -2  -1   2   27.38    3.11   4
  -2  -1   2   31.91    3.23   3
   2  -1  -2   35.26    4.26   1
  -2  -1   2   30.61    3.52   3
  -2  -1   2   29.44    4.05   1
   2  -1  -2   30.66    3.31   3
  -2  -1   2   23.52    3.21   4
   2  -1  -2   33.43    3.26   4
   2  -1  -2   29.72    3.19   3
   2  -1  -2   32.28    2.99   4
  -2   1   2   27.21    3.16   3
  -2   1   2   35.25    3.30   4
  -2   1   2   31.32    3.94   1
  -2   1   2   28.64    3.21   4
   2   1  -2   37.46    3.61   4
   2   1  -2   26.26    3.25   3
   2   1  -2   26.75    3.87   1
   2   1  -2   31.34    3.31   4
   2   1  -2   32.81    3.43   3
  -2   1   2   25.78    2.98   3
  -1  -1   2   24.08    2.06   4
  -1  -1   2   24.42    2.37   3
  -1  -1   2   23.15    2.20   3
   1  -1  -2   27.85    2.13   4
  -1  -1   2   27.76    2.84   1
   1  -1  -2   21.68    2.13   3
   1  -1  -2   25.39    2.10   3
   1  -1  -2   23.64    2.53   1
  -1  -1   2   25.82    2.19   4
   1  -1  -2   25.87    2.09   4
  -1   1   2   22.14    2.06   3
  -1   1   2   26.07    2.18   4
  -1   1   2   25.13    2.69   1
  -1   1   2   26.82    2.12   4
   1   1  -2   25.97    2.32   3
   1   1  -2   26.47    2.45   3
   1   1  -2   23.29    2.01   4
  -1   1   2   24.23    2.14   3
   1   1  -2   29.16    3.02   1
   1   1  -2   25.91    2.30   4
   0  -1  -2  886.76   31.76   3
   0  -1   2  890.90   31.69   4
   0  -1  -2  890.86   33.00   2
   0  -1   2  890.67   31.97   4
   0  -1   2  852.37   31.54   3
   0   1   2  893.55   31.76   4
   0   1   2  783.85   31.76   4
   0   1   2  881.70   31.74   3
  -1  -1  -2 3067.61  113.47   3
  -1  -1  -2 3142.68  114.13   1
   1  -1   2 3212.08  114.58   4
  -1  -1  -2 2913.77  113.56   4
   1  -1   2 3224.76  113.96   1
   1  -1   2 3228.80  113.81   3
  -1  -1  -2 3248.13  113.56   4
  -1  -1  -2 2925.93  113.55   3
   1  -1   2 3215.73  114.17   4
   1  -1   2 3227.87  113.35   3
  -1   1  -2 3043.64  114.39   4
   1   1   2 3046.77  113.51   3
   1   1   2 3215.66  114.06   1
   1   1   2 3179.08  113.55   3
  -1   1  -2 3082.44  113.77   4
  -1   1  -2 3056.38  113.29   3
  -1   1  -2 3067.52  113.99   1
   1   1   2 3261.22  113.58   4
  -1   1  -2 3010.04  113.38   3
   1   1   2 3200.47  113.56   4
  -2  -1  -2  346.73   13.49   4
  -2  -1  -2  323.30   14.28   1
   2  -1   2  315.76   12.91   3
  -2  -1  -2  327.01   13.15   3
   2  -1   2  332.63   13.02   3
   2  -1   2  327.83   12.95   4
  -2  -1  -2  323.38   13.13   4
  -2  -1  -2  328.29   13.55   3
   2  -1   2  321.87   12.91   4
   2  -1   2  315.73   13.87   1
   2   1   2  315.93   13.11   4
  -2   1  -2  298.44   12.83   3
  -2   1  -2  301.44   13.14   3
  -2   1  -2  302.94   12.90   4
   2   1   2  310.48   13.16   3
  -2   1  -2  296.62   13.97   1
   2   1   2  321.67   13.14   3
  -2   1  -2  319.14   13.13   4
   2   1   2  318.72   13.15   4
   2   1   2  328.00   14.15   1
   3  -1   2   -2.54    2.10   4
   3  -1   2   -0.44    2.13   3
  -3  -1  -2    1.65    3.01   3
  -3  -1  -2   -2.62    2.08   3
  -3  -1  -2   -0.64    2.25   4
  -3  -1  -2    2.38    2.69   4
  -3  -1  -2    4.74    3.55   1
  -3   1  -2    1.91    2.68   4
  -3   1  -2    1.46    3.56   1
   3   1   2    0.84    2.60   4
  -3   1  -2    4.22    2.85   3
  -3   1  -2    3.96    2.49   3
  -3   1  -2    1.41    2.16   4
   3   1   2   -0.58    2.73   3
  -4  -1  -2   55.38    8.35   1
  -4  -1  -2   48.54    6.11   4
  -4  -1  -2   46.86    6.59   3
   4  -1   2   47.75    5.64   3
  -4   1  -2   41.24    5.99   3
  -4   1  -2   40.60    7.59   1
   4   1   2   57.04    6.16   3
  -4   1  -2   35.55    5.41   4
  -5  -1  -2    6.45    4.44   4
  -5   1  -2    0.26    6.57   1
  -5   1  -2    0.26    3.84   4
  -5   1  -2    2.96    6.29   3
  -5  -2   2    1.72    9.99   1
  -5  -2   2    2.05    4.30   4
  -5  -2   2    5.98    5.81   3
  -5   2   2   -4.99    5.87   3
  -5   2   2   -6.43    6.53   1
  -5   2   2    7.63    4.68   4
   5   2  -2    4.60    6.82   3
  -4  -2   2    3.12    3.85   3
   4  -2  -2   11.84    4.07   3
  -4  -2   2   13.99    5.86   1
  -4  -2   2    7.48    3.96   4
  -4   2   2    5.21    5.28   1
  -4   2   2    2.52    3.47   4
   4   2  -2   11.76    4.45   3
  -4   2   2    1.96    3.77   3
   3  -2  -2   35.48    3.86   4
   3  -2  -2   43.10    4.42   3
  -3  -2   2   31.76    5.39   1
  -3  -2   2   31.24    4.09   4
  -3  -2   2   37.26    4.60   4
  -3  -2   2   36.58    4.80   3
  -3   2   2   35.62    4.02   4
  -3   2   2   33.12    4.18   4
   3   2  -2   40.67    4.74   3
  -3   2   2   30.03    4.16   3
  -3   2   2   33.10    4.01   3
   3   2  -2   44.85    4.86   4
  -3   2   2   34.12    5.25   1
  -2  -2   2  471.75   18.95   4
   2  -2  -2  456.02   19.21   1
  -2  -2   2  463.67   19.61   1
  -2  -2   2  461.78   18.63   3
   2  -2  -2  462.95   18.40   3
  -2  -2   2  448.52   19.91   2
  -2  -2   2  464.93   19.00   3
   2  -2  -2  453.94   18.55   4
   2  -2  -2  463.51   18.61   3
   2  -2  -2  495.15   18.48   4
  -2  -2   2  469.28   18.67   4
  -2   2   2  471.37   18.55   3
  -2   2   2  494.30   18.73   4
   2   2  -2  463.49   18.80   3
  -2   2   2  466.24   19.34   1
   2   2  -2  473.23   18.83   4
  -2   2   2  460.82   18.51   4
   2   2  -2  474.97   19.68   1
  -2   2   2  489.70   18.71   3
  -1  -2   2  417.30   16.25   2
   1  -2  -2  410.74   15.52   3
   1  -2  -2  410.34   15.60   3
  -1  -2   2  408.29   15.85   4
   1  -2  -2  405.24   15.58   4
   1  -2  -2  418.49   15.53   4
  -1  -2   2  402.87   15.90   3
  -1  -2   2  424.31   16.22   1
  -1  -2   2  405.62   15.72   3
  -1  -2   2  423.13   15.73   4
   1  -2  -2  394.70   15.83   1
  -1   2   2  407.22   15.58   4
   1   2  -2  433.73   15.87   4
  -1   2   2  402.16   15.81   1
   1   2  -2  387.51   15.72   3
  -1   2   2  389.03   15.51   3
   1   2  -2  397.52   15.81   4
   1   2  -2  402.44   16.19   1
  -1   2   2  405.87   15.58   3
  -1   2   2  406.87   15.58   4
   0  -2  -2  661.64   24.48   4
   0  -2   2  658.13   24.73   2
   0  -2  -2  648.21   24.39   3
   0  -2   2  709.01   24.07   4
   0  -2  -2  641.30   24.40   4
   0  -2  -2  673.18   25.05   2
   0  -2  -2  624.14   24.38   3
   0  -2   2  665.32   24.09   3
   0  -2   2  688.79   24.12   4
   0   2   2  661.13   24.41   4
   0   2   2  631.26   24.39   3
   0   2  -2  657.14   24.72   2
   0   2  -2  658.60   24.12   3
   0   2   2  686.11   24.41   3
   0   2  -2  649.34   24.14   3
   0   2  -2  681.61   24.10   4
   0   2   2  671.97   25.09   2
   0   2   2  657.08   24.46   4
   1  -2   2   19.03    1.52   4
  -1  -2  -2   20.38    2.04   4
   1  -2   2   20.91    1.67   3
   1  -2   2   20.42    1.46   4
  -1  -2  -2   23.07    2.10   3
  -1  -2  -2   24.71    2.27   4
   1  -2   2   16.09    1.52   3
   1  -2   2   23.35    2.51   1
  -1  -2  -2   18.13    2.09   3
  -1  -2  -2   24.30    2.88   2
  -1  -2  -2   24.75    2.86   1
   1   2   2   23.72    2.08   4
   1   2   2   23.46    2.25   3
  -1   2  -2   18.04    1.69   4
   1   2   2   21.95    2.12   3
  -1   2  -2   18.04    1.72   3
  -1   2  -2   18.26    1.68   3
   1   2   2   22.50    2.17   4
   1   2   2   21.07    2.63   1
  -1   2  -2   21.26    1.70   4
  -1   2  -2   20.11    2.15   1
   1   2   2   22.22    3.23   2
  -2  -2  -2  594.60   24.25   3
  -2  -2  -2  635.32   24.00   4
  -2  -2  -2  584.11   25.95   2
  -2  -2  -2  618.64   23.90   3
   2  -2   2  628.94   24.65   1
   2  -2   2  596.78   23.52   3
  -2  -2  -2  605.20   25.04   1
   2  -2   2  621.17   23.57   4
   2  -2   2  640.12   23.50   4
  -2  -2  -2  615.77   24.26   4
   2   2   2  623.65   24.08   3
  -2   2  -2  604.60   24.84   1
   2   2   2  599.53   24.00   4
  -2   2  -2  610.74   23.62   3
   2   2   2  646.48   25.02   1
  -2   2  -2  600.99   23.77   4
   2   2   2  591.32   23.93   3
  -2   2  -2  641.11   23.85   3
   2   2   2  636.45   24.06   4
  -2   2  -2  657.39   23.77   4
   3  -2   2   12.22    2.97   3
  -3  -2  -2    6.13    3.10   4
  -3  -2  -2   14.09    3.05   4
  -3  -2  -2   12.81    4.36   1
  -3  -2  -2   15.85    3.70   3
   3  -2   2   10.79    2.67   4
   3   2   2   20.96    3.69   3
  -3   2  -2   13.77    4.14   1
  -3   2  -2   14.23    3.09   4
  -3   2  -2   18.32    3.61   3
   3   2   2   10.93    3.10   4
  -3   2  -2   19.43    3.23   3
  -3   2  -2   13.77    3.20   4
  -4  -2  -2   36.77    6.00   3
  -4  -2  -2   35.72    6.88   1
  -4  -2  -2   37.56    5.70   4
  -4   2  -2   32.56    5.07   4
  -4   2  -2   34.96    7.02   1
  -4   2  -2   37.65    5.61   3
   4   2   2   40.78    5.96   3
  -5   3   2   11.19    4.24   4
  -5   3   2   -0.47    6.79   1
   5   3  -2    8.53    5.16   3
  -4  -3   2   65.39    9.05   1
   4  -3  -2   63.24    5.86   3
  -4  -3   2   73.28    6.95   4
  -4  -3   2   68.24    7.50   3
  -4   3   2   78.20    7.28   4
   4   3  -2   71.73    7.38   3
  -4   3   2   79.21    7.38   3
  -4   3   2   84.48    9.64   1
  -3  -3   2  180.32    9.13   4
  -3  -3   2  153.34    8.43   4
  -3  -3   2  156.00   10.23   1
   3  -3  -2  172.07    8.47   3
  -3  -3   2  180.10    9.71   3
   3   3  -2  160.37    8.87   4
  -3   3   2  153.06    8.27   4
   3   3  -2  148.11    8.86   3
  -3   3   2  161.48    8.52   4
  -3   3   2  170.38    8.58   3
  -3   3   2  158.61    8.38   3
  -3   3   2  152.80    9.54   1
   2  -3  -2   26.93    3.73   1
  -2  -3   2   16.99    4.24   2
  -2  -3   2   30.11    3.24   3
  -2  -3   2   37.74    3.95   3
   2  -3  -2   26.78    2.90   4
   2  -3  -2   25.84    2.82   3
  -2  -3   2   24.71    3.07   4
  -2  -3   2   29.91    3.55   4
   2  -3  -2   32.31    3.25   3
  -2  -3   2   25.16    4.05   1
  -2   3   2   23.99    2.84   3
  -2   3   2   26.14    2.84   4
   2   3  -2   28.31    3.46   4
   2   3  -2   23.92    3.53   3
  -2   3   2   33.41    3.83   1
   2   3  -2   31.32    3.19   4
   2   3  -2   28.21    3.24   3
   2   3  -2   26.79    4.10   1
  -2   3   2   24.47    2.84   3
  -2   3   2   35.04    3.26   4
  -1  -3   2  123.61    6.03   3
  -1  -3   2  121.62    5.76   3
  -1  -3   2  130.42    6.35   1
   1  -3  -2  132.23    5.59   3
   1  -3  -2  114.70    5.54   3
  -1  -3   2  126.23    6.36   2
   1  -3  -2  124.88    5.81   1
   1  -3  -2  122.35    5.57   4
  -1  -3   2  129.33    5.79   4
  -1  -3   2  133.33    6.06   4
   1   3  -2  126.08    5.90   3
   1   3  -2  129.04    5.97   4
   1   3  -2  124.62    5.89   3
  -1   3   2  138.62    5.69   4
   1   3  -2  128.20    6.41   1
   1   3  -2  140.85    5.99   4
  -1   3   2  139.57    7.09   2
  -1   3   2  127.06    5.65   3
  -1   3   2  128.37    5.81   1
  -1   3   2  137.76    5.70   3
  -1   3   2  126.69    5.61   4
   1   3  -2  141.92    6.64   2
   0  -3  -2  251.32   10.33   4
   0  -3  -2  265.13    9.89   1
   0  -3  -2  261.54   10.27   3
   0  -3   2  266.24    9.93   3
   0  -3  -2  253.13   10.26   3
   0  -3  -2  267.04   10.31   4
   0  -3   2  263.51    9.90   4
   0  -3  -2  267.86   11.24   2
   0  -3   2  266.46   10.88   2
   0   3   2  266.28   10.29   4
   0   3  -2  263.86    9.96   3
   0   3   2  279.88   11.37   2
   0   3   2  257.60   10.25   3
   0   3  -2  269.76    9.96   3
   0   3   2  262.90   10.33   4
   0   3  -2  275.28   10.04   4
   0   3  -2  273.14   10.93   2
   0   3   2  263.12   10.30   3
   0   3  -2  261.54    9.94   4
  -1  -3  -2    6.05    1.51   3
  -1  -3  -2    6.11    1.65   3
  -1  -3  -2    6.11    1.54   4
  -1  -3  -2    5.96    1.69   4
  -1  -3  -2    4.05    2.05   2
  -1  -3  -2    7.65    2.03   1
   1  -3   2    5.54    0.79   4
   1  -3   2    4.28    1.51   1
   1  -3   2    6.64    1.07   3
  -1   3  -2    4.69    1.04   4
  -1   3  -2    4.03    1.06   3
  -1   3  -2    3.65    0.99   3
  -1   3  -2    2.83    1.38   1
  -1   3  -2    5.27    1.03   4
   1   3   2    8.54    2.05   1
   1   3   2    8.61    1.72   3
   1   3   2    8.12    1.73   3
   1   3   2    6.69    1.60   4
   1   3   2    5.85    1.63   4
   1   3   2    5.64    2.48   2
   2  -3   2  850.68   30.35   4
  -2  -3  -2  811.39   32.20   1
   2  -3   2  865.95   31.72   1
  -2  -3  -2  789.17   33.12   2
  -2  -3  -2  783.63   31.00   4
  -2  -3  -2  819.27   31.04   3
   2  -3   2  822.04   30.43   3
   2  -3   2  822.12   30.67   3
   2  -3   2  800.53   30.51   4
   2   3   2  786.86   31.16   4
  -2   3  -2  783.23   30.67   4
   2   3   2  870.91   31.35   4
  -2   3  -2  779.70   31.71   1
   2   3   2  822.80   31.21   3
  -2   3  -2  814.41   30.60   3
   2   3   2  822.79   31.13   3
   2   3   2  763.27   31.77   1
  -2   3  -2  788.21   30.63   3
  -2   3  -2  834.71   30.68   4
   3  -3   2  250.20   10.92   4
   3  -3   2  267.73   11.32   3
  -3  -3  -2  256.80   11.72   4
  -3  -3  -2  247.70   12.36   3
  -3  -3  -2  258.03   13.50   1
  -3  -3  -2  250.44   12.25   4
  -3   3  -2  248.33   11.46   4
  -3   3  -2  262.94   11.64   4
  -3   3  -2  257.11   11.67   3
   3   3   2  264.12   11.98   4
   3   3   2  245.54   12.17   3
  -3   3  -2  226.78   12.74   1
  -3   3  -2  230.75   11.17   3
  -4  -3  -2   63.37    7.61   3
  -4  -3  -2   52.07    8.04   1
  -4  -3  -2   68.69    7.20   4
  -4   3  -2   79.15    9.50   1
  -4   3  -2   59.93    6.27   4
  -4   3  -2   57.72    6.33   3
   4   3   2   76.53    7.53   3
  -4  -4   2   24.57    6.51   1
  -4  -4   2   29.15    6.05   3
   4  -4  -2   42.82    6.19   3
  -4  -4   2   37.53    5.80   4
   4   4  -2   42.52    6.23   3
  -4   4   2   39.90    5.53   4
  -4   4   2   28.81    4.86   3
  -4   4   2   34.67    6.70   1
   3  -4  -2   88.23    5.45   3
   3  -4  -2   90.80    5.51   4
  -3  -4   2   86.73    7.17   3
  -3  -4   2   79.19    7.41   1
  -3  -4   2   91.19    6.54   4
  -3  -4   2   84.71    5.83   4
  -3   4   2   85.59    7.29   1
  -3   4   2   87.59    5.90   4
  -3   4   2   75.49    5.40   3
  -3   4   2   84.41    5.95   3
  -3   4   2   90.85    6.16   4
   3   4  -2   76.67    6.42   3
   3   4  -2   74.34    6.15   4
   3   4  -2   88.23    7.14   4
  -2  -4   2   15.45    3.62   1
   2  -4  -2   19.58    2.48   4
   2  -4  -2   18.40    3.19   1
   2  -4  -2   18.09    2.81   4
   2  -4  -2   12.28    2.18   3
  -2  -4   2   15.27    3.53   2
  -2  -4   2   19.26    3.15   4
  -2  -4   2   13.30    2.99   3
  -2  -4   2   19.56    2.60   4
   2  -4  -2   20.53    2.67   3
  -2  -4   2   16.90    3.21   3
  -2   4   2   17.33    2.66   4
   2   4  -2   18.38    3.07   3
  -2   4   2   15.69    2.49   3
   2   4  -2   22.92    3.19   4
  -2   4   2   15.94    2.50   3
   2   4  -2   17.92    3.22   3
   2   4  -2   14.35    3.72   1
   2   4  -2   18.11    2.84   4
  -2   4   2   22.29    3.21   1
  -2   4   2   15.44    2.44   4
   1  -4  -2  749.38   28.93   1
   1  -4  -2  828.47   29.05   3
  -1  -4   2  781.84   30.07   2
  -1  -4   2  815.91   29.18   4
   1  -4  -2  756.66   28.94   4
  -1  -4   2  780.93   29.40   4
  -1  -4   2  786.18   29.56   1
   1  -4  -2  767.56   28.89   3
  -1  -4   2  748.15   29.10   3
  -1   4   2  771.65   28.95   3
   1   4  -2  740.20   29.20   3
  -1   4   2  769.90   30.49   2
  -1   4   2  790.23   28.92   1
   1   4  -2  769.51   30.12   2
   1   4  -2  758.40   29.24   3
   1   4  -2  821.86   29.42   4
  -1   4   2  801.68   29.01   3
   1   4  -2  773.74   29.25   4
  -1   4   2  778.37   28.99   4
  -1   4   2  784.45   29.02   4
   1   4  -2  743.32   29.56   1
   0  -4   2 3414.70  118.54   4
   0  -4  -2 3301.72  117.20   3
   0  -4  -2 3140.94  117.18   3
   0  -4  -2 3078.04  121.40   2
   0  -4  -2 3284.20  117.22   4
   0  -4  -2 3334.32  117.30   4
   0  -4   2 3318.83  117.74   4
   0  -4  -2 3122.71  117.48   1
   0  -4   2 3215.89  118.11   2
   0  -4   2 3317.57  117.87   3
   0  -4   2 3136.53  117.60   3
   0   4   2 3252.09  121.21   2
   0   4  -2 3412.83  122.11   2
   0   4  -2 3197.69  117.20   3
   0   4  -2 3328.44  118.07   3
   0   4  -2 3134.45  117.31   4
   0   4   2 3085.83  118.01   4
   0   4   2 3195.11  117.19   3
   0   4   2 3226.39  118.06   3
   0   4  -2 3269.13  117.44   4
   0   4   2 3046.61  118.60   4
   1  -4   2  822.25   29.12   4
   1  -4   2  812.89   29.01   4
  -1  -4  -2  744.04   30.17   1
  -1  -4  -2  833.24   30.13   3
  -1  -4  -2  829.41   31.48   2
  -1  -4  -2  855.52   30.21   4
   1  -4   2  759.19   29.20   3
  -1  -4  -2  816.85   29.91   4
  -1  -4  -2  769.09   29.81   3
  -1   4  -2  775.34   29.21   3
   1   4   2  835.57   29.94   3
   1   4   2  798.37   29.97   4
  -1   4  -2  793.85   29.17   3
  -1   4  -2  768.91   29.85   1
   1   4   2  804.71   29.97   4
   1   4   2  770.77   30.09   1
  -1   4  -2  767.71   29.21   4
   1   4   2  794.47   31.50   2
   1   4   2  783.26   29.92   3
  -1   4  -2  778.63   29.22   4
  -2  -4  -2  820.23   32.28   1
   2  -4   2  816.10   30.31   3
   2  -4   2  792.97   30.56   3
  -2  -4  -2  808.48   31.14   4
  -2  -4  -2  817.72   31.11   3
   2  -4   2  860.48   31.60   1
  -2  -4  -2  752.46   31.34   3
   2  -4   2  835.74   30.20   4
   2   4   2  816.85   31.29   4
  -2   4  -2  846.80   30.69   4
  -2   4  -2  837.89   30.58   3
   2   4   2  781.99   31.87   1
   2   4   2  837.32   31.36   4
  -2   4  -2  807.80   30.61   4
   2   4   2  792.53   31.32   3
  -2   4  -2  785.31   31.66   1
  -2   4  -2  790.49   30.54   3
   3  -4   2  349.68   14.09   4
  -3  -4  -2  330.58   16.88   1
  -3  -4  -2  351.23   15.95   3
   3  -4   2  327.97   14.21   3
  -3  -4  -2  330.90   15.00   4
  -3  -4  -2  342.51   15.72   4
  -3   4  -2  353.39   14.70   4
   3   4   2  370.73   15.84   3
  -3   4  -2  357.65   14.83   3
   3   4   2  351.27   15.45   4
  -3   4  -2  324.02   16.11   1
  -3   4  -2  332.80   14.81   4
  -3   4  -2  346.04   14.61   3
  -4  -4  -2    8.75    4.53   3
  -4  -4  -2    7.68    5.44   1
  -4  -4  -2    5.09    3.97   4
   4   4   2    8.14    4.75   3
  -4   4  -2    5.52    3.51   4
  -4   4  -2   10.52    3.91   3
  -4   4  -2   18.18    5.91   1
  -4  -5   2    5.17    4.31   3
  -4  -5   2    9.69    4.43   4
  -4  -5   2    7.78    5.82   1
  -4   5   2   14.54    4.32   3
   4   5  -2    1.27    4.83   3
  -4   5   2   12.98    6.05   1
  -4   5   2   16.06    4.36   4
  -3  -5   2  181.23    9.70   4
  -3  -5   2  147.54    9.62   3
  -3  -5   2  172.11   10.69   1
  -3  -5   2  165.97    9.57   4
   3  -5  -2  174.50    8.54   3
   3  -5  -2  182.15    8.41   4
  -3   5   2  160.89    8.69   3
  -3   5   2  164.80    8.85   4
  -3   5   2  183.14    8.96   3
  -3   5   2  178.45   10.09   1
   3   5  -2  175.50    9.54   4
   3   5  -2  162.19    9.58   3
   3   5  -2  161.61    9.16   4
  -3   5   2  176.82    9.00   4
  -2  -5   2  100.91    5.61   4
  -2  -5   2  101.95    6.15   4
  -2  -5   2  102.09    6.75   1
   2  -5  -2   99.48    5.75   1
  -2  -5   2  100.92    7.12   2
   2  -5  -2  101.04    4.99   4
  -2  -5   2   89.26    6.08   3
   2  -5  -2   94.11    5.16   3
  -2   5   2   97.97    5.27   4
  -2   5   2   96.82    5.39   4
   2   5  -2   94.31    5.80   4
  -2   5   2   98.26    5.35   3
   2   5  -2   84.16    7.37   1
  -2   5   2   89.92    7.29   2
  -2   5   2  103.63    5.33   3
   2   5  -2   91.98    5.88   4
   2   5  -2  100.48    5.79   3
   2   5  -2  101.23    6.06   3
  -2   5   2  104.22    5.89   1
  -1  -5   2   30.03    2.40   4
   1  -5  -2   29.44    2.34   4
  -1  -5   2   31.32    3.04   1
  -1  -5   2   17.20    2.43   4
  -1  -5   2   30.43    2.50   3
   1  -5  -2   26.57    2.37   3
   1  -5  -2   26.58    2.09   1
   1  -5  -2   27.13    2.29   3
   1  -5  -2   27.46    2.14   4
  -1   5   2   26.56    2.39   4
  -1   5   2   31.89    2.34   4
   1   5  -2   24.47    2.71   3
  -1   5   2   28.58    3.93   2
   1   5  -2   25.60    2.71   4
  -1   5   2   28.10    2.34   3
  -1   5   2   29.27    2.24   1
  -1   5   2   29.48    2.29   3
   1   5  -2   28.10    2.73   3
   1   5  -2   44.15    4.35   2
   1   5  -2   29.27    3.13   1
   1   5  -2   26.20    2.73   4
   0  -5  -2    0.62    0.51   1
   0  -5   2    2.11    1.05   4
   0  -5  -2    3.41    1.34   3
   0  -5  -2    1.87    1.67   2
   0  -5   2   -1.00    0.97   3
   0  -5  -2    0.78    1.12   4
   0  -5   2    0.14    0.90   3
   0  -5   2    5.42    1.01   4
   0  -5  -2    0.76    1.26   3
   0  -5   2   -0.51    1.41   2
   0  -5  -2    0.19    1.10   4
   0   5  -2    0.14    0.92   4
   0   5  -2   -0.07    1.03   3
   0   5   2   -0.55    2.05   2
   0   5   2   -1.18    1.08   4
   0   5  -2    0.77    0.91   3
   0   5  -2    0.18    0.92   4
   0   5  -2    1.53    1.67   2
   0   5   2    0.07    1.13   3
   0   5   2    1.10    1.14   4
   0   5   2    0.26    1.07   3
  -1  -5  -2  576.39   22.23   3
  -1  -5  -2  673.16   24.42   2
  -1  -5  -2  556.05   22.43   3
   1  -5   2  575.00   21.32   4
  -1  -5  -2  552.10   22.49   1
  -1  -5  -2  593.58   22.28   4
  -1  -5  -2  581.77   22.55   4
   1  -5   2  599.46   21.41   4
   1  -5   2  539.13   21.48   3
  -1   5  -2  574.38   21.56   4
  -1   5  -2  564.13   23.93   2
   1   5   2  554.40   22.30   4
   1   5   2  594.78   22.48   4
  -1   5  -2  566.20   21.57   4
  -1   5  -2  567.08   22.10   1
  -1   5  -2  597.81   21.54   3
   1   5   2  576.52   24.22   2
   1   5   2  644.92   22.42   3
   1   5   2  555.89   22.38   1
  -1   5  -2  571.13   21.54   3
   1   5   2  571.88   22.35   3
   2  -5   2    9.27    2.44   1
  -2  -5  -2    9.96    2.31   4
  -2  -5  -2    5.12    2.61   3
   2  -5   2    7.91    1.68   3
   2  -5   2    8.02    1.40   4
  -2  -5  -2    8.59    3.04   1
  -2  -5  -2    5.41    2.42   4
   2  -5   2    7.76    1.58   3
  -2   5  -2    6.98    1.75   4
   2   5   2    7.16    2.50   3
  -2   5  -2   12.77    2.77   1
  -2   5  -2    6.34    1.81   3
   2   5   2    8.77    2.46   4
  -2   5  -2    5.78    1.76   4
   2   5   2    8.89    2.35   4
   2   5   2    6.71    2.82   1
  -2   5  -2    8.10    1.82   3
   3  -5   2  112.18    5.79   4
  -3  -5  -2  108.61    7.87   3
  -3  -5  -2  110.68    6.87   4
  -3  -5  -2  115.93    8.67   1
   3  -5   2  115.59    6.07   3
  -3  -5  -2  112.00    7.62   4
  -3   5  -2  115.41    6.53   3
  -3   5  -2  117.99    6.82   3
   3   5   2  119.77    7.49   4
  -3   5  -2  107.99    6.43   4
   3   5   2  114.74    7.56   3
  -3   5  -2  115.99    8.16   1
  -3   5  -2  117.18    6.70   4
  -4  -5  -2   10.96    4.38   4
  -4  -5  -2    8.95    5.09   3
  -4  -5  -2    7.68    5.48   1
  -4   5  -2    9.88    3.67   3
   4   5   2   11.44    4.71   3
  -4   5  -2   11.55    3.71   4
  -4   5  -2   11.36    5.33   1
  -4  -6   2    2.59    5.82   1
  -4  -6   2    7.04    4.32   3
  -4   6   2   10.85    3.61   4
  -4   6   2    7.67    3.75   3
  -4   6   2    5.56    5.32   1
   4   6  -2   11.22    4.89   3
  -3  -6   2   57.52    6.09   4
  -3  -6   2   56.90    6.39   3
   3  -6  -2   62.52    4.80   3
  -3  -6   2   57.33    7.11   1
  -3   6   2   73.31    6.70   1
  -3   6   2   50.15    4.73   3
   3   6  -2   56.44    5.37   4
   3   6  -2   52.40    6.17   3
  -3   6   2   70.28    5.21   3
  -3   6   2   61.11    4.85   4
  -3   6   2   58.26    5.24   4
   3   6  -2   46.39    5.81   4
  -3   6   2   69.17    8.29   2
  -2  -6   2    0.87    2.53   3
  -2  -6   2    1.94    2.28   4
  -2  -6   2    4.27    3.10   1
   2  -6  -2    1.68    1.74   3
  -2  -6   2    2.80    1.93   4
   2  -6  -2   -0.20    1.32   4
   2  -6  -2   -0.48    1.94   1
   2   6  -2    0.46    2.34   3
  -2   6   2    0.02    1.58   3
   2   6  -2    7.71    2.32   4
   2   6  -2    1.35    2.72   2
  -2   6   2    5.87    2.02   4
  -2   6   2    2.33    1.81   4
  -2   6   2    4.12    3.27   2
  -2   6   2    2.45    1.64   3
   2   6  -2    2.16    2.39   4
   2   6  -2    3.47    2.54   3
  -2   6   2    2.03    2.10   1
   1  -6  -2  200.51    8.61   4
   1  -6  -2  205.74   10.63   2
   1  -6  -2  210.92    8.68   3
  -1  -6   2  190.95   10.14   2
   1  -6  -2  207.33    8.08   1
   1  -6  -2  199.60    8.55   4
  -1  -6   2  204.85    8.87   3
  -1  -6   2  219.51    8.87   4
   1  -6  -2  207.14    8.66   3
  -1  -6   2  207.58    9.27   3
  -1  -6   2  224.25    9.36   1
  -1   6   2  207.72    8.74   4
   1   6  -2  212.73    8.98   3
   1   6  -2  195.54    8.96   4
  -1   6   2  210.73    8.74   3
  -1   6   2  209.23    8.80   4
   1   6  -2  210.72    9.12   4
  -1   6   2  221.25    8.15   1
  -1   6   2  202.36    8.72   3
   1   6  -2  190.14    9.28   1
  -1   6   2  198.76   10.66   2
   1   6  -2  194.75    8.98   3
   1   6  -2  214.01   10.75   2
   0  -6  -2  990.87   39.96   2
   0  -6  -2  996.67   38.23   3
   0  -6  -2 1039.80   38.28   3
   0  -6  -2 1073.83   38.38   4
   0  -6   2 1052.64   38.03   3
   0  -6   2 1039.38   37.89   3
   0  -6   2 1001.07   37.87   4
   0  -6   2  997.42   37.97   4
   0  -6   2 1040.21   39.82   2
   0   6   2 1021.09   38.26   3
   0   6  -2 1045.01   37.99   4
   0   6   2 1008.07   38.25   4
   0   6  -2 1030.90   39.87   2
   0   6  -2 1030.57   37.94   3
   0   6  -2 1024.16   37.89   3
   0   6   2 1037.45   40.34   2
   0   6  -2 1059.05   37.87   1
   0   6   2 1038.42   38.25   3
   0   6   2 1014.84   38.31   4
   0   6  -2 1016.97   37.96   4
   1  -6   2    3.37    0.85   4
   1  -6   2    3.91    1.01   3
  -1  -6  -2    4.85    1.82   4
  -1  -6  -2    5.11    1.65   4
   1  -6   2    3.15    0.84   3
  -1  -6  -2    4.18    1.95   1
  -1  -6  -2    4.05    1.74   3
  -1  -6  -2   12.17    3.01   2
  -1  -6  -2    5.82    2.02   3
   1  -6   2    3.53    0.86   4
   1   6   2    7.35    1.81   4
  -1   6  -2    2.26    0.96   3
  -1   6  -2    3.67    1.55   1
   1   6   2    3.43    1.92   1
   1   6   2    7.03    1.96   3
   1   6   2    8.03    3.39   2
  -1   6  -2    5.50    2.77   2
  -1   6  -2    5.38    1.19   3
  -1   6  -2    3.12    1.10   4
   1   6   2    5.94    1.87   4
   1   6   2    5.00    1.71   3
  -1   6  -2    3.59    1.04   4
  -2  -6  -2    1.08    2.32   3
   2  -6   2    2.45    1.07   4
  -2  -6  -2    4.73    2.13   4
   2  -6   2    0.58    1.81   1
   2  -6   2    3.79    1.36   3
  -2  -6  -2    4.31    3.09   1
  -2  -6  -2    0.60    2.13   4
   2  -6   2    3.25    1.42   3
  -2   6  -2   -0.47    1.96   1
  -2   6  -2    1.90    1.57   4
   2   6   2    4.23    3.70   2
  -2   6  -2    2.43    3.46   2
   2   6   2    5.41    2.48   4
  -2   6  -2    3.32    1.63   4
  -2   6  -2    0.83    1.57   3
   2   6   2    3.09    2.02   4
  -2   6  -2    2.27    1.54   3
   2   6   2    5.41    2.63   3
   3  -6   2   78.24    4.91   3
   3  -6   2   88.47    6.01   4
  -3  -6  -2   81.91    6.67   4
  -3  -6  -2   77.27    5.70   4
  -3  -6  -2   98.80    7.35   3
  -3  -6  -2   82.80    8.03   1
  -3   6  -2   70.83    5.31   3
  -3   6  -2   69.93    5.33   4
   3   6   2   79.10    6.28   4
   3   6   2   79.02    6.61   3
  -3   6  -2   91.48    7.04   1
  -3   6  -2   81.45    5.45   4
  -3   6  -2   85.62    5.33   3
  -4  -6  -2    0.41    4.69   3
  -4  -6  -2    0.88    5.53   1
  -4  -6  -2    2.08    3.87   4
  -4   6  -2    7.14    4.97   1
  -4   6  -2    8.03    3.58   4
   4   6   2    3.89    4.82   3
  -4   6  -2    9.35    3.63   3
  -4  -7   2   -3.68    5.06   1
  -4  -7   2    1.21    4.32   3
  -4   7   2    6.68    3.75   4
   4   7  -2   -5.09    4.20   3
  -4   7   2    1.66    5.84   2
  -4   7   2    5.20    5.36   1
  -4   7   2    5.89    3.63   3
  -3  -7   2   57.14    6.38   3
  -3  -7   2   60.28    7.34   1
   3  -7  -2   47.06    4.21   3
  -3  -7   2   46.42    5.67   4
   3   7  -2   44.00    5.75   3
  -3   7   2   36.00    4.94   3
  -3   7   2   58.28    4.99   4
  -3   7   2   41.28    4.47   4
   3   7  -2   46.28    5.78   4
  -3   7   2   51.27    7.93   2
  -3   7   2   43.87    4.44   3
  -3   7   2   48.82    5.97   1
   3   7  -2   45.14    5.37   4
   2  -7  -2  618.99   23.73   3
  -2  -7   2  646.62   25.07   4
  -2  -7   2  668.47   25.47   1
   2  -7  -2  594.59   23.61   4
   2  -7  -2  610.44   23.97   1
  -2  -7   2  657.42   25.31   3
  -2   7   2  604.59   24.08   4
   2   7  -2  591.34   24.67   4
   2   7  -2  609.77   27.00   2
  -2   7   2  627.41   27.39   2
  -2   7   2  607.35   24.02   3
  -2   7   2  588.51   23.79   3
   2   7  -2  605.56   24.72   4
  -2   7   2  628.28   24.10   1
   2   7  -2  591.59   24.68   3
  -2   7   2  603.76   24.00   4
  -1  -7   2  282.70   13.65   4
   1  -7  -2  285.39   11.55   4
   1  -7  -2  271.69   11.54   3
  -1  -7   2  268.63   12.14   3
  -1  -7   2  285.61   13.42   2
   1  -7  -2  263.29   11.74   3
   1   7  -2  271.50   11.76   3
  -1   7   2  278.93   11.59   3
   1   7  -2  299.18   12.12   4
   1   7  -2  286.49   12.01   3
   1   7  -2  277.95   12.16   1
  -1   7   2  288.54   11.67   3
   1   7  -2  290.69   13.93   2
  -1   7   2  290.83   11.79   4
  -1   7   2  297.48   11.80   4
   1   7  -2  291.90   12.03   4
  -1   7   2  296.34   14.17   2
   0  -7  -2  200.24    8.74   4
   0  -7  -2  199.50    8.76   3
   0  -7  -2  209.37   10.69   2
   0  -7   2  211.55    8.37   4
   0  -7   2  197.06    8.47   4
   0  -7   2  206.06   10.44   2
   0  -7  -2  207.81    8.86   3
   0  -7   2  202.69    8.53   3
   0  -7   2  194.30    8.35   3
   0   7   2  202.18    8.75   4
   0   7  -2  203.98    8.51   4
   0   7  -2  200.42    8.26   1
   0   7  -2  200.85    8.46   4
   0   7  -2  211.42    8.51   3
   0   7   2  204.11   11.03   2
   0   7  -2  207.74    8.42   3
   0   7   2  201.65    8.68   3
   0   7  -2  203.79   10.71   2
   0   7   2  194.27    8.76   4
   0   7   2  203.03    8.76   3
  -1  -7  -2   36.10    3.67   3
   1  -7   2   30.30    2.17   3
  -1  -7  -2   28.81    3.10   4
   1  -7   2   32.32    2.07   4
  -1  -7  -2   35.41    3.54   1
   1  -7   2   35.49    2.21   3
  -1  -7  -2   33.46    3.57   4
  -1   7  -2   30.36    2.32   3
   1   7   2   38.09    3.65   3
  -1   7  -2   32.36    2.37   3
   1   7   2   33.31    5.29   2
   1   7   2   38.72    3.49   4
  -1   7  -2   32.58    2.67   1
   1   7   2   32.97    2.97   3
  -1   7  -2   28.87    4.60   2
  -1   7  -2   31.98    2.37   4
   1   7   2   35.74    3.18   1
  -1   7  -2   34.65    2.48   4
   1   7   2   35.48    3.33   4
   2  -7   2  217.09    9.00   3
  -2  -7  -2  214.25   11.14   1
  -2  -7  -2  229.96   10.33   4
   2  -7   2  228.19    8.79   4
  -2  -7  -2  220.46   10.86   3
  -2  -7  -2  210.14   10.69   4
  -2   7  -2  235.61   13.42   2
   2   7   2  222.26   13.39   2
  -2   7  -2  216.94    9.42   3
  -2   7  -2  226.51    9.27   3
  -2   7  -2  224.81    9.56   4
  -2   7  -2  221.02    9.40   4
   2   7   2  224.61   10.69   4
  -2   7  -2  199.57   10.20   1
   2   7   2  220.22   10.40   4
   2   7   2  214.65   10.60   3
  -3  -7  -2   61.64    6.52   4
  -3  -7  -2   74.35    8.17   1
  -3  -7  -2   47.23    6.26   3
  -3   7  -2   60.10    4.61   3
   3   7   2   56.12    6.11   4
  -3   7  -2   60.52    4.73   4
  -3   7  -2   44.98    5.83   1
  -3   7  -2   59.53    8.78   2
   3   7   2   61.02    6.54   3
  -3   7  -2   54.45    4.75   4
  -4  -7  -2   -0.27    5.04   1
  -4  -7  -2   -0.31    3.97   3
  -4   7  -2    5.21    3.34   3
  -4   7  -2    2.85    3.30   4
  -4   7  -2    6.74    4.96   1
   4   7   2    0.66    4.72   3
  -4  -8   2    3.27    6.12   1
  -4  -8   2    0.26    4.21   3
  -4   8   2    2.22    4.96   1
  -4   8   2    6.70    3.57   3
  -4   8   2    5.82    6.41   2
   4   8  -2    9.95    5.07   3
  -4   8   2    1.31    3.54   4
  -3  -8   2    5.86    3.80   3
  -3  -8   2    1.09    4.56   1
   3   8  -2    6.49    3.59   4
  -3   8   2    6.25    2.97   4
  -3   8   2    5.38    5.00   2
  -3   8   2    2.93    2.72   3
  -3   8   2    7.77    3.86   1
   3   8  -2    3.00    3.74   3
   2  -8  -2  228.63   10.12   4
   2  -8  -2  239.81   10.34   3
  -2  -8   2  254.76   11.80   4
  -2  -8   2  248.85   11.89   3
  -2  -8   2  256.12   11.92   1
   2  -8  -2  244.75   10.17   1
  -2   8   2  231.90   10.42   3
   2   8  -2  215.66   11.17   4
  -2   8   2  238.30   14.00   2
   2   8  -2  240.70   14.11   2
  -2   8   2  222.07   10.54   3
   2   8  -2  229.27   11.37   3
  -2   8   2  225.11   10.56   4
  -2   8   2  230.34   10.32   1
  -2   8   2  241.10   10.65   4
   2   8  -2  239.84   11.26   4
   1  -8  -2   -1.05    1.56   3
   1  -8  -2    4.37    1.59   4
  -1  -8   2   -1.98    1.75   3
   1   8  -2   -0.97    1.88   4
   1   8  -2   -0.05    1.49   3
  -1   8   2   -1.77    2.78   2
  -1   8   2   -0.43    1.45   4
   1   8  -2   -0.72    1.50   4
  -1   8   2   -0.20    1.28   4
   1   8  -2    1.59    2.09   1
  -1   8   2    0.51    1.43   3
   1   8  -2   -0.26    3.17   2
   1   8  -2    0.02    1.85   3
  -1   8   2   -0.02    1.47   3
   0  -8   2  391.48   15.19   4
   0  -8   2  401.32   15.30   3
   0  -8  -2  388.19   15.52   3
   0  -8   2  386.13   15.05   3
   0   8   2  407.74   15.55   4
   0   8   2  378.72   17.99   2
   0   8   2  392.16   15.54   4
   0   8   2  370.81   15.32   3
   0   8   2  387.83   15.46   3
   0   8  -2  349.10   15.04   3
   0   8  -2  383.11   15.13   4
   0   8  -2  385.21   15.04   3
   0   8  -2  375.35   14.77   1
   0   8  -2  373.92   15.16   4
   0   8  -2  382.03   17.69   2
  -1  -8  -2    2.77    2.38   3
  -1  -8  -2    1.69    1.97   4
  -1  -8  -2    0.06    1.82   1
   1  -8   2    2.20    1.06   3
   1  -8   2    2.87    1.09   4
   1  -8   2    2.60    1.27   3
  -1   8  -2    4.06    1.41   3
   1   8   2    0.32    3.35   2
   1   8   2    5.04    2.16   4
   1   8   2    3.80    2.12   3
  -1   8  -2    3.31    1.48   1
   1   8   2    1.98    1.71   3
  -1   8  -2    0.48    1.18   4
   1   8   2    3.05    1.82   4
  -1   8  -2    3.60    1.34   4
   1   8   2    1.64    1.81   1
  -1   8  -2    1.17    1.15   3
  -1   8  -2    3.68    3.11   2
  -2  -8  -2    9.72    3.30   3
  -2  -8  -2   16.32    3.83   1
   2  -8   2    8.57    1.73   3
   2  -8   2   13.90    2.34   4
  -2  -8  -2   14.41    3.32   4
   2   8   2   11.99    3.13   4
   2   8   2   10.15    2.69   4
  -2   8  -2   10.75    4.64   2
  -2   8  -2    6.96    1.88   3
   2   8   2   11.08    3.45   3
   2   8   2   16.15    5.33   2
  -2   8  -2    7.32    2.05   3
  -2   8  -2    2.71    2.46   1
  -2   8  -2    8.32    1.95   4
  -2   8  -2    7.13    2.01   4
  -3  -8  -2   95.33    8.91   3
  -3  -8  -2   86.10    8.77   1
  -3  -8  -2   73.83    6.71   4
  -3   8  -2   72.27    5.04   3
  -3   8  -2   69.15    6.43   1
   3   8   2   79.06    7.69   3
  -3   8  -2   70.16    9.87   2
  -3   8  -2   74.54    5.54   4
  -3   8  -2   77.87    5.24   4
   3   8   2   70.09    7.00   4
  -4  -8  -2   15.23    5.25   3
  -4  -8  -2    9.50    6.60   1
  -4   8  -2   26.07    6.13   1
  -4   8  -2   13.07    3.70   4
  -4   8  -2   22.32    7.67   2
   4   8   2   17.02    6.09   3
  -4   8  -2   17.17    3.72   3
  -4  -9   2   39.43    6.98   3
  -4  -9   2   26.58    6.99   1
  -4   9   2   43.95    5.35   4
  -4   9   2   26.77    4.72   3
  -4   9   2   36.76    8.80   2
   4   9  -2   55.22    7.55   3
  -3  -9   2    1.16    4.25   1
  -3  -9   2    1.54    4.08   3
  -3   9   2    2.35    3.37   1
  -3   9   2    4.88    5.46   2
   3   9  -2    7.77    4.25   3
   3   9  -2    5.49    3.75   4
  -3   9   2    0.83    2.64   3
  -3   9   2   -1.11    2.87   4
   2  -9  -2   52.77    4.44   4
   2  -9  -2   45.56    3.84   3
  -2  -9   2   49.28    5.52   1
  -2  -9   2   49.30    5.41   4
  -2  -9   2   55.91    6.02   3
  -2   9   2   57.82    7.72   2
  -2   9   2   56.02    4.29   3
   2   9  -2   58.21    7.90   2
  -2   9   2   49.33    3.81   1
  -2   9   2   48.10    4.07   3
  -2   9   2   47.78    4.19   4
   2   9  -2   50.26    5.37   4
   2   9  -2   50.68    5.41   3
   2   9  -2   46.98    4.53   4
  -2   9   2   43.69    4.17   4
   1  -9  -2  212.30    9.50   4
  -1  -9   2  220.82   10.35   3
   1  -9  -2  220.23    9.63   3
   1   9  -2  232.43   10.29   3
  -1   9   2  222.34    9.91   4
  -1   9   2  209.58   12.73   2
  -1   9   2  196.54    9.57   3
   1   9  -2  218.21   10.01   1
   1   9  -2  211.65   10.04   4
   1   9  -2  218.95   12.65   2
  -1   9   2  228.16    9.77   3
  -1   9   2  218.15    9.74   4
   1   9  -2  220.41    9.83   3
   1   9  -2  236.22   10.16   4
   0  -9  -2  143.05    6.92   3
   0  -9   2  137.97    6.43   4
   0  -9   2  131.92    6.51   3
   0  -9  -2  120.43    6.61   4
   0   9  -2  132.64    6.32   4
   0   9  -2  134.85    9.37   2
   0   9  -2  123.20    6.36   4
   0   9   2  128.25    9.39   2
   0   9  -2  129.98    6.18   3
   0   9   2  140.69    6.84   3
   0   9   2  134.32    6.50   3
   0   9   2  129.64    6.62   4
   0   9  -2  123.05    5.78   1
   0   9   2  135.73    6.72   4
   0   9  -2  134.93    6.44   3
  -1  -9  -2  179.85    8.86   3
  -1  -9  -2  166.42    8.66   4
   1  -9   2  185.94    7.54   3
   1  -9   2  180.79    7.31   4
  -1  -9  -2  171.68    7.99   1
   1   9   2  161.84    8.56   4
  -1   9  -2  162.84    7.31   1
  -1   9  -2  171.61    7.67   4
   1   9   2  162.54   11.31   2
  -1   9  -2  174.02   11.04   2
  -1   9  -2  172.05    7.75   4
   1   9   2  173.24    8.76   3
   1   9   2  184.63    8.58   4
   1   9   2  174.33    7.88   1
  -1   9  -2  175.59    7.61   3
   1   9   2  173.74    8.36   3
  -2  -9  -2  133.04    8.37   3
  -2  -9  -2  138.57    8.39   1
  -2  -9  -2  142.26    8.33   4
   2  -9   2  127.51    7.30   3
  -2   9  -2  121.28    7.17   1
   2   9   2  164.22   12.21   2
  -2   9  -2  142.61    6.65   3
  -2   9  -2  154.81   11.24   2
   2   9   2  153.74    8.77   3
   2   9   2  150.83    8.39   4
  -2   9  -2  142.72    6.92   4
  -2   9  -2  131.94    6.77   3
  -2   9  -2  134.48    6.68   4
   2   9   2  140.73    7.89   4
  -3  -9  -2   15.56    4.78   3
  -3  -9  -2    8.63    4.72   1
  -3   9  -2   15.39    3.96   1
  -3   9  -2    9.65    5.93   2
  -3   9  -2   10.36    2.83   4
   3   9   2   11.49    4.11   4
  -3   9  -2   11.19    2.72   3
   3   9   2    8.09    4.23   3
  -4  -9  -2   20.69    7.43   1
  -4  -9  -2   24.39    5.92   3
   4   9   2   21.26    5.82   3
  -4   9  -2   29.87    8.68   2
  -4   9  -2   18.10    4.10   4
  -4   9  -2   24.50    6.79   1
  -4   9  -2   24.07    3.90   3
  -4  10   2   -0.08    3.36   3
  -4  10   2    8.64    7.56   2
  -3 -10   2   15.27    5.52   1
  -3 -10   2   21.73    5.08   3
  -3  10   2   21.90    3.69   3
   3  10  -2   21.21    5.54   3
  -3  10   2   26.03    4.24   4
   3  10  -2   25.71    5.22   4
  -3  10   2   24.10    7.41   2
   2 -10  -2    0.63    2.11   3
  -2 -10   2    3.52    3.51   3
   2  10  -2    1.34    3.00   3
  -2  10   2    3.60    2.36   4
  -2  10   2   -1.42    2.04   3
   2  10  -2    1.03    2.83   4
  -2  10   2   -2.58    1.60   4
  -2  10   2    2.53    4.25   2
   2  10  -2   13.60    5.50   2
  -1 -10   2  516.29   21.60   3
   1 -10  -2  529.92   20.96   3
   1 -10  -2  536.77   20.94   4
   1  10  -2  531.49   21.57   3
  -1  10   2  552.03   24.92   2
   1  10  -2  533.85   21.55   4
  -1  10   2  536.88   21.25   4
  -1  10   2  552.87   21.31   4
   1  10  -2  529.24   21.36   4
  -1  10   2  471.51   20.93   3
   1  10  -2  542.79   24.70   2
  -1  10   2  542.70   21.11   3
   1  10  -2  558.67   21.25   3
   1  10  -2  498.08   21.07   1
   0 -10   2   63.52    4.18   4
   0 -10   2   65.17    4.47   3
   0 -10  -2   60.86    4.54   4
   0 -10  -2   73.23    4.91   3
   0  10   2   63.72    4.75   4
   0  10  -2   62.48    3.95   3
   0  10  -2   59.19    3.36   1
   0  10   2   64.46    4.49   4
   0  10  -2   68.93    4.10   4
   0  10  -2   68.25    7.31   2
   0  10  -2   63.97    4.33   4
   0  10  -2   67.09    4.44   3
   0  10   2   60.06    4.15   3
   0  10   2   68.29    7.66   2
   0  10   2   68.00    4.79   3
   1 -10   2  100.64    4.91   3
  -1 -10  -2   93.77    6.07   4
  -1 -10  -2   96.44    6.26   3
   1 -10   2   97.38    4.86   4
  -1  10  -2   96.22    8.75   2
  -1  10  -2   83.29    4.84   3
  -1  10  -2   87.22    4.28   1
   1  10   2   90.90    6.01   3
  -1  10  -2   89.69    5.13   4
   1  10   2  100.30    5.85   4
   1  10   2   95.34    9.25   2
  -1  10  -2   91.60    5.13   4
   1  10   2   92.49    4.98   1
  -1  10  -2  105.77    5.16   3
   1  10   2   91.76    6.01   4
  -2 -10  -2   -2.31    2.93   3
  -2 -10  -2    1.64    3.16   1
   2  10   2    3.40    5.82   2
   2  10   2   12.42    3.99   3
  -2  10  -2   -2.98    3.95   2
  -2  10  -2    4.90    2.09   4
  -2  10  -2    0.28    1.81   3
   2  10   2   -0.32    2.79   4
  -2  10  -2    1.65    1.94   4
  -3 -10  -2   43.36    6.70   3
  -3 -10  -2   54.70    7.51   1
  -3  10  -2   52.35    4.58   4
   3  10   2   53.36    6.82   3
  -3  10  -2   43.00    4.21   3
  -3  10  -2   52.50    5.56   1
  -3  10  -2   42.28    9.13   2
   3  10   2   51.94    6.59   4
  -3 -11   2   -1.58    3.63   3
  -3 -11   2    1.80    4.59   1
   3  11  -2    6.44    4.53   3
  -3  11   2    4.68    3.14   4
  -3  11   2    3.42    3.00   3
  -3  11   2    1.89    5.77   2
   3  11  -2   -0.06    3.93   4
  -2 -11   2   81.57    7.65   3
   2  11  -2   80.48   10.51   2
  -2  11   2   68.58    9.28   2
   2  11  -2   86.37    7.61   3
  -2  11   2   64.56    5.07   3
   2  11  -2   65.05    6.13   4
  -2  11   2   71.67    5.46   4
  -1 -11   2   21.43    3.61   3
   1 -11  -2   18.48    2.92   3
   1  11  -2   23.01    3.20   1
   1  11  -2   26.01    3.32   3
  -1  11   2   21.29    3.24   4
  -1  11   2   18.85    2.93   4
   1  11  -2   21.43    3.64   4
  -1  11   2   16.85    2.76   3
  -1  11   2   21.53    3.18   3
   1  11  -2   25.23    3.80   3
   1  11  -2   13.14    5.31   2
  -1  11   2   20.37    5.90   2
   1  11  -2   19.79    3.07   4
   0 -11   2   74.44    4.74   3
   0 -11  -2   76.64    5.02   3
   0 -11   2   66.23    4.36   4
   0  11  -2   65.18    3.11   1
   0  11  -2   71.00    4.73   4
   0  11   2   66.60    4.84   3
   0  11   2   67.77    4.90   4
   0  11  -2   66.18    4.33   4
   0  11   2   70.45    4.69   3
   0  11   2   70.04    4.65   4
   0  11  -2   65.51    4.75   3
   0  11  -2   68.74    4.30   3
   0  11   2   73.49    8.54   2
   0  11  -2   75.56    8.11   2
  -1 -11  -2   61.17    5.65   3
  -1  11  -2   64.80    4.30   3
   1  11   2   65.20    3.78   1
   1  11   2   54.53    5.07   3
   1  11   2   64.77    5.10   4
  -1  11  -2   64.94    4.35   4
   1  11   2   64.93    5.28   4
  -1  11  -2   74.20    8.24   2
  -1  11  -2   52.63    3.93   3
  -1  11  -2   61.96    4.22   4
   1  11   2   66.99    8.98   2
  -2 -11  -2   65.59    5.97   1
  -2 -11  -2   76.52    6.98   3
  -2  11  -2   61.38    4.58   4
  -2  11  -2   69.11    9.14   2
  -2  11  -2   62.78    4.41   3
   2  11   2   71.78   10.99   2
   2  11   2   71.55    7.21   3
   2  11   2   63.66    6.05   4
  -2  11  -2   54.80    4.40   4
  -3 -11  -2   25.40    5.85   3
  -3 -11  -2   26.27    6.04   1
  -3  11  -2   35.78    4.01   4
  -3  11  -2   24.23    3.47   3
   3  11   2   36.21    6.32   3
  -3  11  -2   35.54    8.36   2
  -3 -12   2    2.29    3.96   3
   3  12  -2   -0.05    4.04   4
  -3  12   2    1.34    3.09   4
  -3  12   2    7.97    6.07   2
   3  12  -2    7.52    4.93   3
  -3  12   2    3.70    2.94   3
  -2 -12   2   58.74    6.63   3
   2  12  -2   69.26    7.22   3
   2  12  -2   58.66    6.36   4
   2  12  -2   52.16    9.50   2
  -2  12   2   39.80    8.54   2
  -2  12   2   51.49    4.76   3
  -2  12   2   56.74    5.13   4
  -1 -12   2  117.04    7.59   3
   1  12  -2  131.79    7.98   4
  -1  12   2  128.86   11.32   2
  -1  12   2  132.74    7.17   3
   1  12  -2  119.57   11.13   2
   1  12  -2  135.26    8.02   3
  -1  12   2  128.02    7.25   4
   0 -12  -2    7.75    2.75   3
   0  12   2    4.13    2.38   4
   0  12   2   -1.88    4.71   2
   0  12   2    3.04    2.24   3
   0  12   2    5.05    2.85   3
   0  12  -2    4.81    4.83   2
   0  12  -2    4.41    2.59   3
   0  12  -2    4.85    2.03   4
   0  12  -2    9.85    2.75   4
  -1 -12  -2   41.94    5.28   3
  -1  12  -2   54.59    8.48   2
   1  12   2   55.96    5.88   3
  -1  12  -2   45.65    4.00   4
  -1  12  -2   43.77    4.09   3
  -1  12  -2   50.67    4.17   4
   1  12   2   49.11    9.05   2
   1  12   2   47.01    5.30   4
  -2 -12  -2   41.84    5.77   3
   2  12   2   42.08    9.44   2
  -2  12  -2   47.89    8.57   2
   2  12   2   59.01    6.57   4
   2  12   2   58.82    6.62   3
  -2  12  -2   36.76    3.94   4
  -2  12  -2   48.31    3.97   3
  -3 -12  -2   34.25    6.88   3
  -3  12  -2   32.82    4.11   4
  -3  12  -2   39.02    8.77   2
   3  12   2   35.81    6.60   3
  -3  12  -2   30.33    3.70   3
   3  13  -2   23.83    5.98   2
   3  13  -2    7.15    4.70   4
  -3  13   2    5.30    3.18   3
   2  13  -2   -0.97    3.77   3
   2  13  -2    7.77    4.02   4
  -2  13   2    1.08    2.32   4
  -2  13   2    5.25    2.83   3
   2  13  -2    0.29    6.10   2
  -2  13   2    7.52    6.19   2
   1  13  -2   -3.73    4.87   2
   1  13  -2   10.65    3.78   3
  -1  13   2    7.28    2.89   3
   1  13  -2    6.78    3.16   4
  -1  13   2    5.55    2.57   4
  -1  13   2   10.25    6.34   2
   0  13   2    6.27    3.11   3
   0  13   2    6.62    5.77   2
   0  13   2    4.80    2.97   4
   0  13  -2    5.98    2.73   4
   0  13  -2    5.63    5.47   2
   0  13  -2    8.57    2.97   3
  -1 -13  -2   66.46    5.86   3
  -1  13  -2   53.41    4.67   3
   1  13   2   65.01    6.51   4
   1  13   2   68.45    6.85   3
   1  13   2   50.89    9.21   2
  -1  13  -2   53.58    4.56   4
  -1  13  -2   51.26    8.66   2
  -2 -13  -2    4.43    4.11   3
  -2  13  -2    0.22    2.14   4
  -2  13  -2    3.10    2.38   3
   2  13   2    1.86    3.89   3
   2  13   2    3.39    3.85   4
  -2  13  -2    1.29    5.88   2
   2  13   2   -1.48    6.62   2
   2  14  -2   30.48    5.92   3
   2  14  -2   35.14    9.51   2
  -2  14   2   34.93    8.69   2
   2  14  -2   48.79    6.50   4
  -2  14   2   34.06    4.36   3
  -2  14   2   34.20    4.47   4
   1  14  -2    0.35    5.91   2
  -1  14   2    9.32    3.30   3
  -1  14   2    8.69    6.45   2
  -1  14   2    8.90    3.04   4
   1  14  -2    7.72    3.89   3
   1  14  -2    8.60    3.87   4
   0  14  -2   79.37   10.34   2
   0  14  -2   72.12    5.92   4
   0  14   2   72.05   10.69   2
   0  14   2   69.57    5.86   3
   0  14  -2   85.15    6.30   3
   0  14   2   69.09    5.86   4
   1  14   2    3.95    3.71   3
   1  14   2    4.47    3.51   4
   1  14   2  -11.56    5.26   2
  -1  14  -2    4.96    5.63   2
  -1  14  -2   -1.97    2.48   3
  -1  14  -2    0.34    2.46   4
  -2  14  -2    2.41    2.62   4
   2  14   2   -0.46    3.98   3
   2  14   2    4.65    4.43   4
   2  14   2    6.01    8.04   2
  -2  14  -2   -0.62    2.36   3
  -2  14  -2   -2.06    5.90   2
   1  15  -2  -15.06    5.95   2
  -1  15   2   -4.12    5.82   2
  -1  15   2    6.74    3.45   3
   1  15  -2    2.28    3.75   4
  -1  15   2    1.36    2.93   4
   1  15  -2   -6.95    3.42   3
   0  15   2   -7.56    5.36   2
   0  15  -2   -2.33    3.05   3
   0  15  -2    0.11    2.91   4
   0  15   2    0.62    3.35   3
   0  15  -2   -5.02    5.55   2
   0  15   2    0.75    3.00   4
   1  15   2   89.87    7.81   4
  -1  15  -2   92.87    6.29   3
   1  15   2   94.04    7.89   3
   1  15   2   82.32   12.55   2
  -1  15  -2   87.27    6.31   4
  -1  15  -2   94.83   11.49   2
   0  16  -2   -2.76    6.18   2
   0  16   2    5.77    3.90   3
   0  16   2    8.01    3.37   4
   0  16   2   -6.17    6.00   2
   0  16  -2    4.59    3.68   3
   0  16  -2    6.05    4.01   4
  -5   0   3   17.18    5.38   3
  -5   0   3    2.11    4.02   4
  -5   0   3   -9.64    5.96   1
  -4   0   3   -1.67    3.76   3
  -4   0   3    3.86    5.07   1
   4   0  -3    2.77    4.14   3
  -4   0   3    4.70    3.43   4
   3   0  -3   -1.89    2.66   3
   3   0  -3   -1.70    2.35   4
  -3   0   3   -0.38    2.49   4
  -3   0   3   -0.92    3.15   1
  -3   0   3   -1.01    2.70   3
  -3   0   3    0.38    2.23   4
  -2   0   3    0.93    1.96   4
  -2   0   3    0.12    1.69   4
  -2   0   3    4.29    2.76   1
  -2   0   3   -0.08    1.63   3
   2   0  -3    0.28    1.78   3
   2   0  -3    1.59    1.97   4
  -2   0   3    2.22    1.97   3
   2   0  -3    3.68    2.27   3
   2   0  -3    1.35    2.21   1
   2   0  -3    1.39    1.74   4
   1   0  -3    0.72    1.27   4
  -1   0   3    2.51    1.93   1
   1   0  -3    0.50    1.43   4
  -1   0   3    1.24    1.38   3
   1   0  -3   -1.15    1.44   3
   1   0  -3    1.30    1.88   1
   1   0  -3   -0.08    1.36   3
  -1   0   3   -1.73    1.26   4
  -1   0   3   -0.41    1.17   3
  -1   0   3    0.02    1.25   4
   0   0  -3   -0.33    0.53   4
   0   0  -3    0.37    0.50   3
   0   0   3   -0.10    0.25   4
   0   0   3   -0.07    0.48   3
   0   0  -3    0.20    0.54   3
   0   0   3    0.51    0.53   4
   0   0  -3    0.36    0.43   4
   0   0   3   -0.25    0.40   3
   0   0  -3   -1.15    0.50   2
  -1   0  -3    0.12    1.80   1
  -1   0  -3   -0.53    1.12   4
  -1   0  -3   -0.91    1.06   3
   1   0   3   -0.47    0.96   4
  -1   0  -3    1.21    1.16   3
  -1   0  -3    1.16    1.15   4
   1   0   3    2.21    1.68   1
   1   0   3   -1.85    1.13   3
   1   0   3    0.36    1.08   3
   1   0   3   -1.43    1.03   4
   2   0   3   -0.77    1.32   3
  -2   0  -3    0.13    1.73   4
   2   0   3    2.12    2.27   1
   2   0   3    0.90    1.76   4
   2   0   3    0.56    1.90   3
  -2   0  -3    1.71    2.11   3
  -2   0  -3    2.14    1.98   4
  -2   0  -3    0.68    1.60   3
  -2   0  -3    0.92    2.36   1
   2   0   3    0.26    1.57   4
  -3   0  -3    2.59    2.66   3
   3   0   3    2.06    2.56   4
  -3   0  -3    1.27    2.46   4
  -3   0  -3    6.62    3.69   1
  -3   0  -3    4.35    2.84   4
  -3   0  -3    2.89    2.47   3
   3   0   3   -0.18    2.73   3
  -4   0  -3    0.25    4.54   1
   4   0   3   -0.55    3.15   3
  -4   0  -3    3.66    4.00   3
  -4   0  -3    1.29    3.37   4
  -5  -1   3    5.23    7.11   1
  -5  -1   3   18.47    5.41   4
  -5  -1   3   26.20    6.09   3
  -5   1   3    6.08    6.58   1
  -5   1   3   12.22    5.09   4
  -5   1   3   22.83    6.49   3
  -4  -1   3   52.80    7.85   1
  -4  -1   3   55.14    6.36   4
   4  -1  -3   66.23    6.67   3
  -4  -1   3   62.10    7.15   3
   4   1  -3   58.08    6.62   3
  -4   1   3   49.44    6.21   3
  -4   1   3   58.38    6.44   4
  -4   1   3   54.08    8.21   1
  -3  -1   3   22.87    3.59   4
   3  -1  -3   19.66    3.84   3
  -3  -1   3   18.72    3.73   4
   3  -1  -3   20.59    3.47   4
  -3  -1   3   25.46    5.12   1
  -3  -1   3   15.67    3.66   3
   3   1  -3   18.66    3.94   3
  -3   1   3   22.42    3.74   4
  -3   1   3   14.23    3.06   4
  -3   1   3   21.48    4.70   1
  -3   1   3   21.69    4.05   3
   3   1  -3   20.52    3.74   4
  -2  -1   3  300.40   12.55   4
   2  -1  -3  289.20   12.38   4
  -2  -1   3  296.10   12.76   3
   2  -1  -3  299.93   12.57   4
   2  -1  -3  297.82   12.58   3
  -2  -1   3  274.45   12.39   3
  -2  -1   3  300.98   12.74   4
   2  -1  -3  309.48   12.54   3
   2  -1  -3  290.63   13.26   1
  -2  -1   3  293.89   13.31   1
   2   1  -3  322.13   12.77   4
   2   1  -3  308.97   12.66   3
  -2   1   3  291.95   12.54   4
  -2   1   3  307.64   12.48   3
   2   1  -3  292.53   13.38   1
  -2   1   3  288.91   13.16   1
   2   1  -3  305.27   12.66   4
   2   1  -3  289.39   12.66   3
  -2   1   3  289.50   12.54   3
  -2   1   3  297.81   12.46   4
  -1  -1   3    9.90    1.78   3
   1  -1  -3   11.12    1.75   4
   1  -1  -3   10.85    1.97   1
   1  -1  -3   12.14    1.79   3
  -1  -1   3   11.13    1.64   4
  -1  -1   3   14.79    2.45   1
  -1  -1   3   10.65    1.69   3
   1  -1  -3    9.76    1.69   3
   1  -1  -3   10.04    1.59   4
  -1  -1   3   11.24    1.70   4
   1   1  -3    8.42    1.72   4
  -1   1   3    9.42    1.70   3
  -1   1   3    9.08    1.60   4
  -1   1   3   16.10    2.32   1
   1   1  -3   10.49    2.18   1
  -1   1   3   11.91    1.70   4
   1   1  -3   11.91    1.83   4
   1   1  -3    9.80    1.84   3
  -1   1   3   11.37    1.67   3
   1   1  -3   12.36    1.91   3
   0  -1  -3  415.54   15.87   2
   0  -1  -3  424.95   15.56   3
   0  -1   3  451.71   15.67   4
   0  -1  -3  416.03   15.58   4
   0  -1   3  401.30   15.31   3
   0  -1  -3  416.16   15.53   3
   0  -1   3  407.13   15.29   4
   0  -1  -3  414.06   15.54   4
   0   1  -3  409.76   15.32   3
   0   1  -3  428.23   15.32   3
   0   1   3  419.35   15.90   2
   0   1   3  408.82   15.54   4
   0   1   3  433.29   15.57   3
   0   1  -3  405.41   15.32   4
   0   1  -3  412.88   15.29   4
   0   1   3  425.43   15.53   3
   0   1   3  421.62   15.61   4
  -1  -1  -3 1011.19   37.84   4
  -1  -1  -3  988.00   38.36   1
   1  -1   3 1084.01   37.44   4
  -1  -1  -3 1002.37   39.22   2
  -1  -1  -3  998.67   37.81   3
  -1  -1  -3 1045.58   37.77   4
   1  -1   3 1050.86   37.50   3
   1  -1   3 1005.02   37.50   3
   1  -1   3 1095.84   38.32   1
  -1  -1  -3  996.23   37.70   3
   1  -1   3 1025.10   37.47   4
  -1   1  -3  978.97   37.54   4
  -1   1  -3 1024.94   37.52   4
   1   1   3 1077.97   37.79   3
   1   1   3 1029.55   38.30   1
  -1   1  -3 1011.60   38.31   1
   1   1   3 1053.35   37.78   4
  -1   1  -3  990.10   37.48   3
   1   1   3  999.40   37.75   3
   2  -1   3    3.49    1.66   3
  -2  -1  -3   -0.37    2.06   3
  -2  -1  -3    3.70    1.73   4
  -2  -1  -3    6.44    1.89   3
   2  -1   3    0.92    1.86   3
   2  -1   3   -1.33    1.55   4
  -2  -1  -3    3.14    2.47   1
   2  -1   3    5.70    2.37   1
   2  -1   3   -1.99    1.40   4
  -2   1  -3   -0.17    1.79   4
  -2   1  -3   -4.03    1.81   3
   2   1   3    2.14    2.10   3
   2   1   3    3.61    2.39   1
  -2   1  -3    2.10    2.21   1
   2   1   3    5.69    1.68   3
   2   1   3    3.36    1.61   4
  -2   1  -3    3.27    1.84   3
  -2   1  -3    0.33    1.90   4
   2   1   3    0.77    1.07   4
  -3  -1  -3   23.44    3.98   3
  -3  -1  -3   22.88    5.05   1
  -3  -1  -3   24.73    3.62   3
   3  -1   3   23.17    3.39   4
  -3  -1  -3   24.99    3.61   4
   3  -1   3   29.77    3.79   3
  -3  -1  -3   25.60    3.89   4
  -3   1  -3   21.10    3.26   4
  -3   1  -3   26.96    4.93   1
  -3   1  -3   17.88    3.19   3
  -3   1  -3   22.95    3.88   3
   3   1   3   22.51    3.77   3
  -3   1  -3   19.93    3.65   4
   4  -1   3   19.46    5.78   3
  -4  -1  -3   13.00    5.44   1
  -4  -1  -3   20.31    4.65   3
  -4  -1  -3   12.94    4.07   4
   4   1   3   17.40    4.48   3
  -4   1  -3   15.85    4.65   3
  -4   1  -3   11.14    3.87   4
  -4   1  -3   10.95    5.55   1
  -5  -2   3   18.27    6.01   3
  -5  -2   3   15.21   12.45   1
  -5   2   3   40.83    6.42   4
   5   2  -3   37.91    6.83   3
  -5   2   3   13.64    7.66   1
  -5   2   3   36.47    8.70   3
  -4  -2   3   15.43    4.51   4
  -4  -2   3   25.26    6.62   1
  -4  -2   3   14.51    4.60   3
   4  -2  -3   14.32    4.42   3
  -4   2   3    8.54    4.10   3
  -4   2   3   16.24    4.27   4
   4   2  -3   10.43    4.76   3
  -4   2   3   16.99    6.05   1
   3  -2  -3   86.95    5.89   3
  -3  -2   3   78.29    6.17   3
  -3  -2   3   80.95    7.00   1
  -3  -2   3   76.69    5.91   4
  -3  -2   3   75.33    5.43   4
   3  -2  -3   77.82    5.36   4
  -3   2   3   83.37    5.76   4
   3   2  -3   76.41    6.35   3
  -3   2   3   72.87    5.60   3
  -3   2   3   85.73    7.30   1
  -3   2   3   71.86    5.65   3
   3   2  -3   73.56    5.83   4
  -3   2   3   76.20    5.41   4
  -2  -2   3  852.41   34.24   1
  -2  -2   3  926.03   33.79   4
   2  -2  -3  894.36   33.50   3
  -2  -2   3  891.72   33.47   4
  -2  -2   3  899.90   34.74   2
   2  -2  -3  867.44   33.21   4
  -2  -2   3  879.96   33.44   3
   2  -2  -3  839.55   33.98   1
   2  -2  -3  869.17   33.21   3
   2  -2  -3  928.34   33.46   4
  -2  -2   3  838.23   33.68   3
  -2   2   3  868.34   33.98   1
   2   2  -3  906.64   33.66   4
   2   2  -3  845.91   33.51   3
  -2   2   3  877.03   33.39   3
  -2   2   3  882.10   33.38   4
  -2   2   3  826.46   33.21   3
   2   2  -3  883.68   33.66   4
   2   2  -3  876.97   33.71   3
  -2   2   3  911.00   33.40   4
  -1  -2   3   21.06    2.13   4
   1  -2  -3   22.73    2.09   3
  -1  -2   3   18.77    2.17   4
   1  -2  -3   20.61    2.44   1
  -1  -2   3   25.26    2.84   1
   1  -2  -3   21.69    2.05   4
   1  -2  -3   17.71    2.00   3
   1  -2  -3   22.11    1.95   4
  -1  -2   3   22.41    2.28   3
  -1  -2   3   18.38    2.42   2
  -1  -2   3   17.57    2.20   3
   1   2  -3   19.75    2.21   3
  -1   2   3   21.42    1.82   4
  -1   2   3   22.88    2.37   1
   1   2  -3   20.82    2.74   1
  -1   2   3   16.81    2.40   2
   1   2  -3   20.54    2.22   4
  -1   2   3   21.01    2.13   3
   1   2  -3   20.11    2.36   3
   1   2  -3   20.70    2.24   4
  -1   2   3   21.39    2.08   4
  -1   2   3   18.32    2.00   3
   0  -2   3  557.34   20.59   4
   0  -2  -3  545.92   21.10   4
   0  -2  -3  524.71   21.03   3
   0  -2  -3  541.56   21.03   3
   0  -2   3  587.08   20.59   4
   0  -2   3  553.70   20.66   3
   0  -2  -3  558.36   21.05   4
   0  -2  -3  584.27   21.73   2
   0   2   3  556.15   21.07   3
   0   2  -3  582.82   20.75   3
   0   2   3  542.41   21.67   2
   0   2   3  560.07   21.04   3
   0   2  -3  571.87   21.30   2
   0   2  -3  581.45   20.72   4
   0   2   3  585.27   21.11   4
   0   2   3  579.73   21.15   4
   0   2  -3  597.96   20.70   4
   0   2  -3  587.22   20.72   3
  -1  -2  -3 1865.35   67.59   3
   1  -2   3 1960.02   67.98   1
  -1  -2  -3 1876.32   67.63   4
   1  -2   3 1874.67   67.12   3
   1  -2   3 1901.49   67.45   4
  -1  -2  -3 1850.87   69.06   2
  -1  -2  -3 1849.94   67.71   3
  -1  -2  -3 1830.44   67.73   4
   1  -2   3 1884.96   66.99   4
  -1  -2  -3 1643.81   68.02   1
  -1   2  -3 1906.84   67.17   4
   1   2   3 1867.73   68.07   1
   1   2   3 1778.38   67.61   4
   1   2   3 1862.53   67.60   3
   1   2   3 1791.54   67.61   3
  -1   2  -3 1863.30   67.14   3
  -1   2  -3 1795.50   67.18   4
  -1   2  -3 1776.84   67.95   1
   1   2   3 2055.18   67.77   4
  -1   2  -3 1764.27   67.18   3
   2  -2   3 1651.59   59.76   1
  -2  -2  -3 1648.92   58.96   3
   2  -2   3 1535.70   58.49   3
   2  -2   3 1542.40   58.44   4
  -2  -2  -3 1632.63   59.02   4
   2  -2   3 1512.11   58.52   3
  -2  -2  -3 1590.24   61.39   2
  -2  -2  -3 1585.53   60.21   1
   2  -2   3 1603.14   58.43   4
   2   2   3 1559.52   59.03   4
   2   2   3 1633.12   59.04   3
  -2   2  -3 1568.70   58.76   4
  -2   2  -3 1554.91   59.91   1
   2   2   3 1607.25   59.01   4
  -2   2  -3 1652.52   58.70   4
  -2   2  -3 1574.82   58.76   3
  -2   2  -3 1545.73   58.55   3
   2   2   3 1621.47   59.94   1
   2   2   3 1603.85   59.08   3
  -3  -2  -3   23.80    5.30   1
   3  -2   3   33.47    3.55   4
   3  -2   3   29.99    3.72   3
  -3  -2  -3   36.03    4.80   3
  -3  -2  -3   30.94    3.93   4
  -3  -2  -3   27.55    4.15   4
  -3   2  -3   32.02    3.78   4
  -3   2  -3   35.45    5.48   1
   3   2   3   29.15    4.11   3
  -3   2  -3   29.30    3.85   4
  -3   2  -3   36.91    4.39   3
   3   2   3   26.71    3.85   4
  -3   2  -3   30.29    3.77   3
  -4  -2  -3   12.99    4.55   3
  -4  -2  -3   13.08    4.74   4
  -4  -2  -3   14.38    5.76   1
   4   2   3   12.06    4.32   3
  -4   2  -3    9.53    4.14   4
  -4   2  -3    7.39    4.17   3
  -4   2  -3    8.25    5.31   1
  -5  -3   3   22.52    8.91   3
  -5   3   3    8.73    4.54   4
   5   3  -3    9.88    5.27   3
  -5   3   3    5.13    7.45   1
  -4  -3   3   16.36    5.11   3
  -4  -3   3    5.56    3.65   4
   4  -3  -3   12.78    4.17   3
  -4  -3   3    0.67    5.02   1
   4   3  -3   10.29    4.40   3
  -4   3   3   15.27    6.01   1
  -4   3   3   12.43    3.94   4
  -4   3   3   15.10    4.24   3
   3  -3  -3  286.96   12.68   3
  -3  -3   3  278.85   12.85   4
  -3  -3   3  263.78   14.18   1
  -3  -3   3  295.82   13.81   3
  -3  -3   3  288.54   13.40   4
   3   3  -3  285.03   13.33   3
  -3   3   3  272.98   12.66   4
   3   3  -3  288.81   13.26   4
  -3   3   3  287.38   12.85   4
  -3   3   3  272.70   12.67   3
  -3   3   3  270.95   13.81   1
   3   3  -3  267.49   13.07   4
  -3   3   3  297.35   13.04   3
   2  -3  -3  246.19   10.05   4
  -2  -3   3  245.64   11.49   1
   2  -3  -3  232.80   10.83   1
  -2  -3   3  228.78   11.64   2
  -2  -3   3  230.14   10.58   4
   2  -3  -3  220.31   10.06   4
   2  -3  -3  223.69   10.15   3
  -2  -3   3  234.20   10.71   3
  -2  -3   3  264.66   10.50   3
  -2  -3   3  241.99   10.36   4
   2  -3  -3  226.15   10.06   3
  -2   3   3  224.40   10.07   3
   2   3  -3  244.18   10.59   4
   2   3  -3  239.71   10.58   3
  -2   3   3  232.82   10.20   4
   2   3  -3  214.72   11.08   1
   2   3  -3  225.49   10.38   3
  -2   3   3  223.98   10.10   3
  -2   3   3  242.06   10.87   1
  -2   3   3  227.28   10.14   4
   1  -3  -3   86.45    4.23   4
  -1  -3   3   88.98    4.40   3
   1  -3  -3   85.17    4.20   4
   1  -3  -3   78.98    4.36   1
  -1  -3   3   89.48    4.37   4
  -1  -3   3   90.41    4.57   4
  -1  -3   3   85.16    4.78   2
  -1  -3   3   81.96    4.56   3
   1  -3  -3   93.16    4.31   3
  -1  -3   3   92.69    5.09   1
   1  -3  -3   88.35    4.25   3
   1   3  -3   88.22    4.89   2
  -1   3   3   90.04    4.33   3
  -1   3   3   90.27    4.30   4
  -1   3   3   95.73    4.49   1
   1   3  -3   79.53    4.50   4
  -1   3   3   87.77    5.30   2
  -1   3   3   87.11    4.26   4
   1   3  -3   80.38    4.40   4
   1   3  -3   90.07    4.53   3
   1   3  -3   85.32    4.87   1
  -1   3   3   93.21    4.38   3
   0  -3   3  710.66   26.48   4
   0  -3  -3  709.15   27.02   4
   0  -3   3  732.65   27.49   2
   0  -3  -3  720.74   27.87   2
   0  -3   3  737.64   26.48   3
   0  -3  -3  721.96   26.97   4
   0  -3  -3  709.17   26.95   3
   0  -3  -3  754.54   27.03   3
   0  -3   3  757.47   26.43   4
   0   3   3  727.31   26.98   3
   0   3   3  723.80   27.95   2
   0   3  -3  705.56   26.55   3
   0   3  -3  720.97   27.43   2
   0   3   3  706.78   26.93   3
   0   3   3  717.64   26.97   4
   0   3  -3  725.09   26.52   4
   0   3  -3  740.33   26.56   3
   0   3   3  748.14   27.07   4
   1  -3   3   86.34    3.27   4
   1  -3   3   88.27    3.26   4
  -1  -3  -3   89.49    4.37   4
  -1  -3  -3   83.45    4.29   3
  -1  -3  -3   85.23    4.52   4
  -1  -3  -3   87.12    4.47   3
  -1  -3  -3   89.33    5.64   2
   1  -3   3   83.05    3.45   3
  -1  -3  -3   82.76    4.90   1
   1   3   3   86.23    4.81   1
  -1   3  -3   87.71    3.69   3
  -1   3  -3   85.57    3.69   4
  -1   3  -3   90.52    4.48   1
   1   3   3   88.41    4.43   3
   1   3   3   85.54    4.38   4
   1   3   3   82.89    4.30   3
  -1   3  -3   84.98    3.66   4
  -1   3  -3   87.12    3.66   3
   1   3   3   88.29    5.99   2
   1   3   3   83.90    4.37   4
  -2  -3  -3 1122.34   40.85   4
  -2  -3  -3 1104.69   40.76   3
  -2  -3  -3 1107.33   43.63   2
  -2  -3  -3 1030.72   41.87   1
  -2  -3  -3 1047.06   41.10   4
   2  -3   3 1048.41   40.17   3
   2  -3   3 1152.29   41.46   1
   2  -3   3 1114.11   39.96   4
   2  -3   3 1079.02   40.06   3
  -2  -3  -3 1054.57   41.02   3
   2   3   3 1052.98   40.85   4
  -2   3  -3 1102.17   40.27   3
  -2   3  -3 1108.59   40.39   3
  -2   3  -3 1082.93   40.40   4
  -2   3  -3 1056.18   41.59   1
   2   3   3 1035.07   40.84   3
  -2   3  -3 1130.31   40.37   4
   2   3   3 1060.36   40.82   4
   2   3   3 1075.66   41.64   1
  -3  -3  -3  106.28    8.05   1
   3  -3   3   93.35    5.42   4
  -3  -3  -3   98.98    7.10   3
  -3  -3  -3  110.69    7.04   4
  -3  -3  -3  102.42    6.23   4
   3  -3   3   89.03    5.80   3
   3   3   3  103.14    6.74   3
   3   3   3   94.37    6.35   4
  -3   3  -3   92.23    5.87   3
  -3   3  -3   98.95    6.14   4
  -3   3  -3  101.28    6.41   3
  -3   3  -3   94.51    5.89   4
  -3   3  -3  116.35    8.16   1
  -4  -3  -3   -3.17    3.31   4
  -4  -3  -3   -3.88    3.61   3
  -4  -3  -3    2.55    5.03   1
  -4   3  -3    0.68    3.47   3
  -4   3  -3    1.16    3.50   4
  -4   3  -3   -2.83    4.51   1
   4   3   3    2.05    4.12   3
   4  -4  -3   13.02    4.02   3
  -4  -4   3    8.24    4.19   4
  -4  -4   3    4.50    5.27   1
  -4  -4   3   14.27    4.89   3
  -4   4   3   15.93    4.19   3
   4   4  -3   17.18    5.47   3
  -4   4   3   13.20    3.94   4
  -4   4   3    6.71    5.23   1
  -3  -4   3   92.35    6.89   4
  -3  -4   3   97.16    8.00   1
  -3  -4   3  115.94    7.87   3
  -3  -4   3  102.83    6.48   4
   3  -4  -3  100.11    6.13   3
  -3   4   3  101.06    6.35   4
   3   4  -3   96.98    6.61   4
  -3   4   3  106.21    7.92   1
  -3   4   3   87.85    6.06   3
   3   4  -3  110.66    7.19   4
  -3   4   3  111.82    6.82   3
  -3   4   3  112.74    6.60   4
   3   4  -3  118.88    7.82   3
  -2  -4   3   72.91    5.70   2
  -2  -4   3   68.32    4.61   4
   2  -4  -3   71.03    4.44   4
  -2  -4   3   74.84    5.66   1
  -2  -4   3   68.41    4.77   4
   2  -4  -3   84.10    4.66   3
   2  -4  -3   74.35    5.07   1
  -2  -4   3   71.47    5.15   3
   2   4  -3   64.99    5.52   1
   2   4  -3   74.30    5.08   4
  -2   4   3   78.00    4.49   3
  -2   4   3   63.82    4.33   4
  -2   4   3   92.25    5.43   1
   2   4  -3   74.30    5.09   3
  -2   4   3   75.72    4.53   4
  -2   4   3   77.65    4.67   3
  -2   4   3   74.30    6.18   2
   2   4  -3   79.63    4.99   4
   2   4  -3   73.73    4.85   3
   1  -4  -3  354.40   14.78   3
  -1  -4   3  371.99   15.20   3
   1  -4  -3  386.52   14.82   3
  -1  -4   3  382.00   15.68   2
  -1  -4   3  390.96   14.94   4
   1  -4  -3  358.55   14.81   4
  -1  -4   3  424.53   15.59   1
  -1  -4   3  412.40   15.05   3
   1  -4  -3  377.67   14.80   1
  -1   4   3  385.10   14.88   4
   1   4  -3  355.58   15.03   3
  -1   4   3  386.54   14.86   3
   1   4  -3  369.99   15.04   3
  -1   4   3  365.07   16.15   2
   1   4  -3  389.31   15.08   4
  -1   4   3  420.39   14.79   1
   1   4  -3  368.02   15.39   1
   1   4  -3  392.68   15.21   4
  -1   4   3  357.73   14.82   4
   1   4  -3  385.74   15.82   2
  -1   4   3  377.48   14.83   3
   0  -4   3 1423.85   52.76   2
   0  -4  -3 1359.17   51.89   3
   0  -4  -3 1353.20   51.91   4
   0  -4  -3 1407.34   52.03   4
   0  -4  -3 1390.28   51.44   1
   0  -4  -3 1438.31   51.97   3
   0  -4  -3 1392.74   53.13   2
   0  -4   3 1445.53   51.40   4
   0  -4   3 1430.35   51.49   4
   0  -4   3 1430.37   51.42   3
   0   4   3 1415.86   53.25   2
   0   4   3 1447.59   52.04   4
   0   4  -3 1407.79   51.48   4
   0   4  -3 1474.71   51.50   3
   0   4   3 1449.93   51.98   4
   0   4  -3 1404.23   52.72   2
   0   4  -3 1397.78   51.55   4
   0   4   3 1440.48   51.94   3
   0   4  -3 1371.69   51.48   3
   0   4   3 1418.61   51.96   3
   1  -4   3  179.61    6.70   3
   1  -4   3  169.77    6.80   3
  -1  -4  -3  175.73    8.14   1
  -1  -4  -3  175.88    9.10   2
  -1  -4  -3  169.95    7.62   3
  -1  -4  -3  179.59    7.91   4
  -1  -4  -3  180.99    7.95   3
  -1  -4  -3  176.27    7.66   4
   1   4   3  182.03    7.75   4
   1   4   3  174.11    7.66   3
  -1   4  -3  176.28    7.74   1
  -1   4  -3  180.30    6.88   4
   1   4   3  170.42    9.36   2
  -1   4  -3  176.70    6.88   4
  -1   4  -3  171.93    6.87   3
  -1   4  -3  176.41    6.81   3
   1   4   3  173.45    7.81   3
   1   4   3  186.41    8.05   1
   1   4   3  177.64    7.77   4
  -2  -4  -3   62.47    5.49   1
   2  -4   3   66.41    4.67   1
   2  -4   3   59.09    3.33   3
  -2  -4  -3   60.13    4.13   4
  -2  -4  -3   50.95    4.34   3
  -2  -4  -3   57.58    4.48   4
   2  -4   3   59.35    3.09   4
  -2  -4  -3   58.97    4.15   3
   2   4   3   57.64    4.29   4
  -2   4  -3   61.25    4.75   1
   2   4   3   65.36    5.28   1
  -2   4  -3   56.02    3.64   3
  -2   4  -3   57.68    3.77   4
  -2   4  -3   55.57    3.65   4
   2   4   3   62.61    4.79   3
   2   4   3   65.51    4.30   4
  -2   4  -3   63.56    3.77   3
  -3  -4  -3  277.90   12.87   4
  -3  -4  -3  272.73   14.61   1
   3  -4   3  278.96   11.77   4
   3  -4   3  276.09   12.04   3
  -3  -4  -3  288.41   14.04   3
  -3  -4  -3  287.41   13.61   4
  -3   4  -3  293.45   14.44   1
  -3   4  -3  296.20   12.62   3
  -3   4  -3  287.28   12.74   4
  -3   4  -3  287.42   12.58   4
   3   4   3  261.42   13.15   3
  -3   4  -3  300.23   12.48   3
   3   4   3  273.11   13.14   4
  -4  -4  -3    1.53    5.27   1
  -4  -4  -3   -2.35    3.89   3
  -4  -4  -3    9.39    4.15   4
   4   4   3   -1.03    4.19   3
  -4   4  -3    3.49    3.51   3
  -4   4  -3    3.64    3.25   4
  -4   4  -3   -1.58    4.58   1
  -4  -5   3    0.37    4.89   1
  -4  -5   3   -6.58    3.57   3
  -4  -5   3   -0.37    3.75   4
  -4   5   3    0.26    3.18   4
   4   5  -3    2.00    4.33   3
  -4   5   3   -1.94    4.91   1
  -4   5   3   -3.56    3.40   3
   3  -5  -3   60.05    4.71   4
  -3  -5   3   61.02    5.75   4
  -3  -5   3   66.94    6.65   3
   3  -5  -3   58.93    4.96   3
  -3  -5   3   71.72    7.75   1
  -3   5   3   56.99    4.99   3
   3   5  -3   54.79    5.15   4
   3   5  -3   77.37    6.99   3
  -3   5   3   71.00    5.44   3
   3   5  -3   67.87    5.97   4
  -3   5   3   60.58    5.08   4
  -3   5   3   63.48    4.99   4
  -3   5   3   60.94    6.37   1
  -2  -5   3    6.84    2.72   3
   2  -5  -3    7.25    2.18   3
  -2  -5   3    3.97    2.12   4
  -2  -5   3    5.56    2.97   2
  -2  -5   3    5.41    2.46   4
   2  -5  -3    2.76    2.14   1
  -2  -5   3    8.43    3.29   1
   2  -5  -3    6.71    1.78   4
  -2   5   3    7.83    1.96   3
  -2   5   3    6.54    1.85   4
   2   5  -3    5.35    2.68   4
   2   5  -3    5.05    2.58   3
  -2   5   3   11.15    2.30   3
  -2   5   3    5.22    2.41   1
  -2   5   3    8.08    2.02   4
  -2   5   3    7.25    3.29   2
   2   5  -3    6.86    2.35   4
   2   5  -3    5.99    2.26   3
   1  -5  -3  383.09   14.82   4
   1  -5  -3  380.03   14.74   3
   1  -5  -3  374.59   16.55   2
   1  -5  -3  376.51   14.82   3
  -1  -5   3  398.27   15.36   3
  -1  -5   3  380.90   14.89   3
  -1  -5   3  365.47   15.82   2
  -1  -5   3  372.37   14.80   4
   1  -5  -3  366.17   14.49   1
   1   5  -3  375.54   15.14   4
   1   5  -3  374.18   15.01   4
  -1   5   3  372.60   14.84   4
  -1   5   3  381.56   16.58   2
   1   5  -3  414.98   16.27   2
  -1   5   3  378.54   14.84   4
   1   5  -3  351.47   14.94   3
   1   5  -3  368.02   15.38   1
  -1   5   3  381.39   14.82   3
  -1   5   3  379.90   14.78   3
   1   5  -3  369.02   14.98   3
   0  -5   3  422.71   15.58   3
   0  -5   3  401.76   15.70   3
   0  -5  -3  401.63   15.42   1
   0  -5  -3  420.10   16.13   3
   0  -5   3  429.15   15.69   4
   0  -5   3  415.62   17.18   2
   0  -5  -3  416.16   16.14   3
   0  -5  -3  405.37   16.10   4
   0  -5  -3  426.57   17.71   2
   0  -5  -3  419.01   16.20   4
   0  -5   3  416.35   15.55   4
   0   5  -3  409.14   15.70   4
   0   5   3  413.37   16.14   3
   0   5   3  414.43   16.08   3
   0   5   3  410.56   16.12   4
   0   5  -3  429.33   15.68   4
   0   5  -3  420.85   15.62   3
   0   5   3  415.42   16.19   4
   0   5  -3  405.79   17.14   2
   0   5  -3  400.10   15.64   3
   0   5   3  426.68   17.81   2
   1  -5   3   20.75    1.34   3
  -1  -5  -3   25.71    2.55   3
  -1  -5  -3   22.73    2.71   4
   1  -5   3   18.50    1.45   3
  -1  -5  -3   25.43    3.04   1
  -1  -5  -3   20.79    2.64   3
  -1  -5  -3   24.80    2.46   4
  -1   5  -3   20.77    1.52   4
  -1   5  -3   20.72    3.57   2
   1   5   3   22.09    2.67   4
   1   5   3   23.17    2.52   3
  -1   5  -3   20.85    2.44   1
   1   5   3   24.03    2.71   3
   1   5   3   20.51    2.62   1
   1   5   3   22.89    2.52   4
  -1   5  -3   18.63    1.58   3
  -1   5  -3   20.54    1.50   3
  -1   5  -3   21.22    1.57   4
   2  -5   3   89.29    5.25   1
   2  -5   3   79.06    3.65   4
  -2  -5  -3   75.22    5.58   3
   2  -5   3   72.93    4.13   3
  -2  -5  -3   77.73    5.36   4
   2  -5   3   82.06    3.90   3
  -2  -5  -3   74.24    4.87   4
  -2  -5  -3   74.93    5.84   1
   2   5   3   88.53    5.03   4
  -2   5  -3   82.63    4.25   3
  -2   5  -3   82.51    4.37   4
  -2   5  -3   78.49    4.31   3
  -2   5  -3   70.96    4.19   4
   2   5   3   86.99    5.42   3
  -2   5  -3   89.11    5.53   1
   2   5   3   81.54    5.20   4
   3  -5   3   44.22    3.81   3
  -3  -5  -3   53.65    6.08   3
   3  -5   3   45.59    3.34   4
  -3  -5  -3   45.40    4.84   4
  -3  -5  -3   47.29    5.55   4
  -3  -5  -3   45.29    6.41   1
  -3   5  -3   50.65    4.42   4
  -3   5  -3   47.65    4.44   4
   3   5   3   51.81    5.74   3
  -3   5  -3   47.80    4.30   3
   3   5   3   52.43    5.48   4
  -3   5  -3   49.92    5.94   1
  -3   5  -3   50.06    4.63   3
  -4  -5  -3   27.93    6.14   3
  -4  -5  -3   20.45    4.89   4
  -4  -5  -3   15.05    6.21   1
  -4   5  -3   13.71    5.64   1
  -4   5  -3   18.30    4.20   3
  -4   5  -3   12.44    4.04   4
   4   5   3   19.40    4.99   3
  -4  -6   3    3.77    4.31   3
  -4  -6   3   -0.58    5.57   1
  -4   6   3    5.15    5.77   2
   4   6  -3    4.35    4.55   3
  -4   6   3    3.15    3.48   4
  -4   6   3    3.32    5.29   1
  -4   6   3   -2.41    3.36   3
  -3  -6   3  299.75   14.85   1
   3  -6  -3  296.31   12.60   3
  -3  -6   3  273.48   13.71   4
  -3  -6   3  283.15   14.35   3
  -3   6   3  258.41   12.69   3
  -3   6   3  297.53   16.45   2
  -3   6   3  307.80   12.97   3
   3   6  -3  268.04   13.38   4
  -3   6   3  283.27   12.83   4
  -3   6   3  286.11   13.86   1
   3   6  -3  278.70   13.68   4
   3   6  -3  271.77   13.73   3
  -3   6   3  269.32   12.78   4
  -2  -6   3   10.23    3.47   2
  -2  -6   3    4.19    2.35   4
   2  -6  -3   10.72    2.30   3
  -2  -6   3    8.33    3.22   3
   2  -6  -3    6.25    1.96   4
   2  -6  -3    3.96    2.28   1
  -2  -6   3    7.85    3.50   1
   2   6  -3   10.72    2.67   4
  -2   6   3   11.43    2.29   4
   2   6  -3   14.88    3.79   2
  -2   6   3    6.93    2.13   3
  -2   6   3    5.88    2.57   1
   2   6  -3    5.52    2.37   3
  -2   6   3    9.49    3.81   2
  -2   6   3   14.48    2.57   3
   2   6  -3    4.37    2.66   3
  -2   6   3    7.34    1.94   4
   2   6  -3   12.97    2.97   4
   1  -6  -3  899.09   33.44   3
   1  -6  -3  898.24   33.43   4
   1  -6  -3  890.72   32.76   1
  -1  -6   3  921.02   33.46   3
  -1  -6   3  911.34   33.43   4
  -1  -6   3  870.15   34.79   2
   1  -6  -3  879.95   33.31   3
   1  -6  -3  927.37   35.78   2
   1   6  -3  852.92   33.57   4
   1   6  -3  829.43   33.60   4
  -1   6   3  912.72   33.52   4
  -1   6   3  930.82   33.53   4
  -1   6   3  856.77   33.37   3
   1   6  -3  867.38   33.62   3
  -1   6   3  875.77   35.42   2
   1   6  -3  914.60   35.12   2
   1   6  -3  883.96   33.95   1
  -1   6   3  881.62   33.43   3
   1   6  -3  910.86   33.61   3
   0  -6   3  510.33   19.23   4
   0  -6  -3  532.40   19.87   3
   0  -6  -3  518.27   19.83   3
   0  -6  -3  541.63   19.95   4
   0  -6   3  514.70   19.26   3
   0  -6  -3  485.63   19.78   4
   0  -6  -3  494.59   18.80   1
   0  -6   3  477.33   19.38   3
   0  -6   3  516.97   21.21   2
   0  -6  -3  520.15   21.68   2
   0   6   3  543.06   22.05   2
   0   6  -3  511.43   19.39   4
   0   6   3  511.43   19.78   3
   0   6  -3  500.46   19.27   3
   0   6  -3  502.54   19.35   4
   0   6   3  514.04   19.83   4
   0   6  -3  519.86   19.38   3
   0   6   3  527.95   19.94   4
   0   6  -3  506.50   21.19   2
   0   6   3  524.96   19.88   3
   1  -6   3   46.47    1.95   4
   1  -6   3   44.59    2.39   3
  -1  -6  -3   52.13    3.78   4
  -1  -6  -3   47.50    3.37   4
   1  -6   3   48.53    1.95   4
  -1  -6  -3   45.24    3.70   1
  -1  -6  -3   46.19    3.33   3
  -1  -6  -3   42.04    3.57   3
  -1  -6  -3   59.88    5.28   2
   1   6   3   52.19    3.65   3
  -1   6  -3   49.01    2.55   4
  -1   6  -3   49.65    2.58   3
   1   6   3   49.57    3.42   3
   1   6   3   44.69    3.50   1
   1   6   3   45.49    3.27   4
  -1   6  -3   45.61    3.26   1
  -1   6  -3   48.73    5.01   2
  -1   6  -3   48.14    2.61   4
  -1   6  -3   47.17    2.52   3
   1   6   3   48.34    3.63   4
   2  -6   3  230.22    8.76   4
  -2  -6  -3  215.49   10.74   3
  -2  -6  -3  226.83   10.88   4
  -2  -6  -3  240.01   10.48   4
  -2  -6  -3  223.59   11.42   1
   2  -6   3  229.58    9.35   3
   2   6   3  226.36   10.66   3
  -2   6  -3  227.03    9.31   3
   2   6   3  223.30   10.58   4
   2   6   3  215.81   13.28   2
  -2   6  -3  221.18    9.48   3
   2   6   3  243.31   10.60   4
  -2   6  -3  226.42    9.46   4
  -2   6  -3  217.54   10.60   1
  -2   6  -3  227.27    9.54   4
  -3  -6  -3    0.63    2.41   4
  -3  -6  -3    1.30    4.25   1
  -3  -6  -3    4.99    3.20   4
  -3  -6  -3   -2.15    3.32   3
  -3   6  -3    3.71    2.36   4
  -3   6  -3    4.89    2.38   3
   3   6   3    1.80    2.86   4
  -3   6  -3   -0.80    2.32   4
  -3   6  -3    4.95    2.43   3
   3   6   3    1.43    3.19   3
  -3   6  -3    4.44    3.43   1
  -4  -6  -3  272.98   15.21   3
  -4  -6  -3  247.37   14.14   4
  -4  -6  -3  248.88   15.70   1
   4   6   3  252.68   14.42   3
  -4   6  -3  276.96   12.67   3
  -4   6  -3  263.97   12.86   4
  -4   6  -3  279.12   15.54   1
  -4  -7   3   -2.68    4.40   3
  -4  -7   3   -2.92    5.68   1
   4   7  -3    6.46    4.96   3
  -4   7   3    3.11    4.91   1
  -4   7   3    3.27    3.20   4
  -4   7   3   -1.46    3.37   3
  -4   7   3   -4.48    4.98   2
  -3  -7   3   38.39    6.56   1
  -3  -7   3   49.27    5.67   4
  -3  -7   3   46.34    6.20   3
   3  -7  -3   44.88    4.41   3
   3   7  -3   48.35    6.14   3
  -3   7   3   50.06    4.96   4
  -3   7   3   40.32    5.38   4
  -3   7   3   45.38    7.61   2
   3   7  -3   41.60    5.58   4
   3   7  -3   43.24    5.22   4
  -3   7   3   43.19    5.53   1
  -3   7   3   39.18    4.62   3
  -3   7   3   41.27    4.53   3
   2  -7  -3  132.80    6.54   3
   2  -7  -3  130.14    6.39   4
  -2  -7   3  118.29    7.26   4
   2  -7  -3  116.76    6.54   1
  -2  -7   3  144.61    8.18   1
  -2  -7   3  124.86    7.63   3
  -2   7   3  121.33    6.60   4
  -2   7   3  143.63    6.85   1
  -2   7   3  119.19    6.55   3
   2   7  -3  131.70    9.15   2
   2   7  -3  131.74    7.46   4
  -2   7   3  129.30    6.81   4
  -2   7   3  125.97    6.75   3
   2   7  -3  124.64    7.20   4
  -2   7   3  136.96    9.67   2
   2   7  -3  122.03    7.38   3
  -1  -7   3   35.65    3.38   4
   1  -7  -3   38.25    3.16   3
  -1  -7   3   34.93    4.07   2
   1  -7  -3   29.02    2.77   4
  -1   7   3   37.03    2.82   3
  -1   7   3   36.22    3.01   4
   1   7  -3   34.59    3.07   3
   1   7  -3   34.55    3.09   4
   1   7  -3   44.91    5.43   2
   1   7  -3   37.09    3.84   1
  -1   7   3   33.28    2.92   3
   1   7  -3   37.02    3.13   4
  -1   7   3   35.36    5.01   2
   1   7  -3   39.16    3.27   3
  -1   7   3   31.35    3.04   4
   0  -7   3   56.11    3.00   3
   0  -7   3   52.62    3.20   3
   0  -7  -3   42.32    3.27   4
   0  -7   3   50.12    4.53   2
   0  -7  -3   54.30    3.45   4
   0  -7  -3   54.10    4.80   2
   0  -7   3   53.32    2.82   4
   0  -7  -3   52.57    3.53   3
   0  -7  -3   57.77    3.60   3
   0   7  -3   52.81    3.00   3
   0   7   3   58.73    3.73   3
   0   7   3   53.04    5.67   2
   0   7  -3   50.98    3.19   3
   0   7  -3   49.88    3.05   4
   0   7   3   50.03    3.49   4
   0   7  -3   41.65    3.09   1
   0   7  -3   54.77    3.09   4
   0   7   3   49.77    3.31   3
   0   7  -3   56.55    4.96   2
   0   7   3   55.95    3.49   4
   1  -7   3   42.28    1.99   4
  -1  -7  -3   37.90    3.27   4
  -1  -7  -3   46.05    3.74   4
  -1  -7  -3   42.04    4.01   3
   1  -7   3   41.62    2.29   3
  -1  -7  -3   46.19    3.70   1
  -1   7  -3   41.02    2.56   3
   1   7   3   47.03    4.25   4
   1   7   3   38.46    5.69   2
  -1   7  -3   44.22    5.24   2
  -1   7  -3   43.27    2.59   3
  -1   7  -3   40.74    2.60   4
  -1   7  -3   40.94    3.08   1
   1   7   3   43.67    3.35   1
   1   7   3   40.52    3.45   4
   1   7   3   38.03    3.53   3
  -1   7  -3   42.07    2.66   4
   1   7   3   45.64    3.59   3
  -2  -7  -3  170.83    9.13   3
  -2  -7  -3  165.93    9.48   1
   2  -7   3  167.33    7.35   3
  -2  -7  -3  173.37    9.06   4
  -2  -7  -3  178.36    8.59   4
  -2   7  -3  150.78    8.48   1
  -2   7  -3  167.04    7.59   3
   2   7   3  172.21    8.68   4
  -2   7  -3  182.02    7.74   4
  -2   7  -3  182.42   11.53   2
   2   7   3  179.04    8.96   4
  -2   7  -3  174.31    7.55   4
  -2   7  -3  180.77    7.43   3
   2   7   3  157.50   11.55   2
   2   7   3  165.26    8.89   3
  -3  -7  -3   56.53    6.40   4
  -3  -7  -3   58.52    7.47   1
   3   7   3   62.99    6.39   4
   3   7   3   65.06    6.68   3
  -3   7  -3   52.95    4.41   4
  -3   7  -3   50.43    4.29   3
  -3   7  -3   49.45    4.49   4
  -3   7  -3   52.32    6.28   1
  -4  -7  -3   15.36    6.68   1
  -4  -7  -3    5.82    4.98   3
  -4   7  -3    7.56    3.43   4
  -4   7  -3    6.92    3.29   3
   4   7   3    7.83    5.20   3
  -4   7  -3   14.99    5.51   1
  -4  -8   3   -0.44    4.47   3
  -4  -8   3    1.60    5.21   1
  -4   8   3    2.12    5.23   1
  -4   8   3    5.50    3.78   4
  -4   8   3    0.85    3.45   3
   4   8  -3    0.22    4.77   3
  -4   8   3    4.72    5.99   2
  -3  -8   3    0.06    3.32   3
  -3  -8   3    1.16    4.36   1
   3  -8  -3   -1.42    3.57   3
  -3   8   3    0.55    3.39   1
   3   8  -3    0.38    3.33   4
  -3   8   3    0.79    4.79   2
   3   8  -3   -7.20    3.71   3
  -3   8   3    2.06    2.93   4
  -3   8   3    0.94    2.59   3
  -2  -8   3  306.96   14.22   3
   2  -8  -3  298.97   12.47   1
   2  -8  -3  280.92   12.51   4
  -2  -8   3  336.13   14.38   1
   2  -8  -3  291.71   12.68   3
  -2  -8   3  301.63   13.78   4
  -2   8   3  301.56   13.04   4
   2   8  -3  284.37   13.58   4
   2   8  -3  297.58   13.71   3
  -2   8   3  319.11   12.66   1
  -2   8   3  283.68   12.96   3
  -2   8   3  313.14   13.22   4
  -2   8   3  302.89   12.90   3
   2   8  -3  317.39   16.24   2
   2   8  -3  282.77   13.43   4
  -2   8   3  303.32   16.29   2
   1  -8  -3   17.55    2.28   4
  -1  -8   3   18.08    2.66   4
   1  -8  -3   15.89    2.48   3
  -1   8   3   19.80    4.44   2
  -1   8   3   14.77    2.32   4
   1   8  -3   15.04    4.08   2
  -1   8   3   14.18    2.28   4
   1   8  -3   16.53    2.72   4
   1   8  -3    9.88    2.77   1
  -1   8   3   13.38    2.21   3
   1   8  -3   18.30    2.81   3
   1   8  -3   15.05    2.47   4
  -1   8   3   15.08    2.31   3
   1   8  -3   17.53    2.46   3
   0  -8   3   87.75    4.64   3
   0  -8  -3   87.01    5.12   3
   0  -8   3   92.20    4.40   3
   0   8  -3   88.29    4.54   4
   0   8   3   84.84    7.25   2
   0   8   3   83.62    4.90   4
   0   8  -3   81.91    4.47   4
   0   8  -3   87.30    6.76   2
   0   8   3   93.66    5.03   4
   0   8  -3   93.93    4.66   3
   0   8  -3   82.21    4.42   1
   0   8   3   86.18    4.86   3
   0   8   3   80.97    4.98   3
   0   8  -3   87.80    4.34   3
   1  -8   3  280.72   10.94   3
  -1  -8  -3  280.54   12.52   3
  -1  -8  -3  301.46   12.67   4
  -1  -8  -3  278.16   11.95   1
   1  -8   3  280.09   10.63   4
  -1   8  -3  272.63   11.21   4
   1   8   3  276.16   14.98   2
   1   8   3  287.21   12.42   3
  -1   8  -3  264.27   11.21   4
   1   8   3  287.89   12.09   3
  -1   8  -3  277.58   14.32   2
   1   8   3  289.17   12.26   4
  -1   8  -3  276.13   11.48   1
   1   8   3  295.64   11.74   1
   1   8   3  278.48   12.31   4
  -1   8  -3  270.12   11.12   3
  -1   8  -3  284.14   11.12   3
   2  -8   3    8.82    1.36   3
  -2  -8  -3   14.79    3.82   1
  -2  -8  -3   15.72    3.35   4
  -2  -8  -3   16.03    3.65   3
   2   8   3   15.94    3.07   4
  -2   8  -3   14.76    2.08   3
  -2   8  -3    7.72    2.69   1
  -2   8  -3    7.48    4.56   2
  -2   8  -3   12.85    2.20   4
   2   8   3   19.89    5.78   2
   2   8   3   13.75    3.51   3
  -2   8  -3   15.98    2.15   4
  -2   8  -3   12.97    2.24   3
   2   8   3   17.36    3.58   4
  -3  -8  -3   11.70    5.03   1
  -3  -8  -3    6.05    3.64   4
  -3   8  -3    9.84    2.63   4
  -3   8  -3   -0.91    5.13   2
   3   8   3    2.30    3.81   3
  -3   8  -3    7.31    2.37   3
   3   8   3    7.25    3.37   4
  -3   8  -3    3.29    3.26   1
  -3   8  -3    6.77    2.66   4
  -4  -8  -3    5.92    4.52   3
  -4  -8  -3   -3.51    5.07   1
  -4   8  -3   -2.14    3.04   4
  -4   8  -3   -0.60    6.33   2
  -4   8  -3    0.81    2.82   3
   4   8   3    9.64    5.34   3
  -4   8  -3   12.30    5.15   1
  -4  -9   3    4.83    4.65   3
  -4  -9   3   -5.01    5.34   1
  -4   9   3    3.96    3.58   4
   4   9  -3    5.39    4.98   3
  -4   9   3    0.48    5.93   2
  -4   9   3    3.84    3.56   3
  -3  -9   3   24.63    5.18   3
  -3  -9   3   41.57    6.76   1
   3   9  -3   51.42    6.67   3
  -3   9   3   37.03    4.43   3
  -3   9   3   46.49    8.51   2
   3   9  -3   35.38    5.57   4
  -3   9   3   37.52    4.63   4
  -3   9   3   42.22    5.24   1
  -2  -9   3    0.01    2.33   4
  -2  -9   3   -1.81    2.63   3
   2  -9  -3    3.56    2.15   3
  -2   9   3    0.51    3.96   2
   2   9  -3    0.46    2.32   4
  -2   9   3    5.45    2.19   4
   2   9  -3    1.10    3.08   4
   2   9  -3    5.27    4.02   2
   2   9  -3    2.10    2.91   3
  -2   9   3   -1.15    2.05   3
  -2   9   3   -0.68    2.11   3
  -2   9   3    1.33    1.81   4
  -1  -9   3  275.90   11.62   4
   1  -9  -3  271.74   11.14   3
   1  -9  -3  261.53   11.03   4
   1   9  -3  238.20   11.33   1
   1   9  -3  285.75   11.55   4
  -1   9   3  259.19   14.28   2
   1   9  -3  262.01   11.42   4
   1   9  -3  250.93   14.07   2
  -1   9   3  252.34   11.21   4
  -1   9   3  228.43   11.08   4
   1   9  -3  252.38   11.10   3
  -1   9   3  233.53   11.02   3
   1   9  -3  253.93   11.48   3
  -1   9   3  252.97   11.12   3
   0  -9  -3   88.14    5.30   3
   0  -9   3   82.77    4.71   3
   0   9   3   80.27    7.73   2
   0   9  -3   84.89    4.43   3
   0   9  -3   92.19    7.64   2
   0   9  -3   79.36    4.56   4
   0   9  -3   82.57    4.51   4
   0   9   3   84.95    5.06   4
   0   9   3   80.87    4.76   3
   0   9  -3   82.58    4.46   1
   0   9   3   75.03    4.76   4
   0   9  -3   87.17    4.79   3
   0   9   3   80.69    4.98   3
  -1  -9  -3  208.61   10.22   4
   1  -9   3  215.32    8.88   3
  -1  -9  -3  209.35   10.27   3
  -1  -9  -3  224.03    9.57   1
  -1   9  -3  198.36    9.02   4
  -1   9  -3  204.58    8.90   3
  -1   9  -3  229.14    9.00   3
   1   9   3  218.64   10.24   4
   1   9   3  213.76   13.18   2
   1   9   3  218.50   10.02   4
  -1   9  -3  205.15    9.04   1
  -1   9  -3  211.36    9.02   4
  -1   9  -3  211.19   12.40   2
   1   9   3  213.05   10.15   3
   1   9   3  229.59    9.33   1
  -2  -9  -3  150.20    8.81   1
  -2  -9  -3  141.94    8.75   3
  -2  -9  -3  138.26    8.49   4
   2   9   3  172.07   12.82   2
  -2   9  -3  159.74    7.05   4
   2   9   3  142.13    8.62   3
  -2   9  -3  136.89    7.73   1
   2   9   3  140.14    8.49   4
  -2   9  -3  142.38    6.95   3
   2   9   3  147.01    8.20   4
  -2   9  -3  156.48   11.48   2
  -2   9  -3  145.46    6.78   3
  -2   9  -3  161.10    7.24   4
  -3  -9  -3    6.33    4.43   1
   3   9   3   13.87    4.96   3
  -3   9  -3    6.65    2.43   3
  -3   9  -3    8.55    6.05   2
   3   9   3    2.27    3.45   4
  -3   9  -3    4.11    2.51   4
  -3   9  -3    4.70    3.34   1
  -4  -9  -3   29.69    7.32   1
  -4  -9  -3   45.51    7.63   3
   4   9   3   26.99    6.23   3
  -4   9  -3   34.63    6.44   1
  -4   9  -3   33.66    4.49   4
  -4   9  -3   30.47    4.00   3
  -4   9  -3   29.77    8.70   2
  -3 -10   3    4.76    4.86   1
  -3 -10   3   10.34    4.38   3
  -3  10   3   17.11    6.53   2
   3  10  -3   11.97    4.74   3
  -3  10   3    9.77    3.38   4
   3  10  -3   19.34    4.93   4
  -3  10   3   10.63    3.27   3
  -2 -10   3   94.92    7.21   3
   2 -10  -3   91.28    5.51   3
  -2  10   3   78.65    5.54   4
   2  10  -3   89.04    6.60   4
   2  10  -3  108.07    9.95   2
  -2  10   3   87.97    5.71   3
  -2  10   3   92.16    5.99   4
   2  10  -3   78.99    6.91   3
  -2  10   3   92.81    9.49   2
   1 -10  -3  103.81    5.62   4
  -1 -10   3  108.69    6.18   4
   1 -10  -3  103.97    5.75   3
   1  10  -3   93.75    9.24   2
   1  10  -3   94.18    6.39   3
   1  10  -3   98.44    6.11   1
  -1  10   3  109.49    6.05   3
  -1  10   3  109.98    9.44   2
  -1  10   3  100.94    5.98   4
   1  10  -3  102.18    6.22   4
   1  10  -3  109.06    5.93   3
  -1  10   3  108.26    6.05   4
  -1  10   3   98.15    5.84   3
   1  10  -3  101.78    6.10   4
   0 -10  -3   10.46    2.32   4
   0 -10   3   18.16    2.72   3
   0 -10  -3   22.18    3.35   3
   0  10   3   17.05    5.30   2
   0  10  -3   18.37    2.78   3
   0  10  -3   17.94    2.42   4
   0  10   3   17.78    2.74   4
   0  10  -3   17.06    2.59   4
   0  10  -3   15.85    2.29   1
   0  10   3   17.84    3.14   4
   0  10   3   11.61    2.43   3
   0  10  -3   19.96    2.43   3
   0  10   3   22.13    3.16   3
   0  10  -3   23.14    4.95   2
  -1 -10  -3  195.90    9.83   4
  -1 -10  -3  189.64    9.87   3
  -1 -10  -3  205.68    8.80   1
  -1  10  -3  186.64    8.60   4
   1  10   3  199.88   13.34   2
   1  10   3  201.87    9.67   4
   1  10   3  198.51    9.79   4
  -1  10  -3  203.24   12.51   2
  -1  10  -3  194.19    8.52   3
   1  10   3  205.62    8.58   1
  -1  10  -3  182.92    8.29   1
  -1  10  -3  186.67    8.53   4
   1  10   3  200.51    9.79   3
  -2 -10  -3   10.22    3.61   1
  -2 -10  -3    8.93    3.89   3
  -2  10  -3    6.80    2.04   3
   2  10   3    5.68    3.25   4
  -2  10  -3    7.16    5.07   2
  -2  10  -3    4.21    2.09   4
  -2  10  -3    2.39    2.45   1
  -2  10  -3    4.60    2.04   4
   2  10   3    7.02    3.62   3
   2  10   3   15.12    6.66   2
  -3 -10  -3    5.85    4.95   1
  -3  10  -3    3.70    5.75   2
  -3  10  -3    9.03    2.53   3
  -3  10  -3    6.14    3.38   1
  -3  10  -3    7.07    2.68   4
   3  10   3    5.36    4.40   3
  -3 -11   3    6.12    4.42   3
   3  11  -3    5.70    4.98   3
  -3  11   3    4.68    5.82   2
  -3  11   3    7.34    3.38   3
  -3  11   3    7.33    3.42   4
   3  11  -3    3.47    4.53   4
  -2 -11   3  171.08   10.01   3
  -2  11   3  155.76    8.34   3
   2  11  -3  169.51    9.75   4
   2  11  -3  160.78    9.83   3
  -2  11   3  163.96   12.85   2
   2  11  -3  157.21   12.86   2
  -2  11   3  147.65    8.54   4
   1 -11  -3   -0.11    2.17   3
  -1  11   3    2.95    2.28   3
   1  11  -3    0.16    2.42   4
   1  11  -3    0.77    2.13   1
   1  11  -3   -0.21    1.89   3
  -1  11   3   -1.21    1.70   4
   1  11  -3   -0.38    1.82   4
  -1  11   3   -2.46    1.72   4
  -1  11   3    4.24    4.64   2
   1  11  -3    1.00    4.21   2
   1  11  -3    0.97    2.84   3
  -1  11   3   -0.16    1.78   3
   0 -11  -3  202.15    9.73   3
   0 -11   3  198.98    9.22   3
   0  11  -3  203.27    9.21   3
   0  11   3  198.46   13.17   2
   0  11   3  195.32    9.41   4
   0  11  -3  184.24    8.72   3
   0  11  -3  197.69    9.18   4
   0  11  -3  207.88    9.07   4
   0  11   3  202.61    9.66   4
   0  11  -3  186.96   12.60   2
   0  11   3  206.53    9.74   3
   0  11   3  202.95    9.42   3
   0  11  -3  183.64    8.22   1
  -1 -11  -3    2.13    2.89   3
   1  11   3    0.03    2.32   4
  -1  11  -3   -3.85    4.06   2
  -1  11  -3   -2.91    1.40   3
  -1  11  -3    1.62    1.25   1
  -1  11  -3    0.96    1.88   4
  -1  11  -3   -0.10    1.57   4
   1  11   3    5.19    3.09   3
   1  11   3   -4.71    4.66   2
   1  11   3    2.27    2.67   4
  -1  11  -3    5.30    2.13   3
  -2 -11  -3   23.72    4.87   3
  -2 -11  -3   32.43    4.88   1
   2  11   3   39.21    5.45   4
  -2  11  -3   31.53    3.28   4
  -2  11  -3   26.80    3.16   4
   2  11   3   40.38    5.58   3
  -2  11  -3   27.43    4.33   1
   2  11   3   33.41    8.45   2
  -2  11  -3   35.98    3.35   3
  -2  11  -3   36.10    7.44   2
  -3 -11  -3   43.04    7.00   1
  -3  11  -3   63.73    4.92   4
  -3  11  -3   58.70   10.03   2
  -3  11  -3   53.71    4.48   3
   3  11   3   48.27    7.12   3
  -3 -12   3   -4.58    6.75   3
  -3  12   3    2.87    6.21   2
  -3  12   3   -0.66    3.04   3
  -3  12   3    0.44    2.99   4
   3  12  -3    1.17    4.33   4
   3  12  -3   -3.86    4.56   3
  -2 -12   3   22.23    4.69   3
  -2  12   3   27.23    7.59   2
  -2  12   3   23.91    3.85   3
   2  12  -3   22.99    7.00   2
   2  12  -3   22.15    4.58   4
  -2  12   3   15.01    3.39   4
   2  12  -3   21.50    4.97   3
   1 -12  -3   27.48    4.99   3
   1  12  -3   31.28    7.09   2
  -1  12   3   25.94    3.49   3
  -1  12   3   29.46    6.97   2
  -1  12   3   31.33    4.02   4
   1  12  -3   31.89    4.54   4
   1  12  -3   32.33    4.70   3
   0 -12  -3  141.65    7.80   3
   0  12   3  135.51    7.72   3
   0  12   3  126.58   11.34   2
   0  12  -3  129.43    6.86   4
   0  12  -3  140.81   11.11   2
   0  12   3  127.71    7.47   4
   0  12  -3  131.59    7.16   3
   0  12  -3  131.22    7.21   4
  -1 -12  -3   30.02    4.59   3
   1  12   3   45.98    5.58   3
  -1  12  -3   44.38    7.81   2
   1  12   3   44.90    5.29   4
   1  12   3   41.92    8.82   2
  -1  12  -3   35.25    3.73   3
  -1  12  -3   41.42    3.80   4
  -1  12  -3   32.87    3.47   4
  -2 -12  -3   -0.06    3.95   3
   2  12   3   -3.12    3.82   3
  -2  12  -3    0.90    2.11   4
   2  12   3    2.58    7.12   2
   2  12   3    1.96    3.42   4
  -2  12  -3   -3.10    4.95   2
  -2  12  -3    2.42    2.09   3
  -3  12  -3    0.29    2.18   3
  -3  12  -3    9.20    6.77   2
  -3  12  -3   -1.62    2.53   4
   3  12   3   -4.52    4.19   3
   2  13  -3    3.93    4.54   3
  -2  13   3    5.14    2.94   3
   2  13  -3    0.60    3.57   4
  -2  13   3    4.23    3.04   4
  -2  13   3    7.70    6.40   2
   2  13  -3   -4.21    5.86   2
   1  13  -3  115.49    7.71   3
   1  13  -3  109.37    7.53   4
   1  13  -3   96.64   10.83   2
  -1  13   3  112.24   11.41   2
  -1  13   3  115.18    6.87   4
  -1  13   3  106.36    6.92   3
   0 -13  -3   38.21    5.18   3
   0  13   3   39.11    4.99   4
   0  13   3   39.69    8.28   2
   0  13  -3   47.56    8.73   2
   0  13   3   34.65    4.60   3
   0  13  -3   37.51    4.39   4
   0  13  -3   43.25    4.71   3
  -1 -13  -3  132.03    9.13   3
  -1  13  -3  157.00    7.78   3
   1  13   3  161.68    9.46   3
   1  13   3  146.29    9.19   4
   1  13   3  145.33   13.35   2
  -1  13  -3  159.57   12.66   2
  -1  13  -3  152.36    7.75   4
  -2 -13  -3    6.91    4.11   3
   2  13   3    3.52    6.98   2
  -2  13  -3    7.48    6.67   2
   2  13   3    9.32    4.52   3
  -2  13  -3    9.13    2.52   3
  -2  13  -3    6.78    2.50   4
   2  13   3    7.02    4.18   4
  -2  14   3  113.69   12.90   2
   2  14  -3  111.80   12.98   2
   2  14  -3  131.37    9.28   4
  -2  14   3  116.80    7.59   4
   2  14  -3  100.20    8.50   3
  -2  14   3  112.78    7.45   3
  -1  14   3    9.32    3.21   3
  -1  14   3    1.16    2.76   4
   1  14  -3    6.78    3.99   3
  -1  14   3    2.26    5.94   2
   1  14  -3   10.87    3.97   4
   1  14  -3    1.60    6.31   2
   0  14   3   73.62    6.00   4
   0  14  -3   75.28    5.78   4
   0  14   3   68.85   10.64   2
   0  14   3   67.82    6.15   3
   0  14  -3   54.55    9.39   2
   0  14  -3   71.53    5.93   3
  -1  14  -3   63.38    9.91   2
   1  14   3   43.71    9.97   2
   1  14   3   78.41    7.39   3
  -1  14  -3   66.19    5.20   4
   1  14   3   77.68    7.31   4
  -1  14  -3   63.07    4.94   3
   2  14   3   14.49    5.34   3
   2  14   3    8.56    4.76   4
   2  14   3    6.19    8.13   2
  -2  14  -3   13.41    7.23   2
  -2  14  -3    6.39    2.76   3
  -2  14  -3    4.07    2.60   4
   1  15  -3   -1.88    3.84   3
  -1  15   3    3.27    2.99   4
  -1  15   3    0.63    3.18   3
   1  15  -3    1.69    3.45   4
  -1  15   3   -6.63    6.26   2
   1  15  -3  -11.42    5.89   2
   0  15   3    3.34    3.16   4
   0  15   3   -6.25    5.57   2
   0  15  -3   -1.49    3.12   3
   0  15   3    2.08    3.58   3
   0  15  -3   -6.46    5.27   2
   0  15  -3   -0.11    3.13   4
  -1  15  -3    8.45    3.12   3
   1  15   3    8.65    8.12   2
   1  15   3    7.71    4.42   3
  -1  15  -3    3.31    5.64   2
  -1  15  -3    2.54    2.67   4
   1  15   3   -0.91    3.58   4
   0  16  -3   63.62   11.11   2
   0  16   3   75.97    7.74   3
   0  16  -3   71.56    6.63   3
   0  16   3   72.58    6.73   4
  -5   0   4    6.44    6.55   1
  -5   0   4    4.73    4.32   4
  -5   0   4    0.78    4.51   3
   4   0  -4   58.59    6.65   3
  -4   0   4   47.60    7.67   1
  -4   0   4   55.16    6.41   4
  -4   0   4   50.94    6.39   3
   3   0  -4  284.20   12.93   4
  -3   0   4  273.38   14.01   1
  -3   0   4  282.30   12.84   4
   3   0  -4  288.86   12.97   3
  -3   0   4  284.40   13.22   3
  -3   0   4  277.48   13.04   4
  -2   0   4  729.12   28.08   4
   2   0  -4  689.41   28.74   1
  -2   0   4  766.49   28.31   3
   2   0  -4  694.69   28.17   3
   2   0  -4  749.14   28.15   4
  -2   0   4  776.20   28.95   1
   2   0  -4  697.08   28.12   4
  -2   0   4  774.39   28.29   4
  -2   0   4  712.41   28.02   3
   2   0  -4  706.00   28.02   3
  -1   0   4  218.77    9.05   3
   1   0  -4  203.77    9.29   1
  -1   0   4  220.77    9.01   4
  -1   0   4  228.68    9.05   4
  -1   0   4  244.07    9.55   1
   1   0  -4  216.62    9.08   3
   1   0  -4  218.62    9.03   4
   1   0  -4  220.62    9.01   3
  -1   0   4  216.54    8.96   3
   1   0  -4  212.74    9.03   4
   0   0  -4 4154.41  156.39   3
   0   0  -4 4241.68  157.96   2
   0   0  -4 4395.21  156.76   3
   0   0   4 4415.39  156.46   3
   0   0  -4 4207.79  156.84   4
   0   0   4 4255.30  156.79   3
   0   0   4 4486.28  156.77   4
   0   0  -4 4132.27  156.76   4
  -1   0  -4  305.42   12.10   4
  -1   0  -4  310.55   12.86   1
   1   0   4  307.39   12.07   3
   1   0   4  304.11   11.97   4
  -1   0  -4  314.86   12.03   3
  -1   0  -4  305.36   12.05   4
   1   0   4  323.04   12.08   4
   1   0   4  331.41   12.05   3
   1   0   4  330.41   12.83   1
  -1   0  -4  307.63   12.10   3
   2   0   4  753.62   29.40   3
  -2   0  -4  761.04   29.68   3
   2   0   4  798.45   30.51   1
   2   0   4  790.28   29.44   4
   2   0   4  824.85   29.44   3
  -2   0  -4  757.95   29.37   4
  -2   0  -4  740.69   29.25   3
  -2   0  -4  726.42   30.60   1
   2   0   4  821.66   29.37   4
  -3   0  -4  129.75    7.62   3
  -3   0  -4  126.23    7.11   4
  -3   0  -4  133.66    7.22   3
   3   0   4  139.76    7.32   4
   3   0   4  125.76    7.22   3
  -3   0  -4  126.23    9.13   1
  -3   0  -4  142.58    7.69   4
  -4   0  -4  135.20    9.61   3
   4   0   4  147.93   10.12   3
  -4   0  -4  148.48   11.53   1
  -4   0  -4  150.15    9.20   4
  -5  -1   4   13.10    5.38   3
  -5  -1   4    3.50    6.32   1
  -5  -1   4   18.65    6.45   4
  -5   1   4   14.35    7.21   1
  -5   1   4   25.50    5.35   4
  -5   1   4    9.75    5.73   3
   5   1  -4    9.94    5.70   3
   4  -1  -4    3.25    4.18   3
  -4  -1   4    0.74    3.46   4
  -4  -1   4    5.07    5.11   1
  -4  -1   4    1.00    3.78   3
   4   1  -4   -1.99    3.78   3
  -4   1   4   10.11    5.66   1
  -4   1   4    4.37    3.86   4
  -4   1   4    3.41    4.14   3
  -3  -1   4   23.88    4.99   1
  -3  -1   4   22.73    3.98   4
  -3  -1   4   28.89    3.98   4
  -3  -1   4   37.07    4.71   3
   3  -1  -4   30.86    4.17   3
   3  -1  -4   23.73    3.86   4
  -3   1   4   37.81    4.49   4
   3   1  -4   29.52    4.34   3
  -3   1   4   34.61    4.12   4
   3   1  -4   31.38    4.17   4
  -3   1   4   34.24    5.47   1
  -3   1   4   27.51    4.17   3
   2  -1  -4   68.34    4.38   4
  -2  -1   4   71.23    5.28   1
  -2  -1   4   61.26    4.34   4
  -2  -1   4   64.30    4.34   3
  -2  -1   4   67.16    4.72   3
   2  -1  -4   65.41    4.41   3
   2  -1  -4   63.82    4.97   1
  -2  -1   4   81.53    4.86   4
   2  -1  -4   61.31    4.33   4
   2  -1  -4   67.56    4.42   3
  -2   1   4   59.48    4.24   4
  -2   1   4   72.38    4.55   4
  -2   1   4   68.89    5.16   1
   2   1  -4   69.70    4.61   3
  -2   1   4   77.00    4.45   3
   2   1  -4   60.65    4.49   3
  -2   1   4   75.50    4.85   3
   2   1  -4   72.74    4.68   4
   2   1  -4   66.34    5.08   1
   2   1  -4   71.36    4.67   4
   1  -1  -4   84.56    4.51   1
  -1  -1   4   80.30    4.17   4
  -1  -1   4   80.93    4.20   3
   1  -1  -4   80.92    4.19   4
   1  -1  -4   85.75    4.24   3
   1  -1  -4   82.17    4.16   4
  -1  -1   4   83.70    4.33   3
   1  -1  -4   79.79    4.23   3
  -1  -1   4   87.13    4.32   4
  -1  -1   4   95.25    4.89   1
  -1   1   4   94.83    4.66   1
   1   1  -4   89.01    4.41   3
  -1   1   4   83.36    4.20   4
   1   1  -4   83.81    4.34   4
   1   1  -4   79.85    4.35   3
   1   1  -4   79.63    4.24   4
   1   1  -4   89.89    4.73   1
  -1   1   4   86.48    4.32   3
  -1   1   4   93.11    4.29   4
  -1   1   4   79.42    4.16   3
   0  -1  -4   61.32    2.95   4
   0  -1   4   60.02    2.68   4
   0  -1  -4   70.54    3.00   3
   0  -1   4   59.49    2.62   3
   0  -1  -4   64.97    2.96   3
   0  -1  -4   58.70    3.31   2
   0  -1   4   62.73    2.71   3
   0  -1  -4   63.28    2.99   4
   0  -1   4   66.20    2.63   4
   0   1   4   61.40    2.97   3
   0   1   4   67.02    3.03   4
   0   1  -4   63.99    2.73   3
   0   1   4   66.02    2.97   4
   0   1   4   63.51    3.00   3
   0   1  -4   64.27    2.73   4
   0   1   4   61.83    3.49   2
   0   1  -4   60.67    2.68   4
   0   1  -4   60.54    2.71   3
  -1  -1  -4  268.77   10.57   3
   1  -1   4  251.40   10.32   3
  -1  -1  -4  260.61   11.28   1
   1  -1   4  263.99   10.19   4
  -1  -1  -4  273.50   12.25   2
   1  -1   4  284.30   10.29   3
  -1  -1  -4  265.01   10.70   4
  -1  -1  -4  265.72   10.59   4
   1  -1   4  297.74   11.33   1
  -1  -1  -4  268.69   10.70   3
   1  -1   4  279.18   10.30   4
  -1   1  -4  265.31   10.34   4
   1   1   4  273.76   10.62   3
   1   1   4  281.89   10.62   3
  -1   1  -4  254.82   10.34   4
  -1   1  -4  265.20   11.28   1
   1   1   4  277.84   10.62   4
  -1   1  -4  257.26   10.28   3
  -1   1  -4  261.67   10.37   3
   1   1   4  278.46   11.24   1
  -2  -1  -4  110.33    5.51   4
   2  -1   4  109.39    6.29   1
  -2  -1  -4  108.98    5.55   3
   2  -1   4   97.32    5.17   3
   2  -1   4  102.58    5.13   4
   2  -1   4  103.24    5.23   4
   2  -1   4  103.88    5.44   3
  -2  -1  -4  104.54    6.70   1
   2   1   4  112.99    6.45   1
  -2   1  -4  105.94    5.45   4
   2   1   4  113.55    5.54   4
  -2   1  -4  100.16    5.62   3
   2   1   4  109.28    5.73   3
  -2   1  -4   99.45    5.30   3
  -2   1  -4  109.85    6.65   1
  -2   1  -4   92.45    5.51   4
   2   1   4  120.72    5.65   3
   3  -1   4   55.21    4.95   3
  -3  -1  -4   51.69    4.24   3
  -3  -1  -4   43.45    4.18   4
  -3  -1  -4   47.83    5.10   3
  -3  -1  -4   54.14    4.94   4
  -3  -1  -4   43.79    6.37   1
   3  -1   4   45.72    4.13   4
   3   1   4   52.06    5.17   3
  -3   1  -4   44.49    4.80   4
  -3   1  -4   50.12    4.26   4
  -3   1  -4   54.31    6.60   1
  -3   1  -4   46.67    3.99   3
  -3   1  -4   52.99    5.24   3
  -4  -1  -4    1.21    4.76   1
  -4  -1  -4    7.79    3.72   4
  -4  -1  -4    6.62    4.08   3
  -4   1  -4   -0.41    4.72   1
  -4   1  -4    7.07    4.00   3
  -4   1  -4    3.23    3.74   4
   4   1   4    6.18    3.73   3
  -5  -2   4   -2.03   10.08   1
  -5  -2   4   11.67    5.68   3
   5   2  -4   -1.74    4.91   3
  -5   2   4    4.20    4.15   4
  -5   2   4   -3.28    6.29   1
  -4  -2   4   12.59    4.42   3
  -4  -2   4   12.30    4.17   4
   4  -2  -4   13.41    4.55   3
  -4  -2   4   15.16    5.99   1
  -4   2   4   16.35    6.10   1
  -4   2   4   11.45    3.98   4
   4   2  -4   17.81    4.74   3
  -4   2   4    7.10    3.87   3
   3  -2  -4   14.42    2.98   4
  -3  -2   4   22.78    4.82   1
  -3  -2   4   15.72    3.29   4
  -3  -2   4   14.73    3.53   4
  -3  -2   4   13.28    3.72   3
   3  -2  -4   16.09    3.33   3
  -3   2   4   19.57    4.70   1
   3   2  -4   18.15    3.74   4
  -3   2   4   12.00    3.02   4
  -3   2   4   17.49    3.42   4
  -3   2   4   15.56    3.55   3
   3   2  -4   18.04    3.82   3
  -2  -2   4  483.90   18.35   4
  -2  -2   4  472.39   18.93   1
   2  -2  -4  428.92   18.50   1
   2  -2  -4  451.19   17.78   3
   2  -2  -4  431.40   17.91   3
  -2  -2   4  451.55   18.26   3
  -2  -2   4  454.90   17.97   4
  -2  -2   4  448.89   17.94   3
   2  -2  -4  463.92   17.83   4
  -2  -2   4  418.66   18.83   2
   2  -2  -4  431.43   17.88   4
  -2   2   4  430.89   17.82   3
   2   2  -4  486.98   18.32   4
  -2   2   4  449.10   17.86   4
   2   2  -4  422.65   18.68   1
  -2   2   4  449.65   18.46   1
   2   2  -4  435.15   18.03   3
  -2   2   4  441.50   17.88   4
   2   2  -4  445.31   18.19   3
   2   2  -4  424.14   18.05   4
  -2   2   4  450.78   17.92   3
   1  -2  -4  673.36   24.48   3
   1  -2  -4  673.49   24.56   4
   1  -2  -4  689.54   24.59   4
  -1  -2   4  649.67   24.54   2
   1  -2  -4  618.57   24.47   3
  -1  -2   4  594.31   24.56   3
  -1  -2   4  654.07   24.51   4
   1  -2  -4  621.55   24.64   1
  -1  -2   4  721.63   25.17   1
  -1  -2   4  661.42   24.62   4
  -1  -2   4  647.07   24.51   3
  -1   2   4  650.40   24.46   3
  -1   2   4  675.71   25.20   2
   1   2  -4  642.69   24.56   3
   1   2  -4  638.79   24.68   3
  -1   2   4  678.09   24.52   4
   1   2  -4  621.66   24.61   4
   1   2  -4  607.88   24.90   1
   1   2  -4  636.86   24.57   4
  -1   2   4  635.68   24.45   3
  -1   2   4  625.24   24.48   4
  -1   2   4  695.52   24.73   1
   0  -2  -4   43.74    2.64   4
   0  -2   4   49.83    2.01   4
   0  -2  -4   51.52    3.30   2
   0  -2   4   50.54    2.06   4
   0  -2  -4   51.07    2.74   3
   0  -2   4   46.67    2.19   3
   0  -2  -4   44.39    2.69   4
   0  -2  -4   53.87    2.76   3
   0   2   4   48.07    2.65   3
   0   2  -4   48.77    2.26   3
   0   2  -4   45.28    2.75   2
   0   2   4   50.32    2.64   3
   0   2  -4   51.28    2.22   4
   0   2  -4   48.13    2.22   4
   0   2  -4   48.28    2.29   3
   0   2   4   48.85    3.45   2
   0   2   4   46.02    2.66   4
   0   2   4   51.75    2.69   4
  -1  -2  -4    0.70    1.87   1
   1  -2   4    0.02    0.52   4
  -1  -2  -4    2.14    1.34   4
   1  -2   4    0.24    0.46   4
   1  -2   4   -0.32    0.63   3
  -1  -2  -4    0.65    1.19   4
  -1  -2  -4    0.91    1.28   3
   1  -2   4   -0.14    0.46   3
  -1  -2  -4    1.13    1.22   3
  -1  -2  -4    0.13    2.03   2
  -1   2  -4    0.87    1.50   1
   1   2   4   -0.78    1.54   1
   1   2   4    2.87    1.49   3
  -1   2  -4    0.19    0.84   3
   1   2   4    0.51    1.17   3
   1   2   4    1.63    1.29   4
   1   2   4    1.46    1.19   4
  -1   2  -4    0.02    0.84   4
  -1   2  -4   -0.14    0.88   3
  -1   2  -4   -0.49    0.72   4
   2  -2   4  224.17    9.12   4
  -2  -2  -4  204.02   11.61   2
  -2  -2  -4  197.76   10.30   1
   2  -2   4  216.16    9.94   1
   2  -2   4  197.12    8.72   3
  -2  -2  -4  187.48    9.22   3
  -2  -2  -4  207.30    9.14   4
  -2  -2  -4  214.27    9.47   4
   2  -2   4  202.82    8.68   3
   2  -2   4  204.31    8.57   4
  -2  -2  -4  202.86    9.06   3
  -2   2  -4  210.26    9.03   4
  -2   2  -4  197.73   10.08   1
   2   2   4  220.89    9.84   3
   2   2   4  208.14    9.29   4
   2   2   4  206.11   10.08   1
   2   2   4  193.19    9.31   3
  -2   2  -4  212.47    8.89   4
  -2   2  -4  205.85    8.77   3
   2   2   4  209.98    9.16   4
  -2   2  -4  202.65    9.01   3
  -3  -2  -4   47.38    5.17   4
  -3  -2  -4   50.86    6.73   1
   3  -2   4   43.20    3.84   4
  -3  -2  -4   52.20    5.58   3
   3  -2   4   48.29    4.27   3
  -3  -2  -4   52.66    4.97   4
  -3   2  -4   51.13    6.63   1
   3   2   4   57.62    5.41   3
  -3   2  -4   49.34    4.50   3
  -3   2  -4   45.27    4.77   3
   3   2   4   54.61    4.81   4
  -3   2  -4   42.59    4.32   4
  -3   2  -4   53.38    5.02   4
  -4  -2  -4   28.09    6.72   1
  -4  -2  -4   25.11    5.22   3
  -4  -2  -4   24.88    4.93   4
  -4   2  -4   19.59    4.41   4
  -4   2  -4   36.07    5.49   3
  -4   2  -4   25.96    6.37   1
   4   2   4   22.97    4.93   3
  -4  -3   4   16.44    6.14   1
  -4  -3   4   15.39    4.77   3
  -4  -3   4   20.14    4.67   4
   4  -3  -4   16.67    4.48   3
  -4   3   4   17.63    4.29   4
  -4   3   4   10.83    5.50   1
  -4   3   4   11.75    4.16   3
   4   3  -4   23.64    5.59   3
   3  -3  -4   52.35    4.55   4
  -3  -3   4   67.10    6.36   3
  -3  -3   4   51.21    4.69   4
   3  -3  -4   69.46    5.35   3
  -3  -3   4   53.13    5.59   4
  -3  -3   4   58.93    6.90   1
  -3   3   4   63.67    6.50   1
  -3   3   4   59.65    5.06   4
   3   3  -4   44.37    4.95   4
   3   3  -4   65.24    6.08   4
  -3   3   4   61.91    5.12   3
   3   3  -4   59.59    6.09   3
  -3   3   4   54.08    4.72   4
  -2  -3   4  369.59   15.78   3
   2  -3  -4  339.51   15.77   3
   2  -3  -4  382.66   15.11   4
  -2  -3   4  391.86   16.36   1
  -2  -3   4  374.01   16.35   2
  -2  -3   4  361.46   15.28   3
   2  -3  -4  392.15   15.16   3
  -2  -3   4  387.20   15.70   4
   2  -3  -4  339.77   15.69   1
  -2  -3   4  371.20   15.31   4
   2  -3  -4  367.08   15.21   4
  -2   3   4  384.00   15.85   1
   2   3  -4  372.50   15.55   3
  -2   3   4  381.48   15.26   4
  -2   3   4  373.65   15.24   4
   2   3  -4  349.76   15.49   4
   2   3  -4  380.03   15.63   4
   2   3  -4  357.96   16.26   1
  -2   3   4  371.52   15.24   3
  -2   3   4  396.47   15.30   3
   1  -3  -4  969.96   36.27   3
   1  -3  -4  944.59   36.37   1
  -1  -3   4  956.81   36.53   3
  -1  -3   4 1034.84   36.40   4
  -1  -3   4  937.11   36.32   3
   1  -3  -4  951.49   36.34   3
   1  -3  -4  984.39   36.30   4
  -1  -3   4  983.56   36.61   2
   1  -3  -4  984.79   36.36   4
  -1   3   4  996.10   36.36   4
  -1   3   4  988.16   37.32   2
  -1   3   4  976.74   36.32   3
   1   3  -4  924.48   36.38   3
  -1   3   4  980.10   36.30   3
  -1   3   4  981.45   36.37   4
   1   3  -4  933.01   36.67   2
   1   3  -4 1059.06   36.65   4
   1   3  -4  966.82   36.44   4
   1   3  -4  996.44   36.91   1
   1   3  -4 1012.50   36.62   3
   0  -3   4  316.41   11.44   3
   0  -3  -4  309.00   12.92   2
   0  -3  -4  300.88   12.02   3
   0  -3  -4  319.92   12.06   4
   0  -3  -4  319.13   12.14   4
   0  -3   4  311.97   11.33   4
   0  -3  -4  306.08   12.02   3
   0  -3   4  316.45   11.32   4
   0   3  -4  306.37   12.40   2
   0   3  -4  305.63   11.57   4
   0   3   4  295.09   12.01   3
   0   3   4  292.89   12.01   4
   0   3   4  299.44   11.98   3
   0   3   4  308.97   12.13   4
   0   3  -4  306.77   11.53   3
   0   3  -4  302.82   11.50   4
   0   3   4  317.69   13.06   2
  -1  -3  -4    0.38    1.65   1
   1  -3   4    0.62    0.47   3
  -1  -3  -4    3.47    1.44   4
   1  -3   4    1.07    0.48   3
  -1  -3  -4   -0.77    1.34   3
  -1  -3  -4    2.39    1.37   3
  -1  -3  -4   -2.25    1.27   4
  -1  -3  -4   -0.80    1.81   2
  -1   3  -4   -0.19    0.65   3
  -1   3  -4    0.33    0.62   4
   1   3   4    2.16    1.64   1
  -1   3  -4   -1.58    1.04   1
  -1   3  -4   -0.01    0.69   4
   1   3   4   -1.44    1.16   4
  -1   3  -4    0.08    0.70   3
   1   3   4   -0.94    1.32   3
   1   3   4    2.79    2.51   2
   1   3   4    0.36    1.32   4
   1   3   4    1.73    1.60   3
   2  -3   4   97.99    5.73   1
  -2  -3  -4   77.99    4.77   4
  -2  -3  -4   77.09    5.12   4
  -2  -3  -4   79.00    5.06   3
  -2  -3  -4   83.50    6.22   1
   2  -3   4   85.43    4.26   3
   2  -3   4   85.34    4.00   4
   2  -3   4   79.30    4.17   3
  -2  -3  -4   85.19    4.88   3
   2   3   4   96.00    5.04   4
  -2   3  -4   80.22    4.39   3
  -2   3  -4   88.63    4.58   4
   2   3   4   72.89    6.26   1
   2   3   4   83.90    4.97   4
   2   3   4   83.92    5.12   3
  -2   3  -4   81.87    5.80   1
  -2   3  -4   77.83    4.41   4
  -2   3  -4   75.55    4.48   3
  -3  -3  -4  508.52   22.15   4
  -3  -3  -4  518.30   22.44   3
   3  -3   4  541.86   20.76   4
   3  -3   4  542.62   21.04   3
  -3  -3  -4  516.45   23.64   1
  -3  -3  -4  540.04   21.71   4
  -3   3  -4  551.95   21.39   4
   3   3   4  561.67   22.08   4
  -3   3  -4  528.93   21.46   4
  -3   3  -4  500.23   21.36   3
  -3   3  -4  501.65   23.18   1
   3   3   4  528.62   21.95   3
  -3   3  -4  537.01   21.14   3
  -4  -3  -4   -2.82    3.17   4
  -4  -3  -4    2.10    3.89   3
  -4  -3  -4   -4.49    4.12   1
  -4   3  -4    1.06    3.57   3
  -4   3  -4    7.28    4.85   1
  -4   3  -4    4.51    3.63   4
   4   3   4    4.66    4.11   3
  -4  -4   4   64.93    7.61   3
  -4  -4   4   56.78    6.80   4
  -4  -4   4   40.93    7.48   1
   4  -4  -4   52.11    5.66   3
  -4   4   4   46.31    5.91   4
  -4   4   4   56.96    8.50   1
  -4   4   4   45.64    5.67   3
   4   4  -4   56.85    6.91   3
  -3  -4   4    2.90    3.78   1
  -3  -4   4    6.88    3.08   4
  -3  -4   4    5.23    3.50   3
   3  -4  -4    1.58    1.56   4
   3  -4  -4    0.28    2.55   3
  -3  -4   4    3.29    3.00   4
   3   4  -4    3.56    2.63   4
  -3   4   4    2.34    2.74   4
   3   4  -4    1.43    3.00   4
  -3   4   4    2.65    2.63   3
  -3   4   4    9.54    4.11   1
  -3   4   4    3.06    3.08   3
  -3   4   4    7.08    2.66   4
   3   4  -4    2.04    3.44   3
   2  -4  -4  127.31    6.43   4
   2  -4  -4  119.91    6.88   1
  -2  -4   4  131.68    7.74   2
  -2  -4   4  130.48    6.67   4
  -2  -4   4  135.88    7.69   1
   2  -4  -4  126.01    6.39   3
   2  -4  -4  130.16    6.37   4
  -2  -4   4  120.17    7.03   3
  -2  -4   4  143.27    7.17   4
  -2   4   4  121.00    6.42   3
   2   4  -4  118.22    6.70   3
  -2   4   4  140.23    7.12   1
  -2   4   4  137.36    6.65   3
  -2   4   4  129.80    8.22   2
  -2   4   4  124.35    6.50   4
  -2   4   4  128.08    6.61   4
   2   4  -4  125.00    6.96   3
   2   4  -4  125.83    6.97   4
   1  -4  -4 2024.21   75.71   4
  -1  -4   4 2044.77   75.68   3
  -1  -4   4 2079.59   75.97   3
  -1  -4   4 2166.31   75.73   4
   1  -4  -4 2075.42   75.73   3
  -1  -4   4 2020.25   76.24   2
   1  -4  -4 2130.79   75.70   4
   1  -4  -4 1997.81   76.99   2
   1  -4  -4 2055.19   75.63   3
   1  -4  -4 2008.27   75.58   1
  -1   4   4 2100.86   75.75   4
   1   4  -4 1878.03   75.71   4
  -1   4   4 2176.49   75.74   3
   1   4  -4 2038.16   76.22   1
   1   4  -4 2124.87   76.41   2
   1   4  -4 2116.54   75.86   3
  -1   4   4 2208.52   75.88   4
  -1   4   4 2068.19   77.00   2
  -1   4   4 2100.81   75.72   3
   1   4  -4 1953.96   75.77   3
   0  -4   4  127.91    4.92   4
   0  -4   4  122.51    4.93   3
   0  -4  -4  117.40    5.59   3
   0  -4  -4  129.51    5.23   1
   0  -4   4  128.68    4.86   4
   0  -4  -4  117.83    5.61   4
   0  -4  -4  121.38    5.63   3
   0  -4  -4  127.72    5.72   4
   0  -4  -4  123.31    6.71   2
   0  -4   4  123.18    6.26   2
   0   4   4  122.92    5.63   4
   0   4   4  125.16    5.75   4
   0   4  -4  122.58    5.05   4
   0   4   4  130.96    5.62   3
   0   4   4  118.19    6.87   2
   0   4   4  127.65    5.66   3
   0   4  -4  117.97    5.09   3
   0   4  -4  129.55    5.16   4
   0   4  -4  130.00    6.24   2
   0   4  -4  124.96    5.07   3
  -1  -4  -4   69.98    4.19   3
  -1  -4  -4   76.98    4.09   3
  -1  -4  -4   73.24    4.61   1
  -1  -4  -4   75.74    4.07   4
  -1  -4  -4   64.65    4.16   4
  -1  -4  -4   74.88    5.29   2
   1   4   4   78.26    4.12   3
   1   4   4   72.26    4.36   1
  -1   4  -4   75.28    3.12   3
  -1   4  -4   76.67    3.03   3
  -1   4  -4   72.26    3.10   4
   1   4   4   72.99    4.17   3
   1   4   4   73.16    4.11   4
   1   4   4   68.89    4.13   4
   1   4   4   75.25    6.09   2
  -1   4  -4   79.67    4.24   1
  -1   4  -4   68.50    3.08   4
   2  -4   4    0.67    0.89   4
  -2  -4  -4    9.93    2.83   3
  -2  -4  -4    2.61    1.85   3
  -2  -4  -4    1.01    1.77   4
   2  -4   4    0.54    1.10   3
  -2  -4  -4    5.18    3.11   1
  -2  -4  -4   -1.96    1.79   4
   2  -4   4   10.90    2.56   1
   2  -4   4    1.31    1.07   3
  -2   4  -4    3.35    1.63   4
  -2   4  -4    4.70    2.42   1
   2   4   4    2.00    1.87   4
  -2   4  -4    0.87    1.48   3
  -2   4  -4    1.67    1.44   3
  -2   4  -4    2.28    1.50   4
   2   4   4   -0.26    1.70   4
   2   4   4   -3.12    1.92   3
  -3  -4  -4  203.87   11.31   3
  -3  -4  -4  212.68   12.32   1
  -3  -4  -4  196.99   11.06   4
  -3  -4  -4  208.27   10.44   4
   3  -4   4  223.52    9.68   3
   3  -4   4  218.54    9.30   4
   3   4   4  214.90   10.78   4
  -3   4  -4  233.72   10.27   4
  -3   4  -4  221.37   10.30   3
  -3   4  -4  219.42   10.33   4
  -3   4  -4  222.87   12.16   1
  -3   4  -4  223.60   10.05   3
   3   4   4  212.82   10.93   3
  -4  -4  -4   54.95    7.23   3
  -4  -4  -4   55.86    7.01   4
  -4  -4  -4   52.60    8.24   1
  -4   4  -4   44.03    5.54   3
   4   4   4   58.70    7.07   3
  -4   4  -4   42.79    7.36   1
  -4   4  -4   52.04    5.93   4
  -4  -5   4   40.51    7.65   1
  -4  -5   4   35.52    5.93   3
   4   5  -4   35.29    6.15   3
  -4   5   4   38.63    7.08   1
  -4   5   4   37.71    5.31   3
  -4   5   4   47.60    5.71   4
   3  -5  -4   24.27    3.37   4
   3  -5  -4   37.91    4.18   3
  -3  -5   4   40.82    6.08   1
  -3  -5   4   37.95    5.39   3
  -3  -5   4   34.63    4.95   4
  -3   5   4   33.56    4.07   4
   3   5  -4   32.40    4.93   4
  -3   5   4   43.18    4.65   3
  -3   5   4   43.74    5.71   1
   3   5  -4   34.18    4.54   4
  -3   5   4   29.81    6.22   2
  -3   5   4   38.89    4.63   4
  -3   5   4   30.49    4.03   3
   3   5  -4   33.58    5.16   3
  -2  -5   4   37.18    4.00   4
  -2  -5   4   32.08    3.50   4
  -2  -5   4   33.16    4.12   2
   2  -5  -4   38.73    4.07   1
  -2  -5   4   39.33    4.82   1
  -2  -5   4   32.03    4.01   3
   2  -5  -4   37.80    3.27   3
   2   5  -4   35.51    3.98   3
  -2   5   4   36.74    5.37   2
  -2   5   4   35.16    3.84   1
  -2   5   4   35.60    3.28   4
   2   5  -4   32.39    3.94   3
  -2   5   4   29.71    3.19   3
   2   5  -4   29.49    3.57   4
  -2   5   4   36.36    3.48   3
   2   5  -4   42.41    4.31   4
  -2   5   4   32.95    3.15   4
  -1  -5   4  485.29   19.76   2
  -1  -5   4  485.24   18.85   3
   1  -5  -4  484.58   18.81   3
   1  -5  -4  479.78   18.81   4
   1  -5  -4  492.83   20.58   2
   1  -5  -4  471.55   18.57   1
   1  -5  -4  506.07   18.97   3
  -1  -5   4  519.18   18.86   4
   1  -5  -4  482.21   18.91   4
  -1  -5   4  485.89   19.22   3
   1   5  -4  480.36   19.00   4
  -1   5   4  478.15   20.47   2
   1   5  -4  479.78   19.01   3
  -1   5   4  487.04   18.93   4
  -1   5   4  482.58   18.86   3
   1   5  -4  475.28   19.42   1
   1   5  -4  497.70   19.13   4
   1   5  -4  487.37   19.07   3
  -1   5   4  476.92   18.92   4
  -1   5   4  517.06   18.97   3
   0  -5  -4  437.05   15.88   4
   0  -5  -4  372.86   15.62   4
   0  -5   4  407.65   16.70   2
   0  -5  -4  400.16   15.09   1
   0  -5  -4  385.98   15.66   3
   0  -5   4  406.30   14.98   3
   0  -5   4  405.71   14.93   4
   0  -5  -4  407.75   15.71   3
   0  -5  -4  394.69   17.10   2
   0  -5   4  424.20   15.03   4
   0   5   4  411.00   15.73   4
   0   5   4  422.96   15.77   3
   0   5  -4  387.95   16.58   2
   0   5  -4  399.09   15.18   4
   0   5   4  402.66   17.40   2
   0   5  -4  392.41   15.09   4
   0   5   4  375.99   15.59   3
   0   5   4  399.11   15.77   4
   0   5  -4  385.38   15.04   3
   0   5  -4  396.71   15.12   3
  -1  -5  -4  333.17   13.50   3
  -1  -5  -4  347.22   13.59   4
  -1  -5  -4  327.63   13.70   3
   1  -5   4  353.16   12.20   3
  -1  -5  -4  315.64   13.70   4
  -1  -5  -4  318.20   13.83   1
  -1  -5  -4  327.41   15.21   2
  -1   5  -4  339.36   13.59   1
  -1   5  -4  328.23   12.49   4
   1   5   4  325.17   13.62   3
   1   5   4  346.94   13.64   1
  -1   5  -4  338.47   12.51   4
   1   5   4  352.81   13.68   4
  -1   5  -4  322.28   15.10   2
   1   5   4  329.72   13.51   3
   1   5   4  333.30   13.69   4
  -1   5  -4  331.35   12.48   3
   1   5   4  339.98   15.79   2
  -1   5  -4  332.57   12.43   3
  -2  -5  -4  282.55   13.17   3
  -2  -5  -4  277.22   12.65   4
  -2  -5  -4  289.52   13.20   4
   2  -5   4  306.76   11.10   4
  -2  -5  -4  286.77   13.74   1
   2   5   4  312.62   13.09   3
  -2   5  -4  302.77   11.92   4
  -2   5  -4  283.05   13.21   1
  -2   5  -4  302.32   11.76   3
   2   5   4  287.22   12.91   4
  -2   5  -4  305.44   11.97   4
   2   5   4  312.74   12.91   4
  -2   5  -4  288.36   11.81   3
  -3  -5  -4   72.86    5.55   4
  -3  -5  -4   75.92    7.80   1
   3  -5   4   78.02    4.21   4
  -3  -5  -4   70.03    6.64   3
  -3  -5  -4   83.51    6.59   4
   3  -5   4   82.28    4.75   3
  -3   5  -4   80.83    5.19   3
   3   5   4   82.13    6.11   4
   3   5   4   86.51    6.52   3
  -3   5  -4   80.69    5.39   4
  -3   5  -4   86.01    5.51   3
  -3   5  -4   82.24    7.13   1
  -3   5  -4   78.84    5.31   4
  -4  -5  -4   54.08    7.17   4
  -4  -5  -4   54.46    8.41   1
  -4  -5  -4   57.12    7.53   3
  -4   5  -4   70.90    8.95   1
   4   5   4   69.57    7.54   3
  -4   5  -4   70.10    6.20   3
  -4   5  -4   60.30    6.25   4
  -4  -6   4    7.17    4.20   3
  -4  -6   4    9.86    5.81   1
  -4   6   4    3.67    5.34   2
  -4   6   4    8.08    3.59   4
  -4   6   4    1.64    3.73   3
   4   6  -4    0.35    4.87   3
  -4   6   4    7.91    5.18   1
  -3  -6   4    4.60    3.17   4
   3  -6  -4    3.90    2.68   3
  -3  -6   4   -0.18    4.08   1
  -3  -6   4   -0.37    3.52   3
  -3   6   4    6.24    4.79   2
   3   6  -4    0.93    2.58   4
  -3   6   4    3.05    2.72   3
   3   6  -4   -2.29    3.82   3
  -3   6   4    3.38    2.62   4
  -3   6   4    5.19    3.81   1
   3   6  -4    2.58    3.39   4
  -3   6   4    4.06    2.49   4
  -3   6   4    2.08    2.82   3
  -2  -6   4   33.05    4.19   3
  -2  -6   4   42.80    5.14   1
  -2  -6   4   30.61    3.89   4
   2  -6  -4   41.39    4.05   1
  -2  -6   4   31.54    4.27   2
   2  -6  -4   24.69    2.91   4
   2  -6  -4   37.35    3.52   3
  -2   6   4   31.07    3.39   4
  -2   6   4   38.05    5.48   2
  -2   6   4   36.91    3.75   3
   2   6  -4   34.87    4.93   2
   2   6  -4   34.60    3.85   3
  -2   6   4   35.49    3.55   3
  -2   6   4   34.82    3.29   4
  -2   6   4   36.23    3.84   1
   2   6  -4   32.47    4.21   4
   2   6  -4   31.73    3.78   4
   2   6  -4   39.07    4.39   3
  -1  -6   4  104.46    5.74   3
  -1  -6   4  106.99    6.32   2
   1  -6  -4  111.48    6.99   2
   1  -6  -4  104.75    5.33   3
   1  -6  -4  100.06    5.20   4
  -1  -6   4  109.36    5.20   4
  -1  -6   4  105.32    5.47   4
   1  -6  -4   93.88    5.13   3
  -1  -6   4  107.78    5.27   3
   1  -6  -4   97.00    4.67   1
   1   6  -4   99.81    5.37   4
   1   6  -4   99.31    5.84   1
  -1   6   4  111.07    7.19   2
   1   6  -4  112.08    7.10   2
   1   6  -4  107.52    5.62   4
  -1   6   4  109.50    5.38   4
  -1   6   4   99.72    5.29   3
  -1   6   4  109.21    5.30   3
   1   6  -4  109.92    5.49   3
   1   6  -4   96.90    5.41   3
  -1   6   4  104.03    5.31   4
   0  -6   4    2.75    1.01   4
   0  -6  -4    4.44    2.09   2
   0  -6  -4    2.65    1.51   4
   0  -6  -4    2.56    1.46   3
   0  -6   4    1.82    0.75   4
   0  -6   4    3.95    1.00   3
   0  -6   4    4.12    1.97   2
   0  -6  -4    1.09    1.57   3
   0  -6  -4    2.54    1.63   4
   0  -6  -4    3.13    1.01   1
   0   6   4    4.72    1.62   4
   0   6  -4    1.61    1.06   4
   0   6  -4    0.95    1.72   2
   0   6   4    3.35    1.60   3
   0   6  -4    0.33    1.21   3
   0   6   4    5.57    2.82   2
   0   6  -4    2.47    1.08   4
   0   6  -4    2.08    0.98   3
   0   6   4    4.03    1.54   4
   0   6   4    4.19    1.47   3
  -1  -6  -4   42.77    5.00   2
  -1  -6  -4   41.52    3.56   4
  -1  -6  -4   42.65    3.57   3
  -1  -6  -4   51.54    3.44   3
  -1  -6  -4   46.46    3.41   4
   1  -6   4   47.79    2.07   3
   1  -6   4   45.76    2.10   3
  -1  -6  -4   44.65    3.77   1
  -1   6  -4   40.87    2.31   4
   1   6   4   49.08    3.51   4
   1   6   4   46.47    3.56   4
  -1   6  -4   45.19    2.37   3
   1   6   4   47.29    3.43   3
   1   6   4   42.62    3.50   3
  -1   6  -4   46.19    3.26   1
  -1   6  -4   45.57    4.91   2
   1   6   4   52.36    6.19   2
   1   6   4   44.82    3.44   1
  -1   6  -4   44.82    2.32   3
  -1   6  -4   46.09    2.40   4
  -2  -6  -4    9.88    2.87   4
   2  -6   4   16.08    1.54   3
  -2  -6  -4   19.54    4.11   1
  -2  -6  -4   16.15    2.77   4
  -2  -6  -4   11.02    3.05   3
   2   6   4   13.86    4.71   2
   2   6   4   13.69    3.14   3
   2   6   4   17.29    3.13   4
  -2   6  -4   13.34    1.89   4
  -2   6  -4   14.45    3.16   1
  -2   6  -4   12.64    1.78   3
   2   6   4   13.00    2.67   4
  -2   6  -4   13.99    2.04   4
  -2   6  -4   18.37    2.18   3
  -3  -6  -4    4.30    4.29   1
  -3  -6  -4    3.26    2.60   4
  -3  -6  -4    1.85    3.06   4
   3   6   4    1.38    3.20   3
  -3   6  -4   -0.94    2.18   3
  -3   6  -4    3.07    3.16   1
  -3   6  -4   -0.83    2.17   4
  -3   6  -4    2.91    2.31   4
   3   6   4   -0.53    2.64   4
  -4  -6  -4   77.96    8.06   4
  -4  -6  -4   58.22    7.86   3
  -4  -6  -4   81.19   10.19   1
  -4   6  -4   75.47    6.40   4
  -4   6  -4   76.66    6.37   3
  -4   6  -4   61.91    8.25   1
   4   6   4   88.20    8.72   3
  -4  -7   4   70.14    9.44   1
  -4  -7   4   64.13    8.04   3
  -4   7   4   83.22    6.95   3
  -4   7   4   65.16    6.26   4
   4   7  -4   61.91    7.70   3
  -4   7   4   74.87    8.51   1
  -4   7   4   81.28   11.13   2
  -3  -7   4   21.32    5.28   1
   3  -7  -4   20.67    3.49   3
  -3  -7   4   19.01    4.27   4
  -3  -7   4   25.78    5.15   3
  -3   7   4   22.41    3.75   3
   3   7  -4   29.91    5.15   3
  -3   7   4   18.68    4.45   1
  -3   7   4   24.64    3.78   4
   3   7  -4   18.52    4.46   4
  -3   7   4   22.91    3.77   3
  -3   7   4   25.99    6.51   2
  -2  -7   4    9.86    3.66   1
   2  -7  -4    8.32    2.05   4
  -2  -7   4    8.66    3.00   4
   2  -7  -4    4.87    2.30   3
   2  -7  -4    1.17    2.28   1
  -2  -7   4    6.09    2.99   3
  -2   7   4   11.82    4.12   2
   2   7  -4    7.12    3.13   4
  -2   7   4    5.41    2.26   4
  -2   7   4    6.61    2.48   1
   2   7  -4    6.37    3.39   3
  -2   7   4    7.47    2.19   4
   2   7  -4    2.91    3.09   3
   2   7  -4   13.08    3.54   2
  -2   7   4    7.00    2.30   3
  -2   7   4    6.64    2.46   3
   2   7  -4    4.76    2.51   4
   1  -7  -4   13.65    2.38   3
  -1  -7   4   12.21    2.70   2
   1  -7  -4   15.72    1.33   1
  -1  -7   4   16.25    2.48   4
  -1  -7   4   16.15    2.78   3
   1   7  -4   17.73    2.69   3
  -1   7   4   17.27    2.38   4
   1   7  -4   15.84    3.52   2
   1   7  -4   18.39    2.45   4
   1   7  -4   17.90    2.36   3
  -1   7   4    9.58    1.96   4
   1   7  -4   15.15    2.49   4
  -1   7   4   14.30    3.72   2
  -1   7   4   17.90    2.49   3
  -1   7   4   10.36    1.99   3
   1   7  -4   21.15    3.18   1
   0  -7   4   47.74    4.39   2
   0  -7   4   50.94    2.82   3
   0  -7  -4   50.93    3.50   4
   0  -7  -4   44.84    2.25   1
   0  -7   4   50.68    2.68   4
   0  -7  -4   53.22    3.47   4
   0  -7   4   51.80    2.90   4
   0  -7  -4   48.62    3.71   3
   0   7   4   48.60    3.30   3
   0   7   4   54.57    3.56   3
   0   7  -4   49.18    3.07   3
   0   7  -4   51.09    2.98   4
   0   7  -4   45.16    2.75   3
   0   7   4   46.86    3.48   4
   0   7   4   43.96    3.34   4
   0   7  -4   53.32    4.77   2
   0   7  -4   46.46    2.89   4
   0   7   4   42.59    5.42   2
  -1  -7  -4  597.20   24.40   1
  -1  -7  -4  625.67   24.44   4
   1  -7   4  634.23   23.05   3
  -1  -7  -4  606.05   24.62   3
   1  -7   4  601.33   23.04   3
  -1  -7  -4  599.01   24.63   4
   1   7   4  611.81   24.54   3
  -1   7  -4  579.69   23.31   4
  -1   7  -4  624.74   23.25   3
   1   7   4  614.49   24.36   3
   1   7   4  684.69   24.24   1
   1   7   4  664.52   24.64   4
   1   7   4  615.11   27.05   2
  -1   7  -4  638.55   23.38   4
  -1   7  -4  628.25   24.10   1
  -1   7  -4  642.31   23.24   3
  -1   7  -4  639.70   26.64   2
   1   7   4  669.20   24.83   4
  -2  -7  -4   35.84    3.40   4
  -2  -7  -4   30.64    4.11   4
  -2  -7  -4   33.48    5.03   1
   2  -7   4   36.07    2.23   3
  -2  -7  -4   55.46    5.36   3
  -2   7  -4   34.20    2.90   4
   2   7   4   37.62    4.42   4
   2   7   4   28.96    6.74   2
   2   7   4   38.29    4.05   4
  -2   7  -4   34.83    2.71   4
  -2   7  -4   36.62    6.12   2
  -2   7  -4   33.29    2.89   3
  -2   7  -4   33.85    2.62   3
   2   7   4   49.59    5.08   3
  -2   7  -4   34.50    4.29   1
  -3  -7  -4   66.78    8.21   1
  -3   7  -4   60.65    4.46   3
   3   7   4   60.40    5.77   4
   3   7   4   67.13    6.77   3
  -3   7  -4   59.62    4.68   4
  -3   7  -4   57.35    6.57   1
  -3   7  -4   55.71    4.57   4
  -4  -7  -4   -2.98    4.65   1
  -4  -7  -4   -1.96    4.50   3
  -4   7  -4    7.39    3.21   3
  -4   7  -4   20.65    5.72   1
  -4   7  -4    2.90    3.16   4
   4   7   4    6.53    4.95   3
  -4  -8   4   28.86    7.12   1
  -4  -8   4   21.45    5.50   3
  -4   8   4   28.47    8.00   2
   4   8  -4   22.48    5.91   3
  -4   8   4   27.74    4.82   4
  -4   8   4   23.19    4.65   3
  -4   8   4   17.67    5.69   1
  -3  -8   4   -0.86    4.37   1
  -3  -8   4   -0.03    3.78   3
   3  -8  -4   -1.55    2.44   3
  -3   8   4   -1.34    2.77   4
   3   8  -4    0.23    3.45   4
   3   8  -4    2.89    3.95   3
  -3   8   4   -0.26    3.38   1
  -3   8   4    1.93    4.79   2
  -3   8   4   -1.22    2.60   3
  -2  -8   4   -3.44    2.37   3
   2  -8  -4   -2.77    1.67   4
   2  -8  -4   -4.14    1.58   1
   2  -8  -4    3.92    2.08   3
  -2  -8   4    0.58    2.25   4
   2   8  -4    4.13    3.27   2
  -2   8   4   -0.65    1.85   3
  -2   8   4    0.40    2.04   3
  -2   8   4    3.38    2.19   4
  -2   8   4    0.75    1.76   4
   2   8  -4   -1.97    2.89   4
  -2   8   4   -0.29    3.63   2
   2   8  -4   -0.19    2.23   4
   2   8  -4   -1.79    2.77   3
  -1  -8   4 1094.15   45.03   2
  -1  -8   4 1182.11   43.78   3
   1  -8  -4 1146.19   43.22   3
  -1  -8   4 1194.68   43.57   4
   1   8  -4 1100.50   43.63   1
   1   8  -4 1194.09   43.31   3
   1   8  -4 1219.63   43.56   4
  -1   8   4 1170.07   46.17   2
   1   8  -4 1154.11   43.49   4
   1   8  -4 1142.54   45.60   2
  -1   8   4 1152.38   43.35   3
  -1   8   4 1127.90   43.40   4
  -1   8   4 1136.21   43.37   3
  -1   8   4 1117.03   43.45   4
   1   8  -4 1168.00   43.48   3
   0  -8   4   74.17    3.96   3
   0  -8  -4   82.60    4.89   4
   0  -8   4   77.70    4.06   4
   0  -8   4   85.06    6.86   2
   0  -8  -4   81.43    4.99   3
   0  -8   4   78.81    4.29   3
   0   8   4   79.38    7.20   2
   0   8  -4   77.31    6.34   2
   0   8   4   79.83    4.59   3
   0   8   4   82.52    4.82   3
   0   8  -4   84.76    4.25   4
   0   8  -4   81.76    4.06   3
   0   8   4   83.77    4.99   4
   0   8   4   89.33    4.80   4
   0   8  -4   76.01    4.20   3
   0   8  -4   80.79    4.17   4
   0   8  -4   69.35    4.35   1
   1  -8   4   29.02    1.97   3
  -1  -8  -4   34.50    3.81   4
   1  -8   4   28.83    1.85   3
  -1  -8  -4   32.07    3.58   1
  -1  -8  -4   32.43    5.54   4
  -1  -8  -4   32.42    3.85   3
  -1   8  -4   29.16    2.33   4
   1   8   4   32.91    3.42   4
   1   8   4   32.45    5.93   2
  -1   8  -4   29.05    2.29   3
   1   8   4   32.83    2.96   1
   1   8   4   37.53    3.95   3
  -1   8  -4   29.27    4.98   2
  -1   8  -4   31.89    2.89   1
  -1   8  -4   26.40    2.24   4
  -1   8  -4   31.21    2.27   3
   1   8   4   31.75    3.69   4
  -2  -8  -4  135.47    8.19   4
   2  -8   4  146.65    5.88   3
  -2  -8  -4  127.11    8.47   3
  -2  -8  -4  152.07    8.75   1
  -2   8  -4  137.13    6.44   4
  -2   8  -4  129.45    7.64   1
  -2   8  -4  146.00    6.59   3
  -2   8  -4  149.26   10.96   2
   2   8   4  141.57    8.14   4
  -2   8  -4  147.99    6.35   3
   2   8   4  148.99   11.92   2
   2   8   4  147.82    7.91   4
   2   8   4  149.10    8.35   3
  -2   8  -4  137.74    6.65   4
  -3  -8  -4   69.39    8.24   1
  -3   8  -4   80.12   10.41   2
  -3   8  -4   58.32    4.58   4
   3   8   4   57.97    6.85   3
  -3   8  -4   60.59    4.92   4
  -3   8  -4   56.15    4.27   3
  -3   8  -4   61.56    6.78   1
   3   8   4   66.13    7.22   4
  -4  -8  -4    7.67    6.31   1
  -4  -8  -4   18.72    5.64   3
   4   8   4   20.28    5.79   3
  -4   8  -4   12.25    3.23   3
  -4   8  -4    4.62    6.93   2
  -4   8  -4   19.17    5.61   1
  -4   8  -4   10.49    3.43   4
  -4  -9   4   -6.40    5.66   1
  -4  -9   4    1.49    4.74   3
  -4   9   4    1.82    3.77   4
  -4   9   4   -0.82    5.99   2
  -4   9   4    0.57    3.57   3
   4   9  -4   11.02    5.97   3
  -3  -9   4    6.57    3.95   3
  -3  -9   4   11.84    5.23   1
   3   9  -4    8.13    4.18   4
   3   9  -4    4.77    4.30   3
  -3   9   4    5.34    2.88   3
  -3   9   4   12.49    3.39   4
  -3   9   4   11.93    3.84   1
  -3   9   4   14.47    5.75   2
   2  -9  -4    1.07    1.95   3
  -2  -9   4    3.53    3.80   4
  -2  -9   4    0.38    3.06   3
  -2   9   4    3.65    2.31   3
   2   9  -4    3.91    3.64   2
   2   9  -4    0.34    3.16   4
   2   9  -4   -0.85    3.27   3
  -2   9   4    0.30    2.34   4
   2   9  -4    2.58    2.42   4
  -2   9   4   -1.05    1.77   4
  -2   9   4   -0.78    3.94   2
  -2   9   4   -0.89    2.10   3
  -1  -9   4  187.54    8.61   4
   1  -9  -4  173.45    8.20   4
   1  -9  -4  182.38    8.41   3
  -1  -9   4  190.63    8.92   3
  -1   9   4  183.40    8.53   4
   1   9  -4  161.30    8.58   1
  -1   9   4  152.57    8.08   3
   1   9  -4  168.81   10.70   2
  -1   9   4  174.78    8.39   3
   1   9  -4  181.79    8.25   3
   1   9  -4  166.98    8.58   3
  -1   9   4  168.09    8.41   4
   1   9  -4  173.73    8.36   4
  -1   9   4  171.59   11.36   2
   1   9  -4  178.22    8.63   4
   0  -9   4    7.51    1.85   3
   0  -9   4    6.68    1.62   4
   0  -9  -4    7.84    2.55   3
   0  -9  -4    5.56    1.93   4
   0   9  -4    4.93    3.28   2
   0   9   4   12.07    2.37   3
   0   9  -4    6.33    1.54   3
   0   9  -4    4.82    1.78   4
   0   9  -4    6.24    1.96   1
   0   9   4    5.66    2.10   3
   0   9   4    4.83    3.91   2
   0   9  -4    5.11    1.65   4
   0   9  -4    9.00    2.05   3
   0   9   4   11.32    2.32   4
   0   9   4    9.28    2.30   4
  -1  -9  -4  203.56   10.17   4
   1  -9   4  205.14    8.39   3
   1  -9   4  206.86    8.49   3
  -1  -9  -4  205.48   10.39   3
  -1  -9  -4  214.41    9.55   1
   1   9   4  226.40   10.11   4
   1   9   4  223.38   13.76   2
  -1   9  -4  201.34    8.69   3
   1   9   4  223.57    9.22   1
  -1   9  -4  200.29    8.86   4
   1   9   4  211.40   10.18   4
  -1   9  -4  226.09    8.79   3
   1   9   4  211.79   10.16   3
  -1   9  -4  211.00    9.22   1
  -1   9  -4  210.18   12.32   2
  -1   9  -4  212.72    8.82   4
  -2  -9  -4   66.73    6.24   1
  -2  -9  -4   69.88    5.86   4
  -2  -9  -4   68.23    6.04   3
   2   9   4   83.14   10.12   2
  -2   9  -4   72.22    4.01   3
  -2   9  -4   71.70    4.13   4
   2   9   4   76.22    6.04   4
  -2   9  -4   70.33    4.33   4
  -2   9  -4   70.19    5.32   1
  -2   9  -4   68.12    4.22   3
  -2   9  -4   83.75    8.72   2
   2   9   4   77.55    6.13   3
   2   9   4   61.48    5.27   4
  -3  -9  -4   22.14    5.63   1
  -3   9  -4   17.58    6.72   2
  -3   9  -4   29.48    3.15   3
  -3   9  -4   26.57    3.31   4
  -3   9  -4   19.04    3.61   4
  -3   9  -4   23.51    4.46   1
   3   9   4   31.57    5.97   3
  -4  -9  -4   -5.23    5.65   1
  -4  -9  -4    7.16    5.38   3
  -4   9  -4   -0.48    2.51   3
  -4   9  -4    1.62    4.55   4
   4   9   4    3.75    4.78   3
  -4   9  -4    0.67    6.99   2
  -4   9  -4    2.79    4.47   1
  -3 -10   4   34.47    6.00   3
  -3  10   4   34.18    4.74   4
   3  10  -4   37.93    6.20   4
   3  10  -4   32.52    6.33   3
  -3  10   4   36.61    4.67   3
  -3  10   4   34.10    7.78   2
   2 -10  -4  238.10   10.91   3
  -2 -10   4  230.40   12.07   3
   2  10  -4  248.83   12.27   3
  -2  10   4  247.59   11.34   4
  -2  10   4  236.29   15.03   2
   2  10  -4  252.78   14.74   2
  -2  10   4  236.75   11.13   3
   2  10  -4  227.62   11.84   4
   1 -10  -4    8.63    2.59   3
   1 -10  -4    6.22    2.06   4
  -1 -10   4    5.67    2.43   4
   1  10  -4    5.40    2.51   4
   1  10  -4    7.30    2.25   3
   1  10  -4    8.48    3.05   3
  -1  10   4    8.72    4.63   2
  -1  10   4    8.99    2.35   3
  -1  10   4    7.28    2.30   4
   1  10  -4   11.09    2.61   4
   1  10  -4    6.43    4.17   2
  -1  10   4    8.66    2.41   4
  -1  10   4   10.35    2.71   3
   1  10  -4    5.77    2.66   1
   0 -10   4  548.64   21.49   3
   0 -10   4  560.30   21.23   4
   0 -10  -4  565.10   22.21   3
   0  10   4  535.40   21.94   3
   0  10   4  534.37   22.10   4
   0  10  -4  547.54   21.39   4
   0  10   4  562.62   25.63   2
   0  10  -4  543.75   21.51   4
   0  10   4  541.35   22.07   4
   0  10  -4  534.11   21.32   1
   0  10   4  549.41   22.14   3
   0  10  -4  578.95   25.15   2
   0  10  -4  535.37   21.22   3
   0  10  -4  568.22   21.55   3
   1 -10   4    9.62    1.62   3
  -1 -10  -4    2.80    3.07   3
  -1 -10  -4   11.75    2.39   1
  -1 -10  -4   10.30    2.82   4
  -1  10  -4    6.72    4.28   2
  -1  10  -4    2.05    1.38   3
   1  10   4   11.48    2.68   4
  -1  10  -4    5.05    1.85   1
   1  10   4   14.78    6.05   2
   1  10   4    8.81    3.24   3
  -1  10  -4    8.20    1.84   4
  -1  10  -4    5.93    1.69   4
  -1  10  -4    9.55    2.01   3
   1  10   4    8.73    2.88   4
  -2 -10  -4   77.09    6.78   3
  -2 -10  -4   83.34    6.70   1
   2  10   4   93.51   11.61   2
  -2  10  -4   87.88    4.90   4
  -2  10  -4   84.99    5.71   1
  -2  10  -4   87.38    9.35   2
  -2  10  -4   81.31    4.89   4
  -2  10  -4   78.98    4.47   3
   2  10   4   76.65    6.44   4
   2  10   4   86.52    6.76   3
  -3 -10  -4   14.62    5.41   1
  -3  10  -4   21.16    3.15   4
   3  10   4   19.00    5.20   3
  -3  10  -4   13.90    4.21   1
  -3  10  -4   21.71    2.95   3
  -3  10  -4   25.02    7.38   2
  -3 -11   4   15.34    5.03   3
  -3  11   4   10.90    3.56   3
   3  11  -4   15.65    5.15   3
  -3  11   4    9.92    3.64   4
   3  11  -4   12.13    4.85   4
  -3  11   4   14.51    6.73   2
  -2 -11   4   14.95    4.01   3
  -2  11   4    8.17    5.76   2
   2  11  -4   13.07    4.41   3
  -2  11   4   12.36    3.16   3
   2  11  -4   16.36    6.02   2
  -2  11   4    8.00    2.81   4
   2  11  -4   10.22    3.81   4
  -1 -11   4   25.23    3.77   3
   1 -11  -4   25.03    3.41   3
   1  11  -4   23.43    3.64   4
  -1  11   4   20.76    3.19   4
  -1  11   4   29.04    6.57   2
  -1  11   4   21.61    3.45   4
   1  11  -4   23.49    3.89   3
   1  11  -4   22.81    3.30   4
   1  11  -4   19.84    2.92   3
  -1  11   4   30.58    3.73   3
   1  11  -4   18.68    3.33   1
   1  11  -4   23.48    6.33   2
  -1  11   4   17.93    3.10   3
   0 -11   4  122.80    6.56   3
   0 -11  -4  132.74    7.46   3
   0 -11   4  120.86    6.20   4
   0  11   4  123.75    7.14   4
   0  11  -4  134.60   10.16   2
   0  11  -4  126.69    6.65   4
   0  11  -4  132.81    6.57   4
   0  11  -4  127.24    6.27   3
   0  11  -4  119.86    6.25   1
   0  11   4  132.00   10.79   2
   0  11   4  132.23    7.19   4
   0  11  -4  123.50    6.75   3
   0  11   4  144.48    7.56   3
  -1 -11  -4  221.84   11.50   3
  -1 -11  -4  235.13    9.72   1
  -1  11  -4  224.00   14.08   2
   1  11   4  225.78   11.18   4
   1  11   4  211.33   11.02   3
   1  11   4  243.01   16.00   2
  -1  11  -4  206.81    9.43   1
  -1  11  -4  229.35    9.76   4
  -1  11  -4  228.59    9.65   3
  -1  11  -4  222.85    9.79   4
  -2 -11  -4   16.60    4.66   3
  -2 -11  -4   13.39    3.89   1
   2  11   4   23.00    4.54   4
  -2  11  -4   12.77    2.41   4
  -2  11  -4   19.03    3.20   1
   2  11   4   14.89    4.29   3
  -2  11  -4   13.22    2.49   4
   2  11   4   16.63    7.26   2
  -2  11  -4   22.49    6.72   2
  -2  11  -4   20.62    2.53   3
  -3 -11  -4   -2.37    4.49   1
  -3  11  -4    0.75    2.07   3
  -3  11  -4    6.25    6.14   2
  -3  11  -4   -6.41    2.10   4
   3  11   4   -5.32    4.16   3
   3  12  -4   92.63    9.16   4
  -3  12   4   87.34   12.34   2
  -3  12   4   89.04    6.85   4
   3  12  -4   79.12    8.42   3
  -3  12   4   94.10    6.93   3
  -2  12   4   50.87    9.06   2
   2  12  -4   66.92    6.57   4
  -2  12   4   42.51    4.82   3
   2  12  -4   65.43    6.78   3
  -2  12   4   49.11    5.25   4
   2  12  -4   55.09    8.87   2
   1 -12  -4   -0.08    2.44   3
  -1  12   4   -2.60    1.99   4
  -1  12   4    4.41    5.10   2
   1  12  -4   -0.30    2.79   4
   1  12  -4   -1.72    4.38   2
  -1  12   4    1.37    2.30   3
   1  12  -4   -1.02    3.10   3
   0 -12  -4   18.46    3.62   3
   0  12  -4   18.56    2.78   4
   0  12  -4   21.33    3.22   4
   0  12   4   20.06    3.52   4
   0  12  -4   23.27    6.17   2
   0  12   4   20.05    3.63   3
   0  12   4   21.27    6.70   2
   0  12  -4   13.53    3.05   3
  -1 -12  -4    5.62    3.45   3
   1  12   4    4.48    3.07   4
  -1  12  -4   11.55    5.43   2
  -1  12  -4    8.23    2.14   4
   1  12   4    6.58    3.30   3
   1  12   4    0.19    5.61   2
  -1  12  -4    6.99    2.28   3
  -1  12  -4    6.10    2.25   4
  -2 -12  -4   36.65    5.65   3
   2  12   4   42.70    5.93   4
  -2  12  -4   36.02    3.36   3
  -2  12  -4   44.25    8.74   2
  -2  12  -4   24.92    3.70   4
  -2  12  -4   32.96    3.41   4
   2  12   4   48.22    6.55   3
   2  12   4   55.21   10.74   2
  -3  12  -4   -3.63    6.31   2
   3  12   4   -2.50    4.43   3
  -3  12  -4   -4.20    2.29   4
  -3  12  -4   -3.20    1.88   3
   2  13  -4    4.49    3.64   4
   2  13  -4   -5.43    5.48   2
  -2  13   4    1.30    2.92   4
  -2  13   4    0.69    5.59   2
  -2  13   4    6.01    3.08   3
   2  13  -4   -4.80    4.09   3
   1  13  -4   67.01    6.47   3
  -1  13   4   65.90    5.63   4
  -1  13   4   65.53    9.97   2
   1  13  -4   67.70    6.06   4
  -1  13   4   58.13    5.43   3
   1  13  -4   65.26    9.71   2
   0 -13  -4    1.35    2.99   3
   0  13   4    6.79    3.09   3
   0  13  -4    6.81    2.87   4
   0  13   4   -2.81    4.90   2
   0  13   4    8.12    3.26   4
   0  13  -4    8.09    5.35   2
   0  13  -4    8.26    3.01   3
  -1 -13  -4   -2.18    2.95   3
   1  13   4    0.99    3.15   3
  -1  13  -4    6.00    5.27   2
  -1  13  -4    4.75    2.40   3
   1  13   4    4.97    6.84   2
  -1  13  -4    3.34    2.25   4
   1  13   4   -2.29    2.63   4
  -2 -13  -4   62.69    7.31   3
  -2  13  -4   64.62    4.77   4
  -2  13  -4   68.96   10.46   2
   2  13   4   68.61    7.50   4
  -2  13  -4   67.32    4.52   3
   2  13   4   71.91   12.28   2
   2  13   4   73.24    7.66   3
  -2  14   4   -0.67    6.51   2
   2  14  -4   -0.53    6.44   2
  -2  14   4   -1.72    2.73   4
   2  14  -4    3.38    3.77   4
  -2  14   4    0.48    2.94   3
   2  14  -4    1.45    4.50   3
  -1  14   4  113.12    7.35   4
   1  14  -4  120.50    7.87   4
   1  14  -4  136.86    8.76   3
  -1  14   4   97.63   12.13   2
  -1  14   4  124.09    7.47   3
   1  14  -4  109.43   12.17   2
   0  14   4   -2.22    3.09   3
   0  14  -4   -0.60    3.10   3
   0  14  -4    5.44    6.19   2
   0  14   4    0.36    5.65   2
   0  14  -4    4.95    3.00   4
   0  14   4    0.96    2.76   4
   1  14   4    6.52    3.48   4
  -1  14  -4   10.24    6.26   2
   1  14   4    8.35    4.21   3
   1  14   4    4.73    7.26   2
  -1  14  -4    9.16    2.81   4
  -1  14  -4    6.48    2.76   3
  -2 -14  -4    5.34    5.40   3
  -2  14  -4   -2.99    6.15   2
  -2  14  -4    0.98    2.58   3
  -2  14  -4    1.83    2.46   4
   2  14   4   -2.20    3.58   4
   2  14   4   -6.04    4.36   3
   2  14   4   16.05    9.06   2
  -1  15   4   -2.20    6.45   2
  -1  15   4   11.49    3.80   3
   1  15  -4   14.78    4.39   4
   1  15  -4   -0.21    6.24   2
   1  15  -4    8.10    4.28   3
  -1  15   4   15.13    3.60   4
   0  15   4   95.09    7.22   4
   0  15  -4  104.29    7.28   3
   0  15  -4  104.14    7.10   4
   0  15   4  107.09    7.82   3
   0  15  -4   98.37   11.74   2
   0  15   4   99.17   12.92   2
   1  15   4    5.98    4.48   3
  -1  15  -4    5.22    2.71   4
   1  15   4    2.91    3.57   4
  -1  15  -4    6.35    6.22   2
   1  15   4    5.56    8.59   2
  -1  15  -4    4.60    2.96   3
  -5   0   5   -5.01    6.18   1
   5   0  -5   -0.12    6.54   3
  -5   0   5    2.01    4.17   4
  -5   0   5    1.40    5.08   3
  -4   0   5    1.32    4.92   1
   4   0  -5   -5.16    3.58   3
  -4   0   5    3.60    4.28   3
  -4   0   5   -0.11    3.36   4
  -3   0   5    3.25    2.70   4
   3   0  -5   -0.12    2.57   4
  -3   0   5    4.18    3.85   1
   3   0  -5    4.58    3.01   3
  -3   0   5   -0.02    2.74   3
  -3   0   5   -1.68    2.19   4
   2   0  -5    1.06    2.57   1
   2   0  -5    2.99    2.20   4
  -2   0   5    1.33    2.02   3
  -2   0   5   -0.83    1.68   3
  -2   0   5    1.11    1.74   4
   2   0  -5    0.73    1.39   4
   2   0  -5    4.79    2.26   3
  -2   0   5    1.97    2.48   1
  -2   0   5    1.45    2.02   4
   2   0  -5    2.08    1.94   3
  -1   0   5    0.76    1.28   4
   1   0  -5   -1.00    1.62   1
   1   0  -5   -0.50    1.41   3
  -1   0   5    0.50    1.24   3
  -1   0   5    0.28    1.31   3
   1   0  -5   -1.03    1.22   4
  -1   0   5   -2.12    1.20   4
   1   0  -5   -0.17    1.39   3
   1   0  -5    0.77    1.57   4
   0   0   5    1.34    0.66   4
   0   0  -5   -0.50    0.67   4
   0   0  -5    0.03    0.75   4
   0   0   5    0.61    0.81   4
   0   0   5    2.02    0.84   3
   0   0   5   -0.77    0.72   3
   0   0  -5    0.00    0.83   3
   0   0  -5    0.31    0.87   3
   1   0   5   -1.00    0.99   3
  -1   0  -5    1.10    0.99   4
  -1   0  -5    1.08    1.02   4
   1   0   5    0.30    1.01   4
   1   0   5   -1.26    0.90   3
  -1   0  -5   -0.22    1.01   3
   1   0   5   -0.90    0.83   4
  -1   0  -5    0.43    1.67   1
  -1   0  -5    0.17    1.00   3
   2   0   5    0.37    1.52   4
  -2   0  -5    0.79    1.74   4
   2   0   5    1.41    1.82   3
   2   0   5    0.97    1.42   3
   2   0   5    1.96    2.70   1
  -2   0  -5   -0.29    1.43   3
  -2   0  -5    1.20    2.47   1
   2   0   5   -1.43    1.55   4
  -2   0  -5    0.85    1.44   4
  -3   0  -5    5.73    2.95   4
  -3   0  -5    5.86    3.98   1
   3   0   5    2.56    2.47   4
  -3   0  -5    3.65    2.46   3
   3   0   5    2.82    2.73   3
  -3   0  -5    2.30    2.93   3
  -3   0  -5    4.73    2.52   4
  -4   0  -5   -2.70    4.14   1
  -4   0  -5    5.81    4.03   3
  -4   0  -5    5.44    3.79   4
  -5  -1   5    8.26    7.59   1
  -5  -1   5    7.99    5.85   3
  -5   1   5   15.60    7.94   1
  -5   1   5   16.34    4.94   4
   5   1  -5   12.23    5.84   3
  -5   1   5   16.61    8.58   3
  -4  -1   5    0.61    3.58   3
  -4  -1   5    2.05    3.67   4
  -4  -1   5    5.74    5.02   1
   4  -1  -5    3.59    4.14   3
  -4   1   5    5.99    3.96   3
  -4   1   5    3.55    3.54   4
   4   1  -5   -4.88    3.48   3
  -4   1   5   -2.73    4.83   1
  -3  -1   5   62.03    6.42   1
   3  -1  -5   54.04    4.94   4
   3  -1  -5   61.36    5.68   3
  -3  -1   5   64.23    5.38   4
  -3  -1   5   55.72    4.63   4
  -3  -1   5   71.16    6.32   3
  -3   1   5   63.10    6.86   1
   3   1  -5   58.84    5.32   4
  -3   1   5   55.91    4.84   4
  -3   1   5   70.39    5.44   4
   3   1  -5   63.91    5.50   3
  -3   1   5   58.49    5.38   3
  -2  -1   5  234.40   10.15   4
   2  -1  -5  204.25   10.52   1
  -2  -1   5  243.34   11.02   1
   2  -1  -5  216.49    9.97   3
  -2  -1   5  233.01   10.01   4
  -2  -1   5  213.76    9.84   3
   2  -1  -5  237.54   10.03   4
   2  -1  -5  215.77    9.82   3
   2  -1  -5  211.45    9.87   4
  -2  -1   5  216.59   10.12   3
   2   1  -5  220.34   10.01   3
   2   1  -5  211.96   10.59   1
  -2   1   5  210.46    9.81   4
  -2   1   5  231.15    9.99   4
   2   1  -5  219.30   10.10   3
   2   1  -5  210.60   10.02   4
  -2   1   5  234.49   10.66   1
  -2   1   5  220.67    9.86   3
  -2   1   5  211.22    9.92   3
   2   1  -5  241.74   10.19   4
  -1  -1   5  622.88   23.81   3
  -1  -1   5  642.78   23.85   4
   1  -1  -5  603.03   23.84   3
   1  -1  -5  629.37   23.80   3
   1  -1  -5  611.17   23.82   4
   1  -1  -5  644.52   23.93   4
   1  -1  -5  695.87   24.30   1
  -1  -1   5  612.85   23.81   4
  -1  -1   5  634.55   23.93   3
   1   1  -5  590.24   23.85   4
  -1   1   5  626.92   23.97   2
  -1   1   5  642.99   23.87   3
   1   1  -5  573.11   23.86   3
  -1   1   5  675.51   23.97   4
  -1   1   5  637.44   23.82   3
  -1   1   5  660.16   23.85   4
   1   1  -5  635.56   23.89   4
   1   1  -5  634.21   24.30   1
   1   1  -5  609.36   23.84   3
   0  -1  -5  268.01   10.56   3
   0  -1   5  276.56   10.29   3
   0  -1  -5  278.61   10.62   4
   0  -1   5  263.57   10.31   3
   0  -1  -5  272.79   10.58   4
   0  -1  -5  282.51   10.59   3
   0  -1   5  269.48   10.31   4
   0  -1   5  262.14   10.27   4
   0  -1  -5  277.21   11.00   2
   0   1   5  278.61   10.54   3
   0   1   5  299.24   10.65   3
   0   1   5  259.94   10.60   4
   0   1  -5  272.15   10.31   3
   0   1   5  266.84   10.54   4
   0   1  -5  279.14   10.34   3
   0   1  -5  271.14   10.35   4
   0   1   5  276.01   11.11   2
   0   1  -5  270.67   10.31   4
  -1  -1  -5  455.67   17.76   3
  -1  -1  -5  442.79   19.42   2
  -1  -1  -5  470.72   18.58   1
   1  -1   5  462.58   17.45   4
  -1  -1  -5  453.87   17.88   4
  -1  -1  -5  466.72   17.80   4
   1  -1   5  462.78   17.35   4
  -1  -1  -5  469.80   17.88   3
   1  -1   5  428.64   17.46   3
   1  -1   5  483.89   17.44   3
   1   1   5  484.99   17.80   3
  -1   1  -5  478.21   17.47   3
  -1   1  -5  477.29   17.55   4
  -1   1  -5  472.27   18.54   1
  -1   1  -5  474.03   17.52   4
   1   1   5  481.10   17.79   4
   1   1   5  477.09   17.84   3
  -1   1  -5  467.40   17.55   3
   1   1   5  495.32   18.55   1
  -2  -1  -5  484.65   21.22   1
   2  -1   5  508.40   19.53   3
   2  -1   5  491.47   19.52   4
   2  -1   5  561.43   21.93   1
  -2  -1  -5  494.10   19.82   4
   2  -1   5  496.88   19.66   3
  -2  -1  -5  482.93   20.00   3
  -2  -1  -5  475.09   20.04   4
  -2  -1  -5  551.53   19.89   3
  -2   1  -5  506.17   19.69   4
   2   1   5  560.16   20.06   3
   2   1   5  509.31   19.76   4
  -2   1  -5  500.71   19.58   3
   2   1   5  484.88   19.88   3
   2   1   5  514.27   19.94   4
  -2   1  -5  506.03   19.93   3
  -3  -1  -5    5.46    3.88   1
  -3  -1  -5   10.08    3.42   3
   3  -1   5    5.68    2.78   3
  -3  -1  -5    6.58    2.55   4
  -3  -1  -5    7.06    2.92   4
   3  -1   5    9.02    2.58   4
  -3  -1  -5   10.65    2.85   3
  -3   1  -5    3.69    2.88   4
  -3   1  -5   12.71    4.06   1
   3   1   5    5.78    2.76   3
   3   1   5   10.07    2.73   4
  -3   1  -5   10.83    2.95   4
  -3   1  -5    5.84    3.05   3
  -3   1  -5    7.33    2.58   3
  -4  -1  -5   16.74    6.04   1
  -4  -1  -5    5.29    3.95   3
  -4  -1  -5    4.10    3.89   4
  -4   1  -5    8.23    3.64   4
  -4   1  -5    6.60    3.98   3
   4   1   5    6.85    4.56   3
  -4   1  -5    5.10    5.25   1
  -5  -2   5    6.90    7.53   3
  -5   2   5   -3.20    6.48   1
   5   2  -5    4.58    5.61   3
  -5   2   5   -2.76    3.94   4
  -4  -2   5   32.16    5.71   3
   4  -2  -5   34.65    5.58   3
  -4  -2   5   23.86    6.44   1
  -4  -2   5   33.36    5.42   4
  -4   2   5   28.44    4.97   4
  -4   2   5   28.43    6.29   1
   4   2  -5   34.65    5.72   3
  -4   2   5   41.39    5.91   3
  -3  -2   5  385.90   16.55   4
  -3  -2   5  359.54   16.05   4
  -3  -2   5  385.19   16.73   3
   3  -2  -5  382.24   16.05   3
   3  -2  -5  359.84   15.88   4
  -3  -2   5  382.80   17.74   1
   3   2  -5  376.03   16.43   4
   3   2  -5  377.60   16.45   4
   3   2  -5  363.90   16.36   3
  -3   2   5  367.82   16.11   4
  -3   2   5  345.30   15.90   4
  -3   2   5  369.79   17.32   1
  -3   2   5  361.88   16.12   3
   2  -2  -5  119.91    6.29   3
  -2  -2   5  120.64    6.22   4
  -2  -2   5  108.65    6.83   2
   2  -2  -5  107.26    6.01   4
   2  -2  -5  108.26    6.07   3
  -2  -2   5  114.25    6.11   3
   2  -2  -5  100.15    6.46   1
  -2  -2   5  117.80    6.62   3
  -2  -2   5  122.63    7.12   1
  -2  -2   5  116.86    6.36   4
   2  -2  -5  124.02    6.15   4
   2   2  -5  119.89    6.38   3
   2   2  -5  115.47    6.38   4
   2   2  -5  119.54    6.40   3
  -2   2   5  119.75    6.21   4
  -2   2   5  123.37    6.23   3
  -2   2   5  115.89    6.06   3
   2   2  -5  117.95    6.41   4
   2   2  -5  100.87    6.89   1
  -2   2   5  121.11    6.93   1
  -2   2   5  111.70    6.06   4
  -1  -2   5  181.69    7.92   3
  -1  -2   5  179.88    7.79   3
   1  -2  -5  182.92    7.85   3
   1  -2  -5  200.45    8.14   1
   1  -2  -5  199.57    7.93   4
  -1  -2   5  188.64    7.59   2
   1  -2  -5  181.07    7.82   4
  -1  -2   5  152.10    7.67   4
   1  -2  -5  177.37    7.77   3
  -1  -2   5  191.02    7.84   4
   1   2  -5  185.07    7.97   4
  -1   2   5  176.52    7.76   3
   1   2  -5  188.95    8.02   3
  -1   2   5  193.81    7.89   4
   1   2  -5  181.11    8.33   1
   1   2  -5  186.78    7.92   4
   1   2  -5  168.73    7.80   3
  -1   2   5  193.85    8.38   2
  -1   2   5  174.92    7.80   4
  -1   2   5  189.24    7.81   3
   0  -2  -5 2200.58   78.09   4
   0  -2  -5 2132.95   77.97   3
   0  -2  -5 2039.15   77.93   4
   0  -2   5 2192.23   78.48   4
   0  -2  -5 2188.20   77.98   3
   0  -2   5 2034.76   77.51   3
   0  -2   5 2178.72   77.82   4
   0  -2  -5 2158.99   80.83   2
   0   2   5 2130.91   78.64   2
   0   2  -5 2106.99   77.56   4
   0   2  -5 2144.79   78.16   4
   0   2  -5 2201.95   77.54   3
   0   2   5 2121.76   80.13   4
   0   2   5 2105.24   79.49   3
   0   2   5 2190.20   78.00   4
   0   2   5 2161.30   79.15   3
   0   2  -5 2110.83   77.57   3
   1  -2   5 1028.81   36.70   4
   1  -2   5 1056.09   36.69   4
  -1  -2  -5 1051.58   39.40   2
  -1  -2  -5  989.69   37.58   4
   1  -2   5 1040.46   36.89   3
  -1  -2  -5  982.42   37.54   3
  -1  -2  -5  979.35   37.71   4
  -1  -2  -5  947.02   38.15   1
  -1  -2  -5  949.79   37.62   3
  -1   2  -5 1002.15   38.16   1
  -1   2  -5  961.08   37.01   4
  -1   2  -5 1029.56   36.97   3
   1   2   5 1062.85   37.62   3
   1   2   5 1097.84   38.25   1
   1   2   5 1063.53   37.65   4
   1   2   5 1038.47   37.66   4
   1   2   5 1010.27   37.62   3
  -1   2  -5  966.10   37.00   4
   2  -2   5   96.30    4.60   4
  -2  -2  -5   85.61    6.30   1
  -2  -2  -5   95.15    5.47   4
   2  -2   5   91.64    4.82   3
  -2  -2  -5   95.20    5.38   3
  -2  -2  -5  100.05    5.32   3
   2  -2   5  104.40    6.82   1
   2  -2   5   93.36    4.65   3
  -2  -2  -5  102.69    5.24   4
  -2   2  -5   91.81    6.34   1
   2   2   5  101.44    5.17   4
  -2   2  -5   94.86    5.10   3
  -2   2  -5   89.07    4.74   3
   2   2   5   99.87    5.56   3
   2   2   5   83.25    5.02   4
  -2   2  -5   98.06    4.94   4
  -2   2  -5   97.65    5.09   4
  -3  -2  -5   11.94    3.34   3
  -3  -2  -5    8.91    4.50   1
  -3  -2  -5    6.55    2.45   4
   3  -2   5    3.26    2.17   4
   3  -2   5    8.18    2.75   3
  -3  -2  -5   14.13    3.43   4
  -3  -2  -5   10.87    3.38   3
   3   2   5   11.12    3.11   3
  -3   2  -5    6.91    3.94   1
  -3   2  -5    5.95    2.89   4
  -3   2  -5    3.41    2.82   3
  -3   2  -5    3.36    2.40   3
  -3   2  -5    3.61    2.60   4
  -4  -2  -5   52.55    8.28   1
  -4  -2  -5   47.21    6.73   3
  -4  -2  -5   43.93    5.92   4
  -4   2  -5   45.88    5.99   3
  -4   2  -5   49.04    5.95   4
  -4   2  -5   45.94    7.66   1
   4   2   5   44.03    5.75   3
   4  -3  -5  134.50    8.71   3
  -4  -3   5  112.37    9.58   3
  -4  -3   5  118.69   10.44   1
  -4  -3   5  131.53    8.98   4
  -4   3   5  121.43    8.39   4
  -4   3   5  128.02    8.60   3
  -4   3   5  124.78   10.23   1
   4   3  -5  140.23    9.41   3
  -3  -3   5   13.89    4.49   1
  -3  -3   5   15.48    3.19   4
   3  -3  -5    8.87    3.30   4
   3  -3  -5   12.11    3.27   3
  -3  -3   5   17.93    3.68   4
  -3  -3   5   12.94    3.93   3
   3   3  -5   11.41    3.68   4
  -3   3   5   11.21    3.24   3
   3   3  -5   21.12    4.16   3
  -3   3   5   13.47    3.32   4
  -3   3   5   15.43    4.28   1
  -3   3   5   10.30    2.80   4
  -2  -3   5   62.14    4.65   4
  -2  -3   5   64.82    4.24   4
  -2  -3   5   57.59    4.92   3
  -2  -3   5   58.93    5.09   2
   2  -3  -5   66.04    4.32   4
   2  -3  -5   66.17    4.26   4
  -2  -3   5   68.09    5.44   1
   2  -3  -5   60.43    4.26   3
   2  -3  -5   63.24    4.88   1
  -2   3   5   72.07    4.50   4
  -2   3   5   73.46    5.12   1
   2   3  -5   65.54    4.66   4
  -2   3   5   61.63    4.24   4
  -2   3   5   65.07    4.31   3
   2   3  -5   63.87    4.90   3
   2   3  -5   63.43    4.72   4
  -2   3   5   64.18    4.51   3
   2   3  -5   56.17    4.61   3
  -2   3   5   67.93    5.51   2
   1  -3  -5  148.27    6.62   4
   1  -3  -5  142.13    6.58   4
  -1  -3   5  151.17    6.62   2
  -1  -3   5  149.71    6.65   3
   1  -3  -5  142.84    6.70   1
  -1  -3   5  146.49    6.73   3
   1  -3  -5  144.64    6.59   3
   1  -3  -5  142.02    6.59   3
  -1  -3   5  139.81    6.48   4
  -1   3   5  161.36    6.72   3
   1   3  -5  143.79    6.78   3
  -1   3   5  146.26    6.58   3
  -1   3   5  148.00    6.64   4
   1   3  -5  140.80    6.67   4
   1   3  -5  158.75    6.80   2
  -1   3   5  150.75    6.63   4
   1   3  -5  152.07    7.20   1
   1   3  -5  154.77    6.90   4
   1   3  -5  144.42    6.76   3
  -1   3   5  149.61    7.48   2
   0  -3   5  520.86   18.34   4
   0  -3  -5  510.14   20.08   2
   0  -3   5  514.54   18.34   4
   0  -3  -5  507.03   19.16   3
   0  -3  -5  507.59   19.15   3
   0  -3  -5  501.44   19.22   4
   0  -3   5  478.74   18.48   3
   0  -3  -5  512.36   19.20   4
   0   3   5  516.85   19.21   4
   0   3   5  491.26   20.09   2
   0   3  -5  486.39   19.40   2
   0   3  -5  492.51   18.57   3
   0   3  -5  478.08   18.57   4
   0   3   5  513.18   19.27   4
   0   3  -5  496.23   18.61   4
   0   3  -5  492.43   18.63   3
   0   3   5  536.51   19.18   3
   0   3   5  505.44   19.20   3
  -1  -3  -5  586.29   23.92   1
  -1  -3  -5  612.20   25.05   2
  -1  -3  -5  612.48   23.55   3
  -1  -3  -5  607.61   23.43   4
  -1  -3  -5  574.42   23.53   4
  -1  -3  -5  607.02   23.42   3
  -1   3  -5  621.36   22.52   3
  -1   3  -5  605.68   22.58   3
   1   3   5  624.72   23.44   3
   1   3   5  659.39   23.55   4
   1   3   5  617.13   23.52   4
   1   3   5  668.46   23.95   1
  -1   3  -5  618.11   22.59   4
  -1   3  -5  645.39   23.95   1
   1   3   5  597.01   25.36   2
   1   3   5  612.38   23.50   3
  -2  -3  -5   24.77    2.89   4
   2  -3   5   24.59    3.63   1
   2  -3   5   20.70    2.01   3
   2  -3   5   17.55    1.68   4
  -2  -3  -5   18.61    2.69   3
  -2  -3  -5   16.00    2.70   3
  -2  -3  -5   20.78    3.02   4
   2  -3   5   15.11    1.89   3
  -2  -3  -5   19.34    3.89   1
  -2   3  -5   24.39    2.54   3
  -2   3  -5   16.93    2.31   4
   2   3   5   23.17    3.14   3
  -2   3  -5   19.11    2.24   4
   2   3   5   20.83    2.85   4
   2   3   5   20.02    2.63   4
  -2   3  -5   21.11    2.24   3
  -2   3  -5   19.35    3.47   1
  -3  -3  -5   91.23    7.74   1
   3  -3   5   77.08    5.22   3
   3  -3   5   78.39    4.79   4
  -3  -3  -5   91.83    5.80   4
  -3  -3  -5   88.22    6.45   4
  -3  -3  -5   96.64    6.82   3
   3   3   5   93.25    6.57   3
   3   3   5   87.19    6.21   4
  -3   3  -5   86.16    5.83   4
  -3   3  -5   83.10    5.59   4
  -3   3  -5   84.77    5.37   3
  -3   3  -5   95.28    6.15   3
  -3   3  -5   83.83    7.48   1
  -4  -3  -5   14.25    4.44   4
  -4  -3  -5   10.45    5.63   1
  -4  -3  -5   -0.10    3.87   3
  -4   3  -5   10.79    3.88   4
  -4   3  -5   17.06    4.29   3
  -4   3  -5    8.50    5.30   1
   4   3   5   17.92    4.80   3
  -4  -4   5   26.58    5.13   4
  -4  -4   5   21.33    5.31   3
   4  -4  -5   31.95    4.87   3
  -4  -4   5   24.78    6.69   1
  -4   4   5   26.29    4.83   3
   4   4  -5   26.48    5.68   3
  -4   4   5   23.72    6.74   1
  -4   4   5   29.66    5.31   4
  -3  -4   5  147.91    9.64   1
   3  -4  -5  130.90    7.61   3
  -3  -4   5  136.49    8.98   3
  -3  -4   5  136.87    8.43   4
   3  -4  -5  139.95    7.60   4
   3   4  -5  141.26    8.24   4
   3   4  -5  143.48    8.56   4
   3   4  -5  166.30    8.95   3
  -3   4   5  135.19    7.82   4
  -3   4   5  153.80    9.36   1
  -3   4   5  144.95    8.00   3
  -3   4   5  135.91    7.91   4
  -2  -4   5  490.79   20.64   2
   2  -4  -5  495.31   19.63   4
  -2  -4   5  545.73   21.16   1
   2  -4  -5  526.34   19.75   3
  -2  -4   5  505.27   20.25   4
  -2  -4   5  483.42   19.85   4
  -2  -4   5  483.33   20.29   3
   2  -4  -5  489.66   19.80   4
   2  -4  -5  456.00   20.10   1
  -2   4   5  524.47   20.27   1
  -2   4   5  506.24   19.84   4
  -2   4   5  496.73   19.85   4
   2   4  -5  489.90   20.16   4
   2   4  -5  497.08   20.17   3
  -2   4   5  475.20   19.71   3
  -2   4   5  488.33   19.70   3
  -2   4   5  494.93   21.51   2
   1  -4  -5  120.35    5.69   1
  -1  -4   5  136.95    5.74   4
  -1  -4   5  126.65    5.79   3
   1  -4  -5  118.62    5.74   3
  -1  -4   5   98.14    5.57   4
   1  -4  -5  123.22    6.83   2
   1  -4  -5  128.76    5.85   4
  -1  -4   5  108.86    5.92   3
   1  -4  -5  135.68    5.92   4
  -1  -4   5  123.40    6.10   2
   1  -4  -5  119.25    5.76   3
   1   4  -5  120.94    5.99   3
  -1   4   5  124.90    5.82   4
  -1   4   5  119.44    5.71   3
  -1   4   5  125.51    6.93   2
   1   4  -5  119.41    5.96   4
  -1   4   5  125.41    5.82   4
   1   4  -5  119.40    5.91   4
   1   4  -5  121.16    6.14   2
   1   4  -5  120.30    6.31   1
  -1   4   5  124.74    5.79   3
   0  -4   5   56.98    2.55   3
   0  -4  -5   58.36    3.35   3
   0  -4  -5   57.08    3.39   4
   0  -4  -5   56.17    4.22   2
   0  -4   5   58.06    2.36   4
   0  -4  -5   51.53    3.37   4
   0  -4  -5   57.84    3.56   3
   0  -4   5   58.12    2.34   4
   0   4  -5   54.71    2.72   3
   0   4  -5   56.38    2.82   3
   0   4  -5   56.88    2.72   4
   0   4  -5   57.59    3.87   2
   0   4   5   57.28    3.46   4
   0   4   5   58.60    4.73   2
   0   4   5   60.50    3.34   3
   0   4   5   58.03    3.36   4
   0   4   5   55.74    3.34   3
   0   4  -5   55.35    2.82   4
  -1  -4  -5   35.71    2.82   4
  -1  -4  -5   33.93    3.37   1
  -1  -4  -5   40.36    2.86   3
  -1  -4  -5   37.57    2.81   4
  -1  -4  -5   38.74    3.02   3
  -1   4  -5   35.26    1.67   4
  -1   4  -5   37.11    2.91   1
   1   4   5   40.92    2.88   3
  -1   4  -5   35.94    1.59   3
  -1   4  -5   34.21    1.69   4
   1   4   5   40.18    3.02   4
   1   4   5   32.57    3.06   1
   1   4   5   35.41    2.82   4
   1   4   5   35.88    3.16   3
  -1   4  -5   33.60    1.53   3
  -2  -4  -5  188.74   10.27   1
   2  -4   5  202.43    7.69   4
   2  -4   5  193.30    8.11   3
  -2  -4  -5  183.22    9.45   3
  -2  -4  -5  198.24    9.62   4
  -2  -4  -5  214.60    9.30   3
  -2  -4  -5  215.62    9.38   4
   2   4   5  210.36    9.52   3
  -2   4  -5  214.45    8.63   4
  -2   4  -5  199.03    8.38   3
   2   4   5  189.28    9.29   4
   2   4   5  206.66    9.29   4
  -2   4  -5  201.30    8.48   3
  -2   4  -5  207.04    8.55   4
  -2   4  -5  191.18    9.97   1
  -3  -4  -5   94.64    8.08   1
  -3  -4  -5   96.24    6.98   4
   3  -4   5   95.28    5.30   3
  -3  -4  -5  101.24    6.26   4
   3  -4   5   94.63    4.90   4
  -3   4  -5   94.87    5.91   3
   3   4   5   96.99    6.44   4
  -3   4  -5   91.30    7.77   1
  -3   4  -5   99.19    5.88   4
   3   4   5  110.52    7.31   3
  -3   4  -5   92.31    5.51   3
  -3   4  -5  101.32    6.10   4
  -4  -4  -5   60.80    9.27   1
  -4  -4  -5   77.72    8.38   3
  -4  -4  -5   64.21    7.23   4
  -4   4  -5   73.27    6.61   3
  -4   4  -5   66.06    6.64   4
   4   4   5   74.87    7.66   3
  -4   4  -5   60.32    8.65   1
  -4  -5   5   18.36    5.36   3
   4  -5  -5   20.75    4.86   3
  -4  -5   5   12.02    5.93   1
  -4   5   5   19.94    4.32   3
  -4   5   5   29.53    6.88   1
  -4   5   5   23.04    6.81   2
  -4   5   5   21.86    4.47   4
   4   5  -5   25.70    5.54   3
  -3  -5   5    2.97    3.44   3
   3  -5  -5    4.95    2.97   3
   3  -5  -5    2.05    1.54   4
  -3  -5   5    4.22    3.15   4
  -3  -5   5    4.28    4.36   1
  -3   5   5    5.07    2.91   4
   3   5  -5    4.53    3.75   3
   3   5  -5    3.14    3.45   4
  -3   5   5    4.34    2.43   4
   3   5  -5    0.84    2.71   4
  -3   5   5    7.08    4.44   2
  -3   5   5    2.82    3.82   1
  -3   5   5    1.19    2.57   3
  -2  -5   5   46.09    4.27   4
   2  -5  -5   55.75    3.85   4
  -2  -5   5   55.10    4.36   4
   2  -5  -5   54.77    3.97   3
  -2  -5   5   51.49    4.50   3
  -2  -5   5   57.21    5.04   2
   2  -5  -5   43.60    4.06   1
  -2  -5   5   57.01    5.14   1
   2   5  -5   56.77    5.11   3
  -2   5   5   56.41    4.27   4
   2   5  -5   52.28    4.21   4
  -2   5   5   53.23    5.62   2
  -2   5   5   56.98    4.48   1
  -2   5   5   44.55    3.82   3
   2   5  -5   55.26    4.87   4
  -2   5   5   50.15    3.84   3
  -2   5   5   51.24    3.91   4
   2   5  -5   49.17    4.11   3
  -1  -5   5  204.30    8.43   3
   1  -5  -5  192.72    8.48   4
  -1  -5   5  207.44    8.41   4
   1  -5  -5  187.44    8.20   1
   1  -5  -5  199.43    8.55   3
   1  -5  -5  193.09    8.46   3
   1  -5  -5  197.33    8.57   4
  -1  -5   5  191.74    8.54   4
  -1  -5   5  169.87    8.61   3
   1  -5  -5  191.69    9.92   2
  -1  -5   5  189.51    9.05   2
  -1   5   5  217.85    8.70   4
   1   5  -5  182.27    8.61   3
   1   5  -5  187.88    8.63   4
  -1   5   5  201.56    8.58   3
   1   5  -5  200.43    9.38   2
   1   5  -5  184.43    8.54   3
  -1   5   5  219.22    8.67   3
   1   5  -5  188.18    9.08   1
  -1   5   5  200.43   10.22   2
  -1   5   5  211.45    8.67   4
   0  -5  -5  378.32   15.06   4
   0  -5  -5  382.75   14.44   1
   0  -5   5  370.52   13.96   4
   0  -5   5  393.08   14.11   3
   0  -5  -5  372.41   14.96   3
   0  -5  -5  370.85   14.95   4
   0  -5  -5  368.20   14.94   3
   0  -5  -5  381.10   16.42   2
   0  -5   5  380.67   13.99   4
   0   5  -5  383.21   14.25   3
   0   5  -5  377.21   15.78   2
   0   5   5  386.33   15.10   4
   0   5  -5  368.88   14.30   3
   0   5   5  385.74   16.71   2
   0   5   5  374.72   14.98   4
   0   5  -5  378.42   14.36   4
   0   5   5  370.66   14.90   3
   0   5  -5  368.55   14.27   4
   0   5   5  383.28   15.00   3
  -1  -5  -5   82.86    4.38   3
  -1  -5  -5   66.44    4.38   3
  -1  -5  -5   73.19    4.26   4
  -1  -5  -5   66.92    4.38   4
  -1  -5  -5   77.49    4.78   1
  -1  -5  -5   81.34    6.02   2
  -1   5  -5   74.00    3.04   4
   1   5   5   76.38    4.35   4
  -1   5  -5   71.85    2.97   3
  -1   5  -5   69.13    2.91   3
  -1   5  -5   71.75    3.00   4
   1   5   5   71.00    4.42   3
   1   5   5   72.47    4.41   4
  -1   5  -5   64.69    5.42   2
   1   5   5   77.12    4.41   1
  -1   5  -5   79.99    4.46   1
   1   5   5   76.16    4.29   3
   2  -5   5    1.94    1.04   3
  -2  -5  -5    5.12    3.07   1
  -2  -5  -5    4.52    2.00   4
  -2  -5  -5    2.84    2.00   4
   2  -5   5    3.71    1.05   3
  -2  -5  -5    2.85    2.31   3
  -2   5  -5    4.00    1.53   4
  -2   5  -5    1.87    1.42   3
  -2   5  -5    7.58    2.37   1
  -2   5  -5    4.00    1.59   4
  -2   5  -5    4.30    1.49   3
   2   5   5    5.84    2.29   4
   2   5   5    5.95    2.14   4
   2   5   5    3.74    2.35   3
  -3  -5  -5    7.30    4.11   1
  -3  -5  -5    6.29    2.82   4
  -3   5  -5    6.72    2.60   3
  -3   5  -5    6.30    2.55   4
  -3   5  -5    4.72    3.67   1
   3   5   5    5.98    2.99   4
   3   5   5   11.83    3.66   3
  -3   5  -5    6.61    2.39   3
  -3   5  -5    3.49    2.38   4
  -4  -5  -5   36.88    6.35   3
  -4  -5  -5   39.80    7.88   1
  -4  -5  -5   32.74    5.65   4
   4   5   5   34.51    5.80   3
  -4   5  -5   27.05    6.74   1
  -4   5  -5   25.21    4.58   4
  -4   5  -5   31.37    4.71   3
  -4  -6   5   20.69    6.48   1
  -4  -6   5   21.35    5.60   3
  -4   6   5   19.41    4.42   4
   4   6  -5   19.60    5.60   3
  -4   6   5   15.24    6.33   2
  -4   6   5   20.02    6.19   1
  -4   6   5   21.47    4.68   3
  -3  -6   5    0.03    2.97   4
  -3  -6   5   -5.08    4.15   1
   3  -6  -5   -0.50    2.75   3
  -3  -6   5   -4.62    3.31   3
  -3   6   5   -2.64    3.90   2
   3   6  -5   -0.25    3.45   4
  -3   6   5    0.10    2.74   3
   3   6  -5   -0.79    3.38   3
   3   6  -5   -2.18    2.21   4
  -3   6   5   -0.76    3.43   1
  -3   6   5    2.74    2.51   4
  -3   6   5    3.70    2.98   4
  -2  -6   5  668.55   25.52   4
  -2  -6   5  728.77   26.46   1
   2  -6  -5  594.79   24.92   1
  -2  -6   5  600.71   26.06   2
   2  -6  -5  614.70   24.68   3
  -2  -6   5  652.74   25.68   3
  -2   6   5  619.50   24.89   3
  -2   6   5  658.75   27.38   2
   2   6  -5  611.17   25.32   4
   2   6  -5  608.53   25.29   4
   2   6  -5  607.94   25.17   3
  -2   6   5  653.19   24.89   3
  -2   6   5  624.22   24.99   4
  -2   6   5  675.11   25.03   4
   2   6  -5  595.89   25.31   3
  -2   6   5  678.70   24.96   1
   2   6  -5  603.72   26.50   2
   1  -6  -5  334.42   13.60   3
   1  -6  -5  330.22   13.10   1
  -1  -6   5  341.37   13.92   3
  -1  -6   5  363.77   13.80   4
  -1  -6   5  327.79   14.52   2
   1  -6  -5  317.57   13.53   4
   1  -6  -5  330.40   13.68   4
  -1  -6   5  343.19   13.76   4
  -1  -6   5  352.44   13.53   3
   1  -6  -5  315.12   15.38   2
  -1   6   5  327.82   13.66   3
   1   6  -5  344.36   13.86   4
  -1   6   5  333.81   13.70   3
   1   6  -5  337.38   14.22   1
   1   6  -5  324.60   13.67   3
  -1   6   5  349.50   13.79   4
   1   6  -5  337.28   14.89   2
   1   6  -5  327.17   13.65   3
  -1   6   5  356.43   15.82   2
  -1   6   5  317.39   13.66   4
   1   6  -5  336.08   13.76   4
   0  -6   5  540.60   19.73   4
   0  -6  -5  534.82   20.71   3
   0  -6  -5  524.01   20.70   4
   0  -6  -5  522.01   19.98   1
   0  -6  -5  527.64   20.78   4
   0  -6  -5  528.24   22.43   2
   0  -6  -5  513.73   20.66   3
   0  -6   5  521.79   19.65   4
   0  -6   5  537.57   19.80   3
   0  -6   5  537.67   21.89   2
   0   6  -5  531.66   20.05   4
   0   6  -5  533.37   19.90   3
   0   6  -5  540.92   21.90   2
   0   6   5  524.03   20.71   4
   0   6   5  543.53   20.70   3
   0   6  -5  528.00   20.00   4
   0   6   5  520.69   22.64   2
   0   6   5  556.92   20.79   3
   0   6  -5  529.91   20.02   3
   0   6   5  552.75   20.86   4
  -1  -6  -5  428.11   16.79   3
  -1  -6  -5  403.12   16.69   3
  -1  -6  -5  403.35   16.45   4
  -1  -6  -5  378.48   16.62   1
  -1  -6  -5  396.24   16.66   4
  -1   6  -5  428.22   16.49   1
   1   6   5  418.98   16.56   4
   1   6   5  420.53   16.74   4
   1   6   5  398.44   16.56   3
  -1   6  -5  406.94   18.37   2
   1   6   5  403.46   18.99   2
   1   6   5  439.68   16.45   1
   1   6   5  411.61   16.48   3
  -1   6  -5  395.34   15.17   4
  -1   6  -5  415.05   15.20   4
  -1   6  -5  396.21   15.09   3
  -1   6  -5  398.61   15.06   3
  -2  -6  -5  152.81    9.18   1
   2  -6   5  165.00    6.35   3
  -2  -6  -5  159.40    8.08   4
  -2  -6  -5  159.55    8.55   4
   2  -6   5  162.77    6.45   3
  -2  -6  -5  137.65    8.35   3
  -2   6  -5  159.67    6.93   3
   2   6   5  165.07    8.44   4
  -2   6  -5  158.23    6.96   4
   2   6   5  160.94    8.45   3
  -2   6  -5  157.64    8.51   1
   2   6   5  163.05   11.46   2
  -2   6  -5  177.29    7.19   4
   2   6   5  160.36    8.17   4
  -2   6  -5  169.82    6.78   3
  -3  -6  -5  107.48    9.15   1
  -3   6  -5  114.32    6.36   4
   3   6   5  104.07    8.00   3
  -3   6  -5  104.14    7.90   1
  -3   6  -5  112.64    6.37   4
   3   6   5  112.06    7.38   4
  -3   6  -5  116.30    6.16   3
  -4  -6  -5   14.59    4.60   4
  -4  -6  -5    4.58    5.40   1
  -4  -6  -5   13.85    5.08   3
   4   6   5   15.55    5.12   3
  -4   6  -5   10.83    5.29   1
  -4   6  -5    9.20    3.52   3
  -4   6  -5   18.46    3.91   4
  -4  -7   5   60.71    8.55   1
  -4  -7   5   62.34    7.96   3
   4   7  -5   71.06    8.06   3
  -4   7   5   69.93    6.88   3
  -4   7   5   84.02   11.03   2
  -4   7   5   68.20    6.39   4
  -4   7   5   65.61    7.94   1
  -3  -7   5   69.63    7.21   3
  -3  -7   5   69.38    7.29   1
   3  -7  -5   68.28    5.43   3
  -3   7   5   68.93    8.54   2
  -3   7   5   72.24    6.46   1
   3   7  -5   61.50    6.74   3
   3   7  -5   71.86    7.01   4
  -3   7   5   70.75    5.53   4
  -3   7   5   65.76    5.33   3
  -2  -7   5    2.83    2.60   4
  -2  -7   5    4.16    3.02   3
   2  -7  -5   -4.95    2.00   1
   2  -7  -5    1.20    1.55   4
  -2  -7   5    1.92    2.68   2
   2  -7  -5    4.90    2.46   3
  -2   7   5    3.65    3.74   2
   2   7  -5    5.10    2.88   2
  -2   7   5    2.04    1.88   4
   2   7  -5   -0.08    2.76   3
   2   7  -5    7.36    2.77   3
  -2   7   5    5.02    2.14   3
  -2   7   5    5.11    2.36   3
  -2   7   5    2.97    2.17   4
   2   7  -5    4.79    3.00   4
   2   7  -5    5.08    2.54   4
   1  -7  -5  101.76    5.43   3
  -1  -7   5  108.08    5.57   4
  -1  -7   5  101.84    6.44   2
   1  -7  -5  102.16    4.53   1
  -1  -7   5  109.33    5.83   3
   1  -7  -5   99.66    5.34   4
   1   7  -5   95.89    6.96   2
  -1   7   5  104.94    7.58   2
  -1   7   5  100.12    5.55   4
   1   7  -5  101.02    5.67   3
  -1   7   5   97.75    5.37   3
   1   7  -5  110.58    5.61   4
   1   7  -5   97.14    5.46   4
  -1   7   5  106.04    5.46   3
   1   7  -5   99.95    5.40   3
   1   7  -5   98.25    6.01   1
  -1   7   5  105.49    5.51   4
   0  -7   5  532.77   19.70   3
   0  -7   5  516.18   22.02   2
   0  -7  -5  515.58   20.65   4
   0  -7   5  562.90   19.68   4
   0  -7  -5  506.18   19.64   1
   0  -7  -5  514.55   20.62   3
   0  -7  -5  557.63   20.81   4
   0   7  -5  484.86   19.85   4
   0   7  -5  555.96   20.00   4
   0   7  -5  510.08   21.98   2
   0   7  -5  539.04   19.80   3
   0   7   5  545.48   20.80   4
   0   7   5  529.31   20.60   3
   0   7   5  527.99   20.68   4
   0   7   5  497.83   20.58   3
   0   7   5  511.25   22.88   2
   0   7  -5  520.65   19.93   3
  -1  -7  -5   -0.17    1.95   3
  -1  -7  -5    0.84    2.09   1
  -1  -7  -5   -0.56    1.82   4
  -1  -7  -5   -2.73    1.59   4
   1   7   5    1.38    1.70   1
  -1   7  -5    0.70    0.90   4
  -1   7  -5    0.61    2.92   2
  -1   7  -5    0.90    0.87   3
   1   7   5    1.94    1.90   4
   1   7   5   -1.47    1.59   4
   1   7   5   -2.68    1.77   3
   1   7   5    1.61    3.58   2
  -1   7  -5   -0.78    1.51   1
  -1   7  -5    0.46    0.79   4
  -1   7  -5   -0.07    0.87   3
   2  -7   5   62.54    2.80   3
  -2  -7  -5   64.03    5.25   4
  -2  -7  -5   67.18    5.47   3
   2  -7   5   64.02    2.75   3
  -2  -7  -5   71.04    4.86   4
  -2  -7  -5   55.60    5.79   1
  -2   7  -5   64.73    3.77   4
  -2   7  -5   65.52    7.54   2
   2   7   5   59.90    5.07   4
  -2   7  -5   52.45    4.74   1
   2   7   5   62.44    8.86   2
  -2   7  -5   63.11    3.60   3
   2   7   5   68.26    5.34   3
  -2   7  -5   62.37    3.54   4
   2   7   5   64.49    4.83   4
  -2   7  -5   63.68    3.36   3
  -3  -7  -5   10.76    5.02   1
  -3   7  -5   10.90    2.72   4
  -3   7  -5   11.95    2.65   4
  -3   7  -5   10.34    2.39   3
   3   7   5    5.40    5.08   4
  -3   7  -5   15.18    4.06   1
   3   7   5   10.31    3.97   3
  -4  -7  -5   22.89    6.28   3
  -4  -7  -5   25.78    7.31   1
  -4   7  -5   17.86    5.35   1
  -4   7  -5   20.06    4.03   4
  -4   7  -5   15.30    3.43   3
   4   7   5   21.88    5.98   3
  -4  -8   5   -6.04    5.45   1
  -4  -8   5   -0.64    4.34   3
   4   8  -5    0.08    5.23   3
  -4   8   5   -3.97    5.37   2
  -4   8   5   -1.08    3.50   3
  -4   8   5   -4.08    4.85   1
  -4   8   5    2.41    3.36   4
   3  -8  -5    5.65    2.93   3
  -3  -8   5   21.17    5.62   1
  -3  -8   5    4.13    4.09   3
   3   8  -5    2.38    3.71   4
  -3   8   5   10.37    3.36   3
   3   8  -5    5.55    4.20   3
  -3   8   5    8.05    3.11   4
  -3   8   5    9.37    5.60   2
  -3   8   5    4.40    3.55   1
   2  -8  -5   15.40    2.63   4
  -2  -8   5   13.45    2.90   4
   2  -8  -5   13.99    2.59   1
  -2  -8   5   17.49    3.80   3
   2  -8  -5   12.48    2.86   3
   2   8  -5   12.69    3.06   4
  -2   8   5   13.18    2.69   3
  -2   8   5   14.76    3.02   3
  -2   8   5   13.77    2.63   4
  -2   8   5   10.86    2.89   4
   2   8  -5   20.75    4.43   2
   2   8  -5   14.14    3.64   4
  -2   8   5   16.70    4.95   2
   2   8  -5   12.88    3.88   3
  -1  -8   5   48.37    4.08   3
   1  -8  -5   51.76    4.01   3
  -1  -8   5   45.91    3.69   4
  -1  -8   5   43.55    4.68   2
  -1   8   5   41.83    3.43   3
   1   8  -5   50.33    3.95   4
  -1   8   5   45.07    3.76   3
  -1   8   5   43.44    3.71   4
  -1   8   5   42.90    3.52   4
   1   8  -5   52.57    3.66   3
   1   8  -5   41.19    3.89   4
  -1   8   5   40.39    6.00   2
   1   8  -5   42.28    4.20   1
   1   8  -5   44.85    4.05   3
   1   8  -5   38.26    5.12   2
   0  -8   5  331.85   12.55   4
   0  -8  -5  314.17   13.54   3
   0  -8   5  311.77   12.56   3
   0  -8  -5  312.86   12.05   1
   0  -8   5  336.45   15.34   2
   0  -8  -5  314.69   13.56   4
   0   8   5  323.92   13.58   4
   0   8   5  316.74   13.45   3
   0   8  -5  324.22   12.91   3
   0   8   5  313.85   13.54   3
   0   8  -5  332.07   12.69   3
   0   8  -5  347.66   15.49   2
   0   8   5  344.45   13.78   4
   0   8  -5  315.76   12.85   4
   0   8  -5  328.77   12.84   4
   0   8   5  306.07   16.05   2
  -1  -8  -5   42.91    4.30   4
   1  -8   5   44.00    2.00   3
  -1  -8  -5   43.77    3.97   4
  -1  -8  -5   43.59    4.33   3
  -1  -8  -5   44.10    3.94   1
  -1   8  -5   46.89    2.72   4
  -1   8  -5   49.25    3.56   1
   1   8   5   46.56    4.12   3
   1   8   5   41.80    3.76   4
   1   8   5   42.51    3.95   4
  -1   8  -5   47.52    2.60   3
   1   8   5   47.30    7.03   2
  -1   8  -5   46.36    5.66   2
  -1   8  -5   43.58    2.64   4
  -1   8  -5   45.45    2.61   3
  -2  -8  -5    6.79    3.21   3
  -2  -8  -5    5.68    2.95   4
  -2  -8  -5    3.10    3.15   1
   2   8   5   -0.17    2.19   4
   2   8   5   -5.88    4.82   2
  -2   8  -5    1.88    2.27   1
  -2   8  -5    2.03    4.01   2
   2   8   5   -3.12    2.29   4
  -2   8  -5    1.29    1.64   3
  -2   8  -5    1.50    1.31   3
  -2   8  -5    0.68    1.36   4
  -2   8  -5    1.96    1.60   4
   2   8   5    1.94    2.68   3
  -3  -8  -5    2.65    4.25   1
  -3   8  -5   -2.57    5.01   2
  -3   8  -5   -1.20    1.93   4
  -3   8  -5   -0.86    1.87   3
  -3   8  -5    0.59    2.99   1
   3   8   5    2.52    3.82   3
  -3   8  -5    1.90    2.42   4
  -4  -8  -5    4.62    5.79   1
  -4  -8  -5    7.42    5.17   3
  -4   8  -5   10.41    4.92   1
  -4   8  -5   -0.66    6.23   2
  -4   8  -5    0.58    2.52   3
  -4   8  -5    1.71    2.91   4
   4   8   5    2.92    4.30   3
  -4  -9   5   -0.13    5.46   1
  -4  -9   5    5.64    4.45   3
  -4   9   5   14.67    4.09   3
  -4   9   5   10.97    7.19   2
   4   9  -5    6.32    5.29   3
  -4   9   5    9.50    3.87   4
  -3  -9   5    2.55    3.55   3
  -3   9   5   -4.13    2.75   3
   3   9  -5   -2.34    3.54   4
  -3   9   5   -2.88    4.49   2
   3   9  -5    2.05    4.14   3
  -3   9   5   -0.68    3.07   4
  -2  -9   5    6.99    3.09   3
   2  -9  -5    6.12    2.60   3
   2   9  -5   11.47    3.88   3
  -2   9   5    8.38    4.61   2
  -2   9   5    5.07    2.60   3
  -2   9   5    3.29    2.30   4
  -2   9   5    3.58    2.46   3
   2   9  -5    6.12    2.68   4
   2   9  -5   15.34    4.56   2
   2   9  -5    5.75    3.13   4
  -2   9   5    7.33    2.43   4
   1  -9  -5    1.93    2.31   3
  -1  -9   5   -1.68    1.69   4
   1  -9  -5    0.44    0.94   4
  -1  -9   5    0.98    2.18   3
   1   9  -5    0.40    2.38   3
  -1   9   5   -0.46    1.82   3
  -1   9   5   -0.40    1.64   4
   1   9  -5   -0.31    3.17   2
  -1   9   5   -1.36    1.90   3
  -1   9   5    1.18    1.94   4
   1   9  -5   -0.93    1.70   3
   1   9  -5   -0.82    2.12   4
   1   9  -5   -1.06    1.69   4
   1   9  -5    3.25    2.58   1
  -1   9   5    0.44    3.80   2
   0  -9  -5  191.93    9.38   3
   0  -9  -5  185.13    9.18   4
   0  -9   5  204.61    8.21   4
   0   9  -5  208.41    8.59   4
   0   9  -5  203.59   11.36   2
   0   9  -5  197.38    8.64   4
   0   9   5  198.48    9.47   4
   0   9  -5  193.42    8.63   3
   0   9   5  199.52    9.34   3
   0   9   5  189.89   12.12   2
   0   9  -5  192.48    8.88   1
   0   9   5  210.84    9.44   4
   0   9   5  188.64    9.07   3
   0   9  -5  203.51    8.38   3
  -1  -9  -5  170.18    8.95   3
  -1  -9  -5  180.79    8.38   1
   1  -9   5  171.42    6.76   3
  -1  -9  -5  168.01    8.88   4
  -1   9  -5  155.09    7.32   4
   1   9   5  184.95    8.79   4
  -1   9  -5  171.99    7.34   4
   1   9   5  172.23    8.87   4
  -1   9  -5  173.18    7.24   3
  -1   9  -5  172.38    8.05   1
   1   9   5  206.20   13.24   2
  -1   9  -5  174.95    7.25   3
   1   9   5  173.29    9.04   3
  -1   9  -5  176.87   10.96   2
  -2  -9  -5    4.39    2.64   4
  -2  -9  -5   -1.69    2.88   1
  -2  -9  -5   -1.98    2.76   3
   2   9   5   -7.06    5.48   2
  -2   9  -5    0.23    1.45   4
  -2   9  -5    3.85    2.50   1
  -2   9  -5    2.41    1.73   3
  -2   9  -5   -0.66    3.94   2
   2   9   5    0.15    2.86   4
   2   9   5    0.24    2.34   4
  -2   9  -5    2.04    1.40   3
   2   9   5    3.23    3.13   3
  -2   9  -5    1.46    1.68   4
  -3  -9  -5   33.02    6.23   1
  -3   9  -5   32.89    3.50   4
  -3   9  -5   28.16    3.56   4
  -3   9  -5   37.14    3.28   3
  -3   9  -5   38.17    5.55   1
  -3   9  -5   39.14    8.23   2
   3   9   5   37.35    6.26   3
  -4  -9  -5    4.08    5.57   1
  -4  -9  -5   -7.14    4.43   3
  -4   9  -5    5.21    4.65   1
   4   9   5    3.00    4.66   3
  -4   9  -5    2.04    2.56   3
  -3 -10   5   24.62    5.50   3
  -3  10   5   30.82    7.63   2
   3  10  -5   29.93    5.65   3
  -3  10   5   19.96    4.00   4
   3  10  -5   25.14    5.38   4
  -3  10   5   28.48    4.32   3
  -2 -10   5   17.34    4.02   3
   2 -10  -5   21.79    3.31   3
   2  10  -5   31.19    6.03   2
  -2  10   5   13.63    3.05   4
   2  10  -5   22.86    4.63   4
  -2  10   5   25.96    6.44   2
   2  10  -5   14.45    4.12   3
  -2  10   5   12.29    2.83   3
  -1 -10   5   39.69    3.99   4
   1 -10  -5   37.02    3.86   4
   1 -10  -5   43.86    4.22   3
  -1 -10   5   47.52    4.39   3
  -1  10   5   40.27    3.78   4
  -1  10   5   44.12    7.12   2
   1  10  -5   43.55    3.73   3
  -1  10   5   37.69    4.05   4
  -1  10   5   40.91    3.70   3
   1  10  -5   48.47    4.16   4
   1  10  -5   44.49    6.70   2
  -1  10   5   50.81    4.12   3
   1  10  -5   45.73    4.59   4
   1  10  -5   36.75    4.40   1
   1  10  -5   51.45    4.82   3
   0 -10   5  434.34   17.41   4
   0 -10  -5  440.66   18.19   3
   0 -10  -5  439.99   18.18   4
   0  10   5  419.28   18.02   3
   0  10  -5  415.07   17.40   1
   0  10   5  429.26   18.03   4
   0  10  -5  430.33   17.34   3
   0  10   5  438.28   21.51   2
   0  10   5  425.22   18.11   4
   0  10  -5  445.79   17.43   4
   0  10  -5  459.98   20.76   2
   0  10  -5  464.70   17.32   4
   0  10  -5  425.40   17.04   3
  -1 -10  -5  119.81    7.48   3
  -1 -10  -5  132.43    6.59   1
  -1 -10  -5  116.38    7.30   4
   1 -10   5  124.94    5.21   3
  -1  10  -5  129.09    5.94   4
   1  10   5  127.08   11.34   2
   1  10   5  122.51    7.46   4
  -1  10  -5  118.42    6.31   1
  -1  10  -5  140.76   10.05   2
   1  10   5  129.32    7.49   3
  -1  10  -5  134.99    5.87   3
  -1  10  -5  119.24    5.69   3
   1  10   5  129.33    7.20   4
  -1  10  -5  122.90    5.95   4
  -2 -10  -5   60.81    6.51   3
  -2 -10  -5   60.27    6.06   1
   2  10   5   67.14    6.14   3
  -2  10  -5   60.20    4.10   4
  -2  10  -5   74.02    8.96   2
  -2  10  -5   63.01    3.96   4
   2  10   5   63.22   10.42   2
  -2  10  -5   58.52    3.57   3
   2  10   5   67.82    6.05   4
  -2  10  -5   56.37    5.05   1
  -3 -10  -5    6.68    4.72   1
   3  10   5    0.13    4.03   3
  -3  10  -5    3.56    2.01   3
  -3  10  -5    4.40    5.76   2
  -3  10  -5   -0.45    3.16   1
  -3  10  -5    1.03    2.22   4
  -3 -11   5   91.79    8.19   3
  -3  11   5  111.39    7.45   3
  -3  11   5  107.24   12.60   2
   3  11  -5  100.62    9.10   3
   3  11  -5   90.26    8.29   4
  -3  11   5   93.98    7.12   4
  -2 -11   5    7.98    3.55   3
   2  11  -5    7.70    5.26   2
   2  11  -5    9.37    3.81   4
   2  11  -5    6.15    4.13   3
  -2  11   5    6.06    3.08   4
  -2  11   5   12.97    3.32   3
  -2  11   5    8.60    5.50   2
  -1 -11   5    2.25    2.48   3
   1 -11  -5    1.69    2.57   3
   1  11  -5    2.92    2.75   4
   1  11  -5   -2.95    1.91   4
  -1  11   5   -0.48    4.26   2
  -1  11   5    2.04    2.06   4
   1  11  -5    7.37    2.77   1
  -1  11   5    0.52    2.27   3
   1  11  -5    2.27    2.89   3
   1  11  -5    3.18    4.82   2
   0 -11  -5   65.87    5.34   3
   0  11  -5   58.74    4.31   4
   0  11   5   68.96    5.26   3
   0  11  -5   55.62    4.50   3
   0  11  -5   67.68    8.01   2
   0  11  -5   59.69    3.97   4
   0  11  -5   57.32    4.34   1
   0  11   5   64.80    4.93   4
   0  11  -5   55.21    3.72   3
   0  11   5   51.94    4.43   4
   0  11   5   55.82    8.39   2
  -1 -11  -5  121.08    7.74   3
  -1 -11  -5  129.76    8.40   1
   1  11   5  166.58   13.07   2
  -1  11  -5  129.97   10.46   2
  -1  11  -5  120.03    6.05   4
   1  11   5  125.55    7.60   3
   1  11   5  114.89    7.45   4
  -1  11  -5  110.09    5.96   4
  -1  11  -5  122.70    5.95   3
  -1  11  -5  111.52    6.11   1
  -2 -11  -5   29.78    5.13   3
  -2 -11  -5   24.86    4.68   1
  -2  11  -5   18.15    2.69   4
  -2  11  -5   23.17    3.65   1
   2  11   5   29.69    5.21   3
   2  11   5   31.63    5.15   4
   2  11   5   30.88    8.63   2
  -2  11  -5   18.61    6.24   2
  -2  11  -5   22.78    2.77   4
  -2  11  -5   24.98    2.61   3
  -3 -11  -5   19.91    5.75   1
  -3  11  -5   14.03    2.49   3
   3  11   5   16.91    5.41   3
  -3  11  -5   15.74    6.75   2
  -3  11  -5   12.59    2.78   4
   3  12  -5    6.80    4.60   4
  -3  12   5    4.11    3.48   4
   3  12  -5    7.87    5.23   3
  -3  12   5    5.15    3.52   3
  -3  12   5   -4.82    5.43   2
   2  12  -5    2.21    4.00   3
  -2  12   5   -2.35    2.68   4
   2  12  -5    1.06    3.80   4
  -2  12   5    2.11    2.90   3
  -2  12   5   -0.70    5.49   2
   2  12  -5    2.96    4.92   2
   1 -12  -5    5.85    2.84   3
   1  12  -5    6.54    3.33   4
  -1  12   5    4.34    5.33   2
  -1  12   5    9.25    3.02   3
   1  12  -5    5.52    3.42   3
   1  12  -5    0.61    4.45   2
  -1  12   5    7.90    2.70   4
   0 -12  -5  150.41    8.66   3
   0  12   5  149.70    8.36   3
   0  12   5  150.38   12.62   2
   0  12   5  150.76    8.45   4
   0  12  -5  147.15    7.40   4
   0  12  -5  163.10   11.64   2
   0  12  -5  155.57    7.92   3
   0  12  -5  154.68    7.85   4
  -1 -12  -5  241.90   12.57   3
  -1  12  -5  246.99   15.78   2
   1  12   5  231.29   11.99   3
   1  12   5  230.63   12.05   4
  -1  12  -5  236.98   10.27   3
  -1  12  -5  239.78   10.53   4
   1  12   5  245.09   16.65   2
  -1  12  -5  256.52   10.57   4
  -2 -12  -5   35.64    5.85   3
  -2  12  -5   33.80    7.82   2
  -2  12  -5   35.06    3.35   4
   2  12   5   36.08    5.59   4
  -2  12  -5   25.37    3.14   4
  -2  12  -5   38.41    3.14   3
   2  12   5   46.66    6.55   3
   2  12   5   47.00   11.17   2
  -3  12  -5    1.33    2.36   4
  -3  12  -5    2.43    6.31   2
   3  12   5   -8.33    4.07   3
  -2  13   5   54.22    9.84   2
  -2  13   5   41.04    5.02   4
   2  13  -5   72.32    7.34   4
   2  13  -5   58.36    6.79   3
  -2  13   5   60.56    5.85   3
   2  13  -5   47.02    9.05   2
   1  13  -5  122.89    7.89   4
   1  13  -5  116.38    7.81   3
  -1  13   5  118.28   12.07   2
  -1  13   5  111.67    7.24   4
   1  13  -5  116.46   11.51   2
  -1  13   5  127.68    7.62   3
   0 -13  -5    2.99    3.18   3
   0  13   5    4.68    2.88   4
   0  13  -5    8.07    3.07   3
   0  13   5    4.16    2.98   3
   0  13   5    2.73    5.60   2
   0  13  -5    4.37    2.73   4
   0  13  -5    0.15    5.05   2
  -1 -13  -5   33.08    5.28   3
   1  13   5   34.23    8.60   2
  -1  13  -5   40.37    7.88   2
   1  13   5   35.04    5.04   4
  -1  13  -5   36.21    3.62   3
   1  13   5   39.24    5.29   3
  -1  13  -5   39.67    3.82   4
  -2 -13  -5  200.74   12.25   3
  -2  13  -5  182.04    8.79   3
  -2  13  -5  198.29    9.07   4
   2  13   5  199.84   11.75   3
   2  13   5  205.12   17.81   2
   2  13   5  180.34   11.68   4
  -2  13  -5  221.35   16.17   2
   2  14  -5   -3.77    4.10   4
   2  14  -5   -4.78    5.41   2
  -2  14   5    4.48    2.91   4
  -2  14   5    3.11    3.31   3
  -2  14   5    6.08    6.54   2
   2  14  -5    3.48    4.68   3
  -1  14   5  130.93    8.17   4
   1  14  -5  124.40    8.12   4
   1  14  -5  139.51    8.63   3
  -1  14   5  130.99   13.21   2
   1  14  -5  111.28   11.61   2
  -1  14   5  128.49    8.07   3
   0  14   5   38.85    5.38   4
   0  14   5   28.85    8.45   2
   0  14   5   47.70    5.81   3
   0  14  -5   37.83    4.64   3
   0  14  -5   43.27    4.76   4
   0  14  -5   34.43    7.85   2
  -1 -14  -5   10.07    4.45   3
   1  14   5    7.52    7.32   2
   1  14   5   11.59    3.97   4
   1  14   5    9.52    4.27   3
  -1  14  -5    0.12    2.76   3
  -1  14  -5   13.38    2.87   4
  -1  14  -5    5.95    5.70   2
  -2 -14  -5   23.71    5.54   3
   2  14   5   16.60    5.12   3
   2  14   5   14.82    5.47   4
   2  14   5   19.02   10.00   2
  -2  14  -5   18.44    3.10   4
  -2  14  -5   21.33    8.02   2
  -1  15   5  -10.15    5.95   2
   1  15  -5    0.92    3.84   4
  -1  15   5    3.38    3.17   4
   1  15  -5    4.59    4.25   3
   1  15  -5   -9.72    5.23   2
  -1  15   5    3.79    3.45   3
   0  15   5   20.80    4.81   3
   0  15   5   17.35    4.09   4
   0  15  -5   17.46    4.11   3
   0  15  -5   24.58    4.17   4
   0  15  -5   17.09    7.35   2
   0  15   5    9.50    7.48   2
   1  15   5   -3.10    4.01   3
  -1  15  -5   -0.33    5.44   2
   1  15   5   17.76    9.30   2
  -1  15  -5   -1.63    2.76   3
  -1  15  -5    1.56    2.74   4
   1  15   5    4.92    3.59   4
  -5   0   6    3.72    7.58   3
  -5   0   6   -6.81    6.60   1
   5   0  -6    2.13    5.18   3
  -4   0   6   19.58    4.77   3
  -4   0   6   24.61    4.76   4
   4   0  -6   22.02    4.93   3
  -4   0   6   23.75    6.53   1
  -3   0   6   36.73    4.59   4
  -3   0   6   42.42    4.63   4
  -3   0   6   35.82    5.64   1
   3   0  -6   43.23    4.93   4
   3   0  -6   37.63    4.87   3
  -3   0   6   33.93    4.59   3
  -2   0   6    3.84    1.91   3
   2   0  -6    7.37    2.16   4
  -2   0   6   11.27    3.14   1
   2   0  -6    2.44    2.22   3
   2   0  -6    4.04    2.37   4
   2   0  -6    3.91    2.77   1
  -2   0   6    4.90    2.18   4
   2   0  -6    3.85    2.25   3
  -2   0   6    4.89    1.99   4
  -2   0   6    6.53    2.31   3
   1   0  -6 3094.12  113.06   3
  -1   0   6 3207.43  113.06   4
  -1   0   6 3124.89  114.06   2
   1   0  -6 2958.90  113.07   4
   1   0  -6 2920.01  113.09   3
  -1   0   6 2967.33  113.01   3
  -1   0   6 3032.58  113.07   4
   1   0  -6 3428.39  113.70   1
   1   0  -6 3263.54  113.23   4
  -1   0   6 3068.63  113.05   3
   0   0  -6   22.93    1.69   4
   0   0   6   20.41    1.70   4
   0   0  -6   23.67    1.66   4
   0   0   6   23.54    1.70   3
   0   0   6   21.23    1.60   4
   0   0  -6   19.95    1.63   3
   0   0  -6   21.90    1.74   3
   0   0   6   23.23    1.70   3
  -1   0  -6  338.33   12.99   4
   1   0   6  337.21   12.97   4
  -1   0  -6  330.96   13.02   3
  -1   0  -6  340.55   12.97   3
   1   0   6  315.04   12.94   3
  -1   0  -6  348.03   13.08   4
   1   0   6  343.17   12.92   4
  -1   0  -6  333.73   14.00   1
   1   0   6  349.47   12.95   3
  -2   0  -6   41.66    3.29   4
   2   0   6   41.72    3.45   3
  -2   0  -6   41.23    4.44   1
   2   0   6   46.25    3.15   3
   2   0   6   46.62    3.37   4
  -2   0  -6   45.15    3.51   4
  -2   0  -6   44.53    3.24   3
  -3   0  -6  501.73   21.00   4
  -3   0  -6  519.62   20.55   4
  -3   0  -6  492.90   22.60   1
  -3   0  -6  518.50   20.41   3
   3   0   6  501.60   20.62   3
   3   0   6  504.87   20.45   4
  -3   0  -6  492.50   21.03   3
  -4   0  -6    0.28    3.14   4
  -4   0  -6    0.56    3.63   3
  -4   0  -6    0.28    5.04   1
  -5  -1   6   -3.45   10.68   1
  -5  -1   6    3.54    7.54   3
   5   1  -6   -4.32    5.11   3
  -5   1   6    1.47    4.07   4
  -5   1   6   -6.81    6.64   1
  -4  -1   6   16.23    6.04   1
   4  -1  -6   18.31    4.77   3
  -4  -1   6   13.20    4.60   3
  -4  -1   6   18.83    4.40   4
  -4   1   6   16.58    4.19   4
   4   1  -6   21.45    5.16   3
  -4   1   6   10.38    5.55   1
  -4   1   6   17.69    4.66   3
  -3  -1   6  129.48    8.88   1
  -3  -1   6  113.40    7.37   3
  -3  -1   6  100.10    6.69   4
   3  -1  -6  106.88    7.00   3
   3  -1  -6  109.31    6.87   4
  -3  -1   6  115.58    7.25   4
   3   1  -6  104.39    6.99   4
   3   1  -6  109.76    6.92   4
  -3   1   6  113.49    6.79   4
   3   1  -6  108.54    7.54   3
  -3   1   6  111.74    6.76   4
  -3   1   6  111.15    7.15   3
  -3   1   6  112.80    8.14   1
  -2  -1   6  107.24    6.03   3
   2  -1  -6   90.57    5.66   3
   2  -1  -6   86.68    5.54   4
   2  -1  -6   95.94    5.68   3
  -2  -1   6   97.07    5.65   3
   2  -1  -6  108.00    5.85   4
  -2  -1   6  101.31    5.70   4
  -2  -1   6  123.32    6.10   4
   2  -1  -6   88.46    6.29   1
  -2  -1   6  109.54    6.70   1
   2   1  -6   95.55    6.45   1
  -2   1   6  124.84    6.73   1
  -2   1   6  109.04    5.76   4
   2   1  -6  116.60    6.09   3
   2   1  -6  103.24    5.92   4
   2   1  -6   99.28    5.85   3
  -2   1   6   99.78    5.77   3
  -2   1   6  100.52    5.80   3
   2   1  -6  106.65    5.98   4
  -2   1   6  103.58    5.77   4
   1  -1  -6  509.35   19.48   3
  -1  -1   6  520.00   19.53   3
  -1  -1   6  485.54   19.38   3
   1  -1  -6  499.21   19.79   1
   1  -1  -6  528.99   19.53   4
   1  -1  -6  466.68   19.42   3
  -1  -1   6  508.69   19.40   4
   1  -1  -6  484.22   19.45   4
  -1  -1   6  518.80   18.91   2
  -1  -1   6  501.13   19.46   4
   1   1  -6  509.86   19.53   4
   1   1  -6  486.93   19.41   3
   1   1  -6  467.16   19.42   4
  -1   1   6  509.50   19.47   3
  -1   1   6  548.12   19.51   3
   1   1  -6  500.88   19.56   3
  -1   1   6  489.80   19.40   2
   1   1  -6  560.03   20.14   1
  -1   1   6  521.44   19.54   4
  -1   1   6  516.49   19.49   4
   0  -1  -6   73.36    3.60   3
   0  -1  -6   68.05    3.53   4
   0  -1  -6   70.27    3.54   4
   0  -1   6   75.01    3.28   4
   0  -1   6   73.47    3.28   3
   0  -1  -6   72.49    3.62   3
   0  -1   6   81.59    3.29   3
   0  -1   6   78.89    3.28   4
   0  -1  -6   73.69    3.94   2
   0   1  -6   71.21    3.33   4
   0   1   6   78.31    3.63   3
   0   1   6   77.27    3.56   4
   0   1  -6   69.27    3.33   3
   0   1  -6   72.01    3.30   4
   0   1   6   68.44    3.52   3
   0   1  -6   74.98    3.32   3
   0   1   6   69.26    4.19   2
  -1  -1  -6  221.07    9.95   1
   1  -1   6  219.12    8.66   4
   1  -1   6  213.00    8.72   3
  -1  -1  -6  220.71    9.00   3
  -1  -1  -6  227.85   10.85   2
  -1  -1  -6  223.63    9.04   4
  -1  -1  -6  234.70    9.21   4
   1  -1   6  225.90    8.58   4
   1  -1   6  218.48    8.65   3
  -1  -1  -6  232.46    9.18   3
  -1   1  -6  213.99    8.76   3
  -1   1  -6  215.96    8.69   3
  -1   1  -6  225.43    8.78   4
   1   1   6  229.39    9.02   4
   1   1   6  230.18    9.11   4
  -1   1  -6  227.34    9.92   1
  -1   1  -6  212.46    8.70   4
   1   1   6  227.90    9.08   3
   1   1   6  235.04    9.07   3
   2  -1   6   66.54    3.79   4
  -2  -1  -6   67.75    4.15   4
  -2  -1  -6   65.55    4.19   3
  -2  -1  -6   73.85    4.21   3
  -2  -1  -6   62.92    4.21   4
   2  -1   6   69.38    4.03   3
   2  -1   6   64.23    3.67   3
  -2  -1  -6   63.64    5.37   1
  -2   1  -6   63.74    4.26   3
  -2   1  -6   61.10    3.94   4
  -2   1  -6   68.13    5.32   1
   2   1   6   63.28    4.14   4
  -2   1  -6   67.49    3.88   3
   2   1   6   62.86    4.33   3
   3  -1   6   71.29    4.96   4
  -3  -1  -6   87.14    5.21   3
  -3  -1  -6   81.90    5.99   3
   3  -1   6   69.23    5.22   3
  -3  -1  -6   77.96    5.43   4
  -3  -1  -6   62.39    5.48   4
  -3  -1  -6   85.94    7.71   1
  -3   1  -6   74.52    5.88   3
  -3   1  -6   76.54    5.05   3
  -3   1  -6   76.71    5.33   4
   3   1   6   73.22    5.07   4
  -3   1  -6   66.65    6.73   1
   3   1   6   73.71    5.59   3
  -3   1  -6   63.47    5.53   4
  -4  -1  -6   19.32    4.39   4
  -4  -1  -6   18.05    4.96   3
  -4  -1  -6   12.26    5.64   1
  -4   1  -6   19.83    4.59   4
  -4   1  -6    9.92    5.13   1
  -4   1  -6   18.97    4.58   3
   4  -2  -6   16.22    4.78   3
  -4  -2   6   21.20    4.72   4
  -4  -2   6   28.01    5.51   3
  -4  -2   6   15.05    6.13   1
  -4   2   6   14.68    4.32   3
  -4   2   6   16.92    4.46   4
   4   2  -6   20.59    5.10   3
  -4   2   6   23.65    6.24   1
   3  -2  -6   63.20    5.27   4
  -3  -2   6   73.33    5.83   4
  -3  -2   6   62.65    5.26   4
   3  -2  -6   67.35    5.92   3
  -3  -2   6   75.95    6.76   2
  -3  -2   6   65.26    5.97   3
  -3  -2   6   78.24    7.08   1
  -3   2   6   70.01    5.34   4
   3   2  -6   75.47    5.98   4
   3   2  -6   72.80    5.63   4
  -3   2   6   64.62    5.60   3
  -3   2   6   63.49    5.44   4
  -3   2   6   71.88    7.10   1
   3   2  -6   78.17    6.04   3
  -2  -2   6   76.55    5.31   2
  -2  -2   6   79.72    5.05   4
  -2  -2   6   80.85    5.19   3
   2  -2  -6   73.93    4.79   4
   2  -2  -6   78.54    4.85   3
   2  -2  -6   68.66    5.32   1
  -2  -2   6   87.78    6.19   1
   2  -2  -6   80.64    5.93   3
   2  -2  -6   66.19    4.60   4
  -2  -2   6   62.52    5.29   3
  -2  -2   6   71.90    4.74   4
   2   2  -6   76.67    5.05   4
   2   2  -6   74.81    5.00   3
  -2   2   6   68.65    4.70   3
  -2   2   6   78.29    4.66   4
   2   2  -6   73.16    5.03   3
   2   2  -6   88.42    5.34   4
  -2   2   6   73.61    4.66   3
  -2   2   6   83.29    5.51   1
  -2   2   6   77.59    4.87   4
   1  -2  -6  183.70    8.16   4
   1  -2  -6  178.97    8.14   3
  -1  -2   6  188.25    7.55   2
   1  -2  -6  200.80    8.43   1
   1  -2  -6  190.39    8.17   4
  -1  -2   6  200.43    8.29   3
   1  -2  -6  185.95    8.12   3
  -1  -2   6  188.84    8.05   4
  -1  -2   6  187.56    8.08   3
   1   2  -6  192.86    8.73   1
   1   2  -6  188.53    8.26   3
  -1   2   6  202.65    8.17   3
  -1   2   6  192.26    8.20   4
  -1   2   6  178.25    8.05   3
   1   2  -6  194.16    8.23   4
   1   2  -6  185.07    8.15   3
  -1   2   6  190.40    8.13   4
   1   2  -6  189.88    8.24   4
  -1   2   6  193.90    8.53   2
   0  -2   6   19.63    1.35   4
   0  -2  -6   17.99    1.89   4
   0  -2  -6   18.12    2.37   2
   0  -2  -6   17.16    1.90   4
   0  -2   6   19.75    1.20   4
   0  -2   6   18.63    1.45   3
   0  -2  -6   20.47    2.02   3
   0  -2  -6   20.45    1.89   3
   0   2   6   23.89    2.22   4
   0   2  -6   20.57    1.57   3
   0   2  -6   18.37    1.54   4
   0   2   6   15.99    2.40   2
   0   2  -6   18.46    1.44   4
   0   2   6   20.71    1.88   4
   0   2   6   27.85    2.39   3
   0   2   6   18.78    1.77   3
   0   2  -6   17.78    1.50   3
  -1  -2  -6    8.32    1.70   3
   1  -2   6    7.31    0.86   3
  -1  -2  -6    9.22    1.72   4
   1  -2   6    5.65    0.49   4
   1  -2   6    5.76    0.93   3
  -1  -2  -6    6.52    2.16   1
   1  -2   6    5.53    0.48   4
  -1  -2  -6    2.54    2.23   2
  -1  -2  -6    7.35    1.58   4
  -1  -2  -6    5.94    1.57   3
  -1   2  -6    5.98    2.06   1
  -1   2  -6    5.25    0.93   4
   1   2   6    5.88    1.56   3
  -1   2  -6    7.61    1.01   3
   1   2   6    8.62    1.54   3
  -1   2  -6    5.68    0.99   4
   1   2   6    7.04    1.47   4
  -1   2  -6    5.90    0.99   3
   1   2   6    6.91    1.45   4
  -2  -2  -6   17.66    3.85   1
   2  -2   6   15.54    1.87   3
  -2  -2  -6   15.27    2.54   4
   2  -2   6   13.27    2.06   3
   2  -2   6   14.56    1.80   4
  -2  -2  -6   10.40    2.42   3
  -2  -2  -6   18.03    2.78   4
  -2  -2  -6   15.90    2.53   3
  -2   2  -6   16.19    2.20   4
  -2   2  -6   17.51    3.48   1
  -2   2  -6   14.80    2.04   3
  -2   2  -6   16.96    2.39   3
   2   2   6   17.50    2.69   3
  -2   2  -6   10.61    2.08   4
   3  -2   6    1.70    1.98   4
  -3  -2  -6    2.68    2.31   4
  -3  -2  -6    3.76    2.34   3
  -3  -2  -6    1.25    3.21   3
  -3  -2  -6   -4.52    3.70   1
   3  -2   6   -0.44    2.41   3
  -3  -2  -6   -2.00    2.72   4
   3   2   6   -0.94    1.68   4
  -3   2  -6    3.94    2.76   4
  -3   2  -6    6.95    4.10   1
   3   2   6    5.15    2.94   3
  -3   2  -6    1.00    2.81   3
  -3   2  -6   -4.02    2.05   3
  -3   2  -6    0.74    2.54   4
  -4  -2  -6   55.01    8.67   1
  -4  -2  -6   79.32    8.13   3
  -4  -2  -6   83.05    8.02   4
  -4   2  -6   77.78    6.86   4
  -4   2  -6   70.08    8.97   1
  -4   2  -6   85.42    7.15   3
   4   2   6   66.59    8.91   3
   4  -3  -6   64.58    6.77   3
  -4  -3   6   55.74    8.04   1
  -4  -3   6   73.64    7.43   4
  -4  -3   6   55.10    7.09   3
  -4   3   6   78.45    7.49   3
  -4   3   6   57.31    6.42   4
  -4   3   6   75.14    9.22   1
   4   3  -6   64.15    7.28   3
   3  -3  -6   60.93    5.22   3
   3  -3  -6   55.19    5.00   4
  -3  -3   6   58.96    5.49   4
  -3  -3   6   69.27    6.84   1
  -3  -3   6   73.80    6.70   3
   3   3  -6   56.79    5.24   4
  -3   3   6   57.53    5.29   3
  -3   3   6   53.28    5.12   4
   3   3  -6   73.24    6.09   4
  -3   3   6   55.70    5.36   4
  -3   3   6   63.21    6.81   1
   3   3  -6   63.54    5.88   3
  -2  -3   6   49.80    4.57   2
   2  -3  -6   53.81    4.59   1
   2  -3  -6   63.03    4.31   4
  -2  -3   6   59.42    5.60   1
   2  -3  -6   54.79    4.01   4
  -2  -3   6   58.88    4.19   4
  -2  -3   6   47.33    4.25   4
   2  -3  -6   61.20    4.23   3
  -2  -3   6   50.79    4.70   3
   2   3  -6   57.73    4.48   4
  -2   3   6   57.50    4.11   3
   2   3  -6   54.42    4.38   3
   2   3  -6   57.23    4.60   4
  -2   3   6   62.04    5.18   2
  -2   3   6   59.75    4.16   3
  -2   3   6   60.37    4.69   1
  -2   3   6   50.92    3.94   4
  -2   3   6   58.14    4.22   4
   2   3  -6   61.09    4.61   3
   1  -3  -6   76.87    4.33   3
  -1  -3   6   76.19    4.14   3
   1  -3  -6   70.43    4.11   4
   1  -3  -6   69.91    4.09   3
   1  -3  -6   71.76    4.71   2
  -1  -3   6   72.16    4.25   3
   1  -3  -6   76.55    4.30   1
  -1  -3   6   79.55    4.02   4
   1  -3  -6   80.42    4.20   4
  -1  -3   6   75.96    3.84   2
  -1   3   6   73.40    4.07   3
  -1   3   6   79.12    4.95   2
   1   3  -6   76.12    4.33   3
  -1   3   6   71.77    4.10   4
   1   3  -6   74.46    3.95   2
   1   3  -6   66.54    4.08   4
   1   3  -6   73.47    4.68   1
  -1   3   6   72.83    4.09   4
   1   3  -6   75.85    4.39   3
   1   3  -6   72.81    4.21   4
  -1   3   6   75.25    4.09   3
   0  -3  -6   78.57    4.07   4
   0  -3  -6   76.41    4.72   2
   0  -3  -6   73.33    3.98   4
   0  -3   6   74.97    3.30   3
   0  -3   6   78.14    3.07   4
   0  -3  -6   74.89    3.97   3
   0  -3   6   81.19    3.05   4
   0  -3  -6   79.79    4.08   3
   0   3  -6   70.90    3.40   4
   0   3   6   80.18    4.11   4
   0   3   6   71.71    4.93   2
   0   3  -6   74.40    3.47   3
   0   3  -6   79.13    4.28   2
   0   3  -6   74.97    3.40   4
   0   3   6   76.29    4.00   3
   0   3   6   81.81    4.04   4
   0   3   6   78.85    3.96   3
   0   3  -6   76.13    3.40   3
  -1  -3  -6  202.70    8.27   4
  -1  -3  -6  193.55    8.38   3
  -1  -3  -6  183.21    8.33   4
  -1  -3  -6  190.62    9.92   2
  -1  -3  -6  187.41    8.15   3
  -1  -3  -6  174.48    8.74   1
  -1   3  -6  191.17    7.25   4
   1   3   6  202.47    8.29   3
  -1   3  -6  187.81    7.26   3
  -1   3  -6  195.66    8.75   1
   1   3   6  202.55    8.28   4
   1   3   6  198.58    8.32   4
  -1   3  -6  192.70    7.16   3
  -1   3  -6  183.65    7.24   4
   1   3   6  160.58   10.27   2
   1   3   6  200.97    8.40   3
   2  -3   6   16.32    1.46   4
  -2  -3  -6   23.41    2.92   3
  -2  -3  -6   14.61    2.66   3
  -2  -3  -6   24.04    4.13   1
  -2  -3  -6   20.43    2.73   4
   2  -3   6   18.34    1.78   3
  -2  -3  -6   24.64    3.31   4
  -2   3  -6   17.12    2.29   3
  -2   3  -6   16.20    2.15   4
  -2   3  -6   22.66    3.85   1
   2   3   6   17.14    2.67   4
   2   3   6   17.78    3.02   3
  -2   3  -6   14.74    1.97   3
  -2   3  -6   14.80    2.11   4
   3  -3   6    8.72    2.05   4
  -3  -3  -6   10.67    4.50   1
  -3  -3  -6   17.84    3.11   4
  -3  -3  -6   10.84    3.70   3
   3  -3   6    9.83    2.60   3
  -3   3  -6   10.23    2.83   4
   3   3   6   12.99    3.55   4
  -3   3  -6   17.49    4.78   1
   3   3   6   11.95    3.56   3
  -3   3  -6    8.86    2.84   4
  -3   3  -6   16.15    2.84   3
  -3   3  -6   12.18    3.06   3
  -4  -3  -6    6.38    3.93   4
  -4  -3  -6   12.18    4.64   3
  -4  -3  -6   12.54    5.73   1
  -4   3  -6   21.25    4.54   3
   4   3   6   16.23    4.58   3
  -4   3  -6   15.19    4.44   4
  -4   3  -6    9.42    5.34   1
  -4  -4   6    1.83    5.29   1
   4  -4  -6    6.37    4.03   3
  -4  -4   6   15.76    5.33   3
  -4   4   6   12.42    4.10   4
  -4   4   6    9.57    5.63   1
   4   4  -6   14.87    5.42   3
  -4   4   6    7.28    3.84   3
  -3  -4   6    3.43    3.20   4
  -3  -4   6   10.53    4.70   1
   3  -4  -6    1.76    2.83   3
  -3  -4   6    3.27    3.17   3
   3  -4  -6    3.51    2.89   4
  -3   4   6    9.54    4.25   1
   3   4  -6    5.68    3.52   4
   3   4  -6    1.09    3.45   3
  -3   4   6    6.93    3.18   3
  -3   4   6    3.65    3.69   2
  -3   4   6    5.11    2.86   4
  -3   4   6    4.91    2.60   4
  -2  -4   6  683.40   24.58   1
  -2  -4   6  602.79   23.68   2
  -2  -4   6  540.14   23.29   3
   2  -4  -6  552.53   22.78   3
  -2  -4   6  559.39   22.95   4
   2  -4  -6  583.82   23.05   4
  -2  -4   6  603.63   23.39   4
   2  -4  -6  553.43   23.34   1
   2  -4  -6  575.08   22.85   4
  -2   4   6  604.71   23.04   3
  -2   4   6  582.53   23.00   3
   2   4  -6  564.55   23.25   3
  -2   4   6  609.01   24.75   2
  -2   4   6  544.33   22.95   4
  -2   4   6  609.18   23.40   1
  -2   4   6  573.05   22.96   4
   2   4  -6  568.68   23.30   4
   2   4  -6  591.89   23.44   4
  -1  -4   6  759.17   29.55   3
   1  -4  -6  822.06   29.84   3
   1  -4  -6  762.74   29.76   4
  -1  -4   6  773.39   29.78   3
   1  -4  -6  762.82   29.64   3
  -1  -4   6  821.48   29.71   4
   1  -4  -6  827.25   29.72   1
   1  -4  -6  828.20   31.09   2
  -1  -4   6  765.26   29.75   2
   1  -4  -6  795.19   29.75   4
  -1  -4   6  794.84   29.56   4
  -1   4   6  782.44   30.91   2
  -1   4   6  825.30   29.92   4
   1   4  -6  780.11   29.76   4
   1   4  -6  782.89   30.27   1
  -1   4   6  782.03   29.71   3
  -1   4   6  773.84   29.71   3
  -1   4   6  765.94   29.73   4
   1   4  -6  807.83   29.89   3
   1   4  -6  730.95   29.71   4
   1   4  -6  731.89   29.63   3
   1   4  -6  817.26   29.96   2
   0  -4   6 1145.05   41.31   4
   0  -4  -6 1107.18   41.97   3
   0  -4  -6 1195.32   42.22   4
   0  -4  -6 1067.25   41.92   4
   0  -4   6 1172.54   40.88   4
   0  -4  -6 1124.15   41.99   3
   0  -4  -6 1123.41   43.20   2
   0  -4   6 1142.04   41.11   3
   0   4  -6 1121.71   41.34   4
   0   4   6 1173.62   42.05   4
   0   4   6 1168.82   41.99   3
   0   4  -6 1095.30   41.28   4
   0   4  -6 1123.04   41.27   3
   0   4  -6 1102.79   42.38   2
   0   4   6 1139.57   42.11   4
   0   4   6 1118.71   43.33   2
   0   4   6 1089.13   41.98   3
  -1  -4  -6  197.96    8.48   4
  -1  -4  -6  190.75    8.60   4
  -1  -4  -6  190.50   10.09   2
  -1  -4  -6  184.28    8.37   3
  -1  -4  -6  188.82    8.56   3
  -1  -4  -6  188.71    8.91   1
   1   4   6  194.99    8.43   3
  -1   4  -6  197.42    8.84   1
  -1   4  -6  188.90    7.20   4
   1   4   6  197.36   10.83   2
   1   4   6  194.44    8.61   4
  -1   4  -6  190.60    7.20   4
   1   4   6  199.46    8.60   3
   1   4   6  198.51    8.51   4
   2  -4   6  486.70   17.47   3
  -2  -4  -6  451.37   19.14   4
   2  -4   6  454.81   17.41   3
  -2  -4  -6  400.56   18.86   3
  -2  -4  -6  498.12   18.83   3
  -2  -4  -6  486.21   18.86   4
  -2  -4  -6  442.71   19.99   1
  -2   4  -6  457.58   17.95   4
   2   4   6  472.36   18.98   3
  -2   4  -6  481.89   17.94   4
   2   4   6  474.60   18.96   4
  -2   4  -6  442.32   19.61   1
  -2   4  -6  461.23   17.86   3
  -2   4  -6  493.18   17.77   3
  -3  -4  -6   22.84    5.64   1
   3  -4   6   14.76    3.67   3
  -3  -4  -6   17.35    3.28   4
  -3   4  -6   14.45    3.09   3
   3   4   6   20.99    4.10   3
  -3   4  -6   15.69    3.01   4
  -3   4  -6   16.75    4.70   1
  -3   4  -6   20.98    2.94   3
  -3   4  -6   16.66    3.03   4
   3   4   6   18.82    3.54   4
  -4  -4  -6    2.15    4.35   3
  -4  -4  -6    1.54    3.53   4
  -4  -4  -6    3.75    5.44   1
  -4   4  -6    1.71    3.50   3
  -4   4  -6    4.74    3.53   4
  -4   4  -6    1.97    4.75   1
   4   4   6   -1.35    3.75   3
   4  -5  -6   19.99    4.33   3
  -4  -5   6   18.52    5.27   3
  -4  -5   6   17.52    6.14   1
  -4   5   6   20.42    6.33   2
  -4   5   6   12.64    5.68   1
  -4   5   6   17.21    4.28   3
  -4   5   6   17.60    4.66   4
   4   5  -6   23.35    5.63   3
   3  -5  -6   46.78    4.92   3
  -3  -5   6   40.16    5.37   4
  -3  -5   6   29.17    4.88   3
  -3  -5   6   42.96    6.67   1
   3  -5  -6   35.50    4.52   4
   3   5  -6   40.55    5.39   4
   3   5  -6   46.08    5.60   3
   3   5  -6   40.02    4.85   4
  -3   5   6   40.65    6.59   2
  -3   5   6   33.94    4.31   3
  -3   5   6   42.85    5.88   1
  -3   5   6   35.72    4.69   4
  -3   5   6   31.50    4.16   4
   2  -5  -6  172.96    8.46   3
   2  -5  -6  183.23    8.32   4
   2  -5  -6  171.46    8.64   1
  -2  -5   6  176.29    8.76   4
  -2  -5   6  176.78    9.28   2
  -2  -5   6  176.04    9.10   3
  -2   5   6  182.74    8.49   4
  -2   5   6  172.98    8.30   3
   2   5  -6  163.80    8.64   3
  -2   5   6  170.85    8.42   4
  -2   5   6  173.12    8.53   3
   2   5  -6  171.46    8.85   4
   2   5  -6  161.23    8.70   3
  -2   5   6  191.26   10.35   2
  -1  -5   6  453.70   17.12   4
  -1  -5   6  435.96   17.26   3
   1  -5  -6  439.04   17.27   4
  -1  -5   6  453.46   17.03   3
   1  -5  -6  413.93   17.08   4
  -1  -5   6  423.49   17.51   2
  -1  -5   6  471.61   16.98   4
   1  -5  -6  421.47   18.67   2
   1  -5  -6  421.40   17.08   3
   1  -5  -6  424.48   16.87   1
   1  -5  -6  470.41   17.33   3
  -1   5   6  431.54   17.18   3
  -1   5   6  425.97   17.20   4
  -1   5   6  428.66   17.22   4
   1   5  -6  437.71   17.23   4
  -1   5   6  434.79   17.17   3
   1   5  -6  424.65   17.71   1
  -1   5   6  420.50   18.60   2
   1   5  -6  439.94   17.71   2
   1   5  -6  420.25   17.10   3
   1   5  -6  430.16   17.23   4
   1   5  -6  419.18   17.10   3
   0  -5  -6    4.34    1.32   1
   0  -5  -6    3.66    1.66   4
   0  -5  -6    1.52    1.58   3
   0  -5   6    4.36    0.50   4
   0  -5  -6    2.43    1.52   4
   0  -5   6    2.29    0.78   3
   0  -5  -6    4.74    1.73   3
   0  -5   6    4.02    0.80   3
   0  -5  -6    3.72    2.02   2
   0  -5   6    3.64    0.47   4
   0   5   6    1.75    1.41   4
   0   5   6   12.59    3.42   2
   0   5  -6    4.99    1.92   2
   0   5  -6    1.23    1.17   3
   0   5  -6    3.80    1.09   4
   0   5   6    6.33    1.76   3
   0   5  -6    3.81    1.02   3
   0   5   6    5.09    1.75   4
   0   5   6    5.05    1.57   3
  -1  -5  -6  447.79   18.51   3
  -1  -5  -6  450.03   18.32   3
  -1  -5  -6  471.48   18.48   4
  -1  -5  -6  448.38   18.56   4
  -1  -5  -6  452.77   18.76   1
  -1  -5  -6  479.89   20.44   2
  -1   5  -6  500.75   18.75   1
  -1   5  -6  473.25   16.99   4
  -1   5  -6  448.82   16.96   4
   1   5   6  478.80   18.60   4
   1   5   6  459.55   18.37   3
   1   5   6  464.86   18.52   3
   1   5   6  456.34   20.90   2
   1   5   6  478.67   18.49   4
   2  -5   6   82.29    3.53   3
  -2  -5  -6   92.60    5.80   4
  -2  -5  -6   84.66    5.21   4
   2  -5   6   83.49    3.54   3
  -2  -5  -6   80.68    5.62   3
  -2  -5  -6   75.45    6.41   1
  -2   5  -6   86.92    4.34   4
   2   5   6   88.23    5.83   3
  -2   5  -6   82.86    4.33   4
  -2   5  -6   80.62    5.88   1
   2   5   6   87.40    5.46   4
  -2   5  -6   83.38    4.08   3
  -2   5  -6   84.40    4.10   3
  -3  -5  -6   38.22    6.16   1
  -3  -5  -6   43.00    5.90   4
   3   5   6   39.28    5.19   3
   3   5   6   29.07    6.50   4
  -3   5  -6   27.45    3.44   4
  -3   5  -6   37.29    3.83   4
  -3   5  -6   32.96    5.58   1
  -3   5  -6   30.37    3.55   3
  -4  -5  -6   11.32    4.76   3
  -4  -5  -6    5.43    5.40   1
  -4  -5  -6    5.92    4.33   4
   4   5   6   12.11    4.48   3
  -4   5  -6   14.71    5.37   1
  -4   5  -6   11.79    3.77   3
  -4   5  -6   10.97    3.63   4
  -4  -6   6   16.08    6.19   1
  -4  -6   6   12.93    4.90   3
   4   6  -6   14.93    5.24   3
  -4   6   6   12.46    4.06   4
  -4   6   6   16.69    4.20   3
  -4   6   6   23.27    7.26   2
  -4   6   6    9.54    5.30   1
   3  -6  -6  123.51    7.33   3
  -3  -6   6  112.95    8.42   3
  -3  -6   6  130.18    9.26   1
  -3  -6   6  105.62    7.60   4
   3   6  -6  120.21    8.19   3
   3   6  -6  104.16    7.37   4
  -3   6   6  126.43   10.76   4
  -3   6   6  126.25   10.07   2
  -3   6   6  119.00    7.43   3
   3   6  -6  108.78    7.91   4
  -3   6   6  107.76    7.09   4
  -3   6   6  120.11    8.41   1
   2  -6  -6    0.87    2.15   1
  -2  -6   6    2.15    2.50   3
  -2  -6   6    0.18    2.12   4
   2  -6  -6   -1.29    1.79   4
  -2  -6   6    2.98    2.39   2
   2  -6  -6    2.49    2.10   3
   2   6  -6   -1.12    2.02   3
   2   6  -6    0.90    2.03   4
  -2   6   6   -2.14    1.75   3
   2   6  -6   -2.69    2.48   4
  -2   6   6    2.67    2.07   4
  -2   6   6    2.73    1.86   4
   2   6  -6   -0.53    2.69   3
  -2   6   6    0.97    2.94   2
  -2   6   6    3.85    1.98   3
   1  -6  -6  118.47    6.05   4
   1  -6  -6  114.48    5.99   3
   1  -6  -6  117.81    7.54   2
  -1  -6   6  124.99    6.05   4
  -1  -6   6  108.78    6.09   3
  -1  -6   6  120.79    6.62   2
   1  -6  -6  122.57    6.15   4
  -1  -6   6  128.03    5.90   3
   1  -6  -6  115.55    5.54   1
  -1   6   6  117.53    6.03   3
  -1   6   6  129.45    6.24   4
   1   6  -6  113.09    6.61   1
   1   6  -6  120.26    6.15   4
   1   6  -6  121.14    6.06   4
   1   6  -6  127.08    7.04   2
  -1   6   6  122.07    7.84   2
   1   6  -6  123.25    6.05   3
  -1   6   6  124.35    6.18   3
   1   6  -6  120.24    6.19   3
  -1   6   6  120.90    6.16   4
   0  -6  -6  206.52    9.20   4
   0  -6   6  210.11    8.11   3
   0  -6  -6  205.07    9.19   3
   0  -6  -6  211.21    8.57   1
   0  -6   6  205.66    7.84   4
   0  -6  -6  208.78    9.25   4
   0  -6  -6  222.82    9.32   3
   0  -6   6  197.62    7.82   4
   0  -6  -6  206.79   10.68   2
   0   6  -6  209.54    8.41   4
   0   6  -6  203.14   10.10   2
   0   6   6  208.10    9.16   3
   0   6   6  216.67    9.35   4
   0   6   6  216.96    9.25   4
   0   6  -6  221.02    8.52   4
   0   6  -6  215.44    8.45   3
   0   6   6  202.53    9.17   3
   0   6  -6  205.08    8.26   3
   0   6   6  208.08   11.26   2
  -1  -6  -6   34.22    3.69   1
  -1  -6  -6   27.59    3.31   3
  -1  -6  -6   36.91    3.41   4
  -1  -6  -6   33.34    3.35   4
  -1   6  -6   24.38    1.50   4
   1   6   6   31.24    2.82   4
   1   6   6   37.55    3.74   3
   1   6   6   37.26    3.72   4
   1   6   6   33.25    5.49   2
  -1   6  -6   27.56    4.41   2
  -1   6  -6   26.63    1.56   4
  -1   6  -6   38.61    3.23   1
  -2  -6  -6   24.38    4.67   1
  -2  -6  -6   25.79    3.85   3
  -2  -6  -6   24.42    3.29   4
  -2  -6  -6   27.48    3.83   4
  -2   6  -6   25.08    2.04   3
   2   6   6   24.37    3.55   4
  -2   6  -6   24.89    2.37   4
   2   6   6   28.13    4.07   3
  -2   6  -6   25.41    2.27   4
  -2   6  -6   24.53    3.75   1
   2   6   6   25.44    6.12   2
  -2   6  -6   24.26    2.21   3
  -3  -6  -6   14.73    3.89   3
  -3  -6  -6   21.86    5.65   1
  -3   6  -6   19.45    4.48   1
   3   6   6   11.37    4.21   3
  -3   6  -6   19.22    2.86   3
  -3   6  -6   17.94    2.95   4
  -3   6  -6   18.95    2.99   4
  -4  -6  -6   13.33    5.40   3
  -4  -6  -6   22.04    7.05   1
  -4  -6  -6   22.51    5.62   4
  -4   6  -6   17.34    5.66   1
   4   6   6   18.14    5.20   3
  -4   6  -6   23.80    3.94   3
  -4   6  -6   17.05    3.85   4
  -4  -7   6   20.45    5.44   3
  -4  -7   6   10.22    6.21   1
  -4   7   6   24.76    6.82   2
  -4   7   6   16.16    4.37   3
  -4   7   6   21.68    6.11   1
  -4   7   6   11.63    3.96   4
   4   7  -6   25.04    5.87   3
   3  -7  -6    5.48    2.90   3
  -3  -7   6    5.13    4.58   1
  -3  -7   6    3.06    3.73   3
  -3   7   6    6.00    4.89   2
  -3   7   6    0.77    3.59   1
   3   7  -6    5.79    3.94   4
  -3   7   6    3.63    2.79   3
   3   7  -6    1.31    3.65   3
  -3   7   6    1.01    2.74   4
   2  -7  -6   20.74    3.22   3
   2  -7  -6   16.52    3.06   1
  -2  -7   6   11.41    3.15   2
   2  -7  -6   11.00    2.26   4
  -2  -7   6   22.34    3.83   3
  -2  -7   6   11.41    3.00   4
   2   7  -6   18.58    3.86   2
   2   7  -6   17.64    3.64   3
  -2   7   6   14.08    2.70   4
  -2   7   6   11.85    2.75   4
  -2   7   6   14.95    4.34   2
  -2   7   6   19.03    2.92   3
   2   7  -6   15.97    3.45   4
   2   7  -6   16.90    3.16   3
  -2   7   6   18.38    3.22   3
   2   7  -6   16.78    3.15   4
  -1  -7   6  215.57   10.51   2
   1  -7  -6  215.35    8.76   1
   1  -7  -6  220.78    9.57   4
   1  -7  -6  207.84    9.52   3
  -1  -7   6  235.92    9.60   4
  -1  -7   6  205.28    9.62   3
   1   7  -6  195.77   10.00   1
  -1   7   6  215.09    9.74   4
   1   7  -6  215.96   11.01   2
  -1   7   6  228.25   11.94   2
   1   7  -6  201.98    9.58   4
  -1   7   6  207.89    9.61   4
  -1   7   6  214.04    9.61   3
  -1   7   6  205.72    9.54   3
   1   7  -6  227.09    9.73   4
   1   7  -6  214.09    9.67   3
   1   7  -6  223.03    9.51   3
   0  -7  -6  737.35   30.99   4
   0  -7  -6  818.36   31.14   3
   0  -7  -6  836.70   31.25   4
   0  -7   6  835.23   30.01   3
   0  -7   6  801.72   29.74   4
   0  -7  -6  804.94   30.25   1
   0   7   6  776.37   31.00   3
   0   7  -6  802.26   32.41   2
   0   7  -6  812.77   30.12   3
   0   7  -6  803.26   30.29   4
   0   7  -6  812.09   30.30   3
   0   7   6  849.20   31.26   3
   0   7   6  833.74   33.57   2
   0   7  -6  816.20   30.32   4
   0   7   6  824.57   31.26   4
   0   7   6  858.01   31.26   4
  -1  -7  -6    6.92    2.38   3
  -1  -7  -6    3.58    2.31   1
  -1  -7  -6    5.12    2.08   4
  -1  -7  -6    4.43    2.10   4
   1   7   6    3.66    1.93   4
   1   7   6    8.73    4.45   2
  -1   7  -6    3.67    0.86   3
  -1   7  -6    1.64    0.78   3
  -1   7  -6    3.14    0.85   4
  -1   7  -6    3.76    2.80   2
  -1   7  -6    4.70    1.92   1
   1   7   6    2.16    1.71   4
   1   7   6    8.71    2.49   3
  -1   7  -6    2.85    0.89   4
  -2  -7  -6  229.50   11.28   3
  -2  -7  -6  211.69   11.14   4
  -2  -7  -6  220.64   10.66   4
  -2  -7  -6  226.86   11.82   1
  -2   7  -6  210.47   10.97   1
   2   7   6  227.86   11.13   3
   2   7   6  228.30   14.75   2
   2   7   6  241.90   11.22   4
  -2   7  -6  233.23    9.21   4
  -2   7  -6  233.63    9.12   3
  -2   7  -6  235.99   13.79   2
  -2   7  -6  220.97    9.36   4
  -2   7  -6  235.06    8.94   3
  -3  -7  -6   58.89    7.69   1
  -3  -7  -6   61.11    6.70   3
   3   7   6   65.88    6.85   3
  -3   7  -6   50.21    4.42   4
  -3   7  -6   57.51    4.36   4
  -3   7  -6   53.67    3.97   3
  -3   7  -6   57.30    6.12   1
  -4  -7  -6   -5.62    4.20   4
  -4  -7  -6   -2.70    4.62   1
  -4  -7  -6    8.37    5.21   3
  -4   7  -6    5.51    2.91   3
  -4   7  -6    0.98    2.76   4
   4   7   6    1.46    4.00   3
  -4   7  -6    6.85    4.86   1
  -4  -8   6   -9.84    5.36   1
  -4  -8   6   11.91    4.95   3
  -4   8   6    0.96    3.49   4
   4   8  -6    1.13    4.74   3
  -4   8   6    4.22    6.21   2
  -4   8   6    7.21    4.00   3
  -4   8   6   -0.69    4.85   1
  -3  -8   6   75.90    7.80   3
   3  -8  -6   69.89    5.71   3
   3   8  -6   75.22    7.33   4
  -3   8   6   69.30    5.94   4
  -3   8   6   74.78    6.11   3
  -3   8   6   74.95    8.97   2
   3   8  -6   69.41    7.49   3
  -2  -8   6  183.52    9.44   3
   2  -8  -6  166.20    8.14   1
   2  -8  -6  165.37    8.57   3
  -2   8   6  183.35    8.87   4
  -2   8   6  179.29    8.83   4
   2   8  -6  171.53    9.20   4
  -2   8   6  181.74    8.85   3
   2   8  -6  179.61   10.66   2
  -2   8   6  182.56    9.65   3
   2   8  -6  160.24    9.16   3
   2   8  -6  156.64    9.12   4
   2   8  -6  168.14    9.98   3
  -2   8   6  163.46   11.29   2
  -1  -8   6   80.06    5.13   3
  -1  -8   6   80.39    5.92   2
   1  -8  -6   84.48    5.24   3
  -1  -8   6   79.03    4.80   4
   1  -8  -6   73.11    4.77   4
   1  -8  -6   79.81    3.60   1
   1   8  -6   86.54    5.31   3
  -1   8   6   85.05    5.20   4
   1   8  -6   72.41    6.61   2
   1   8  -6   81.97    5.63   1
   1   8  -6   71.71    4.92   4
   1   8  -6   94.93    4.96   3
  -1   8   6   79.11    4.96   3
   1   8  -6   86.15    5.26   4
  -1   8   6   77.26    4.87   3
  -1   8   6   85.35    5.05   4
  -1   8   6   82.43    7.45   2
   0  -8  -6  190.42    9.03   3
   0  -8  -6  192.29    7.83   1
   0  -8   6  195.16    7.84   3
   0  -8  -6  175.45    8.89   4
   0  -8   6  198.49    7.59   4
   0   8   6  202.78   11.84   2
   0   8   6  182.80    8.87   3
   0   8  -6  190.81   10.63   2
   0   8   6  201.76    9.24   4
   0   8  -6  194.55    8.18   4
   0   8   6  205.15    9.24   3
   0   8  -6  190.82    8.23   3
   0   8  -6  200.52    8.00   3
   0   8   6  203.81    9.08   4
   0   8  -6  180.20    8.16   4
  -1  -8  -6  118.26    7.06   4
  -1  -8  -6  127.31    7.21   3
  -1  -8  -6  124.45    6.92   4
  -1  -8  -6  127.33    7.00   1
   1   8   6  141.11    7.10   4
   1   8   6  136.07   10.61   2
  -1   8  -6  128.64    5.31   3
  -1   8  -6  134.18    5.50   4
  -1   8  -6  121.94    5.49   4
  -1   8  -6  131.38    5.35   3
  -1   8  -6  143.19    6.85   1
  -1   8  -6  121.58    8.68   2
   1   8   6  137.64    7.24   3
   1   8   6  134.02    7.21   4
  -2  -8  -6  121.26    7.80   3
  -2  -8  -6  117.98    8.01   1
  -2  -8  -6  127.34    7.77   4
  -2   8  -6  119.22    5.20   3
  -2   8  -6  117.33    7.32   1
   2   8   6  127.27    7.70   3
  -2   8  -6  117.78    5.39   3
   2   8   6  132.33    7.79   4
   2   8   6  133.51   11.87   2
  -2   8  -6  116.45    5.70   4
  -2   8  -6  128.19   10.26   2
  -2   8  -6  124.29    5.53   4
  -3  -8  -6   25.83    5.28   3
  -3  -8  -6   31.93    5.95   1
  -3   8  -6   17.22    6.75   2
  -3   8  -6   15.55    2.88   4
  -3   8  -6   20.28    2.88   4
  -3   8  -6   18.91    2.50   3
   3   8   6   20.04    4.97   3
  -3   8  -6   15.97    4.15   1
  -4  -8  -6    8.60    6.05   1
  -4  -8  -6   16.87    5.77   3
  -4   8  -6   19.00    5.73   1
  -4   8  -6   14.86    3.61   4
   4   8   6   15.28    5.37   3
  -4   8  -6   10.27    2.87   3
  -4   8  -6    9.63    6.81   2
  -4  -9   6   59.63    8.03   3
  -4   9   6   43.40    5.72   3
  -4   9   6   47.27    9.36   2
  -4   9   6   44.79    5.91   4
   4   9  -6   47.72    7.39   3
  -3  -9   6   19.93    4.65   3
  -3   9   6   16.18    6.09   2
  -3   9   6   14.75    3.58   4
   3   9  -6   25.17    5.60   3
   3   9  -6   18.06    4.76   4
  -3   9   6   13.94    3.83   3
   2  -9  -6  112.53    6.70   3
  -2  -9   6  104.45    7.45   3
   2   9  -6  123.36    9.12   2
  -2   9   6  116.59    7.11   4
   2   9  -6  121.64    7.86   4
   2   9  -6  109.73    7.18   4
  -2   9   6  116.29    6.85   4
  -2   9   6  115.84    9.96   2
  -2   9   6  114.07    6.72   3
   2   9  -6  108.31    7.61   3
   1  -9  -6    4.46    2.35   3
  -1  -9   6    7.60    2.53   3
   1  -9  -6    3.57    2.03   4
  -1  -9   6    5.95    1.99   4
  -1   9   6    7.32    2.20   3
  -1   9   6    2.41    2.03   3
  -1   9   6    3.89    2.18   4
  -1   9   6    3.70    2.06   4
   1   9  -6    3.43    2.03   4
   1   9  -6    4.45    2.76   3
   1   9  -6    4.44    3.63   2
   1   9  -6    5.11    2.56   4
   1   9  -6    0.42    1.86   3
   1   9  -6    8.91    3.03   1
  -1   9   6    4.76    4.05   2
   0  -9  -6  216.93   10.41   4
   0  -9  -6  251.48   10.71   3
   0  -9   6  241.27    9.17   4
   0   9   6  230.96   10.62   4
   0   9  -6  243.37   12.69   2
   0   9  -6  225.10    9.70   3
   0   9  -6  226.13    9.40   3
   0   9   6  219.28   13.46   2
   0   9   6  226.02   10.53   3
   0   9  -6  218.44    9.68   4
   0   9   6  220.82   10.43   4
   0   9  -6  231.77    9.62   4
  -1  -9  -6  132.25    7.69   3
  -1  -9  -6  147.23    7.79   4
  -1  -9  -6  143.62    7.28   1
   1   9   6  148.27    8.01   3
   1   9   6  136.49   11.32   2
  -1   9  -6  135.28    5.80   3
  -1   9  -6  123.80    5.91   4
  -1   9  -6  134.47    6.97   1
   1   9   6  137.55    7.67   4
   1   9   6  143.37    7.48   4
  -1   9  -6  136.05    9.50   2
  -1   9  -6  131.66    5.73   3
  -1   9  -6  141.96    5.97   4
  -2  -9  -6   18.05    4.18   1
  -2  -9  -6   18.49    3.82   4
  -2  -9  -6   21.07    4.22   3
  -2   9  -6   19.26    3.60   1
  -2   9  -6   16.88    2.07   4
  -2   9  -6   18.55    2.29   4
   2   9   6   10.06    7.08   2
  -2   9  -6   18.74    1.85   3
  -2   9  -6   18.68    5.71   2
   2   9   6   17.65    4.01   4
  -2   9  -6   20.91    2.17   3
   2   9   6   24.47    4.36   3
  -3  -9  -6    3.04    4.71   1
  -3  -9  -6    2.52    3.75   3
  -3   9  -6    1.30    5.24   2
  -3   9  -6    1.12    3.22   1
  -3   9  -6    3.01    1.80   3
  -3   9  -6    1.11    2.44   4
   3   9   6   -2.90    3.97   3
  -3   9  -6    2.98    2.06   4
  -3 -10   6  115.51    9.12   3
   3  10  -6  117.61    8.97   3
   3  10  -6  113.16    9.33   4
  -3  10   6  117.56    7.68   3
  -3  10   6  133.85    8.45   4
  -3  10   6  118.09   12.26   2
  -2 -10   6   67.46    6.18   3
   2 -10  -6   70.82    5.47   3
  -2  10   6   75.97    9.10   2
  -2  10   6   66.04    5.27   3
  -2  10   6   87.79    6.20   4
   2  10  -6   74.49    6.65   4
   2  10  -6   74.67    6.24   3
   2  10  -6   77.10    8.30   2
  -1 -10   6  226.73   10.86   3
   1 -10  -6  228.23   10.79   3
   1  10  -6  238.04   10.37   3
  -1  10   6  228.91   10.82   4
   1  10  -6  223.66   10.80   3
  -1  10   6  227.14   10.85   3
  -1  10   6  233.57   14.60   2
   1  10  -6  225.38   12.55   1
  -1  10   6  233.30   10.95   4
   1  10  -6  242.09   10.74   4
   1  10  -6  228.46   13.49   2
   1  10  -6  236.06   10.90   4
   0 -10   6   -0.13    0.99   3
   0 -10  -6   -1.36    2.22   3
   0 -10  -6   -0.06    1.90   4
   0  10  -6   -0.67    1.39   4
   0  10   6    0.35    2.01   4
   0  10   6    1.66    2.26   3
   0  10  -6    3.81    2.24   3
   0  10  -6   -0.61    1.20   3
   0  10   6   -1.10    4.02   2
   0  10  -6    4.51    3.48   2
   0  10  -6    0.58    1.77   4
   0  10  -6   -0.22    2.13   1
   0  10   6    2.24    1.91   4
  -1 -10  -6   38.21    3.73   1
  -1 -10  -6   32.95    4.43   3
  -1 -10  -6   30.81    4.06   4
  -1  10  -6   30.87    2.55   3
   1  10   6   43.48    4.39   4
  -1  10  -6   34.95    2.72   4
   1  10   6   43.90    7.87   2
  -1  10  -6   38.60    2.83   4
   1  10   6   42.51    4.88   3
  -1  10  -6   31.15    3.36   1
   1  10   6   37.22    4.60   4
  -1  10  -6   34.06    2.76   3
  -1  10  -6   33.35    6.10   2
  -2 -10  -6   -0.57    3.60   3
  -2 -10  -6   -0.56    3.20   1
  -2  10  -6   -1.28    1.45   4
  -2  10  -6    0.05    2.49   1
   2  10   6    3.00    5.87   2
   2  10   6   -0.45    2.98   4
  -2  10  -6    0.34    1.31   3
   2  10   6    1.74    3.15   3
  -2  10  -6    3.23    4.94   2
  -2  10  -6    1.14    1.70   4
  -3 -10  -6  117.16    8.92   3
  -3 -10  -6  109.47    9.62   1
  -3  10  -6  128.55   12.39   2
  -3  10  -6  112.84    6.06   4
   3  10   6  128.19    9.21   3
  -3  10  -6  101.05    8.02   1
  -3  10  -6  103.62    5.44   3
  -3  11   6    7.77    6.21   2
  -3  11   6   10.94    3.85   3
  -3  11   6    9.24    3.92   4
   3  11  -6   16.00    5.06   4
   3  11  -6   11.75    5.23   3
   2 -11  -6    0.36    3.66   3
  -2 -11   6    1.01    3.43   3
  -2  11   6    1.62    2.86   4
  -2  11   6    7.56    5.41   2
  -2  11   6    0.59    2.66   3
   2  11  -6    1.88    4.39   2
   2  11  -6   -0.02    3.82   3
   2  11  -6   -1.37    3.25   4
   1 -11  -6    7.77    3.01   3
  -1  11   6   11.56    2.92   4
   1  11  -6    5.92    4.40   2
   1  11  -6    8.34    2.45   4
  -1  11   6    9.20    5.36   2
   1  11  -6   12.45    3.26   4
  -1  11   6   11.05    2.97   3
   1  11  -6    1.01    2.96   3
   0 -11  -6   66.63    5.40   3
   0  11   6   77.13    6.05   4
   0  11  -6   65.45    4.83   1
   0  11  -6   84.66    7.90   2
   0  11  -6   66.02    4.38   3
   0  11  -6   71.67    4.87   3
   0  11  -6   68.03    4.77   4
   0  11   6   87.72    5.89   3
   0  11   6   67.64    5.30   4
   0  11  -6   72.13    4.43   4
   0  11   6   76.06    9.47   2
  -1 -11  -6   29.06    4.55   3
   1  11   6   43.64    5.20   3
  -1  11  -6   37.70    3.18   3
  -1  11  -6   33.17    3.50   1
  -1  11  -6   41.37    3.25   4
   1  11   6   59.98    9.43   2
   1  11   6   43.68    5.23   4
  -1  11  -6   41.72    7.11   2
  -1  11  -6   38.95    3.10   4
  -2 -11  -6    7.86    3.93   3
  -2 -11  -6    7.27    3.80   1
  -2  11  -6    8.11    2.11   4
   2  11   6   12.57    7.18   2
   2  11   6   13.88    4.11   4
  -2  11  -6   11.67    3.08   1
  -2  11  -6    9.89    5.44   2
   2  11   6   16.71    4.36   3
  -2  11  -6    9.67    1.78   3
  -2  11  -6    8.09    1.88   4
  -3 -11  -6    3.33    4.60   3
  -3 -11  -6    8.35    5.70   1
  -3  11  -6    5.24    2.37   4
   3  11   6    6.44    4.67   3
  -3  11  -6    6.37    6.60   2
  -3  12   6   19.76    4.44   3
   3  12  -6   26.70    5.74   4
  -3  12   6   23.14    4.76   4
   3  12  -6   20.10    5.66   3
  -3  12   6    8.81    6.56   2
  -2  12   6   37.75    4.72   3
   2  12  -6   52.71    8.34   2
  -2  12   6   38.76    8.79   2
   2  12  -6   40.42    5.76   4
   2  12  -6   41.19    5.80   3
  -2  12   6   35.37    4.87   4
   1 -12  -6  131.88    7.64   3
   1  12  -6  127.92    7.69   4
   1  12  -6  122.70   11.06   2
  -1  12   6  127.58   11.62   2
   1  12  -6  114.00    7.59   3
  -1  12   6  131.98    7.82   4
  -1  12   6  129.46    7.65   3
   0 -12  -6   54.27    5.07   3
   0  12  -6   50.15    4.68   3
   0  12   6   49.96    5.28   4
   0  12  -6   53.16    3.98   4
   0  12  -6   51.27    4.40   4
   0  12   6   58.61    5.88   3
   0  12  -6   55.58    7.86   2
   0  12   6   51.59    8.92   2
  -1 -12  -6   61.65    6.27   3
   1  12   6   60.31    6.19   3
   1  12   6   62.35   10.21   2
  -1  12  -6   51.47    3.86   4
  -1  12  -6   52.70    8.25   2
  -1  12  -6   58.72    4.05   3
   1  12   6   63.22    5.69   4
  -1  12  -6   55.21    4.04   4
  -2 -12  -6   11.18    4.25   3
   2  12   6    6.00    4.36   3
   2  12   6    3.98    7.58   2
  -2  12  -6   14.78    6.69   2
  -2  12  -6    7.17    2.09   4
   2  12   6    5.84    3.78   4
  -2  12  -6    4.31    2.11   4
  -2  12  -6    5.48    1.73   3
  -3 -12  -6   55.20    7.49   3
  -3  12  -6   59.57   11.08   2
  -3  12  -6   59.81    4.56   4
   3  12   6   63.58    8.38   3
  -2  13   6   62.97   10.49   2
  -2  13   6   47.75    5.35   3
  -2  13   6   48.09    5.42   4
   2  13  -6   66.45    6.90   4
   2  13  -6   58.99    9.13   2
   2  13  -6   68.15    7.00   3
   1  13  -6   21.70    4.39   3
   1  13  -6   19.40    6.50   2
  -1  13   6   21.27    7.71   2
  -1  13   6   22.42    3.85   4
  -1  13   6   21.14    3.76   3
   1  13  -6   27.72    4.44   4
   0 -13  -6   21.45    4.12   3
   0  13  -6   30.64    3.99   4
   0  13  -6   25.16    3.82   3
   0  13   6   22.46    4.19   3
   0  13   6   30.12    4.30   4
   0  13  -6   36.99    7.44   2
   0  13   6   18.09    7.14   2
  -1 -13  -6    7.71    4.05   3
  -1  13  -6    6.40    2.31   4
   1  13   6    4.95    3.79   3
   1  13   6    5.26    3.23   4
  -1  13  -6    1.86    1.85   4
  -1  13  -6    4.86    5.14   2
  -1  13  -6    3.20    2.42   3
   1  13   6   14.16    7.96   2
  -2 -13  -6   -0.87    3.94   3
   2  13   6   11.81    8.44   2
  -2  13  -6    0.51    5.64   2
   2  13   6    3.75    4.18   3
  -2  13  -6    4.94    2.13   4
   2  13   6    1.33    4.15   4
   2  14  -6    9.27    4.87   3
  -2  14   6   10.87    7.39   2
  -2  14   6    5.78    3.04   4
   2  14  -6    0.14    5.37   2
  -2  14   6    3.83    3.24   3
   2  14  -6   -0.50    4.16   4
   1  14  -6    4.48    3.70   3
  -1  14   6  -14.02    5.25   2
   1  14  -6   -2.59    4.75   2
  -1  14   6    0.21    3.00   3
  -1  14   6   -0.76    2.45   4
   1  14  -6    0.32    3.33   4
   0  14  -6   32.99    4.34   3
   0  14  -6   32.83    4.36   4
   0  14   6   30.47    4.61   4
   0  14   6   34.70    4.99   3
   0  14  -6   23.68    6.88   2
   0  14   6   31.62    8.80   2
  -1 -14  -6    3.07    3.50   3
  -1  14  -6    6.69    2.58   3
   1  14   6    6.54    7.38   2
   1  14   6    4.78    3.54   4
  -1  14  -6    5.16    2.66   4
  -1  14  -6    7.90    6.07   2
   1  14   6    9.09    4.43   3
  -2 -14  -6  118.40   10.17   3
  -2  14  -6  136.04   14.22   2
   2  14   6  142.38   18.84   2
  -2  14  -6  130.53    7.24   4
   2  14   6  129.62   10.46   3
  -1  15   6   20.99    8.76   2
   1  15  -6   22.31    7.81   2
   1  15  -6   33.42    5.41   4
  -1  15   6   23.14    4.20   4
  -1  15   6   34.62    5.14   3
   1  15  -6   31.24    5.16   3
   0  15   6  -16.59    6.37   2
   0  15   6   -0.76    3.57   3
   0  15  -6    6.21    3.39   4
   0  15  -6   -6.41    5.45   2
   0  15  -6   -2.52    3.11   3
   0  15   6   -0.33    3.25   4
   1  15   6  158.00   16.68   2
  -1  15  -6  111.38    6.89   4
   1  15   6  130.25   10.27   3
  -1  15  -6  116.42   13.01   2
   1  15   6  132.64    8.92   4
  -1  15  -6  111.36    6.89   3
   4   0  -7   -1.40    3.76   3
  -4   0   7   -2.64    3.22   4
  -4   0   7   -4.33    4.67   1
  -4   0   7   -2.68    3.81   3
   3   0  -7   -1.27    2.78   4
  -3   0   7   -3.52    2.21   4
  -3   0   7   -4.08    2.63   3
   3   0  -7   -0.43    2.85   3
  -3   0   7    1.45    2.75   4
  -3   0   7   -1.48    3.53   1
   2   0  -7    2.88    3.00   1
  -2   0   7    1.71    2.05   3
  -2   0   7    1.82    2.01   4
   2   0  -7    2.30    2.16   3
   2   0  -7    4.51    2.47   4
  -2   0   7    4.50    2.91   1
   2   0  -7    3.83    2.00   4
  -2   0   7    1.21    1.82   4
  -2   0   7    4.00    1.88   3
   2   0  -7    2.94    2.00   3
   1   0  -7    0.67    1.85   1
  -1   0   7   -1.50    1.26   3
   1   0  -7   -1.05    1.62   4
   1   0  -7   -0.97    1.55   3
   1   0  -7   -0.72    1.25   4
  -1   0   7    0.74    1.28   4
  -1   0   7   -0.87    1.34   3
  -1   0   7    0.31    0.78   2
   1   0  -7    0.71    1.64   3
  -1   0   7   -0.90    1.25   4
   0   0   7   -0.34    0.87   3
   0   0  -7   -0.02    0.97   3
   0   0  -7    0.47    0.89   4
   0   0   7    0.18    0.81   4
   0   0  -7   -0.52    1.03   3
   0   0  -7   -2.34    0.86   2
   0   0  -7    0.26    0.97   4
   0   0   7   -0.25    0.80   4
   0   0   7   -0.99    0.88   3
   1   0   7    0.99    1.04   3
   1   0   7    1.47    1.08   4
   1   0   7    0.27    0.91   4
   1   0   7   -0.51    1.10   3
  -1   0  -7    0.89    1.12   3
  -1   0  -7    0.88    1.07   3
  -1   0  -7   -0.33    1.98   1
  -1   0  -7   -0.83    1.00   4
  -1   0  -7    0.61    0.95   4
  -2   0  -7    3.94    2.81   1
   2   0   7    0.78    1.73   3
  -2   0  -7    1.28    1.55   3
  -2   0  -7    0.42    1.64   3
  -2   0  -7    1.74    1.49   4
   2   0   7    2.46    1.69   4
  -2   0  -7    1.64    1.68   4
   3   0   7    3.90    2.36   4
  -3   0  -7    6.63    2.60   4
  -3   0  -7    3.85    2.99   3
  -3   0  -7    4.05    2.91   4
  -3   0  -7    6.87    3.90   1
  -3   0  -7    2.46    2.26   3
   3   0   7    5.25    2.69   3
  -4   0  -7   -3.19    3.71   3
  -4   0  -7    1.46    3.32   4
  -4   0  -7    0.34    4.45   1
  -4  -1   7   39.95    7.36   1
  -4  -1   7   53.39    6.62   3
  -4  -1   7   47.20    6.04   4
   4  -1  -7   50.69    6.20   3
   4   1  -7   42.93    6.12   3
  -4   1   7   38.15    7.13   1
  -4   1   7   44.96    5.97   4
  -4   1   7   47.66    6.13   3
  -3  -1   7  142.46    8.15   4
   3  -1  -7  142.93    8.25   4
  -3  -1   7  144.62    8.63   3
  -3  -1   7  146.50    8.42   4
   3  -1  -7  141.75    8.27   3
  -3  -1   7  157.40    9.80   1
   3   1  -7  164.54    8.73   4
  -3   1   7  138.52    8.06   4
  -3   1   7  159.70    8.50   4
   3   1  -7  138.90    8.44   3
  -3   1   7  158.09    9.65   1
  -3   1   7  158.80    8.59   3
   3   1  -7  127.63    8.13   4
  -2  -1   7  192.47    9.51   1
   2  -1  -7  190.27    8.71   3
   2  -1  -7  186.65    8.69   3
   2  -1  -7  177.66    8.54   4
  -2  -1   7  178.60    8.55   4
  -2  -1   7  179.83    8.68   3
   2  -1  -7  165.09    9.07   1
  -2  -1   7  176.65    8.45   4
   2  -1  -7  180.86    8.56   4
   2   1  -7  164.93    8.52   4
   2   1  -7  166.37    8.71   3
  -2   1   7  162.71    8.32   4
  -2   1   7  177.51    8.41   3
   2   1  -7  184.48    8.74   4
  -2   1   7  192.20    8.61   4
  -2   1   7  174.86    8.62   3
   2   1  -7  176.75    8.71   3
  -1  -1   7  291.04   11.87   3
  -1  -1   7  282.53   11.76   4
   1  -1  -7  304.40   12.08   3
   1  -1  -7  288.09   11.92   4
  -1  -1   7  274.61   11.80   3
   1  -1  -7  299.87   12.02   4
  -1  -1   7  288.57   11.87   4
   1  -1  -7  300.94   12.00   3
  -1  -1   7  290.50   10.87   2
   1  -1  -7  295.39   12.42   1
  -1   1   7  282.82   11.87   3
   1   1  -7  303.89   12.01   3
   1   1  -7  310.21   12.09   4
  -1   1   7  300.93   12.04   4
   1   1  -7  303.38   12.58   1
   1   1  -7  314.83   12.10   3
  -1   1   7  301.85   11.89   4
   1   1  -7  275.81   11.91   4
  -1   1   7  288.82   11.86   3
  -1   1   7  293.13   11.80   2
   0  -1  -7 2800.24  105.61   4
   0  -1  -7 2988.98  107.44   2
   0  -1  -7 2792.48  105.64   4
   0  -1   7 2896.16  105.92   4
   0  -1  -7 2882.63  105.61   3
   0  -1   7 3051.07  106.20   3
   0  -1   7 2961.70  105.37   3
   0  -1   7 2820.57  108.23   4
   0  -1  -7 2893.32  105.61   3
   0   1  -7 2908.04  105.40   4
   0   1   7 2946.72  106.65   3
   0   1   7 2922.60  105.61   4
   0   1   7 2991.60  106.36   2
   0   1  -7 2841.96  105.36   3
   0   1  -7 2923.03  106.00   4
   0   1   7 2954.71  105.66   3
   0   1  -7 2838.07  105.35   3
  -1  -1  -7  478.29   19.02   1
  -1  -1  -7  446.53   18.06   4
   1  -1   7  485.69   17.70   3
   1  -1   7  464.60   17.61   3
  -1  -1  -7  458.81   18.00   4
   1  -1   7  477.61   17.62   4
   1  -1   7  475.66   17.53   4
  -1  -1  -7  482.27   18.14   3
  -1  -1  -7  451.49   17.95   3
  -1  -1  -7  478.61   20.00   2
   1   1   7  470.53   18.05   3
   1   1   7  481.83   18.01   4
   1   1   7  493.71   18.05   3
  -1   1  -7  460.93   17.69   4
  -1   1  -7  461.83   17.65   3
  -1   1  -7  454.14   17.73   4
  -1   1  -7  465.03   17.73   3
   1   1   7  490.46   18.07   4
  -1   1  -7  480.06   19.01   1
   2  -1   7   88.97    4.44   3
  -2  -1  -7   93.13    5.16   4
  -2  -1  -7   80.34    6.18   1
   2  -1   7   88.76    4.80   3
  -2  -1  -7   94.71    4.86   3
   2  -1   7   87.18    4.59   4
  -2  -1  -7   83.93    5.00   3
  -2  -1  -7   86.69    4.84   4
   2   1   7  101.80    5.28   3
   2   1   7   91.08    4.96   4
  -2   1  -7   92.17    4.74   4
  -2   1  -7   79.88    4.80   4
  -2   1  -7   89.89    6.24   1
  -2   1  -7   93.43    4.70   3
  -3  -1  -7   41.19    5.22   3
   3  -1   7   29.59    3.44   4
  -3  -1  -7   36.06    4.72   4
  -3  -1  -7   38.97    4.04   3
   3  -1   7   34.68    3.98   3
  -3  -1  -7   31.07    3.84   4
  -3  -1  -7   28.91    5.58   1
  -3   1  -7   37.02    6.17   1
   3   1   7   34.94    4.36   3
  -3   1  -7   29.50    4.22   4
  -3   1  -7   42.48    3.99   3
  -3   1  -7   42.42    4.81   3
  -3   1  -7   27.06    3.67   4
   3   1   7   30.24    4.45   4
  -4  -1  -7   -0.48    4.59   1
  -4  -1  -7   -0.14    3.24   4
  -4  -1  -7    0.84    4.12   3
  -4   1  -7   -5.80    3.20   3
  -4   1  -7    4.07    5.17   1
  -4   1  -7   -0.69    3.44   4
   4  -2  -7   45.88    6.22   3
  -4  -2   7   44.52    6.07   4
  -4  -2   7   38.32    7.61   1
  -4  -2   7   40.24    6.05   3
  -4   2   7   52.89    6.08   4
   4   2  -7   46.40    6.39   3
  -4   2   7   35.59    7.39   1
  -4   2   7   40.07    5.75   3
   3  -2  -7   -0.06    2.93   3
  -3  -2   7   -1.02    2.72   4
  -3  -2   7    1.48    2.68   4
   3  -2  -7    3.93    2.85   4
  -3  -2   7    5.43    4.26   1
  -3  -2   7    6.35    2.89   2
  -3  -2   7    5.01    3.24   3
  -3   2   7    4.93    2.94   4
  -3   2   7    6.30    3.18   3
   3   2  -7    0.31    3.63   3
  -3   2   7    2.51    2.45   4
  -3   2   7    3.62    3.84   1
   3   2  -7   -2.09    3.00   4
   3   2  -7    6.74    2.85   4
   2  -2  -7   99.43    5.64   3
  -2  -2   7   94.82    5.81   2
  -2  -2   7   92.39    5.48   4
  -2  -2   7   90.06    5.76   3
   2  -2  -7   95.68    5.68   4
   2  -2  -7   91.37    5.95   1
  -2  -2   7  101.85    5.81   4
   2  -2  -7   95.32    5.51   4
  -2   2   7   95.55    5.50   4
  -2   2   7   93.81    5.49   3
   2   2  -7   97.67    6.03   3
   2   2  -7   98.58    5.91   4
   2   2  -7   93.46    5.74   3
  -2   2   7   90.42    5.48   3
  -2   2   7  100.57    6.29   2
  -2   2   7   96.29    5.60   4
   2   2  -7   94.77    5.78   4
   1  -2  -7  526.44   20.48   4
  -1  -2   7  522.81   20.32   4
   1  -2  -7  553.06   20.80   1
  -1  -2   7  536.03   19.47   2
  -1  -2   7  539.62   20.44   3
  -1  -2   7  505.80   20.30   3
   1  -2  -7  533.08   20.42   3
   1  -2  -7  566.99   20.61   3
   1  -2  -7  503.67   20.41   4
  -1   2   7  526.23   20.49   4
   1   2  -7  551.17   21.13   1
   1   2  -7  550.15   20.45   3
  -1   2   7  541.69   20.45   3
   1   2  -7  513.45   20.45   4
  -1   2   7  517.08   20.38   4
  -1   2   7  537.56   20.41   3
  -1   2   7  494.39   20.65   2
   1   2  -7  503.29   20.50   3
   1   2  -7  546.68   20.54   4
   0  -2  -7 1543.90   58.33   4
   0  -2   7 1522.65   57.79   3
   0  -2   7 1560.18   57.74   4
   0  -2  -7 1608.21   58.32   4
   0  -2  -7 1622.62   59.03   2
   0  -2   7 1564.49   57.71   4
   0  -2  -7 1568.66   58.28   3
   0  -2  -7 1585.61   58.29   3
   0  -2   7 1597.49   58.58   3
   0   2  -7 1585.44   57.87   3
   0   2   7 1586.78   59.09   2
   0   2  -7 1617.96   57.81   3
   0   2   7 1538.62   58.24   4
   0   2   7 1679.60   58.39   3
   0   2  -7 1518.32   57.80   4
   0   2  -7 1620.13   57.88   4
   0   2   7 1654.66   58.45   4
   0   2   7 1625.49   58.27   3
  -1  -2  -7  633.51   24.79   1
   1  -2   7  619.37   23.17   3
  -1  -2  -7  633.94   23.98   3
  -1  -2  -7  631.70   24.02   4
  -1  -2  -7  628.97   24.07   3
   1  -2   7  637.30   22.91   4
  -1  -2  -7  662.59   24.20   4
   1  -2   7  633.13   22.92   4
  -1  -2  -7  620.14   25.82   2
   1  -2   7  585.13   23.23   3
  -1   2  -7  650.63   23.38   4
  -1   2  -7  657.06   24.88   1
  -1   2  -7  600.21   23.26   3
  -1   2  -7  632.72   23.36   3
   1   2   7  679.34   24.07   4
   1   2   7  618.85   23.93   3
  -1   2  -7  631.55   23.33   4
   1   2   7  635.48   24.04   3
   2  -2   7   35.08    2.47   3
  -2  -2  -7   37.86    5.06   1
  -2  -2  -7   34.89    3.27   3
   2  -2   7   39.05    2.47   4
  -2  -2  -7   33.20    3.60   4
   2  -2   7   34.41    2.76   3
  -2  -2  -7   36.25    3.09   4
  -2  -2  -7   37.62    3.50   3
  -2   2  -7   34.58    2.71   3
  -2   2  -7   42.90    4.91   1
  -2   2  -7   36.23    3.15   3
   2   2   7   42.35    3.81   3
  -2   2  -7   39.67    2.85   4
  -3  -2  -7  140.09    7.59   4
  -3  -2  -7  146.55    7.72   3
  -3  -2  -7  135.84    9.65   1
   3  -2   7  150.75    6.94   4
   3  -2   7  133.41    7.24   3
  -3  -2  -7  142.86    8.40   3
   3   2   7  144.82    8.12   3
  -3   2  -7  136.51    9.38   1
  -3   2  -7  144.25    8.06   3
  -3   2  -7  139.71    7.23   3
  -3   2  -7  138.29    7.77   4
  -3   2  -7  140.90    7.40   4
   3   2   7  138.68   10.12   4
  -4  -2  -7    9.15    5.56   1
  -4  -2  -7    5.86    3.73   4
  -4  -2  -7    9.39    4.60   3
  -4   2  -7    9.03    3.46   4
  -4   2  -7   -0.77    4.84   1
  -4   2  -7    5.26    3.84   3
  -4  -3   7    9.21    5.55   1
   4  -3  -7   15.79    4.75   3
  -4  -3   7   13.65    6.16   4
  -4  -3   7    7.32    4.68   3
   4   3  -7   11.68    5.23   3
  -4   3   7   13.00    6.28   1
  -4   3   7   17.09    4.74   3
  -4   3   7    9.72    3.98   4
  -3  -3   7  252.85   12.66   4
  -3  -3   7  257.04   12.93   3
   3  -3  -7  275.14   12.43   3
   3  -3  -7  271.08   12.32   4
  -3  -3   7  237.38   13.41   2
  -3  -3   7  276.03   14.10   1
   3   3  -7  278.24   13.00   3
  -3   3   7  292.47   13.90   1
  -3   3   7  269.67   12.48   3
   3   3  -7  268.76   12.97   4
  -3   3   7  247.54   12.30   4
   3   3  -7  255.52   12.74   4
  -3   3   7  256.02   12.38   4
  -2  -3   7   11.99    2.52   4
   2  -3  -7   16.10    2.50   4
   2  -3  -7   11.08    2.41   4
  -2  -3   7    8.42    2.53   2
   2  -3  -7   14.07    2.85   3
  -2  -3   7   14.38    2.74   4
   2  -3  -7   15.57    3.21   1
  -2  -3   7   13.84    2.98   3
   2   3  -7    9.00    2.56   4
  -2   3   7   14.72    3.16   2
   2   3  -7   15.21    3.20   3
  -2   3   7   13.04    2.61   3
   2   3  -7   16.54    3.20   4
   2   3  -7   11.47    3.08   3
  -2   3   7   16.21    2.64   4
  -2   3   7   18.03    2.79   3
  -2   3   7   16.12    2.84   4
  -1  -3   7  820.07   31.26   2
   1  -3  -7  837.13   31.87   4
  -1  -3   7  871.25   31.73   4
   1  -3  -7  864.81   32.06   1
   1  -3  -7  833.82   31.93   4
   1  -3  -7  850.44   32.64   2
  -1  -3   7  831.63   31.81   3
   1  -3  -7  832.79   31.91   3
  -1  -3   7  824.88   31.72   3
   1  -3  -7  842.61   31.86   3
  -1  -3   7  894.22   31.77   4
  -1   3   7  858.72   31.87   3
  -1   3   7  829.51   32.57   2
   1   3  -7  832.99   32.50   1
  -1   3   7  825.91   31.84   3
   1   3  -7  819.30   31.91   3
  -1   3   7  892.60   31.97   4
   1   3  -7  858.50   31.94   4
   1   3  -7  824.61   31.80   3
   1   3  -7  842.11   31.88   4
  -1   3   7  868.49   31.98   4
   0  -3  -7    0.38    1.30   4
   0  -3   7    1.03    0.50   4
   0  -3  -7    1.47    1.44   3
   0  -3   7    0.91    0.60   4
   0  -3   7    0.02    0.82   3
   0  -3  -7    0.43    1.39   2
   0  -3  -7   -1.00    1.13   4
   0  -3   7   -0.01    0.13   3
   0  -3  -7    0.16    1.24   3
   0   3  -7   -0.12    0.99   3
   0   3  -7   -0.85    0.97   3
   0   3   7    1.05    1.94   2
   0   3   7   -0.12    1.00   4
   0   3  -7   -0.71    0.89   4
   0   3   7   -1.35    1.09   4
   0   3  -7    1.25    1.28   2
   0   3   7    1.78    1.33   3
   0   3   7    0.54    1.27   3
   0   3  -7    0.10    0.98   4
  -1  -3  -7  465.49   18.78   4
  -1  -3  -7  481.83   19.30   1
  -1  -3  -7  478.36   18.62   3
  -1  -3  -7  470.22   18.72   3
  -1  -3  -7  473.44   18.64   4
  -1  -3  -7  515.48   20.67   2
   1   3   7  461.15   18.58   4
  -1   3  -7  457.89   17.63   3
   1   3   7  483.74   18.61   3
   1   3   7  449.71   20.81   2
  -1   3  -7  497.63   17.65   4
  -1   3  -7  518.06   19.49   1
  -1   3  -7  473.82   17.65   4
   1   3   7  474.02   18.69   4
   1   3   7  487.62   18.73   3
  -1   3  -7  475.05   17.56   3
   2  -3   7   41.56    2.11   4
  -2  -3  -7   40.20    3.57   3
   2  -3   7   40.55    2.50   3
  -2  -3  -7   40.26    3.74   4
  -2  -3  -7   42.93    3.45   4
  -2  -3  -7   43.30    3.98   3
  -2  -3  -7   47.56    5.37   1
  -2   3  -7   49.64    5.34   1
  -2   3  -7   36.89    3.12   4
  -2   3  -7   40.51    2.78   3
   2   3   7   43.88    3.76   3
  -2   3  -7   42.30    3.21   3
   2   3   7   38.31    3.42   4
  -2   3  -7   45.94    3.10   4
   3  -3   7   -0.59    2.05   3
   3  -3   7   -1.91    1.37   4
  -3  -3  -7    3.31    3.88   1
  -3  -3  -7    0.37    2.49   4
  -3   3  -7    0.42    2.09   4
  -3   3  -7    1.79    3.41   1
   3   3   7    7.08    3.22   3
  -3   3  -7   -4.46    2.15   4
  -3   3  -7   -2.62    2.43   3
  -3   3  -7   -0.06    1.97   3
  -4  -3  -7   13.48    4.70   3
  -4  -3  -7   12.11    4.49   4
  -4  -3  -7   21.20    6.80   1
  -4   3  -7    8.27    3.88   4
  -4   3  -7   14.29    5.86   1
  -4   3  -7    8.63    4.08   3
   4  -4  -7   50.30    6.20   3
  -4  -4   7   51.47    6.97   3
  -4  -4   7   46.47    7.91   1
  -4   4   7   47.16    7.81   2
  -4   4   7   49.21    7.77   1
  -4   4   7   51.10    6.22   4
   4   4  -7   55.06    7.03   3
  -4   4   7   54.03    6.37   3
   3  -4  -7   61.34    5.17   4
   3  -4  -7   57.14    5.19   3
  -3  -4   7   58.78    7.06   1
  -3  -4   7   59.70    5.68   4
  -3  -4   7   74.51    6.85   3
  -3  -4   7   53.15    6.70   2
  -3   4   7   57.94    6.88   2
  -3   4   7   61.02    5.14   4
  -3   4   7   70.83    5.56   4
   3   4  -7   66.23    6.47   4
  -3   4   7   85.43    7.29   1
  -3   4   7   74.24    5.61   3
   3   4  -7   66.92    6.48   3
   2  -4  -7  673.55   27.99   1
   2  -4  -7  733.76   27.62   4
   2  -4  -7  671.70   27.64   4
  -2  -4   7  715.59   28.06   3
  -2  -4   7  721.82   27.91   4
  -2  -4   7  735.33   28.02   2
   2  -4  -7  739.29   27.63   3
  -2   4   7  682.65   27.64   3
  -2   4   7  745.39   29.25   2
  -2   4   7  708.65   27.61   3
   2   4  -7  657.53   27.95   3
   2   4  -7  751.75   28.11   4
  -2   4   7  702.59   27.74   4
   2   4  -7  731.28   28.05   3
   2   4  -7  679.51   27.91   4
  -2   4   7  709.08   27.67   4
  -1  -4   7  106.40    5.28   3
   1  -4  -7  105.90    5.40   4
   1  -4  -7  110.13    5.42   3
  -1  -4   7  107.51    5.13   4
  -1  -4   7  101.25    5.03   2
  -1  -4   7  103.68    5.18   3
   1  -4  -7   98.89    5.26   1
   1  -4  -7  110.39    5.46   4
  -1  -4   7   97.40    5.04   4
   1  -4  -7   98.51    6.19   2
   1  -4  -7  108.50    5.41   3
  -1   4   7  108.48    5.35   3
   1   4  -7   95.31    5.41   3
   1   4  -7  101.96    5.18   2
  -1   4   7  105.94    5.31   3
  -1   4   7  102.59    6.47   2
   1   4  -7  103.17    5.37   4
   1   4  -7   96.48    5.25   3
   1   4  -7  102.85    5.47   4
   1   4  -7   92.36    5.80   1
  -1   4   7  104.64    5.35   4
  -1   4   7  105.25    5.34   4
   0  -4  -7   22.65    2.50   4
   0  -4  -7   26.98    2.44   3
   0  -4   7   24.46    1.06   4
   0  -4  -7   29.67    3.74   2
   0  -4   7   25.42    1.58   3
   0  -4  -7   25.43    2.39   4
   0  -4  -7   25.38    2.66   3
   0  -4   7   26.27    1.09   4
   0  -4   7   17.91    1.34   3
   0   4   7   29.11    2.64   4
   0   4  -7   25.47    2.87   2
   0   4   7   27.66    2.48   4
   0   4  -7   23.22    1.86   3
   0   4  -7   24.40    1.92   3
   0   4  -7   20.61    1.85   4
   0   4   7   27.46    2.52   3
   0   4  -7   23.66    1.85   4
   0   4   7   30.13    2.42   3
  -1  -4  -7  188.86    8.99   1
  -1  -4  -7  200.00    8.66   4
  -1  -4  -7  193.87    8.61   3
  -1  -4  -7  197.39    8.51   3
  -1  -4  -7  180.23    8.40   4
  -1  -4  -7  194.02   10.32   2
   1   4   7  190.99    8.55   3
   1   4   7  163.49   10.71   2
   1   4   7  181.80    8.36   3
  -1   4  -7  185.22    7.10   4
  -1   4  -7  200.59    9.06   1
  -1   4  -7  194.29    7.09   4
   1   4   7  204.54    8.70   4
   1   4   7  190.81    8.46   4
   2  -4   7  200.51    7.99   3
  -2  -4  -7  203.94    9.47   4
  -2  -4  -7  197.68    9.88   3
  -2  -4  -7  197.23    9.85   4
  -2  -4  -7  203.45   10.87   1
  -2  -4  -7  213.79    9.50   3
   2  -4   7  212.45    8.00   3
  -2   4  -7  212.23    8.58   4
  -2   4  -7  204.39    8.68   4
   2   4   7  203.68    9.82   3
  -2   4  -7  213.34   10.63   1
  -2   4  -7  210.79    8.60   3
   2   4   7  205.60    9.62   4
  -2   4  -7  201.81    8.33   3
  -3  -4  -7   67.40    6.20   4
  -3  -4  -7   76.96    8.62   1
  -3   4  -7   74.83    5.04   4
  -3   4  -7   71.94    5.19   3
  -3   4  -7   67.92    5.15   3
  -3   4  -7   69.36    5.20   4
   3   4   7   77.69    6.42   3
  -3   4  -7   70.13    7.75   1
  -4  -4  -7   76.00    8.38   3
  -4  -4  -7   65.21    7.33   4
  -4  -4  -7   74.70   10.19   1
  -4   4  -7   61.91    8.96   1
  -4   4  -7   62.92    6.42   4
  -4   4  -7   63.07    6.23   3
   4   4   7   54.45    6.64   3
  -4  -5   7    3.73    4.16   3
  -4  -5   7    1.89    5.54   1
   4  -5  -7    3.77    3.91   3
  -4   5   7    0.42    5.24   2
  -4   5   7   -1.29    3.37   3
   4   5  -7   -5.04    4.26   3
  -4   5   7    4.86    3.61   4
  -4   5   7   -2.95    4.75   1
  -3  -5   7   10.42    3.51   4
  -3  -5   7   24.24    5.53   1
   3  -5  -7   20.48    3.71   3
  -3  -5   7   22.92    4.51   3
   3  -5  -7   11.10    3.83   4
   3   5  -7   13.81    4.08   4
   3   5  -7   14.69    3.43   4
  -3   5   7   29.39    5.14   1
  -3   5   7   14.15    3.20   4
  -3   5   7   14.24    3.50   4
  -3   5   7   10.92    3.24   3
  -3   5   7   18.72    5.05   2
   3   5  -7   14.94    4.33   3
   2  -5  -7   11.18    2.74   3
   2  -5  -7   12.71    2.90   1
   2  -5  -7   19.77    3.05   4
  -2  -5   7   11.24    2.80   2
  -2  -5   7   18.51    3.58   3
  -2  -5   7   17.42    3.02   4
   2   5  -7   15.35    3.36   4
   2   5  -7   12.26    3.17   3
  -2   5   7   18.74    4.04   2
   2   5  -7   12.39    2.88   4
  -2   5   7   14.92    2.99   3
  -2   5   7   13.96    2.83   3
  -2   5   7   14.41    2.81   4
  -2   5   7   15.10    2.76   4
   1  -5  -7   25.47    2.68   1
  -1  -5   7   20.88    2.30   4
   1  -5  -7   21.86    2.61   4
  -1  -5   7   19.07    2.34   3
  -1  -5   7   18.38    2.42   2
   1  -5  -7   20.62    2.70   3
  -1  -5   7   19.44    2.27   4
   1  -5  -7   20.03    3.50   2
  -1  -5   7   21.80    2.73   3
   1  -5  -7   18.30    2.51   3
   1  -5  -7   21.87    2.49   4
   1   5  -7   17.43    3.12   1
   1   5  -7   23.08    2.71   4
   1   5  -7   21.82    2.76   3
   1   5  -7   24.33    3.09   2
  -1   5   7   25.84    2.91   4
  -1   5   7   17.18    3.47   2
  -1   5   7   27.19    2.92   3
   1   5  -7   18.67    2.51   4
  -1   5   7   18.81    2.57   3
  -1   5   7   21.07    2.59   4
   0  -5  -7   94.32    4.96   3
   0  -5   7   88.88    3.84   3
   0  -5   7   89.74    3.82   3
   0  -5  -7   91.21    6.00   2
   0  -5  -7   91.92    5.01   3
   0  -5  -7   95.97    5.01   4
   0  -5  -7   91.90    5.00   4
   0   5   7   91.59    4.82   3
   0   5  -7   94.19    5.48   2
   0   5  -7   91.47    4.25   4
   0   5  -7   91.09    4.11   3
   0   5   7   95.34    5.01   3
   0   5  -7   91.61    4.21   4
   0   5   7  105.85    5.25   4
   0   5  -7   91.81    4.19   3
   0   5   7   92.95    6.70   2
   0   5   7   90.60    4.92   4
  -1  -5  -7   37.24    2.91   4
  -1  -5  -7   33.42    3.67   1
  -1  -5  -7   29.49    3.27   4
  -1  -5  -7   29.18    3.20   3
  -1  -5  -7   34.96    3.44   3
   1   5   7   35.04    3.55   3
   1   5   7   30.39    5.27   2
   1   5   7   31.70    3.00   4
  -1   5  -7   32.84    3.24   1
   1   5   7   31.45    3.37   4
  -2  -5  -7   10.05    2.82   3
  -2  -5  -7    8.40    3.73   1
  -2  -5  -7    7.74    2.67   4
  -2  -5  -7    7.80    2.38   4
  -2   5  -7   10.38    1.48   3
  -2   5  -7    7.79    1.60   4
  -2   5  -7   10.16    1.71   4
  -2   5  -7    6.68    1.46   3
   2   5   7    6.70    2.67   3
   2   5   7    7.59    2.50   4
  -2   5  -7    8.63    2.95   1
  -3  -5  -7   -0.66    4.12   1
  -3  -5  -7    3.65    2.88   3
  -3  -5  -7    5.06    3.06   4
  -3   5  -7    0.87    2.24   3
   3   5   7    1.32    3.17   3
  -3   5  -7    1.73    3.34   1
  -3   5  -7    4.73    2.36   4
  -3   5  -7    2.12    2.31   4
  -4  -5  -7    4.23    4.43   3
  -4  -5  -7    6.44    4.23   4
  -4  -5  -7   10.50    5.76   1
  -4   5  -7   12.18    5.56   1
   4   5   7    8.28    4.61   3
  -4   5  -7    9.90    3.54   3
  -4   5  -7    6.17    3.59   4
  -4  -6   7    9.22    4.82   3
  -4  -6   7    5.57    6.06   1
  -4   6   7    8.72    5.43   1
  -4   6   7    0.92    4.83   2
  -4   6   7   10.24    4.10   3
  -4   6   7    3.02    3.87   4
   4   6  -7   -0.74    4.46   3
  -3  -6   7  432.58   19.23   1
   3  -6  -7  399.88   16.93   3
  -3  -6   7  315.48   19.97   4
  -3  -6   7  381.49   18.10   3
   3   6  -7  399.91   17.95   4
   3   6  -7  372.68   17.74   3
  -3   6   7  409.55   20.25   2
  -3   6   7  407.94   17.27   3
  -3   6   7  393.81   17.17   4
   2  -6  -7   15.04    2.75   4
   2  -6  -7   17.36    2.94   3
  -2  -6   7   15.51    3.56   3
  -2  -6   7   14.21    2.90   4
  -2  -6   7   15.72    3.04   2
   2  -6  -7   16.25    3.09   1
   2   6  -7   17.79    3.50   4
  -2   6   7   14.95    4.04   2
   2   6  -7   14.30    3.66   3
   2   6  -7   12.05    2.77   4
  -2   6   7   16.00    2.77   3
   2   6  -7   15.29    3.16   3
  -2   6   7   17.35    2.95   4
  -2   6   7   14.58    2.86   4
  -1  -6   7    2.09    1.76   3
  -1  -6   7    2.60    1.59   4
   1  -6  -7    4.56    1.88   4
   1  -6  -7    4.88    1.62   1
  -1  -6   7    4.84    1.78   2
   1  -6  -7    4.62    1.85   4
   1  -6  -7    4.26    2.17   3
   1  -6  -7    4.52    2.30   2
   1   6  -7    2.27    2.10   3
  -1   6   7    1.48    1.60   3
  -1   6   7    1.93    2.77   2
   1   6  -7    0.72    2.16   1
   1   6  -7    0.71    2.04   4
   1   6  -7    6.44    2.32   2
   1   6  -7    2.15    1.74   3
  -1   6   7    5.29    1.97   4
  -1   6   7    5.30    1.84   4
  -1   6   7    0.59    1.57   3
   0  -6  -7  858.69   33.65   2
   0  -6   7  802.29   30.61   3
   0  -6  -7  795.09   31.97   3
   0  -6  -7  811.12   31.72   3
   0  -6  -7  847.67   31.19   1
   0  -6  -7  794.34   31.70   4
   0  -6   7  857.04   30.53   3
   0  -6  -7  815.84   31.82   4
   0   6   7  819.48   31.77   4
   0   6  -7  838.30   32.67   2
   0   6   7  894.81   31.83   3
   0   6   7  849.53   31.91   4
   0   6   7  821.19   33.75   2
   0   6  -7  824.36   30.93   4
   0   6  -7  825.32   30.87   4
   0   6   7  878.52   31.89   3
   0   6  -7  814.98   30.74   3
   0   6  -7  855.31   30.86   3
  -1  -6  -7 1153.74   42.82   4
  -1  -6  -7 1091.50   42.93   1
  -1  -6  -7 1140.80   42.93   3
  -1  -6  -7 1046.54   42.80   4
   1   6   7 1123.91   42.83   3
   1   6   7 1151.35   45.70   2
  -1   6  -7 1237.07   43.13   1
   1   6   7 1125.27   42.89   4
  -1   6  -7 1137.28   41.01   4
   1   6   7 1159.21   42.80   4
  -1   6  -7 1131.44   44.54   2
  -1   6  -7 1093.19   40.99   4
  -2  -6  -7   45.45    5.09   3
  -2  -6  -7   47.59    4.88   4
  -2  -6  -7   42.23    5.27   1
  -2  -6  -7   43.52    3.90   4
  -2   6  -7   32.75    2.22   3
   2   6   7   47.25    5.04   3
  -2   6  -7   42.35    2.79   4
  -2   6  -7   35.21    2.31   3
   2   6   7   43.02    4.58   4
  -2   6  -7   35.64    2.64   4
  -2   6  -7   45.24    4.41   1
  -3  -6  -7    9.47    3.65   3
  -3  -6  -7    9.11    4.69   1
  -3  -6  -7   16.33    4.12   4
  -3   6  -7   11.95    2.65   4
   3   6   7    9.29    4.11   3
  -3   6  -7   11.53    2.40   3
  -3   6  -7   11.77    2.61   4
  -3   6  -7   13.87    4.38   1
  -4  -6  -7  110.57    9.84   3
  -4  -6  -7   83.56    8.21   4
  -4  -6  -7   92.92   10.87   1
   4   6   7   91.76    8.26   3
  -4   6  -7  112.10    6.71   3
  -4   6  -7   88.86    9.08   1
  -4   6  -7  100.65    6.99   4
  -4  -7   7   -1.51    5.82   1
  -4  -7   7    0.30    4.24   3
  -4   7   7    4.50    5.85   2
  -4   7   7    5.12    3.54   4
   4   7  -7   -0.88    5.15   3
  -4   7   7   -0.46    3.34   3
  -4   7   7    3.64    5.28   1
  -3  -7   7  128.08    9.01   3
   3  -7  -7  118.85    7.76   3
  -3   7   7  133.00   10.62   2
   3   7  -7  142.63    8.84   4
  -3   7   7  134.36    8.12   3
   3   7  -7  121.36    9.11   3
  -3   7   7  126.69    7.87   4
   2  -7  -7   65.40    4.77   4
   2  -7  -7   75.80    5.00   1
  -2  -7   7   72.79    5.55   3
   2  -7  -7   75.05    5.06   3
   2   7  -7   67.94    5.60   3
   2   7  -7   72.01    5.31   4
   2   7  -7   72.61    5.14   3
  -2   7   7   69.80    5.13   4
  -2   7   7   75.84    5.29   3
  -2   7   7   72.22    7.19   2
   2   7  -7   73.56    5.63   4
   2   7  -7   72.10    6.15   2
  -2   7   7   61.57    4.85   4
   1  -7  -7  310.86   13.30   3
  -1  -7   7  324.84   13.07   4
   1  -7  -7  298.54   12.52   1
  -1  -7   7  295.80   13.19   3
   1  -7  -7  324.22   13.34   4
  -1  -7   7  322.61   14.14   2
  -1   7   7  332.63   13.53   4
  -1   7   7  289.71   13.24   3
   1   7  -7  342.40   13.29   3
   1   7  -7  315.65   13.31   3
  -1   7   7  316.85   13.38   3
  -1   7   7  307.18   13.47   4
   1   7  -7  310.67   13.85   1
  -1   7   7  313.79   15.56   2
   1   7  -7  317.44   13.32   4
   1   7  -7  325.18   13.34   4
   1   7  -7  323.05   14.56   2
   0  -7   7   29.39    2.03   3
   0  -7  -7   27.40    2.49   1
   0  -7  -7   31.75    3.46   3
   0  -7   7   28.48    1.88   3
   0  -7  -7   29.47    3.26   4
   0  -7  -7   25.97    2.93   4
   0   7  -7   30.37    2.06   3
   0   7   7   34.93    3.41   4
   0   7   7   34.19    5.58   2
   0   7  -7   26.59    2.44   3
   0   7  -7   29.86    4.22   2
   0   7  -7   26.93    2.36   4
   0   7  -7   24.69    2.30   4
   0   7   7   32.00    3.49   4
   0   7   7   35.53    3.53   3
   0   7   7   32.36    3.29   3
  -1  -7  -7  194.02    9.19   4
  -1  -7  -7  205.38    9.56   3
  -1  -7  -7  177.84    9.22   1
  -1  -7  -7  190.08    9.33   4
   1   7   7  184.22    9.04   4
  -1   7  -7  192.23    7.39   4
   1   7   7  194.48   12.56   2
  -1   7  -7  210.58    9.27   1
   1   7   7  197.31    9.32   3
  -1   7  -7  191.71    7.36   4
  -1   7  -7  190.59   10.80   2
   1   7   7  188.30    9.25   4
  -2  -7  -7    1.91    2.27   4
  -2  -7  -7    2.86    3.25   1
  -2  -7  -7    1.55    2.53   4
  -2  -7  -7    2.60    3.02   3
  -2   7  -7    2.90    1.04   3
   2   7   7    4.41    2.83   3
  -2   7  -7    1.42    0.92   3
  -2   7  -7    4.70    1.51   4
   2   7   7    3.40    2.58   4
  -2   7  -7    1.57    3.97   2
  -2   7  -7    3.39    1.25   4
   2   7   7   -8.21    4.68   2
  -2   7  -7    0.34    2.25   1
  -3  -7  -7   18.16    5.11   1
  -3  -7  -7   14.36    4.16   3
  -3  -7  -7   11.58    3.76   4
  -3   7  -7   14.16    2.25   3
  -3   7  -7   10.86    2.50   4
  -3   7  -7   13.96    4.12   1
   3   7   7   11.57    4.16   3
  -3   7  -7   17.25    2.92   4
  -4  -7  -7    6.27    5.42   3
  -4  -7  -7    8.58    4.80   4
  -4  -7  -7    8.32    5.95   1
  -4   7  -7    9.89    2.99   3
  -4   7  -7   11.62    3.35   4
   4   7   7    1.35    4.20   3
  -4   7  -7   10.96    5.14   1
  -4  -8   7   10.82    4.75   3
  -4   8   7   12.07    4.15   4
  -4   8   7   11.87    6.63   2
  -4   8   7    5.65    3.80   3
   4   8  -7    9.55    5.87   3
   3  -8  -7   11.27    3.27   3
  -3  -8   7   18.55    4.72   3
   3   8  -7    8.07    4.27   3
  -3   8   7   18.05    5.84   2
  -3   8   7    9.01    3.48   4
   3   8  -7   14.53    4.48   4
  -3   8   7   11.30    3.37   3
   2  -8  -7    6.58    2.36   4
  -2  -8   7    5.84    2.64   4
   2  -8  -7    3.18    2.78   3
   2  -8  -7    6.13    2.34   1
  -2  -8   7    7.50    3.08   3
   2   8  -7   -0.09    3.10   4
  -2   8   7    7.18    2.74   4
   2   8  -7    3.38    2.52   3
  -2   8   7    7.36    2.63   3
   2   8  -7    9.91    3.33   2
   2   8  -7    4.16    2.41   4
   2   8  -7    5.55    3.71   3
  -2   8   7   12.35    2.71   4
  -2   8   7    8.99    4.27   2
   1  -8  -7   91.40    4.26   1
  -1  -8   7   90.97    4.99   4
  -1  -8   7   90.39    5.37   3
   1  -8  -7   80.86    5.18   4
  -1  -8   7   93.61    6.20   2
   1  -8  -7   97.49    5.52   3
   1   8  -7   82.00    7.19   1
   1   8  -7   88.40    5.53   3
   1   8  -7   75.99    5.21   4
  -1   8   7   84.24    5.46   4
  -1   8   7   80.56    5.23   4
  -1   8   7   97.25    5.51   3
  -1   8   7   88.84    7.82   2
   1   8  -7   95.43    5.14   3
   1   8  -7   75.11    6.70   2
   1   8  -7   88.21    5.46   4
   0  -8  -7   53.83    4.16   3
   0  -8  -7   49.26    3.94   4
   0  -8   7   39.54    2.71   3
   0  -8  -7   52.13    3.11   1
   0  -8   7   45.30    2.63   3
   0   8  -7   49.10    3.11   4
   0   8   7   53.07    4.08   3
   0   8  -7   45.22    5.24   2
   0   8   7   54.38    3.82   4
   0   8  -7   47.18    2.79   3
   0   8  -7   47.24    3.17   4
   0   8  -7   45.00    3.30   3
   0   8   7   49.79    4.02   4
   0   8   7   55.62    6.63   2
  -1  -8  -7  147.38    8.07   3
  -1  -8  -7  148.10    7.69   1
  -1  -8  -7  152.30    7.95   4
  -1  -8  -7  143.60    7.64   4
  -1   8  -7  145.72    5.93   4
   1   8   7  141.60    7.76   4
  -1   8  -7  142.63    5.58   3
   1   8   7  156.49    7.95   3
  -1   8  -7  139.65    5.87   4
  -1   8  -7  139.58    9.51   2
   1   8   7  147.06    7.64   4
  -1   8  -7  152.11    7.59   1
  -1   8  -7  146.21    5.62   3
  -2  -8  -7   41.11    4.94   4
  -2  -8  -7   48.42    5.20   4
  -2  -8  -7   52.99    6.12   1
  -2  -8  -7   45.46    5.38   3
   2   8   7   48.88    5.61   3
   2   8   7   50.75    5.47   4
  -2   8  -7   45.14    2.75   4
  -2   8  -7   44.90    2.27   3
  -2   8  -7   54.36    7.67   2
  -2   8  -7   48.71    4.68   1
   2   8   7   49.91    8.82   2
  -2   8  -7   44.00    3.07   4
  -2   8  -7   46.43    2.39   3
  -3  -8  -7   41.17    5.64   4
  -3  -8  -7   37.33    6.12   3
  -3  -8  -7   39.93    6.83   1
  -3   8  -7   38.97    3.76   4
  -3   8  -7   53.16    4.13   4
  -3   8  -7   40.87    3.20   3
  -3   8  -7   39.19    8.17   2
   3   8   7   36.56    5.83   3
  -3   8  -7   39.77    5.63   1
  -4  -8  -7    1.47    5.50   1
  -4  -8  -7   -3.40    4.68   3
   4   8   7   -6.04    3.72   3
  -4   8  -7    6.14    4.65   4
  -4   8  -7   -1.91    2.23   3
  -4   8  -7    7.85    4.54   1
  -4  -9   7    4.21    4.49   3
  -4   9   7   -0.72    5.19   2
  -4   9   7    1.35    3.71   4
   4   9  -7    1.97    5.63   3
  -4   9   7   -0.68    3.34   3
  -3  -9   7    1.45    3.44   3
   3  -9  -7    1.98    4.88   3
   3   9  -7    7.68    4.72   3
   3   9  -7   -5.71    3.65   4
  -3   9   7   -2.58    2.75   3
  -3   9   7    1.63    3.09   4
  -3   9   7   -0.65    4.48   2
  -2  -9   7    1.38    2.63   3
   2  -9  -7    0.89    2.36   3
  -2   9   7    4.28    2.72   4
   2   9  -7   -1.64    2.79   4
  -2   9   7    3.76    4.31   2
   2   9  -7    3.84    3.47   4
   2   9  -7    2.83    3.25   2
   2   9  -7    1.44    3.14   3
  -2   9   7    4.89    2.54   3
   1  -9  -7   71.17    4.78   4
   1  -9  -7   67.02    4.91   3
  -1  -9   7   70.28    4.83   3
  -1  -9   7   60.99    4.28   4
   1   9  -7   56.00    6.68   2
   1   9  -7   67.74    4.80   4
   1   9  -7   68.45    4.45   3
   1   9  -7   68.70    5.31   3
  -1   9   7   68.94    4.90   3
   1   9  -7   63.92    4.98   4
  -1   9   7   70.27    5.01   4
  -1   9   7   72.05    4.87   4
  -1   9   7   70.91    7.75   2
   0  -9   7   51.26    3.39   3
   0  -9   7   67.90    3.49   3
   0  -9  -7   67.11    3.35   1
   0  -9  -7   72.53    5.03   3
   0  -9  -7   69.46    4.81   4
   0   9  -7   76.83    6.52   2
   0   9   7   65.41    4.82   4
   0   9  -7   69.44    3.82   4
   0   9  -7   69.22    4.16   3
   0   9   7   66.08    8.27   2
   0   9  -7   64.66    3.54   3
   0   9   7   63.95    4.67   4
   0   9   7   59.08    4.92   3
   0   9  -7   61.99    3.95   4
  -1  -9  -7    0.25    2.76   3
  -1  -9  -7    1.24    2.32   4
  -1  -9  -7    1.99    2.27   1
  -1   9  -7   -0.30    1.00   4
  -1   9  -7    2.24    2.01   1
   1   9   7   18.03    6.20   2
   1   9   7    3.95    2.34   4
   1   9   7    2.87    2.37   3
  -1   9  -7    2.12    1.18   3
  -1   9  -7    6.43    3.48   2
  -1   9  -7    1.83    1.16   4
   1   9   7   -3.36    1.62   4
  -1   9  -7    1.17    0.94   3
  -2  -9  -7  197.20   10.60   4
  -2  -9  -7  191.11   10.70   3
  -2  -9  -7  186.70   10.79   1
  -2   9  -7  196.57    7.45   3
  -2   9  -7  203.12   13.82   2
  -2   9  -7  183.55   10.03   1
   2   9   7  202.72   10.69   4
  -2   9  -7  190.91    7.99   4
  -2   9  -7  193.02    7.38   3
  -2   9  -7  195.76    8.19   4
   2   9   7  189.26   10.43   3
   2   9   7  193.62   15.24   2
  -3  -9  -7   16.18    5.56   1
  -3  -9  -7   21.71    5.12   3
   3   9   7   30.28    5.61   3
  -3   9  -7   20.87    6.98   2
  -3   9  -7   16.13    4.11   1
  -3   9  -7   18.53    2.65   4
  -3   9  -7   14.39    2.91   4
  -3   9  -7   16.99    2.18   3
  -3 -10   7   38.66    6.06   3
  -3  10   7   44.52    5.46   3
  -3  10   7   42.98    8.36   2
   3  10  -7   61.52    7.27   3
  -3  10   7   39.47    5.25   4
   3  10  -7   44.99    6.34   4
   2 -10  -7   90.21    6.16   3
  -2 -10   7   76.05    6.49   3
  -2  10   7   79.35    5.89   3
   2  10  -7   97.88    7.29   4
  -2  10   7   81.62    6.20   4
  -2  10   7   84.69    9.55   2
   2  10  -7   78.30    6.98   3
   2  10  -7   88.27    8.31   2
  -1 -10   7    2.26    2.24   3
   1 -10  -7    1.42    2.56   3
   1  10  -7    2.36    1.91   3
  -1  10   7    4.82    4.62   2
  -1  10   7    5.29    2.68   3
   1  10  -7    4.15    2.75   4
   1  10  -7    3.38    2.93   3
   1  10  -7    2.63    2.22   4
  -1  10   7    2.58    2.35   4
  -1  10   7    1.41    2.21   4
   1  10  -7    1.71    3.71   2
   0 -10   7   31.48    3.30   3
   0 -10  -7   33.77    4.20   3
   0 -10  -7   34.48    4.03   4
   0  10   7   49.18    4.79   3
   0  10  -7   36.23    2.72   3
   0  10   7   42.22    4.43   4
   0  10  -7   39.83    3.43   4
   0  10  -7   37.97    3.07   4
   0  10  -7   38.35    4.13   1
   0  10   7   43.68    4.37   4
   0  10  -7   41.68    3.61   3
   0  10  -7   46.44    5.87   2
   0  10   7   48.10    7.61   2
  -1 -10  -7  145.13    8.67   3
  -1 -10  -7  156.45    7.99   1
  -1 -10  -7  148.64    8.60   4
  -1  10  -7  161.62    8.00   1
  -1  10  -7  141.16    6.72   4
   1  10   7  155.49    8.69   4
  -1  10  -7  159.36    6.58   3
   1  10   7  167.89    8.60   4
  -1  10  -7  157.13    6.76   4
   1  10   7  170.65    9.13   3
  -1  10  -7  159.88    6.46   3
  -1  10  -7  164.69   11.36   2
  -2 -10  -7    9.54    3.85   1
  -2 -10  -7   14.02    4.34   3
  -2  10  -7    4.17    1.76   4
   2  10   7    7.05    6.64   2
   2  10   7    6.18    3.51   3
   2  10   7    8.86    3.56   4
  -2  10  -7   11.23    5.84   2
  -2  10  -7    5.12    2.81   1
  -2  10  -7    2.96    0.93   3
  -2  10  -7    4.28    1.55   4
  -3 -10  -7   18.68    5.15   3
  -3 -10  -7   10.55    5.24   1
  -3  10  -7   16.75    6.67   2
  -3  10  -7    9.36    3.96   1
  -3  10  -7   10.11    2.80   4
  -3  10  -7   15.38    2.47   4
   3  10   7   24.37    5.71   3
   3  11  -7  103.43    8.97   4
  -3  11   7  113.80   12.23   2
  -3  11   7  129.07    8.42   4
  -3  11   7  129.22    8.51   3
   3  11  -7  115.81    9.13   3
   2 -11  -7    1.18    2.95   3
   2  11  -7    2.99    4.11   2
  -2  11   7    4.13    5.12   2
  -2  11   7    3.18    2.69   3
   2  11  -7    1.13    3.90   3
   2  11  -7    4.61    3.59   4
  -2  11   7    3.86    2.87   4
   1 -11  -7   11.10    3.22   3
   1  11  -7   10.43    2.66   4
   1  11  -7    8.10    3.17   4
   1  11  -7    6.80    3.24   3
   1  11  -7    5.73    4.31   2
  -1  11   7    6.71    5.35   2
  -1  11   7    7.64    2.75   4
  -1  11   7    9.54    2.90   3
   0 -11  -7   24.25    3.95   3
   0  11  -7   37.37    6.21   2
   0  11  -7   36.09    3.54   4
   0  11   7   26.73    3.99   4
   0  11   7   34.52    4.41   3
   0  11  -7   32.39    3.05   4
   0  11  -7   32.24    4.66   1
   0  11  -7   34.67    3.53   3
   0  11   7   33.44    7.58   2
  -1 -11  -7  125.39    8.13   3
   1  11   7  143.63    8.54   3
   1  11   7  120.62    7.85   4
  -1  11  -7  126.36    6.93   1
  -1  11  -7  126.62    6.06   4
  -1  11  -7  140.82   10.70   2
   1  11   7  167.86   13.77   2
  -1  11  -7  127.27    5.87   3
  -1  11  -7  122.00    6.05   4
  -2 -11  -7    7.81    3.96   3
  -2 -11  -7   10.33    4.89   1
   2  11   7   17.53    4.33   4
   2  11   7   12.77    4.48   3
  -2  11  -7    8.77    3.02   1
  -2  11  -7   13.50    1.95   4
   2  11   7   10.34    7.32   2
  -2  11  -7    8.81    1.99   4
  -2  11  -7   20.74    6.90   2
  -3 -11  -7   13.28    5.30   3
  -3  11  -7   11.52    6.45   2
   3  11   7   15.93    5.64   3
  -3  11  -7   10.51    2.43   4
  -3  12   7   -1.98    5.98   2
   3  12  -7    9.16    4.66   4
  -3  12   7    1.34    3.27   4
   3  12  -7   -3.34    4.74   3
  -3  12   7    4.86    3.72   3
   2  12  -7   18.21    5.92   2
   2  12  -7   11.53    4.48   4
   2  12  -7   12.31    4.63   3
  -2  12   7   16.01    7.01   2
  -2  12   7   11.06    3.23   3
  -2  12   7   14.00    3.82   4
   1 -12  -7   -3.95    2.67   3
   1  12  -7    0.04    2.90   4
   1  12  -7   -5.49    4.01   2
   1  12  -7   -3.79    2.93   3
  -1  12   7   -0.82    2.28   4
  -1  12   7    1.91    2.73   3
  -1  12   7   -0.10    5.04   2
   0 -12  -7   27.13    4.20   3
   0  12  -7   35.64    6.74   2
   0  12   7   21.10    7.02   2
   0  12  -7   24.04    3.42   4
   0  12   7   29.01    4.20   4
   0  12   7   25.07    4.12   3
   0  12  -7   28.51    3.10   4
   0  12  -7   26.39    3.52   3
  -1 -12  -7   67.60    6.32   3
   1  12   7   74.61    6.24   4
  -1  12  -7   71.99    8.68   2
   1  12   7   81.24    7.48   3
   1  12   7   72.54   11.11   2
  -1  12  -7   70.74    4.38   4
  -1  12  -7   69.09    4.29   4
  -1  12  -7   72.87    4.25   3
  -2 -12  -7   13.67    4.68   3
  -2  12  -7   12.49    2.25   4
   2  12   7   24.51    8.98   2
  -2  12  -7   15.67    6.47   2
   2  12   7   18.65    4.92   3
  -2  12  -7   19.13    2.32   4
   2  13  -7   72.92   10.00   2
   2  13  -7   64.19    7.27   3
  -2  13   7   67.12    6.29   3
   2  13  -7   74.35    6.97   4
  -2  13   7   65.49   10.51   2
   1  13  -7    0.07    3.19   4
  -1  13   7    5.21    3.10   4
  -1  13   7    3.25    3.22   3
   1  13  -7    8.31    3.88   3
  -1  13   7   -4.49    5.50   2
   1  13  -7   -6.08    4.44   2
   0 -13  -7  136.53    8.51   3
   0  13   7  133.38   13.02   2
   0  13  -7  150.71    7.86   4
   0  13   7  150.90    8.91   3
   0  13  -7  149.15   11.50   2
   0  13  -7  139.23    7.58   3
   0  13   7  137.97    8.49   4
  -1 -13  -7   55.73    6.71   3
  -1  13  -7   61.35    9.09   2
   1  13   7   61.51    7.04   3
  -1  13  -7   59.14    4.34   4
   1  13   7   72.74   11.85   2
   1  13   7   59.50    6.52   4
  -1  13  -7   59.39    4.16   3
  -1  13  -7   57.31    4.10   4
  -2 -13  -7    2.97    4.35   3
  -2  13  -7    0.62    5.53   2
   2  13   7    5.60    4.71   3
  -2  13  -7    4.07    2.00   4
   2  13   7    6.81    9.36   2
  -2  14   7   37.24    5.35   3
  -2  14   7   37.12    9.30   2
   2  14  -7   23.73    7.59   2
   2  14  -7   37.50    6.20   3
   2  14  -7   41.23    5.91   4
  -2  14   7   32.72    4.75   4
   1  14  -7   -8.30    4.09   2
  -1  14   7    1.55    3.02   4
   1  14  -7    5.83    3.69   4
   1  14  -7    3.38    3.68   3
  -1  14   7    2.31    2.86   3
  -1  14   7   -4.22    6.41   2
   0  14   7    8.86    3.55   4
   0  14   7   -1.45    2.85   3
   0  14  -7    0.04    2.87   3
   0  14  -7   -1.91    2.80   4
   0  14   7   -6.11    5.91   2
   0  14  -7    1.37    5.14   2
  -1 -14  -7   13.11    4.31   3
  -1  14  -7   23.67    6.95   2
   1  14   7   15.68    4.57   3
  -1  14  -7   17.55    2.96   3
   1  14   7   13.55    8.57   2
  -1  14  -7   20.35    3.20   4
   1  14   7   16.20    4.11   4
  -1  15   7   47.22    5.72   3
   1  15  -7   49.91    5.90   3
  -1  15   7   48.88    5.66   4
  -1  15   7   37.83   10.26   2
   1  15  -7   45.16    8.89   2
   1  15  -7   60.98    6.19   4
   0  15   7    3.17    3.27   4
   0  15  -7    4.97    3.18   3
   0  15   7  -14.89    6.97   2
   0  15   7   -0.57    3.22   3
   0  15  -7   -7.14    4.99   2
   0  15  -7    9.11    3.46   4
   1  15   7    5.79    3.80   4
  -1  15  -7    9.46    5.87   2
  -4   0   8   22.14    6.21   1
   4   0  -8   26.34    5.65   3
  -4   0   8   13.97    4.37   4
  -4   0   8   17.03    4.80   3
  -3   0   8   25.41    4.25   3
   3   0  -8   17.59    3.94   4
   3   0  -8   17.56    4.01   3
  -3   0   8   20.25    3.65   4
  -3   0   8   31.04    5.80   1
  -3   0   8   20.42    3.85   4
   2   0  -8  804.14   31.56   3
   2   0  -8  799.10   31.54   4
   2   0  -8  813.90   31.54   4
   2   0  -8  815.64   31.42   3
  -2   0   8  795.20   31.31   4
  -2   0   8  805.48   31.44   4
  -2   0   8  856.23   31.53   3
  -1   0   8    4.37    1.64   3
   1   0  -8    1.33    1.76   4
  -1   0   8    2.64    1.32   4
  -1   0   8    0.90    1.32   3
   1   0  -8    0.04    1.81   3
   1   0  -8    2.00    1.47   4
  -1   0   8    4.44    1.56   4
   1   0  -8    1.51    1.57   3
   0   0  -8   36.94    2.35   4
   0   0   8   37.88    2.33   4
   0   0  -8   38.04    2.49   3
   0   0  -8   30.03    2.56   2
   0   0   8   36.18    2.35   3
   0   0  -8   33.58    2.34   4
   0   0   8   39.28    2.33   4
   0   0  -8   39.35    2.39   3
   0   0   8   35.16    2.38   3
   1   0   8  302.50   11.49   3
  -1   0  -8  291.02   11.60   4
   1   0   8  276.04   11.43   4
   1   0   8  287.69   11.51   3
  -1   0  -8  304.91   11.65   3
  -1   0  -8  292.73   12.75   1
   1   0   8  302.61   11.44   4
  -1   0  -8  282.91   11.48   3
  -1   0  -8  296.28   11.56   4
  -2   0  -8 1240.78   45.92   4
   2   0   8 1219.79   45.58   4
  -2   0  -8 1249.62   45.55   3
  -2   0  -8 1275.47   45.69   4
   2   0   8 1250.51   45.71   3
  -2   0  -8 1158.64   45.76   3
  -2   0  -8 1176.59   47.31   1
   3   0   8   11.90    2.99   3
  -3   0  -8   15.41    3.08   4
  -3   0  -8   13.83    2.84   3
  -3   0  -8   11.13    3.38   3
  -3   0  -8   15.11    4.81   1
  -3   0  -8   15.18    3.35   4
  -4   0  -8    0.95    4.56   1
  -4   0  -8   -0.70    3.81   3
  -4   0  -8    5.94    3.90   4
  -4  -1   8    2.28    5.31   1
  -4  -1   8    5.56    4.00   3
   4  -1  -8    2.38    4.11   3
  -4  -1   8    4.47    3.83   4
  -4   1   8    0.56    4.79   1
  -4   1   8    6.95    3.86   4
  -4   1   8    2.43    3.81   3
   4   1  -8   -3.07    4.02   3
   3  -1  -8   57.45    5.54   4
  -3  -1   8   45.27    6.63   1
  -3  -1   8   46.25    5.15   4
   3  -1  -8   50.80    5.29   3
  -3  -1   8   38.52    5.15   3
  -3  -1   8   54.81    5.31   4
   3   1  -8   49.09    5.37   4
  -3   1   8   51.20    5.30   4
  -3   1   8   51.82    6.70   1
  -3   1   8   54.45    5.62   3
   3   1  -8   46.30    5.15   4
  -3   1   8   49.63    5.22   4
   3   1  -8   44.75    5.40   3
   2  -1  -8  665.60   26.09   4
   2  -1  -8  661.44   26.00   3
  -2  -1   8  731.50   26.30   4
  -2  -1   8  664.47   26.16   3
   2  -1  -8  664.13   26.14   4
  -2  -1   8  672.77   26.06   4
  -2   1   8  626.50   25.96   4
  -2   1   8  688.61   26.35   2
   2   1  -8  678.38   26.22   4
   2   1  -8  649.99   26.04   3
  -2   1   8  711.46   26.15   4
  -2   1   8  669.78   26.10   3
   2   1  -8  649.94   26.18   4
   2   1  -8  570.89   26.00   3
  -1  -1   8  330.07   12.82   4
   1  -1  -8  322.43   12.88   3
   1  -1  -8  316.51   12.88   4
  -1  -1   8  331.94   12.80   3
   1  -1  -8  290.50   12.78   3
  -1  -1   8  309.57   12.75   3
   1  -1  -8  321.08   12.86   4
  -1   1   8  328.86   12.79   4
  -1   1   8  313.81   12.60   2
   1   1  -8  312.89   12.93   3
  -1   1   8  289.39   12.69   3
   1   1  -8  329.97   12.89   4
   1   1  -8  318.67   12.84   3
   1   1  -8  310.57   12.84   4
  -1   1   8  320.24   12.88   4
  -1   1   8  312.90   12.73   3
   0  -1  -8   84.49    4.65   2
   0  -1   8   82.49    3.99   3
   0  -1   8   96.33    4.06   3
   0  -1   8   84.19    3.99   4
   0  -1   8   82.64    3.97   4
   0  -1  -8   82.83    4.22   3
   0  -1  -8   87.94    4.40   4
   0  -1  -8   92.75    4.34   4
   0  -1  -8   87.18    4.33   3
   0   1  -8   84.22    4.40   2
   0   1  -8   87.92    4.11   3
   0   1  -8   95.22    4.14   3
   0   1  -8   88.96    4.07   4
   0   1  -8   86.89    4.08   4
   0   1   8   83.36    4.19   4
   0   1   8   82.03    4.13   3
   0   1   8   92.93    4.37   3
   0   1   8   88.77    5.18   2
   1  -1   8   52.10    2.70   3
   1  -1   8   54.16    2.62   4
  -1  -1  -8   55.91    4.18   1
   1  -1   8   52.38    2.71   4
  -1  -1  -8   53.14    3.18   3
  -1  -1  -8   48.75    3.14   4
  -1  -1  -8   50.66    3.28   3
  -1  -1  -8   48.05    3.16   4
  -1  -1  -8   42.80    4.71   2
   1  -1   8   48.68    2.78   3
   1   1   8   55.37    3.28   3
  -1   1  -8   58.55    4.27   1
  -1   1  -8   49.26    2.81   3
   1   1   8   53.25    3.12   3
  -1   1  -8   51.93    2.79   4
  -1   1  -8   55.21    2.88   4
   1   1   8   51.47    3.10   4
  -1   1  -8   52.07    2.86   3
   1   1   8   51.41    3.13   4
   2  -1   8   11.92    2.09   3
   2  -1   8   13.68    2.16   3
  -2  -1  -8   12.20    2.22   3
  -2  -1  -8   11.69    2.09   4
  -2  -1  -8   10.01    2.17   3
  -2  -1  -8   12.40    3.51   1
  -2  -1  -8   14.46    2.55   4
   2  -1   8   11.81    1.90   4
  -2   1  -8   13.49    2.20   3
   2   1   8   15.07    2.46   3
  -2   1  -8   10.33    3.26   1
  -2   1  -8   13.37    1.99   3
  -2   1  -8   10.52    1.94   4
  -2   1  -8   12.51    2.09   4
   2   1   8    8.55    1.85   4
  -3  -1  -8    3.33    2.43   4
  -3  -1  -8    7.33    2.63   3
  -3  -1  -8    8.56    4.62   1
   3  -1   8    5.44    2.63   3
  -3  -1  -8    3.30    3.02   3
  -3   1  -8    4.92    2.84   4
  -3   1  -8    4.05    3.77   1
  -3   1  -8    2.01    2.10   3
   3   1   8    2.37    2.67   3
  -3   1  -8    3.30    2.86   3
  -3   1  -8    6.41    2.59   4
  -4  -1  -8   22.86    4.66   4
  -4  -1  -8   18.25    4.98   3
  -4  -1  -8   25.03    6.63   1
  -4   1  -8   17.45    4.33   4
  -4   1  -8   24.43    6.76   1
  -4   1  -8   20.40    4.74   3
  -4  -2   8   17.44    5.02   3
  -4  -2   8   21.23    4.93   4
   4  -2  -8    9.60    4.33   3
  -4  -2   8   12.67    6.18   1
  -4   2   8   15.22    6.41   1
  -4   2   8    9.34    4.56   3
  -4   2   8   18.46    4.62   4
   4   2  -8    8.07    4.78   3
   3  -2  -8  120.24    7.47   4
   3  -2  -8  106.65    7.31   3
  -3  -2   8  120.81    7.57   4
  -3  -2   8  120.81    7.86   3
  -3  -2   8  134.50    9.19   1
  -3   2   8  130.00    8.78   1
  -3   2   8  124.91    7.59   3
   3   2  -8  124.11    7.85   3
   3   2  -8  111.21    7.43   4
  -3   2   8  120.02    7.40   4
   3   2  -8  106.01    7.39   4
  -3   2   8  110.43    7.11   4
   2  -2  -8   76.50    4.98   3
  -2  -2   8   69.08    4.81   4
  -2  -2   8   67.96    4.94   3
   2  -2  -8   67.82    4.73   4
   2  -2  -8   62.99    5.29   1
  -2  -2   8   70.29    4.77   2
  -2  -2   8   70.67    4.70   4
   2  -2  -8   77.44    5.04   4
   2   2  -8   75.72    5.09   3
   2   2  -8   73.84    5.07   3
   2   2  -8   77.29    5.26   4
  -2   2   8   78.37    4.92   3
  -2   2   8   74.97    4.79   4
  -2   2   8   76.94    5.35   2
   2   2  -8   77.54    5.06   4
  -2   2   8   65.62    4.81   4
   1  -2  -8  106.74    5.61   2
  -1  -2   8  113.46    5.48   3
   1  -2  -8  122.78    5.68   3
   1  -2  -8  109.88    5.59   4
  -1  -2   8  103.85    5.30   3
   1  -2  -8  112.83    5.56   4
   1  -2  -8  115.66    5.63   3
  -1  -2   8  103.80    5.37   4
  -1   2   8  111.34    5.47   3
   1   2  -8  107.17    5.53   4
   1   2  -8  110.79    5.57   3
   1   2  -8  109.08    5.66   3
  -1   2   8  105.29    5.47   4
  -1   2   8  108.72    5.44   4
  -1   2   8  112.29    5.45   3
  -1   2   8  104.23    5.69   2
   1   2  -8  113.62    5.56   4
   0  -2  -8   28.79    2.53   3
   0  -2  -8   25.68    2.27   3
   0  -2   8   21.15    1.77   3
   0  -2   8   23.24    1.66   3
   0  -2  -8   21.15    2.61   2
   0  -2  -8   24.19    2.24   4
   0  -2  -8   21.21    2.25   4
   0  -2   8   20.35    1.67   4
   0  -2   8   22.05    1.61   4
   0   2  -8   21.29    1.94   3
   0   2   8   22.51    2.07   3
   0   2   8   22.29    3.05   2
   0   2   8   25.84    2.26   3
   0   2  -8   21.34    1.85   4
   0   2  -8   19.38    1.90   4
   0   2   8   22.56    2.23   4
   0   2  -8   23.76    1.90   3
   0   2   8   32.57    2.81   4
  -1  -2  -8   90.23    4.62   4
   1  -2   8   87.68    3.63   3
   1  -2   8   85.05    3.31   4
  -1  -2  -8   87.82    5.29   1
  -1  -2  -8   79.39    4.35   3
   1  -2   8   87.11    3.34   4
  -1  -2  -8   80.76    5.98   2
  -1  -2  -8   84.57    4.54   4
   1  -2   8   71.87    3.64   3
  -1  -2  -8   82.82    4.51   3
  -1   2  -8   90.06    3.87   4
  -1   2  -8   89.59    3.83   3
  -1   2  -8   84.85    3.80   4
   1   2   8   91.20    4.45   3
  -1   2  -8   85.10    3.76   3
   1   2   8   92.06    4.68   3
  -1   2  -8   92.41    5.46   1
   1   2   8   86.27    4.40   4
  -2  -2  -8    4.76    2.96   1
  -2  -2  -8    3.85    1.92   3
   2  -2   8    4.75    1.58   3
   2  -2   8    7.03    1.32   4
  -2  -2  -8    5.16    1.95   3
  -2  -2  -8    6.13    1.88   4
   2  -2   8    4.00    1.27   3
  -2  -2  -8    2.45    2.08   4
  -2   2  -8    5.73    3.03   1
  -2   2  -8    3.18    1.84   3
  -2   2  -8    4.92    1.55   3
  -2   2  -8    4.69    1.59   4
   2   2   8    3.24    1.68   4
   2   2   8    4.20    1.98   3
  -2   2  -8    2.10    1.49   4
  -3  -2  -8   43.41    4.53   4
  -3  -2  -8   34.63    4.09   3
   3  -2   8   38.85    4.01   4
   3  -2   8   36.73    3.93   3
  -3  -2  -8   40.67    6.63   1
  -3   2  -8   39.78    6.37   1
  -3   2  -8   48.23    4.80   3
  -3   2  -8   40.47    4.41   4
  -3   2  -8   42.03    4.02   4
   3   2   8   42.90    4.86   3
  -3   2  -8   40.81    3.88   3
  -4  -2  -8   26.54    6.92   1
  -4  -2  -8   42.92    6.51   3
  -4  -2  -8   28.86    5.35   4
  -4   2  -8   44.17    7.47   1
  -4   2  -8   33.18    5.43   3
  -4   2  -8   32.80    5.04   4
   4  -3  -8   27.00    5.36   3
  -4  -3   8   24.21    6.71   1
  -4  -3   8   28.72    5.49   3
  -4   3   8   15.69    5.95   1
  -4   3   8   23.80    4.89   3
  -4   3   8   14.52    4.51   4
   4   3  -8   28.87    5.79   3
   3  -3  -8    8.32    3.39   3
  -3  -3   8    9.26    3.61   3
  -3  -3   8   -5.51    3.38   2
   3  -3  -8    4.40    3.06   4
  -3  -3   8   13.85    4.98   1
  -3  -3   8    6.63    3.15   4
   3   3  -8    6.95    3.65   4
   3   3  -8    3.05    3.60   3
   3   3  -8    6.12    3.00   4
  -3   3   8    3.37    3.00   3
  -3   3   8    5.59    3.46   2
  -3   3   8    6.13    3.07   4
  -3   3   8    6.20    2.81   4
  -3   3   8    7.49    4.54   1
   2  -3  -8   -4.67    1.96   3
   2  -3  -8   -0.48    2.16   1
  -2  -3   8   -4.70    1.59   4
  -2  -3   8   -0.88    2.17   3
  -2  -3   8   -2.10    1.62   2
   2  -3  -8   -0.96    1.54   4
  -2  -3   8   -3.01    1.96   4
   2  -3  -8    2.25    2.22   4
  -2   3   8   -0.12    1.82   3
  -2   3   8   -1.16    2.15   2
   2   3  -8   -1.19    2.34   3
  -2   3   8    0.95    1.78   4
   2   3  -8   -0.89    1.92   3
   2   3  -8    0.32    1.99   4
  -2   3   8   -0.88    1.83   4
   2   3  -8    1.02    2.48   4
  -1  -3   8   77.94    4.35   3
   1  -3  -8   88.54    4.70   3
   1  -3  -8   83.02    4.67   3
   1  -3  -8   87.72    4.70   4
  -1  -3   8   75.12    4.38   3
  -1  -3   8   78.41    3.55   2
   1  -3  -8   87.99    4.59   4
  -1  -3   8   84.63    4.38   4
   1  -3  -8   76.84    4.95   2
  -1  -3   8   80.05    4.26   4
  -1   3   8   82.22    5.27   2
  -1   3   8   83.12    4.51   3
  -1   3   8   85.38    4.55   4
   1   3  -8   77.00    4.67   4
   1   3  -8   73.02    4.63   3
  -1   3   8   73.61    4.44   4
   1   3  -8   71.08    4.44   4
  -1   3   8   87.15    4.55   3
   1   3  -8   74.38    4.62   3
   1   3  -8   84.33    5.28   1
   0  -3   8   12.85    1.16   4
   0  -3  -8   16.45    2.29   3
   0  -3   8   15.18    1.46   3
   0  -3  -8   12.21    1.95   4
   0  -3  -8   14.60    2.04   4
   0  -3  -8   14.80    2.08   3
   0  -3   8   11.91    1.09   4
   0  -3  -8   17.43    2.82   2
   0   3  -8   11.92    1.87   2
   0   3  -8   13.09    1.55   4
   0   3   8   21.99    2.30   3
   0   3  -8   15.27    1.55   4
   0   3  -8   13.36    1.51   3
   0   3   8   19.58    2.37   3
   0   3  -8   14.60    1.67   3
   0   3   8   16.66    2.27   4
   0   3   8   13.57    1.98   4
  -1  -3  -8   22.80    2.54   4
  -1  -3  -8   18.51    2.43   4
  -1  -3  -8   22.56    3.22   1
  -1  -3  -8   20.41    2.43   3
  -1  -3  -8   22.96    2.75   3
  -1  -3  -8   18.50    3.63   2
   1   3   8   23.97    2.61   3
   1   3   8    8.31    4.15   2
   1   3   8   22.74    2.65   3
  -1   3  -8   31.40    3.78   1
  -1   3  -8   18.80    1.37   3
  -1   3  -8   18.56    1.38   4
   1   3   8   24.38    2.62   4
  -1   3  -8   20.44    1.39   4
  -1   3  -8   20.66    1.34   3
   1   3   8   22.50    2.47   4
   2  -3   8   -0.67    1.09   3
   2  -3   8    1.34    0.98   3
  -2  -3  -8    2.15    3.07   1
  -2  -3  -8    2.74    1.79   4
  -2  -3  -8    2.54    1.78   3
  -2  -3  -8    0.46    1.88   4
  -2  -3  -8   -0.35    1.77   3
  -2   3  -8    1.93    1.46   4
  -2   3  -8    2.07    1.65   3
  -2   3  -8    2.09    1.36   3
  -2   3  -8    0.96    2.49   1
   2   3   8    4.26    2.13   3
   2   3   8    1.30    1.40   4
  -3  -3  -8   14.71    5.12   1
  -3  -3  -8    6.42    2.90   4
  -3  -3  -8   14.77    3.75   4
   3   3   8   12.34    3.46   3
  -3   3  -8   11.54    2.75   4
  -3   3  -8   12.40    3.03   4
  -3   3  -8   11.53    3.15   3
  -3   3  -8   13.39    3.25   3
  -3   3  -8   13.43    4.33   1
  -4  -3  -8    1.20    4.75   1
  -4  -3  -8   12.86    4.66   3
  -4  -3  -8    7.64    4.03   4
  -4   3  -8    1.57    3.42   4
  -4   3  -8    6.85    4.94   1
  -4   3  -8    3.82    3.61   3
  -4  -4   8   43.74    6.58   3
  -4  -4   8   30.98    7.30   1
   4  -4  -8   45.47    5.95   3
  -4   4   8   42.03    7.83   1
  -4   4   8   34.31    5.65   3
   4   4  -8   42.39    6.54   3
  -4   4   8   42.06    7.45   2
  -4   4   8   43.47    6.14   4
  -3  -4   8    5.77    3.78   2
  -3  -4   8   17.53    3.72   4
   3  -4  -8   13.94    3.46   4
  -3  -4   8   13.50    4.79   1
   3  -4  -8   13.35    3.60   3
  -3  -4   8   17.50    4.28   3
   3   4  -8   10.61    3.34   4
  -3   4   8   13.06    3.45   3
  -3   4   8   13.49    3.28   4
   3   4  -8   20.54    4.38   4
  -3   4   8   15.01    3.61   4
  -3   4   8   16.05    4.47   2
   3   4  -8   10.04    4.29   3
   2  -4  -8  262.05   13.26   1
   2  -4  -8  284.68   13.09   4
  -2  -4   8  312.25   13.14   2
   2  -4  -8  312.38   13.13   3
  -2  -4   8  305.12   13.28   4
  -2  -4   8  304.49   13.55   3
   2  -4  -8  311.91   13.14   4
   2   4  -8  321.40   13.71   4
  -2   4   8  294.94   13.15   4
  -2   4   8  318.74   13.24   4
   2   4  -8  297.22   13.51   4
   2   4  -8  315.39   13.48   3
  -2   4   8  322.15   13.21   3
  -2   4   8  308.45   14.44   2
   2   4  -8  281.13   13.35   3
  -1  -4   8  830.94   30.44   4
   1  -4  -8  803.09   31.84   2
  -1  -4   8  756.79   30.40   3
   1  -4  -8  851.09   30.86   1
  -1  -4   8  805.51   30.59   3
   1  -4  -8  799.29   30.76   4
   1  -4  -8  808.96   30.86   4
  -1  -4   8  834.79   30.44   4
   1  -4  -8  826.84   30.85   3
   1  -4  -8  865.06   30.83   3
  -1  -4   8  820.32   30.27   2
   1   4  -8  772.00   30.55   3
  -1   4   8  751.71   31.64   2
   1   4  -8  794.28   30.30   2
  -1   4   8  866.38   30.94   4
   1   4  -8  760.53   30.64   3
   1   4  -8  792.06   31.38   1
   1   4  -8  811.78   30.70   4
  -1   4   8  794.28   30.71   3
  -1   4   8  818.90   30.85   4
   1   4  -8  791.10   30.72   4
  -1   4   8  822.81   30.79   3
   0  -4   8   24.56    1.51   3
   0  -4  -8   32.54    3.04   3
   0  -4  -8   27.46    2.79   3
   0  -4   8   26.66    1.18   4
   0  -4   8   27.90    1.78   3
   0  -4   8   27.74    1.22   4
   0  -4  -8   27.43    2.60   4
   0  -4  -8   30.55    2.77   4
   0  -4  -8   26.65    3.21   2
   0   4   8   29.18    2.71   3
   0   4  -8   30.02    2.13   4
   0   4   8   31.83    2.95   4
   0   4   8   30.46    2.78   4
   0   4   8   29.38    4.21   2
   0   4  -8   28.82    2.06   4
   0   4  -8   26.63    1.97   3
   0   4  -8   27.26    2.06   3
   0   4  -8   27.29    2.80   2
   0   4   8   36.17    3.12   3
  -1  -4  -8  401.61   16.16   4
  -1  -4  -8  384.69   16.18   3
  -1  -4  -8  412.54   18.14   2
  -1  -4  -8  401.24   16.08   3
  -1  -4  -8  370.84   16.15   4
  -1  -4  -8  396.51   16.62   1
  -1   4  -8  403.73   14.73   4
   1   4   8  411.60   16.27   4
  -1   4  -8  426.67   16.90   1
   1   4   8  404.26   16.27   3
   1   4   8  404.11   18.66   2
   1   4   8  406.05   16.13   4
  -1   4  -8  394.13   14.74   4
  -2  -4  -8  151.95    7.83   3
  -2  -4  -8  145.30    7.32   4
  -2  -4  -8  149.97    7.45   3
   2  -4   8  141.57    5.67   3
   2  -4   8  148.69    5.67   3
  -2  -4  -8  143.58    7.77   4
  -2  -4  -8  134.33    8.72   1
  -2   4  -8  139.12    8.28   1
   2   4   8  152.07    7.55   4
  -2   4  -8  136.79    6.36   3
  -2   4  -8  143.21    6.34   4
  -2   4  -8  146.05    6.11   3
  -2   4  -8  143.52    6.50   4
   2   4   8  147.04    7.61   3
  -3  -4  -8   98.70    8.44   1
  -3  -4  -8   99.16    6.83   3
  -3  -4  -8   94.74    6.87   4
   3   4   8   91.43    7.05   3
  -3   4  -8   90.79    7.72   1
  -3   4  -8  100.07    5.63   4
  -3   4  -8  100.09    6.06   4
  -3   4  -8   91.80    5.97   3
  -4  -4  -8   17.45    5.52   3
  -4  -4  -8   11.61    6.36   1
  -4  -4  -8    8.06    4.37   4
  -4   4  -8   13.02    3.79   3
  -4   4  -8   15.61    5.70   1
  -4   4  -8    4.09    3.57   4
  -4  -5   8    1.00    5.93   1
  -4  -5   8    0.85    4.21   3
   4  -5  -8    1.46    4.02   3
  -4   5   8   -6.65    5.07   1
  -4   5   8   -0.31    3.43   3
  -4   5   8   -3.97    4.31   2
  -4   5   8   -0.32    3.57   4
   4   5  -8    8.92    5.34   3
   3  -5  -8    4.71    3.15   3
  -3  -5   8    2.39    3.10   4
  -3  -5   8   -2.47    3.06   3
  -3   5   8    6.48    3.33   4
  -3   5   8    4.66    2.97   4
  -3   5   8    7.32    4.03   2
  -3   5   8    7.67    3.11   3
   3   5  -8   -0.87    4.03   3
   3   5  -8    4.58    3.79   4
   2  -5  -8  488.37   19.56   3
  -2  -5   8  446.67   19.59   2
   2  -5  -8  507.17   19.61   4
  -2  -5   8  501.00   20.13   3
   2  -5  -8  437.93   19.71   1
  -2  -5   8  486.85   19.81   4
  -2   5   8  490.83   19.80   4
  -2   5   8  483.61   21.20   2
   2   5  -8  465.39   19.88   4
   2   5  -8  447.23   19.80   4
   2   5  -8  487.96   20.01   3
  -2   5   8  528.22   19.83   3
  -2   5   8  504.21   19.76   4
  -1  -5   8   21.55    2.52   2
   1  -5  -8   29.53    2.98   1
  -1  -5   8   23.00    2.69   3
  -1  -5   8   25.94    2.61   4
   1  -5  -8   24.77    2.94   4
   1  -5  -8   25.56    3.00   4
   1  -5  -8   24.33    2.99   3
   1  -5  -8   27.67    3.93   2
  -1  -5   8   26.37    2.62   3
   1   5  -8   22.84    2.64   2
  -1   5   8   23.18    2.84   4
  -1   5   8   30.18    3.19   3
  -1   5   8   24.86    3.98   2
  -1   5   8   27.36    3.09   3
   1   5  -8   29.01    3.87   1
   1   5  -8   23.99    2.83   4
   1   5  -8   24.49    2.94   4
  -1   5   8   25.82    2.99   4
   1   5  -8   27.65    3.04   3
   0  -5  -8  137.67    6.55   3
   0  -5   8  137.33    5.33   3
   0  -5  -8  132.53    6.56   4
   0  -5  -8  124.21    6.50   4
   0  -5  -8  133.16    7.74   2
   0  -5   8  135.24    5.29   3
   0  -5  -8  127.39    6.52   3
   0   5  -8  139.77    5.75   4
   0   5   8  149.23    8.59   2
   0   5   8  131.14    6.41   3
   0   5  -8  132.61    5.65   3
   0   5   8  130.45    6.50   4
   0   5   8  138.60    6.68   4
   0   5  -8  126.31    6.95   2
   0   5  -8  132.62    5.76   4
   0   5   8  132.85    6.57   3
  -1  -5  -8  285.25   12.25   4
  -1  -5  -8  281.26   12.65   1
  -1  -5  -8  271.22   12.30   4
  -1  -5  -8  285.16   12.20   3
  -1  -5  -8  287.85   12.35   3
   1   5   8  272.91   12.27   4
   1   5   8  296.29   12.38   3
   1   5   8  291.10   12.22   4
  -1   5  -8  315.51   12.90   1
   1   5   8  285.92   14.96   2
  -2  -5  -8   25.90    3.45   4
  -2  -5  -8   31.68    4.34   3
  -2  -5  -8   34.44    5.20   1
  -2  -5  -8   34.54    4.11   4
  -2   5  -8   36.70    4.69   1
  -2   5  -8   28.72    2.03   3
  -2   5  -8   29.69    2.44   4
  -2   5  -8   28.53    2.46   4
   2   5   8   33.28    4.10   3
   2   5   8   34.39    3.94   4
  -2   5  -8   27.25    2.17   3
  -3  -5  -8    0.54    2.86   3
  -3  -5  -8    2.50    4.52   1
  -3  -5  -8    0.76    2.57   4
  -3   5  -8   -2.64    2.09   3
  -3   5  -8   -1.23    2.12   4
  -3   5  -8    4.46    2.27   4
  -3   5  -8   -0.33    3.50   1
   3   5   8   -5.59    2.77   3
  -4  -5  -8    1.16    5.48   1
  -4  -5  -8    3.38    4.79   3
  -4  -5  -8   -6.34    3.40   4
  -4   5  -8    1.45    3.35   4
  -4   5  -8   -2.44    4.46   1
  -4   5  -8    2.57    3.12   3
   4  -6  -8   15.07    5.88   3
  -4  -6   8   12.02    4.72   3
  -4   6   8    9.91    4.14   4
   4   6  -8    6.07    4.92   3
  -4   6   8    3.49    3.74   3
  -4   6   8    7.64    5.68   2
  -3  -6   8    8.45    3.70   3
   3  -6  -8    0.22    3.25   3
   3   6  -8    2.15    3.83   4
   3   6  -8    2.14    3.90   3
  -3   6   8    1.06    2.81   4
  -3   6   8    3.91    4.42   2
  -3   6   8    4.67    3.28   3
  -2  -6   8  150.31    8.14   3
   2  -6  -8  126.41    7.43   1
   2  -6  -8  143.71    7.47   4
   2  -6  -8  149.33    7.75   3
  -2  -6   8  120.39    7.55   2
  -2   6   8  142.85    7.61   4
   2   6  -8  165.46    8.25   4
   2   6  -8  127.22    7.44   3
  -2   6   8  156.14    7.64   3
   2   6  -8  147.21    7.96   3
  -2   6   8  143.38    9.34   2
  -2   6   8  143.09    7.58   4
   1  -6  -8   17.24    2.39   1
  -1  -6   8   16.17    2.46   3
  -1  -6   8   16.10    2.21   4
   1  -6  -8   15.82    3.34   2
   1  -6  -8   17.15    2.67   4
  -1  -6   8   13.37    2.34   2
   1  -6  -8   15.27    2.58   4
   1  -6  -8   13.45    2.58   3
  -1   6   8   13.24    2.61   3
  -1   6   8   17.04    2.75   3
   1   6  -8    9.46    2.15   3
  -1   6   8   13.97    3.87   2
   1   6  -8   12.84    2.59   3
   1   6  -8   18.04    2.96   2
   1   6  -8   12.61    3.04   1
  -1   6   8   15.08    2.46   4
   1   6  -8   13.62    2.69   4
   1   6  -8   11.78    2.30   4
  -1   6   8   13.38    2.44   4
   0  -6   8    5.74    0.87   3
   0  -6   8    5.13    0.87   3
   0  -6  -8    6.49    1.94   4
   0  -6  -8    8.01    2.81   2
   0  -6  -8    5.28    2.16   3
   0  -6  -8    4.72    1.74   1
   0  -6  -8    5.49    2.10   4
   0   6   8    7.35    1.94   4
   0   6   8    7.31    2.16   4
   0   6  -8    4.45    1.20   3
   0   6  -8    7.25    1.53   3
   0   6  -8    5.85    1.47   4
   0   6   8    6.22    2.12   3
   0   6   8    5.11    3.39   2
   0   6   8    6.62    2.17   3
   0   6  -8    7.82    2.45   2
  -1  -6  -8    2.42    2.30   3
  -1  -6  -8    6.01    2.12   4
  -1  -6  -8    1.98    1.68   4
  -1  -6  -8    1.87    2.31   1
  -1   6  -8    0.75    2.44   2
   1   6   8    3.88    4.32   2
  -1   6  -8    5.65    2.11   1
   1   6   8    1.84    1.85   4
   1   6   8    4.06    2.15   3
   1   6   8    1.85    1.74   4
  -2  -6  -8   41.49    4.00   4
  -2  -6  -8   37.41    4.62   4
  -2  -6  -8   48.08    5.04   3
  -2  -6  -8   48.56    5.67   1
  -2   6  -8   55.25    5.84   1
  -2   6  -8   40.43    2.71   4
  -2   6  -8   38.61    2.71   4
   2   6   8   51.32    4.99   4
  -2   6  -8   45.21    2.17   3
  -2   6  -8   41.51    2.16   3
   2   6   8   63.29    5.68   3
  -3  -6  -8    4.45    3.28   3
  -3  -6  -8    2.65    4.56   1
  -3  -6  -8    5.77    3.16   4
  -3   6  -8    4.36    3.80   1
  -3   6  -8   -0.16    2.12   4
   3   6   8   -1.69    3.18   3
  -3   6  -8   -2.23    2.10   4
  -3   6  -8    1.17    1.89   3
  -4  -6  -8    3.85    5.42   1
  -4  -6  -8    5.08    5.12   3
  -4  -6  -8    2.43    4.45   4
  -4   6  -8    5.41    2.90   3
  -4   6  -8    1.91    2.94   4
  -4   6  -8    3.39    4.85   1
   4   6   8    5.92    4.84   3
  -4  -7   8    0.67    3.87   3
   4   7  -8    3.15    5.02   3
  -4   7   8    0.92    5.00   2
  -4   7   8    4.46    3.67   4
  -4   7   8    1.84    3.82   3
   3  -7  -8    4.19    3.08   3
  -3  -7   8   11.87    4.32   3
  -3   7   8    7.37    4.71   2
   3   7  -8   10.19    4.66   3
  -3   7   8   -0.42    3.26   3
  -3   7   8    3.99    3.25   4
   3   7  -8    3.61    3.76   4
  -2  -7   8  163.10    8.53   4
   2  -7  -8  167.07    8.43   1
   2  -7  -8  165.44    8.42   4
  -2  -7   8  162.84    8.90   3
   2  -7  -8  166.13    8.53   3
   2   7  -8  173.29    9.09   4
   2   7  -8  163.95    9.08   4
  -2   7   8  174.09    8.64   3
  -2   7   8  186.59    8.90   4
   2   7  -8  151.95    9.16   3
  -2   7   8  176.65   10.97   2
  -2   7   8  168.18    8.72   4
   2   7  -8  173.93    9.55   2
   2   7  -8  162.92    8.78   3
  -1  -7   8  404.52   15.64   4
  -1  -7   8  390.86   16.70   2
   1  -7  -8  387.75   16.09   4
  -1  -7   8  402.14   15.96   3
   1  -7  -8  362.48   15.36   1
   1  -7  -8  388.09   16.11   3
   1   7  -8  412.07   16.12   4
   1   7  -8  391.62   16.02   4
  -1   7   8  397.06   16.36   4
   1   7  -8  388.74   17.04   2
  -1   7   8  395.92   18.57   2
   1   7  -8  389.43   15.98   3
   1   7  -8  374.77   15.78   3
  -1   7   8  387.46   16.23   4
  -1   7   8  385.68   16.20   3
   0  -7  -8  231.41   10.70   4
   0  -7  -8  228.33   10.64   4
   0  -7  -8  241.91   10.02   1
   0  -7  -8  246.99   10.78   3
   0  -7   8  245.22    9.18   3
   0  -7   8  229.69    9.23   3
   0   7  -8  238.40   11.74   2
   0   7   8  239.77   13.14   2
   0   7  -8  238.30    9.44   3
   0   7   8  237.70   10.72   3
   0   7   8  237.56   10.74   4
   0   7  -8  247.96    9.75   4
   0   7  -8  239.19    9.73   4
   0   7  -8  250.12    9.71   3
   0   7   8  232.54   10.74   4
  -1  -7  -8  272.74   12.47   3
  -1  -7  -8  280.90   12.43   4
  -1  -7  -8  260.71   12.40   1
  -1  -7  -8  276.41   12.52   4
  -1   7  -8  260.37   10.30   4
  -1   7  -8  308.27   12.67   1
   1   7   8  272.98   12.53   3
  -1   7  -8  282.65   14.06   2
   1   7   8  294.72   16.05   2
  -1   7  -8  282.82   10.31   4
   1   7   8  296.49   12.48   4
   1   7   8  268.23   12.42   4
  -2  -7  -8   82.53    5.73   4
  -2  -7  -8   89.09    6.42   4
  -2  -7  -8   81.39    6.32   3
  -2  -7  -8   95.60    7.25   1
  -2   7  -8   86.23    4.15   4
  -2   7  -8   93.72    4.02   4
   2   7   8   98.49    6.46   3
   2   7   8   85.65    6.22   4
  -2   7  -8   80.50    6.20   1
   2   7   8   76.77    9.90   2
  -3  -7  -8    7.96    4.89   1
  -3  -7  -8    2.93    3.04   4
  -3  -7  -8    6.44    3.69   3
  -3   7  -8    2.25    1.72   3
  -3   7  -8    4.12    3.64   1
  -3   7  -8    2.32    2.04   4
  -3   7  -8    6.56    2.40   4
   3   7   8    3.16    3.62   3
  -4  -7  -8    4.60    4.38   4
  -4  -7  -8    2.61    5.71   1
  -4  -7  -8   -1.77    4.37   3
  -4   7  -8    1.95    2.49   3
  -4   7  -8    6.06    4.82   1
   4   7   8   -1.92    4.44   3
  -4   7  -8   -0.71    2.69   4
  -4  -8   8   31.05    6.38   3
   4   8  -8   15.10    5.69   3
  -4   8   8   30.17    5.32   4
  -4   8   8   21.12    6.70   2
  -4   8   8   16.95    4.82   3
  -3  -8   8   32.85    5.48   3
   3  -8  -8   18.69    4.15   3
   3   8  -8   26.66    5.23   4
  -3   8   8   20.86    5.84   2
  -3   8   8   20.45    4.14   4
   3   8  -8   19.05    4.93   3
  -3   8   8   19.19    4.10   3
   2  -8  -8   73.51    5.49   3
  -2  -8   8   66.98    6.14   3
   2  -8  -8   55.52    5.30   4
  -2  -8   8   60.49    5.42   2
   2   8  -8   63.43    5.63   4
  -2   8   8   69.70    5.19   3
   2   8  -8   61.23    5.20   4
  -2   8   8   72.18    5.41   4
  -2   8   8   60.64    5.17   4
   2   8  -8   64.37    5.97   3
  -2   8   8   64.39    7.57   2
   2   8  -8   64.08    5.95   2
   2   8  -8   67.58    5.29   3
  -1  -8   8  153.13    7.28   4
   1  -8  -8  152.64    6.83   1
  -1  -8   8  154.74    7.67   3
  -1  -8   8  157.60    8.70   2
   1  -8  -8  157.29    7.93   3
   1  -8  -8  163.89    7.92   4
  -1   8   8  157.63    7.93   4
  -1   8   8  152.24   10.74   2
   1   8  -8  166.32    7.64   3
  -1   8   8  137.40    7.88   4
   1   8  -8  157.88    7.75   4
   1   8  -8  153.33    7.92   3
   1   8  -8  160.84    7.90   4
  -1   8   8  163.04    8.01   3
   1   8  -8  141.31    9.05   2
   0  -8  -8   34.94    2.93   1
   0  -8   8   36.17    2.23   3
   0  -8  -8   38.57    3.97   3
   0  -8   8   33.44    2.13   3
   0  -8  -8   34.26    3.81   4
   0   8   8   36.24    4.00   4
   0   8  -8   37.58    3.01   3
   0   8  -8   36.55    5.04   2
   0   8  -8   32.47    2.89   4
   0   8   8   45.99    4.42   3
   0   8  -8   36.83    2.77   4
   0   8   8   33.55    6.08   2
   0   8   8   36.08    3.82   4
   0   8  -8   35.14    2.38   3
  -1  -8  -8  139.43    7.85   1
  -1  -8  -8  152.06    8.06   4
  -1  -8  -8  150.36    7.85   4
  -1  -8  -8  146.98    8.21   3
   1   8   8  138.30    7.85   4
   1   8   8  147.56    7.75   4
   1   8   8  143.10    7.94   3
  -1   8  -8  167.92    7.98   1
  -1   8  -8  150.91    9.54   2
  -1   8  -8  147.99    5.83   4
  -1   8  -8  141.03    5.82   4
  -2  -8  -8  128.48    8.71   1
  -2  -8  -8  135.53    8.71   3
  -2  -8  -8  141.34    8.39   4
  -2  -8  -8  140.19    8.17   4
   2   8   8  139.40    8.23   4
  -2   8  -8  127.94    8.00   1
   2   8   8  101.84   12.64   2
  -2   8  -8  135.40   10.81   2
  -2   8  -8  138.91    5.78   4
  -2   8  -8  136.57    5.58   4
   2   8   8  129.41    8.11   3
  -3  -8  -8  116.26    8.33   4
  -3  -8  -8  113.69    8.88   3
  -3  -8  -8  108.83    9.59   1
  -3   8  -8  102.80    5.04   3
  -3   8  -8  113.37    6.02   4
  -3   8  -8  123.90   11.65   2
   3   8   8  116.66    9.00   3
  -3   8  -8  101.10    8.11   1
  -3   8  -8  112.49    5.80   4
  -4  -9   8    8.03    5.10   3
  -4   9   8    4.83    6.27   2
  -4   9   8   -0.02    4.05   4
   3  -9  -8    7.90    3.65   3
  -3  -9   8   13.86    4.17   3
   3   9  -8    4.96    4.42   3
  -3   9   8   14.44    3.93   4
  -3   9   8    6.12    5.68   2
   3   9  -8    3.81    4.16   4
  -3   9   8    5.23    3.63   3
  -2  -9   8  138.14    8.49   3
   2  -9  -8  142.68    7.92   3
  -2   9   8  141.72   11.11   2
   2   9  -8  149.25    9.78   2
   2   9  -8  145.16    8.56   4
   2   9  -8  156.67    8.98   3
  -2   9   8  146.73    8.37   3
  -2   9   8  142.06    8.23   4
   1  -9  -8  442.02   18.28   3
  -1  -9   8  450.68   18.08   3
   1  -9  -8  445.08   18.26   4
  -1  -9   8  462.96   17.68   4
   1  -9  -8  448.55   16.64   1
  -1   9   8  426.38   18.30   3
   1   9  -8  436.00   18.12   3
   1   9  -8  449.06   17.79   3
   1   9  -8  406.66   19.86   2
  -1   9   8  433.93   18.41   4
   1   9  -8  426.00   18.02   4
  -1   9   8  437.29   21.58   2
   1   9  -8  453.05   18.25   4
  -1   9   8  443.40   18.63   4
   0  -9   8  138.85    6.05   3
   0  -9   8  139.39    5.91   3
   0  -9  -8  146.04    7.91   3
   0  -9  -8  128.87    6.32   1
   0  -9  -8  150.91    7.72   4
   0   9   8  142.08    7.65   3
   0   9  -8  151.14    6.70   3
   0   9   8  149.41   10.86   2
   0   9   8  145.54    7.60   4
   0   9   8  140.90    7.74   4
   0   9  -8  140.54    6.47   4
   0   9  -8  144.55    9.40   2
   0   9  -8  138.96    6.67   4
   0   9  -8  146.89    6.20   3
  -1  -9  -8  118.05    6.92   1
  -1  -9  -8  113.75    7.11   4
  -1  -9  -8  114.02    7.47   3
  -1   9  -8  114.57    5.07   4
   1   9   8  124.30    7.03   4
  -1   9  -8  125.51    8.93   2
   1   9   8  122.69    7.30   3
  -1   9  -8  110.50    5.03   4
   1   9   8  142.78   12.32   2
  -1   9  -8  121.24    6.87   1
   1   9   8  122.73    7.25   4
  -2  -9  -8    1.38    2.65   4
  -2  -9  -8   -0.85    3.32   1
  -2  -9  -8   12.43    3.83   3
  -2   9  -8    1.33    1.42   4
   2   9   8   -2.07    2.91   3
  -2   9  -8    0.83    1.15   4
   2   9   8    0.78    2.92   4
  -2   9  -8   -0.66    2.36   1
   2   9   8   -3.16    5.72   2
  -2   9  -8    1.61    4.42   2
  -3  -9  -8   -3.25    3.78   3
  -3  -9  -8   -3.61    4.19   1
  -3   9  -8    0.58    2.13   4
  -3   9  -8    2.83    1.87   4
   3   9   8   -0.71    3.91   3
  -3   9  -8    1.13    3.11   1
  -3   9  -8   -2.08    4.91   2
  -3  10   8    6.30    6.11   2
  -3  10   8    7.94    3.92   3
   3  10  -8    7.86    5.24   3
  -3  10   8    1.53    3.65   4
   3  10  -8    1.54    4.01   4
  -2 -10   8  190.00   10.60   3
   2 -10  -8  196.27   10.11   3
   2  10  -8  202.51   12.37   2
   2  10  -8  212.40   11.20   4
   2  10  -8  216.70   11.23   3
  -2  10   8  210.31   10.87   4
  -2  10   8  208.30   13.95   2
  -2  10   8  194.13   10.45   3
  -1 -10   8   58.13    4.59   3
   1 -10  -8   52.20    5.10   3
  -1  10   8   48.85    4.63   3
  -1  10   8   53.51    8.40   2
  -1  10   8   60.07    4.89   4
   1  10  -8   49.35    6.80   2
   1  10  -8   53.90    4.17   3
   1  10  -8   49.81    4.72   4
   1  10  -8   57.35    4.27   4
   1  10  -8   54.32    5.08   3
  -1  10   8   50.87    4.45   4
   0 -10  -8    4.93    2.61   4
   0 -10  -8    1.43    2.79   3
   0  10  -8    2.04    1.27   3
   0  10  -8    1.65    1.48   4
   0  10  -8   -0.34    1.86   4
   0  10   8    1.28    2.28   3
   0  10   8   -0.02    4.50   2
   0  10  -8    3.08    3.46   2
   0  10   8    3.00    2.29   4
   0  10   8    1.60    2.01   4
   0  10  -8    2.05    2.10   3
  -1 -10  -8   16.63    3.27   1
  -1 -10  -8   20.57    3.98   3
  -1 -10  -8   16.45    3.40   4
   1  10   8   11.84    2.95   4
   1  10   8   23.20    4.03   3
  -1  10  -8   16.27    1.76   4
  -1  10  -8   16.00    1.35   3
  -1  10  -8   17.29    1.95   4
   1  10   8   27.17    4.20   4
  -1  10  -8   17.92    3.24   1
  -1  10  -8   18.48    4.82   2
  -1  10  -8   20.05    1.68   3
  -2 -10  -8  338.84   16.12   3
  -2 -10  -8  319.31   15.52   1
  -2  10  -8  321.73   12.69   4
   2  10   8  338.35   15.65   3
  -2  10  -8  341.04   18.70   2
   2  10   8  334.82   20.63   2
  -2  10  -8  320.91   12.49   4
  -2  10  -8  303.83   14.85   1
   2  10   8  309.56   15.41   4
  -3 -10  -8    0.58    4.30   3
  -3 -10  -8    5.40    4.62   1
  -3  10  -8   -1.19    5.97   2
  -3  10  -8    2.80    2.27   4
  -3  10  -8    3.23    1.90   4
  -3  10  -8    3.72    3.45   1
   3  10   8    9.05    4.76   3
   3  11  -8    0.99    4.79   3
   3  11  -8    3.71    4.50   4
  -3  11   8    1.09    3.52   3
  -3  11   8    0.20    5.85   2
  -3  11   8   -0.10    3.65   4
   2 -11  -8   21.47    3.88   3
   2  11  -8   19.12    4.36   3
  -2  11   8   14.81    6.67   2
  -2  11   8   14.01    3.49   3
   2  11  -8   10.23    3.86   4
   2  11  -8   13.23    4.77   2
  -2  11   8   10.81    3.32   4
   1 -11  -8   63.01    5.26   3
   1  11  -8   55.93    4.99   4
  -1  11   8   58.43    5.44   3
   1  11  -8   54.72    5.18   3
  -1  11   8   56.82    8.93   2
   1  11  -8   68.77    8.22   2
  -1  11   8   59.85    5.22   4
   1  11  -8   63.08    5.37   4
   0 -11  -8   41.54    5.07   3
   0  11  -8   37.97    3.29   4
   0  11   8   44.61    5.15   3
   0  11  -8   44.35    3.90   4
   0  11   8   47.01    5.06   4
   0  11  -8   37.06    3.66   3
   0  11  -8   43.95    6.68   2
   0  11   8   38.13    7.96   2
  -1 -11  -8   73.14    6.09   3
  -1  11  -8   62.07    4.72   1
   1  11   8   60.95    6.17   4
  -1  11  -8   59.23    3.69   4
  -1  11  -8   51.87    3.44   4
  -1  11  -8   62.14    3.24   3
  -1  11  -8   66.54    7.82   2
   1  11   8   61.73   10.46   2
   1  11   8   64.97    6.39   3
  -2 -11  -8    2.42    3.65   3
  -2  11  -8    6.42    5.26   2
  -2  11  -8    1.20    1.36   4
  -2  11  -8    0.43    2.45   1
  -2  11  -8    1.47    1.50   4
   2  11   8   -0.55    3.21   3
   2  11   8   -0.87    6.99   2
  -3 -11  -8   13.63    5.15   3
  -3  11  -8    7.68    6.66   2
   3  11   8   12.51    5.06   3
  -3  11  -8    8.11    2.12   4
  -3  12   8  100.48   12.14   2
   3  12  -8   84.20    8.69   4
  -3  12   8   96.70    7.51   4
   3  12  -8   79.65    9.52   3
  -3  12   8   63.03    6.95   3
  -2  12   8  128.15    8.43   4
  -2  12   8  143.46   12.98   2
   2  12  -8  129.68    9.24   4
  -2  12   8  133.43    8.26   3
   2  12  -8  133.66    9.29   3
   2  12  -8  141.47   11.52   2
   1 -12  -8    7.55    3.37   3
  -1  12   8   12.25    3.34   3
  -1  12   8    3.35    5.70   2
   1  12  -8    1.78    4.57   2
   1  12  -8    8.49    3.58   3
  -1  12   8   10.38    2.99   4
   1  12  -8   13.84    3.55   4
   0 -12  -8    4.31    3.40   3
   0  12   8   -6.72    4.97   2
   0  12  -8    6.65    4.03   2
   0  12  -8   10.00    2.72   3
   0  12  -8    2.05    1.82   4
   0  12   8    3.39    3.00   3
   0  12   8    8.22    3.05   4
   0  12  -8    2.73    2.45   4
  -1 -12  -8    5.49    3.45   3
  -1  12  -8    7.47    1.80   3
   1  12   8   12.43    3.63   4
  -1  12  -8   10.02    5.27   2
   1  12   8    8.65    3.59   3
  -1  12  -8    9.89    2.27   4
  -1  12  -8    4.63    1.62   4
   1  12   8   12.13    7.63   2
  -1  12  -8    7.63    3.99   1
  -2 -12  -8  119.25    8.74   3
  -2  12  -8  123.11   11.59   2
   2  12   8  143.87   15.93   2
   2  12   8  100.97    8.32   3
  -2  12  -8  110.83    5.19   4
  -2  12  -8   97.22    5.34   4
  -2  13   8    5.67    6.95   2
  -2  13   8   11.28    3.95   3
   2  13  -8   10.74    5.58   2
   2  13  -8   16.41    5.08   3
  -2  13   8    2.71    3.07   4
   2  13  -8    6.96    4.12   4
  -1  13   8   92.60    6.78   4
   1  13  -8   97.24   10.23   2
   1  13  -8   84.88    6.93   3
  -1  13   8  105.32    6.99   3
  -1  13   8   84.55   11.40   2
   1  13  -8  105.13    7.16   4
   0 -13  -8   57.92    5.91   3
   0  13   8   48.22    5.60   3
   0  13  -8   48.63    4.69   4
   0  13   8   62.56    5.57   4
   0  13  -8   50.96    4.62   3
   0  13  -8   63.14    8.18   2
   0  13   8   55.07   10.14   2
  -1 -13  -8    7.90    4.11   3
  -1  13  -8    5.96    2.84   3
   1  13   8   11.50    3.70   4
   1  13   8    5.51    3.68   3
   1  13   8   22.66    8.92   2
  -1  13  -8   10.33    2.45   4
  -1  13  -8    9.08    5.12   2
  -1  13  -8    4.00    1.81   4
  -2 -13  -8    7.93    4.34   3
  -2  13  -8    1.32    1.92   4
   2  13   8   12.81    9.19   2
  -2  13  -8    3.72    1.78   4
  -2  13  -8    2.10    6.05   2
   2  13   8    0.87    3.92   3
   2  14  -8   -1.73    4.38   3
  -2  14   8    1.22    3.00   4
  -2  14   8    3.07    6.56   2
   2  14  -8    1.17    5.44   2
   2  14  -8    5.60    4.24   4
  -1  14   8    2.22    3.40   3
   1  14  -8    8.57    3.75   4
  -1  14   8    6.04    3.34   4
   1  14  -8    7.46    3.90   3
   1  14  -8   -2.52    5.11   2
  -1  14   8   -8.17    6.05   2
   0  14  -8    2.18    2.87   4
   0  14   8    3.81    3.10   4
   0  14  -8   -0.91    4.96   2
   0  14   8   -0.10    3.33   3
   0  14   8   -8.46    6.11   2
   0  14  -8   -0.05    2.77   3
  -1 -14  -8   13.35    4.40   3
   1  14   8   14.55    4.52   3
   1  14   8    9.58    3.97   4
  -1  14  -8   15.20    2.90   4
  -1  14  -8   22.24    6.82   2
   1  14   8   52.20   11.57   2
   1  15  -8  -11.24    4.38   2
   1  15  -8    7.89    4.26   3
  -1  15   8   -0.44    3.17   4
   0  15  -8  160.75    9.32   4
   0  15   8  160.32   10.74   3
   0  15  -8  165.02   13.59   2
   0  15  -8  168.65    8.61   3
   0  15   8  158.57    9.88   4
   0  15   8  138.71   15.98   2
   4   0  -9    3.31    4.39   3
  -4   0   9    2.70    5.35   1
  -4   0   9   -3.21    3.69   4
  -4   0   9    2.78    4.00   3
   3   0  -9    3.00    3.10   4
  -3   0   9    3.23    2.00   4
  -3   0   9    1.47    2.79   4
   3   0  -9    4.01    3.35   4
  -3   0   9    4.67    3.41   3
   3   0  -9   -2.17    3.12   3
   2   0  -9    0.59    1.93   4
  -2   0   9    0.18    1.93   4
  -2   0   9    0.26    2.05   4
  -2   0   9    1.06    2.06   3
   2   0  -9    0.28    2.43   4
  -2   0   9    0.68    1.56   2
   2   0  -9    0.40    2.75   3
   2   0  -9   -0.22    2.52   3
  -1   0   9    0.63    1.27   4
   1   0  -9   -0.51    1.33   4
   1   0  -9    1.38    1.75   3
  -1   0   9   -0.76    1.27   3
   1   0  -9   -2.55    1.77   4
  -1   0   9    3.02    0.92   2
   1   0  -9    2.20    1.64   3
  -1   0   9    0.47    1.37   4
  -1   0   9   -0.09    1.33   3
   0   0   9   -0.56    0.94   4
   0   0  -9   -1.29    1.16   3
   0   0  -9    0.65    1.03   4
   0   0  -9   -1.33    0.97   2
   0   0  -9   -0.52    1.13   3
   0   0  -9   -0.50    1.09   4
   0   0   9    0.56    1.08   3
   0   0   9   -0.17    0.97   4
   0   0   9   -0.68    1.01   3
  -1   0  -9    0.74    2.06   1
   1   0   9    1.47    1.15   4
  -1   0  -9    2.29    1.31   3
  -1   0  -9    2.32    1.30   3
   1   0   9    1.09    1.04   4
  -1   0  -9    2.82    1.20   4
  -1   0  -9    3.35    2.03   2
   1   0   9    2.08    1.32   3
   1   0   9    1.58    1.14   3
  -1   0  -9    2.18    1.28   4
  -2   0  -9    5.08    1.92   4
  -2   0  -9    1.10    1.66   3
  -2   0  -9    2.68    1.64   4
   2   0   9    3.49    1.61   4
  -2   0  -9    2.42    2.96   1
  -2   0  -9    3.52    1.65   3
   2   0   9    3.50    1.82   3
  -3   0  -9    0.84    2.95   3
   3   0   9   -0.67    2.34   3
  -3   0  -9   -1.70    3.55   1
  -3   0  -9    3.47    2.41   4
  -3   0  -9    2.17    2.16   3
  -4   0  -9    0.19    4.61   1
  -4   0  -9    2.06    3.97   3
  -4   0  -9   -2.94    3.24   4
  -4  -1   9   62.09    7.14   3
  -4  -1   9   58.72    7.49   4
  -4  -1   9   67.51    9.37   1
   4  -1  -9   58.81    6.94   3
  -4   1   9   68.97    7.00   4
   4   1  -9   54.00    7.19   3
  -4   1   9   67.87    7.52   3
  -4   1   9   72.30    9.36   1
  -3  -1   9    0.99    2.84   4
  -3  -1   9   -3.17    2.93   3
   3  -1  -9   -1.17    3.03   4
   3  -1  -9   -0.65    3.15   3
  -3   1   9    4.01    3.13   3
   3   1  -9    2.76    2.61   4
  -3   1   9    1.30    2.57   4
  -3   1   9    1.10    2.35   4
   3   1  -9    0.84    3.42   4
   3   1  -9    2.63    3.75   3
  -2  -1   9  191.62    9.14   4
   2  -1  -9  196.06    9.36   4
   2  -1  -9  177.39    9.14   4
  -2  -1   9  197.63    9.30   3
  -2  -1   9  194.70    9.16   4
   2  -1  -9  189.56    9.21   3
   2   1  -9  211.23    9.43   3
   2   1  -9  180.22    9.28   3
  -2   1   9  205.53    9.28   4
  -2   1   9  195.44    9.19   3
   2   1  -9  195.49    9.40   4
  -2   1   9  197.66    9.21   2
   2   1  -9  179.11    9.21   4
  -2   1   9  194.18    9.17   4
  -1  -1   9 1050.27   38.41   4
  -1  -1   9 1022.60   38.29   3
  -1  -1   9  992.65   38.33   3
   1  -1  -9 1012.27   38.38   3
   1  -1  -9 1011.14   38.50   3
   1  -1  -9 1074.47   38.56   4
   1  -1  -9  990.17   38.43   4
   1   1  -9 1003.86   38.42   4
  -1   1   9 1027.53   38.43   3
   1   1  -9  970.47   38.43   3
   1   1  -9 1018.66   38.34   3
  -1   1   9 1054.42   38.40   4
   1   1  -9 1035.86   38.48   4
  -1   1   9 1034.78   38.36   3
  -1   1   9 1045.46   38.15   2
  -1   1   9 1054.32   38.54   4
   0  -1   9  123.70    5.34   3
   0  -1  -9  118.96    6.03   2
   0  -1   9  119.58    5.27   3
   0  -1   9  122.51    5.31   4
   0  -1  -9  122.21    5.65   3
   0  -1  -9  130.38    5.69   3
   0  -1   9  120.41    5.27   4
   0  -1  -9  119.73    5.60   4
   0  -1  -9  120.78    5.60   4
   0   1  -9  115.47    5.72   2
   0   1  -9  116.54    5.33   3
   0   1   9  126.29    5.60   3
   0   1   9  122.25    5.52   3
   0   1  -9  124.60    5.39   4
   0   1   9  115.99    5.55   4
   0   1  -9  110.40    5.33   4
   0   1  -9  124.65    5.40   3
   1  -1   9  558.18   21.18   3
   1  -1   9  564.91   21.10   4
   1  -1   9  587.52   21.06   4
  -1  -1  -9  575.84   21.71   3
  -1  -1  -9  559.24   21.56   3
  -1  -1  -9  551.56   23.55   2
   1  -1   9  577.26   21.15   3
  -1  -1  -9  536.70   21.65   4
  -1  -1  -9  574.88   22.80   1
  -1  -1  -9  578.15   21.68   4
   1   1   9  554.42   21.53   4
  -1   1  -9  548.81   21.27   4
  -1   1  -9  576.21   21.36   4
  -1   1  -9  600.44   21.35   3
   1   1   9  571.36   21.63   3
  -1   1  -9  581.95   22.87   1
   1   1   9  522.72   21.45   3
  -1   1  -9  528.38   21.19   3
   1   1   9  595.46   21.58   4
  -2  -1  -9  134.63    7.25   3
   2  -1   9  148.91    6.87   3
   2  -1   9  150.12    6.67   4
  -2  -1  -9  149.08    7.46   4
  -2  -1  -9  154.46    7.11   3
  -2  -1  -9  153.91    7.11   4
  -2  -1  -9  148.11    8.74   1
  -2   1  -9  145.76    8.62   1
   2   1   9  140.76    7.01   4
  -2   1  -9  143.84    7.02   4
  -2   1  -9  147.35    6.97   3
   2   1   9  140.76    7.19   3
  -2   1  -9  156.87    6.89   4
  -2   1  -9  161.46    6.83   3
   3  -1   9   -1.65    2.26   3
  -3  -1  -9    1.05    2.32   3
  -3  -1  -9    0.14    3.81   1
  -3  -1  -9   -2.25    2.03   4
  -3   1  -9    2.77    2.35   4
   3   1   9    0.38    2.50   3
  -3   1  -9    1.66    2.69   3
  -3   1  -9   -1.57    2.58   3
  -3   1  -9    1.17    3.86   1
  -3   1  -9    0.19    2.44   4
  -4  -1  -9    9.74    4.22   4
  -4  -1  -9   12.48    4.69   3
  -4  -1  -9   10.15    5.96   1
  -4   1  -9    4.08    3.53   4
  -4   1  -9    5.04    5.45   1
  -4   1  -9    5.17    3.96   3
  -4  -2   9   13.68    6.61   1
  -4  -2   9   18.44    5.20   3
   4  -2  -9    8.65    4.30   3
  -4   2   9   20.71    4.69   3
  -4   2   9   15.21    4.62   4
   4   2  -9   11.43    5.18   3
  -4   2   9    9.35    6.18   1
   3  -2  -9   64.55    5.70   3
   3  -2  -9   59.99    5.52   4
  -3  -2   9   54.28    5.81   2
  -3  -2   9   66.09    6.04   3
  -3  -2   9   60.40    5.53   4
  -3   2   9   58.98    6.29   2
   3   2  -9   62.34    6.19   4
  -3   2   9   59.95    5.32   4
  -3   2   9   71.94    5.80   3
   3   2  -9   64.86    6.31   4
  -3   2   9   67.17    5.56   4
   3   2  -9   75.01    6.64   3
  -2  -2   9    3.59    2.11   4
  -2  -2   9    1.58    1.82   2
  -2  -2   9    2.48    2.50   3
  -2  -2   9    0.49    1.97   4
   2  -2  -9    4.10    2.55   3
   2  -2  -9    1.29    2.30   4
   2  -2  -9    6.14    2.19   4
  -2   2   9    6.05    2.33   2
   2   2  -9    1.49    2.43   4
   2   2  -9    0.68    2.64   3
   2   2  -9    3.08    2.15   4
  -2   2   9    3.00    1.73   4
  -2   2   9    4.04    2.16   3
   2   2  -9    4.16    2.47   3
  -2   2   9    8.07    2.25   4
  -1  -2   9 1019.79   38.71   3
   1  -2  -9 1045.71   38.91   4
   1  -2  -9 1057.87   38.97   4
   1  -2  -9 1033.64   38.85   3
   1  -2  -9  986.21   38.95   2
  -1  -2   9 1078.27   38.77   4
  -1  -2   9 1021.03   38.55   4
  -1  -2   9 1060.53   38.71   3
   1  -2  -9 1006.34   38.90   3
  -1   2   9 1082.79   38.89   3
  -1   2   9 1010.51   39.02   2
   1   2  -9 1062.99   38.89   4
   1   2  -9  975.96   38.84   3
  -1   2   9 1028.03   38.94   4
   1   2  -9 1033.63   38.86   4
   1   2  -9 1051.01   38.78   3
  -1   2   9 1046.98   38.88   3
  -1   2   9 1042.15   38.85   4
   0  -2   9 1132.90   41.28   4
   0  -2   9 1154.93   41.30   3
   0  -2  -9 1089.61   41.84   4
   0  -2  -9 1073.71   41.80   3
   0  -2   9 1114.35   41.34   3
   0  -2  -9 1099.44   41.91   4
   0  -2  -9 1102.17   41.82   3
   0  -2   9 1081.50   41.23   4
   0  -2  -9 1219.13   42.76   2
   0   2  -9 1124.97   41.39   4
   0   2   9 1129.62   42.92   2
   0   2  -9 1099.41   41.40   3
   0   2   9 1181.56   41.95   3
   0   2   9 1155.52   41.87   4
   0   2  -9 1069.64   41.38   4
   0   2  -9 1148.67   41.36   3
   0   2   9 1128.59   41.96   4
   0   2   9 1162.55   41.85   3
   1  -2   9  468.45   17.54   3
  -1  -2  -9  478.30   18.42   3
   1  -2   9  466.64   17.27   4
  -1  -2  -9  470.31   18.44   4
  -1  -2  -9  466.12   20.42   2
  -1  -2  -9  446.89   18.46   4
  -1  -2  -9  477.34   18.52   3
   1  -2   9  486.56   17.31   4
  -1  -2  -9  476.31   19.38   1
   1   2   9  467.83   18.33   3
  -1   2  -9  500.17   17.76   3
   1   2   9  480.57   18.39   4
  -1   2  -9  471.91   17.78   4
  -1   2  -9  478.34   19.52   1
   1   2   9  472.68   18.47   3
  -1   2  -9  454.70   17.66   3
  -1   2  -9  457.82   17.73   4
  -2  -2  -9  156.36    7.50   4
  -2  -2  -9  154.36    9.06   1
  -2  -2  -9  149.70    7.78   4
   2  -2   9  164.20    6.72   3
   2  -2   9  164.16    6.54   4
  -2  -2  -9  155.08    7.52   3
  -2  -2  -9  158.65    7.91   3
  -2   2  -9  148.02    7.14   4
  -2   2  -9  154.61    6.86   3
   2   2   9  158.72    7.78   3
  -2   2  -9  153.53    8.93   1
   2   2   9  148.15    7.46   4
  -2   2  -9  169.55    7.09   4
  -3  -2  -9   20.13    3.44   3
  -3  -2  -9   25.52    4.38   4
  -3  -2  -9   12.00    3.24   4
  -3  -2  -9   26.77    5.61   1
  -3   2  -9   21.04    3.62   3
  -3   2  -9   11.83    4.49   1
  -3   2  -9   17.04    3.05   4
   3   2   9   18.65    3.72   3
  -3   2  -9   14.02    3.13   4
  -4  -2  -9   70.75    7.33   4
  -4  -2  -9   71.70    7.60   3
  -4  -2  -9   62.03    8.99   1
  -4   2  -9   81.24    7.32   3
  -4   2  -9   59.04    8.78   1
  -4   2  -9   56.30    6.36   4
  -4  -3   9  127.04    9.61   3
   4  -3  -9  146.32    9.64   3
  -4  -3   9  136.45   11.36   1
  -4   3   9  134.53    9.00   4
  -4   3   9  138.87   10.97   2
  -4   3   9  138.82    9.30   3
   4   3  -9  139.58   10.28   3
  -4   3   9  140.10   11.06   1
   3  -3  -9  120.38    7.36   4
  -3  -3   9  118.82    7.49   4
   3  -3  -9  114.75    7.67   3
  -3  -3   9  113.36    7.77   3
  -3  -3   9   99.56    8.02   2
  -3   3   9  113.43    8.62   2
   3   3  -9  118.97    7.63   4
  -3   3   9  107.42    7.18   4
   3   3  -9  115.42    7.86   4
  -3   3   9  111.54    7.52   3
  -3   3   9  120.10    7.27   4
   3   3  -9  116.94    8.24   3
   2  -3  -9    1.32    2.59   3
   2  -3  -9   -3.12    2.07   4
  -2  -3   9    1.33    1.79   2
  -2  -3   9    4.15    2.23   4
  -2  -3   9   -0.94    2.16   3
   2  -3  -9   -1.17    1.67   4
  -2   3   9   -1.52    1.94   3
  -2   3   9    0.03    2.13   2
  -2   3   9    1.58    1.92   4
   2   3  -9   -1.08    2.14   3
   2   3  -9   -1.97    2.51   4
   2   3  -9   -0.26    2.13   4
   2   3  -9   -3.65    2.57   3
  -2   3   9   -0.96    1.59   4
  -1  -3   9    3.08    1.56   4
   1  -3  -9    4.75    1.92   4
  -1  -3   9    3.33    1.46   4
  -1  -3   9    4.68    1.66   3
   1  -3  -9    3.52    1.75   2
   1  -3  -9    4.60    1.77   4
   1  -3  -9    3.96    1.75   3
   1  -3  -9    2.89    1.83   3
  -1  -3   9    2.82    1.59   3
   1   3  -9    5.17    2.02   3
   1   3  -9    1.91    2.01   4
  -1   3   9    3.30    1.63   4
  -1   3   9    0.81    1.97   2
  -1   3   9    4.29    1.81   3
   1   3  -9    1.66    1.70   4
  -1   3   9    2.05    1.56   3
   1   3  -9    1.53    1.82   3
  -1   3   9    2.34    1.55   4
   0  -3  -9 1596.02   56.51   3
   0  -3   9 1426.19   55.45   4
   0  -3  -9 1526.78   56.44   3
   0  -3  -9 1568.92   57.52   2
   0  -3  -9 1425.41   56.36   4
   0  -3  -9 1552.44   56.55   4
   0  -3   9 1534.10   55.51   4
   0  -3   9 1472.83   55.67   3
   0   3   9 1482.11   56.34   3
   0   3  -9 1641.37   55.75   3
   0   3   9 1513.51   57.64   2
   0   3   9 1544.02   56.44   4
   0   3  -9 1445.24   55.80   3
   0   3  -9 1535.34   55.81   4
   0   3   9 1546.44   56.57   4
   0   3   9 1614.64   56.56   3
   0   3  -9 1531.79   55.79   4
   1  -3   9    7.17    0.62   3
  -1  -3  -9   11.26    2.75   1
   1  -3   9    7.13    0.64   3
  -1  -3  -9    7.46    1.92   4
  -1  -3  -9    8.32    1.98   3
  -1  -3  -9    6.69    1.88   3
  -1  -3  -9    6.58    1.82   4
  -1  -3  -9    5.34    2.73   2
   1   3   9    7.35    1.76   4
  -1   3  -9    7.96    0.98   3
   1   3   9    8.32    1.98   3
   1   3   9    8.67    1.95   4
  -1   3  -9    8.10    1.02   3
  -1   3  -9    5.09    0.94   4
  -1   3  -9   10.58    1.15   4
  -2  -3  -9    3.95    2.02   3
   2  -3   9    1.07    1.01   3
   2  -3   9    0.73    1.17   3
  -2  -3  -9    3.74    2.26   3
  -2  -3  -9    2.61    1.86   4
  -2  -3  -9   -0.75    2.67   1
  -2  -3  -9    3.96    2.10   4
  -2   3  -9    1.20    2.76   1
  -2   3  -9    1.16    1.39   4
   2   3   9    0.39    0.48   4
  -2   3  -9    0.70    1.62   3
   2   3   9   -1.20    2.02   3
  -2   3  -9    0.29    1.24   3
  -3  -3  -9    1.61    2.46   3
  -3  -3  -9    7.55    4.83   1
  -3  -3  -9    8.23    3.05   4
  -3   3  -9    8.68    2.85   4
  -3   3  -9    7.84    2.99   3
  -3   3  -9    5.60    2.39   4
   3   3   9   10.92    3.52   3
  -3   3  -9    7.73    3.95   1
  -4  -3  -9   16.97    6.11   1
  -4  -3  -9    5.49    4.29   3
  -4  -3  -9    8.26    4.14   4
  -4   3  -9    6.26    3.77   4
  -4   3  -9   13.26    5.57   1
  -4   3  -9   16.21    4.09   3
  -4  -4   9   56.22    6.99   3
   4  -4  -9   52.60    6.36   3
  -4   4   9   54.97    8.21   2
  -4   4   9   50.24    6.39   4
  -4   4   9   62.18    6.94   3
   4   4  -9   43.65    7.04   3
   3  -4  -9  118.04    7.44   3
  -3  -4   9  117.43    8.03   3
  -3  -4   9  124.28    7.74   4
   3  -4  -9  120.67    7.34   4
  -3   4   9  117.71    9.29   2
  -3   4   9  123.89    7.88   3
   3   4  -9  120.72    8.18   4
   3   4  -9  114.94    7.77   4
  -3   4   9  124.04    7.54   4
  -3   4   9  115.68    7.49   4
   3   4  -9  119.82    8.53   3
  -2  -4   9   18.37    3.07   4
  -2  -4   9   19.71    3.51   3
   2  -4  -9   18.68    3.10   4
   2  -4  -9   22.38    3.44   3
   2  -4  -9   14.23    3.16   1
  -2  -4   9   18.26    2.56   2
   2  -4  -9   22.73    3.23   4
   2   4  -9   17.20    3.27   3
  -2   4   9   23.31    3.28   4
   2   4  -9   17.44    3.53   4
  -2   4   9   24.65    4.09   2
  -2   4   9   19.37    3.35   3
   2   4  -9   17.28    3.28   4
   2   4  -9   18.38    3.75   3
  -2   4   9   21.12    3.15   4
   1  -4  -9  533.57   20.80   4
   1  -4  -9  560.47   20.84   3
  -1  -4   9  559.26   20.26   4
   1  -4  -9  537.18   21.75   2
  -1  -4   9  508.71   20.30   3
   1  -4  -9  498.83   20.62   4
  -1  -4   9  538.76   20.42   3
   1  -4  -9  508.92   20.57   3
  -1   4   9  528.51   20.65   3
  -1   4   9  524.06   21.74   2
   1   4  -9  528.89   20.48   3
  -1   4   9  549.21   20.73   3
   1   4  -9  496.35   19.84   2
  -1   4   9  554.73   20.89   4
   1   4  -9  497.16   20.50   4
   1   4  -9  499.46   20.54   3
  -1   4   9  521.22   20.67   4
   1   4  -9  497.07   20.45   4
   0  -4  -9  112.18    5.47   4
   0  -4  -9   99.15    6.23   2
   0  -4   9  102.20    3.87   4
   0  -4   9  100.32    4.33   3
   0  -4   9   98.40    3.84   4
   0  -4  -9  102.13    5.30   3
   0  -4   9   89.36    4.12   3
   0  -4  -9  100.05    5.34   3
   0  -4  -9   94.01    5.26   4
   0   4  -9   98.28    4.62   4
   0   4  -9  105.63    4.49   3
   0   4  -9  102.58    5.51   2
   0   4  -9   99.89    4.59   4
   0   4  -9   97.66    4.60   3
   0   4   9   99.83    5.25   4
   0   4   9   98.40    5.17   3
   0   4   9  129.41    7.45   2
   0   4   9  105.93    5.41   3
   0   4   9  105.26    5.40   4
  -1  -4  -9  163.37    7.79   3
  -1  -4  -9  164.21    7.61   3
  -1  -4  -9  160.75    7.79   4
  -1  -4  -9  157.68    7.68   4
  -1  -4  -9  151.95    8.23   1
  -1   4  -9  168.91    6.28   4
   1   4   9  167.67    7.81   3
   1   4   9  163.29   10.26   2
   1   4   9  158.92    7.71   4
  -1   4  -9  152.94    6.25   4
   1   4   9  181.47    7.84   4
  -2  -4  -9  165.57    8.33   4
   2  -4   9  173.46    6.46   3
   2  -4   9  171.34    6.46   3
  -2  -4  -9  164.61    9.89   1
  -2  -4  -9  169.23    8.77   3
  -2  -4  -9  164.86    8.76   4
  -2  -4  -9  166.84    8.28   3
   2   4   9  174.42    8.54   4
  -2   4  -9  176.26    7.54   4
  -2   4  -9  172.39    7.34   3
  -2   4  -9  175.00    7.03   3
  -2   4  -9  174.80    9.75   1
   2   4   9  175.39    8.65   3
  -2   4  -9  174.14    7.26   4
  -3  -4  -9  160.99    9.58   4
  -3  -4  -9  174.06   11.52   1
  -3  -4  -9  158.99    9.36   3
  -3   4  -9  168.31    8.09   4
  -3   4  -9  161.38   10.74   1
   3   4   9  172.38    9.65   3
  -3   4  -9  172.34    8.47   4
  -3   4  -9  176.47    8.41   3
  -4  -4  -9   24.86    5.90   3
  -4  -4  -9   20.45    4.90   4
  -4  -4  -9    7.60    5.62   1
  -4   4  -9   17.41    4.11   4
  -4   4  -9   17.11    3.87   3
  -4   4  -9   16.09    5.75   1
   4  -5  -9    3.00    3.91   3
  -4  -5   9    2.98    4.01   3
  -4   5   9    4.98    3.80   4
  -4   5   9    4.26    4.69   2
   4   5  -9    4.35    4.66   3
  -4   5   9    2.73    3.66   3
  -3  -5   9   24.66    4.65   3
   3  -5  -9   22.32    4.08   3
   3   5  -9   18.38    4.55   4
   3   5  -9   21.25    5.03   3
  -3   5   9   27.77    4.58   3
  -3   5   9   21.23    3.92   4
  -3   5   9   15.89    4.59   2
  -2  -5   9   50.02    4.07   2
  -2  -5   9   52.86    5.05   3
   2  -5  -9   56.75    4.64   1
   2  -5  -9   53.74    4.45   4
   2  -5  -9   52.85    4.52   3
   2   5  -9   53.81    4.81   3
  -2   5   9   58.29    4.48   4
  -2   5   9   61.35    6.10   2
   2   5  -9   55.01    5.23   4
  -2   5   9   53.73    4.54   4
  -2   5   9   62.38    4.58   3
   2   5  -9   51.09    4.89   4
   1  -5  -9   88.40    6.29   2
  -1  -5   9   88.96    5.03   3
  -1  -5   9   94.82    4.91   2
   1  -5  -9   99.37    5.60   3
  -1  -5   9   95.38    4.78   4
   1  -5  -9   88.62    5.23   4
   1  -5  -9   91.97    5.36   4
   1  -5  -9  100.30    5.24   1
   1   5  -9   95.37    5.37   4
  -1   5   9   99.46    5.42   4
   1   5  -9   91.85    5.24   3
   1   5  -9   92.29    5.25   3
  -1   5   9   86.95    6.77   2
   1   5  -9   85.72    4.89   2
  -1   5   9   98.68    5.37   4
  -1   5   9   88.26    5.25   3
   1   5  -9   94.75    5.21   4
   0  -5  -9   31.47    3.18   4
   0  -5   9   29.75    1.76   3
   0  -5  -9   23.98    2.78   4
   0  -5  -9   27.79    3.15   3
   0  -5  -9   32.57    4.29   2
   0  -5   9   28.46    1.60   3
   0  -5  -9   30.75    3.11   3
   0   5   9   32.78    3.22   4
   0   5  -9   25.33    2.20   4
   0   5   9   34.91    3.43   4
   0   5  -9   27.86    2.25   4
   0   5   9   32.87    4.96   2
   0   5  -9   27.48    3.33   2
   0   5   9   36.23    3.49   3
   0   5  -9   26.83    2.19   3
  -1  -5  -9    1.02    1.90   3
  -1  -5  -9    3.40    2.40   1
  -1  -5  -9    1.21    1.83   4
  -1  -5  -9    0.62    1.80   4
  -1  -5  -9    2.84    1.93   3
   1   5   9   -1.09    1.58   4
  -1   5  -9    1.04    0.32   4
   1   5   9   -0.39    1.79   3
   1   5   9    1.82    1.75   4
   1   5   9   -0.35    3.41   2
  -2  -5  -9   54.03    5.19   4
  -2  -5  -9   56.83    6.45   1
  -2  -5  -9   50.09    4.23   4
  -2  -5  -9   56.69    5.34   3
   2   5   9   51.15    4.46   4
  -2   5  -9   52.17    2.61   3
  -2   5  -9   49.92    2.76   3
  -2   5  -9   50.36    5.33   1
  -2   5  -9   47.18    3.10   4
   2   5   9   52.95    5.11   3
  -2   5  -9   53.59    3.00   4
  -3  -5  -9    8.62    5.10   1
  -3  -5  -9    2.85    2.99   3
  -3  -5  -9    8.41    3.62   4
   3   5   9    5.58    3.39   3
  -3   5  -9   -1.30    3.27   1
  -3   5  -9    4.32    2.18   4
  -3   5  -9    0.20    2.18   4
  -3   5  -9    5.60    2.23   3
  -4  -5  -9    2.14    5.79   1
  -4  -5  -9   -3.33    3.65   4
  -4  -5  -9    8.50    5.18   3
  -4   5  -9    2.47    2.98   3
  -4   5  -9    7.07    3.37   4
  -4   5  -9    1.21    4.66   1
  -4  -6   9   23.00    5.57   3
   4  -6  -9   29.97    5.28   3
  -4   6   9   23.49    4.87   3
   4   6  -9   36.92    6.72   3
  -4   6   9   26.56    6.96   2
  -4   6   9   30.59    5.19   4
  -3  -6   9   35.20    5.32   3
   3  -6  -9   35.26    4.77   3
  -3   6   9   33.22    4.72   3
  -3   6   9   33.86    4.60   4
   3   6  -9   31.38    5.36   3
   3   6  -9   44.12    5.73   4
  -3   6   9   35.17    6.41   2
   2  -6  -9  207.70   10.38   1
  -2  -6   9  206.73   10.27   2
   2  -6  -9  220.81   10.40   3
  -2  -6   9  213.88   10.74   3
   2  -6  -9  229.08   10.44   4
   2   6  -9  217.72   10.69   4
  -2   6   9  218.91   10.53   4
  -2   6   9  235.98   10.65   4
   2   6  -9  219.75   10.99   4
  -2   6   9  227.19   10.46   3
   2   6  -9  209.92   10.48   3
  -2   6   9  226.83   12.51   2
   2   6  -9  220.14   10.72   3
  -1  -6   9  332.37   14.09   2
  -1  -6   9  336.40   13.74   3
   1  -6  -9  347.54   13.80   1
   1  -6  -9  347.23   14.31   4
   1  -6  -9  333.94   14.12   4
  -1  -6   9  337.57   13.46   4
   1  -6  -9  327.27   14.05   3
   1   6  -9  344.42   14.31   2
   1   6  -9  300.24   13.64   3
  -1   6   9  335.89   14.19   4
  -1   6   9  338.42   15.95   2
  -1   6   9  326.83   14.19   4
   1   6  -9  332.09   13.86   3
   1   6  -9  335.39   13.90   4
  -1   6   9  332.50   14.13   3
   1   6  -9  339.24   14.00   4
   0  -6  -9  593.83   23.66   3
   0  -6  -9  565.90   23.64   4
   0  -6  -9  611.73   23.72   4
   0  -6  -9  613.82   23.29   1
   0  -6   9  612.76   22.12   3
   0  -6   9  593.90   22.10   3
   0   6  -9  587.25   22.49   3
   0   6   9  615.98   23.81   4
   0   6   9  628.27   23.78   3
   0   6   9  639.65   23.82   4
   0   6  -9  573.03   22.61   4
   0   6   9  558.48   25.49   2
   0   6  -9  631.11   22.74   4
   0   6  -9  585.19   24.25   2
   0   6  -9  622.67   22.55   3
  -1  -6  -9   21.19    3.16   4
  -1  -6  -9   15.96    2.83   4
  -1  -6  -9   20.67    3.37   3
  -1  -6  -9   22.42    3.55   1
   1   6   9   29.33    3.67   3
   1   6   9   16.60    5.33   2
   1   6   9   21.90    3.19   4
   1   6   9   23.66    3.06   4
  -1   6  -9   21.72    4.09   2
  -2  -6  -9  102.60    7.68   1
  -2  -6  -9  104.96    6.79   4
  -2  -6  -9  104.68    6.83   3
  -2  -6  -9   95.07    6.14   4
   2   6   9  101.67    6.53   4
  -2   6  -9  105.42    4.57   4
  -2   6  -9  106.90    4.64   4
  -2   6  -9  101.03    7.06   1
   2   6   9   94.95    6.53   3
  -3  -6  -9  180.81   10.19   3
  -3  -6  -9  155.63    9.84   4
  -3  -6  -9  157.68   11.08   1
  -3   6  -9  167.53    8.00   4
  -3   6  -9  153.22   10.55   1
   3   6   9  168.68    9.82   3
  -3   6  -9  167.83    7.44   3
  -3   6  -9  167.55    7.82   4
  -4  -6  -9   -3.91    4.13   4
  -4  -6  -9    7.26    5.92   1
  -4  -6  -9   10.27    5.48   3
  -4   6  -9    1.91    2.95   4
  -4   6  -9   -1.83    4.90   1
  -4   6  -9   -0.57    2.58   3
  -4  -7   9   50.03    7.00   3
  -4   7   9   60.85    9.12   2
   4   7  -9   40.36    7.28   3
  -4   7   9   43.13    5.94   3
  -4   7   9   42.33    5.85   4
   3  -7  -9   34.16    4.93   3
  -3  -7   9   38.65    5.72   3
   3   7  -9   37.28    5.55   4
  -3   7   9   37.48    5.00   4
  -3   7   9   36.54    6.54   2
  -3   7   9   30.88    4.59   3
   3   7  -9   33.29    5.51   3
   2  -7  -9   24.22    3.47   4
  -2  -7   9   10.85    2.76   2
  -2  -7   9   19.79    3.25   4
   2  -7  -9   21.50    3.75   3
   2  -7  -9   21.52    3.40   1
  -2  -7   9   20.10    3.72   3
   2   7  -9   26.06    4.18   3
   2   7  -9   13.99    3.71   4
  -2   7   9   20.05    5.23   2
   2   7  -9   17.24    3.23   3
   2   7  -9   20.59    3.44   4
  -2   7   9   17.47    3.16   3
  -2   7   9   17.85    3.26   4
  -2   7   9   20.55    3.50   4
  -1  -7   9    9.16    2.26   3
  -1  -7   9   10.82    2.39   2
   1  -7  -9   10.36    2.17   1
   1  -7  -9    8.71    2.38   4
   1  -7  -9   11.07    2.72   3
  -1  -7   9    9.83    1.90   4
  -1   7   9   16.24    2.73   4
   1   7  -9   13.32    2.88   3
  -1   7   9   10.51    2.39   3
   1   7  -9    8.28    2.20   3
  -1   7   9    5.10    3.75   2
  -1   7   9    7.21    2.40   4
   1   7  -9    9.14    2.36   4
   1   7  -9    9.51    2.92   2
   0  -7  -9  718.62   27.81   4
   0  -7  -9  696.34   27.68   4
   0  -7   9  684.66   25.97   3
   0  -7   9  694.40   25.95   3
   0  -7  -9  713.83   27.72   3
   0  -7  -9  730.96   27.10   1
   0   7  -9  716.52   26.35   3
   0   7   9  708.46   27.80   4
   0   7   9  689.13   30.07   2
   0   7  -9  697.13   28.60   2
   0   7   9  719.40   27.79   4
   0   7  -9  722.67   26.64   4
   0   7  -9  677.72   26.56   4
   0   7  -9  734.25   26.50   3
   0   7   9  729.83   27.80   3
  -1  -7  -9   21.15    3.51   1
  -1  -7  -9   18.15    3.19   4
  -1  -7  -9   28.67    3.52   4
  -1  -7  -9   20.47    3.53   3
   1   7   9   19.88    3.35   4
  -1   7  -9   40.53    4.51   1
   1   7   9   28.02    3.72   3
   1   7   9   24.38    3.23   4
  -1   7  -9   22.21    4.19   2
  -2  -7  -9    7.31    3.22   3
  -2  -7  -9    8.14    3.14   4
  -2  -7  -9   10.51    2.91   4
  -2  -7  -9    2.05    3.47   1
   2   7   9    6.45    5.50   2
   2   7   9    7.14    2.97   4
  -2   7  -9    3.91    1.09   4
  -2   7  -9    7.19    1.26   4
   2   7   9   11.93    3.31   3
  -2   7  -9    7.81    3.14   1
  -3  -7  -9   16.12    5.31   1
  -3  -7  -9   12.51    4.33   3
  -3  -7  -9   24.12    4.70   4
  -3   7  -9   16.83    2.77   4
  -3   7  -9   17.96    2.64   4
  -3   7  -9   19.37    4.76   1
  -3   7  -9   20.54    2.12   3
   3   7   9   20.36    4.71   3
  -4  -7  -9   -2.20    5.60   1
  -4  -7  -9    1.83    4.34   4
  -4   7  -9    2.87    4.37   1
  -4   7  -9   -0.74    3.96   4
  -4  -8   9   19.44    5.31   3
  -4   8   9   16.89    4.86   3
   4   8  -9   15.35    6.12   3
  -4   8   9   18.54    4.94   4
  -4   8   9   17.23    6.72   2
   3  -8  -9   -1.24    3.27   3
  -3  -8   9   -1.76    3.64   3
  -3   8   9   -1.81    2.92   3
  -3   8   9    0.38    4.47   2
   3   8  -9    0.18    3.89   3
   3   8  -9   -0.66    3.72   4
  -3   8   9    1.46    3.13   4
  -2  -8   9   99.94    6.77   3
   2  -8  -9   96.08    6.23   3
   2   8  -9   84.34    5.94   3
  -2   8   9   93.07    6.20   4
  -2   8   9   97.14    6.36   3
  -2   8   9   91.74    6.34   4
   2   8  -9   91.26    7.04   4
   2   8  -9   94.48    6.87   2
   2   8  -9   92.70    6.50   4
   2   8  -9  101.29    7.10   3
  -2   8   9   91.59    8.68   2
   1  -8  -9  164.40    8.50   4
  -1  -8   9  175.06    8.28   3
  -1  -8   9  176.19    7.82   4
   1  -8  -9  168.97    8.61   3
   1  -8  -9  164.03    7.63   1
   1   8  -9  176.55    8.52   3
   1   8  -9  171.14    8.37   4
  -1   8   9  171.16    8.72   4
   1   8  -9  167.67    9.74   2
  -1   8   9  162.38    8.55   3
  -1   8   9  171.95    8.79   4
   1   8  -9  164.81    8.44   4
  -1   8   9  191.63   11.74   2
   1   8  -9  182.09    8.27   3
   0  -8  -9   25.32    2.76   1
   0  -8   9   19.80    1.52   3
   0  -8  -9   20.33    3.33   3
   0  -8  -9   19.01    3.12   4
   0  -8   9   18.05    1.45   3
   0   8  -9   21.98    1.92   3
   0   8  -9   21.61    2.47   3
   0   8   9   24.75    3.43   4
   0   8  -9   19.74    3.91   2
   0   8   9   25.16    3.49   3
   0   8  -9   13.83    2.29   4
   0   8  -9   22.92    2.33   4
   0   8   9   22.01    3.23   4
  -1  -8  -9   49.05    4.66   4
  -1  -8  -9   53.50    4.54   4
  -1  -8  -9   45.66    4.60   1
  -1  -8  -9   58.42    5.25   3
   1   8   9   55.01    5.13   3
   1   8   9   91.27   10.40   2
  -1   8  -9   51.21    2.29   4
  -1   8  -9   49.20    2.37   4
  -1   8  -9   61.34    4.73   1
   1   8   9   53.90    4.44   4
  -1   8  -9   61.22    6.51   2
   1   8   9   54.54    4.68   4
  -2  -8  -9    1.64    2.89   4
  -2  -8  -9   -0.09    3.45   1
  -2  -8  -9    2.56    2.96   4
  -2  -8  -9   -0.28    2.96   3
   2   8   9   -1.51    2.64   3
  -2   8  -9    0.42    0.98   4
   2   8   9    6.02    2.95   4
  -2   8  -9   -0.06    4.34   2
   2   8   9   -1.66    5.64   2
  -2   8  -9   -3.93    2.15   1
  -2   8  -9    0.34    0.84   4
  -3  -8  -9    8.58    4.89   1
  -3  -8  -9   -0.48    3.79   3
  -3  -8  -9    2.09    3.33   4
  -3   8  -9    0.07    1.77   4
   3   8   9    5.21    3.99   3
  -3   8  -9   10.04    4.06   1
  -3   8  -9    4.41    2.13   4
  -3  -9   9   -1.19    3.27   3
   3  -9  -9    5.17    3.38   3
   3   9  -9   -6.26    3.86   3
  -3   9   9    3.96    4.87   2
   3   9  -9    1.17    4.00   4
  -3   9   9    2.91    3.25   3
  -3   9   9    0.71    3.48   4
  -2  -9   9   71.21    6.16   3
   2  -9  -9   80.32    5.85   3
  -2   9   9   86.11    6.36   3
  -2   9   9   70.32    5.89   4
   2   9  -9   63.70    6.12   3
   2   9  -9   79.88    6.42   4
   2   9  -9   81.97    6.89   2
  -2   9   9   77.83    8.68   2
  -1  -9   9   48.45    3.98   3
   1  -9  -9   52.50    4.40   4
  -1  -9   9   47.34    5.41   2
  -1  -9   9   47.96    3.53   4
   1  -9  -9   43.25    4.70   3
  -1   9   9   51.34    4.46   3
   1   9  -9   50.70    4.76   3
   1   9  -9   48.30    3.98   3
  -1   9   9   52.76    7.52   2
   1   9  -9   48.26    4.21   4
  -1   9   9   46.19    4.19   4
   1   9  -9   44.67    4.58   4
   1   9  -9   46.87    5.88   2
  -1   9   9   39.00    4.43   4
   0  -9  -9   -0.84    2.31   3
   0  -9   9    1.65    0.92   3
   0  -9  -9   -0.81    2.00   4
   0  -9   9    1.97    0.91   3
   0  -9  -9    3.15    1.72   1
   0   9   9    3.22    2.32   3
   0   9   9    9.19    5.14   2
   0   9  -9    1.54    1.13   3
   0   9  -9   -2.01    2.88   2
   0   9   9    0.02    1.79   4
   0   9  -9    2.75    1.95   3
   0   9   9    1.36    2.19   4
   0   9  -9    3.16    1.50   4
   0   9  -9    0.60    1.80   4
  -1  -9  -9  112.86    6.87   1
  -1  -9  -9  108.55    7.13   3
  -1  -9  -9  102.94    6.94   4
   1   9   9  107.68    6.96   4
   1   9   9  118.00    7.42   4
  -1   9  -9  107.56    4.74   4
  -1   9  -9  112.59    8.61   2
   1   9   9  134.38   12.40   2
  -1   9  -9  111.66    4.67   4
  -1   9  -9  120.71    6.97   1
   1   9   9  122.74    7.28   3
  -2  -9  -9   24.11    4.73   3
  -2  -9  -9   28.40    4.61   4
  -2  -9  -9   25.89    4.99   1
  -2   9  -9   32.37    4.79   1
   2   9   9   29.43    8.61   2
  -2   9  -9   22.05    1.65   4
  -2   9  -9   26.57    1.79   4
   2   9   9   28.93    4.75   4
  -2   9  -9   21.70    6.13   2
   2   9   9   32.04    4.98   3
  -3  -9  -9    4.64    4.77   3
  -3  -9  -9    7.62    4.99   1
  -3   9  -9   14.48    7.07   2
  -3   9  -9    8.97    3.86   1
   3   9   9    4.72    4.73   3
  -3   9  -9    6.31    2.13   4
  -3   9  -9    2.77    1.75   4
  -3  10   9  103.81    7.52   3
   3  10  -9  104.70    8.57   4
  -3  10   9  108.72    7.80   4
  -3  10   9   95.52   10.86   2
   3  10  -9   90.13    8.22   3
   2 -10  -9  125.50    7.42   3
   2  10  -9  107.13    7.58   3
   2  10  -9  118.38    7.88   4
  -2  10   9  119.31    7.77   3
   2  10  -9  121.31    8.78   2
  -2  10   9  106.63   10.54   2
   1 -10  -9   20.86    3.67   3
   1  10  -9   15.24    3.52   3
   1  10  -9   13.77    3.38   4
  -1  10   9    5.27    5.13   2
   1  10  -9   10.69    4.38   2
  -1  10   9   10.50    3.00   4
  -1  10   9   11.14    2.98   3
   1  10  -9   15.64    2.95   4
   0 -10  -9   36.68    4.39   4
   0 -10  -9   44.58    4.78   3
   0  10   9   44.04    4.72   4
   0  10  -9   38.74    5.95   2
   0  10  -9   46.24    3.29   4
   0  10  -9   43.49    3.56   4
   0  10  -9   39.50    3.61   3
   0  10   9   40.96    4.53   4
   0  10   9   61.09    5.62   3
   0  10   9   46.69    8.30   2
   0  10  -9   40.40    2.76   3
  -1 -10  -9   31.20    4.52   4
  -1 -10  -9   41.79    4.36   1
  -1 -10  -9   38.91    4.92   3
  -1  10  -9   33.44    2.34   4
   1  10   9   66.36   10.37   2
   1  10   9   42.50    5.07   4
   1  10   9   39.00    5.01   3
  -1  10  -9   38.17    6.27   2
  -1  10  -9   47.21    4.95   1
  -1  10  -9   36.26    2.59   4
  -2 -10  -9   15.08    4.39   1
  -2 -10  -9   20.09    4.45   3
  -2  10  -9   18.65    5.88   2
   2  10   9   22.23    4.81   3
   2  10   9   23.21    8.15   2
  -2  10  -9   18.60    1.66   4
  -2  10  -9   15.40    3.67   1
  -2  10  -9   16.80    1.57   4
  -3 -10  -9   15.94    5.04   3
  -3 -10  -9   16.86    5.50   1
  -3  10  -9    7.73    3.74   1
  -3  10  -9   15.04    2.35   4
   3  10   9   18.06    5.40   3
  -3  10  -9   11.94    6.60   2
  -3  10  -9   11.18    2.02   4
  -3  11   9    8.27    4.00   4
   3  11  -9    4.45    5.10   4
   3  11  -9   -0.64    4.91   3
  -3  11   9    5.16    5.92   2
  -3  11   9   -0.07    3.24   3
   2 -11  -9  100.41    6.76   3
  -2  11   9   88.19   10.47   2
  -2  11   9  109.71    7.66   4
   2  11  -9   90.16    7.25   4
   2  11  -9   98.31    8.59   2
   2  11  -9   87.89    7.55   3
  -2  11   9   85.62    6.64   3
   1 -11  -9  119.45    7.62   3
   1  11  -9  113.77    7.22   4
   1  11  -9  121.10    7.38   3
  -1  11   9  110.32   10.95   2
  -1  11   9  129.00    7.55   4
   1  11  -9  109.54    9.42   2
  -1  11   9  118.57    7.57   3
   0 -11  -9    4.18    3.27   3
   0  11  -9    1.85    2.18   4
   0  11   9    0.43    5.52   2
   0  11  -9    1.45    1.66   4
   0  11  -9    2.34    2.31   3
   0  11   9    2.13    2.65   3
   0  11   9    5.61    2.73   4
   0  11  -9    0.32    3.43   2
  -1 -11  -9    9.24    3.62   3
  -1  11  -9    4.91    1.71   4
   1  11   9    5.13    3.20   3
  -1  11  -9    4.14    1.32   4
   1  11   9   13.57    7.54   2
  -1  11  -9    9.26    2.87   1
  -1  11  -9    6.97    4.34   2
   1  11   9    5.40    3.11   4
  -2 -11  -9   14.93    4.65   3
  -2  11  -9   17.82    1.69   4
  -2  11  -9   17.07    1.62   4
  -2  11  -9   20.50    3.99   1
   2  11   9   16.25    8.24   2
   2  11   9   16.89    4.49   3
  -2  11  -9   16.15    5.98   2
  -3 -11  -9   -0.48    4.00   3
   3  11   9    0.92    4.51   3
  -3  11  -9    2.01    1.89   4
  -3  11  -9    1.61    1.60   4
  -3  11  -9    0.98    5.93   2
  -2  12   9    6.33    3.27   4
  -2  12   9    2.86    5.71   2
   2  12  -9    1.54    4.10   2
   2  12  -9   -1.18    3.84   4
  -2  12   9    1.70    2.78   3
   2  12  -9    5.67    4.21   3
   1 -12  -9   49.22    5.24   3
   1  12  -9   43.01    7.27   2
   1  12  -9   38.04    4.87   4
  -1  12   9   46.46    5.44   3
  -1  12   9   41.61    4.84   4
  -1  12   9   34.18    8.20   2
   1  12  -9   48.23    5.22   3
   0 -12  -9   -2.29    3.23   3
   0  12   9   -4.94    5.62   2
   0  12   9    0.96    2.65   4
   0  12  -9    3.77    3.90   2
   0  12   9   -1.63    2.59   3
   0  12  -9   -0.38    1.62   4
   0  12  -9   -0.95    2.39   4
   0  12  -9    4.54    2.63   3
  -1 -12  -9    1.28    3.51   3
   1  12   9   -1.61    2.72   4
  -1  12  -9   -0.50    1.27   4
  -1  12  -9   -1.11    2.11   1
   1  12   9    7.50    7.91   2
  -1  12  -9   -0.74    3.70   2
  -1  12  -9    2.98    1.85   4
   1  12   9   -0.76    2.93   3
  -2 -12  -9    2.30    3.80   3
   2  12   9    5.25    4.22   3
  -2  12  -9    0.43    4.98   2
  -2  12  -9    0.54    1.28   4
  -2  12  -9    1.49    1.28   4
   2  12   9    7.65    7.45   2
  -2  13   9   -0.86    3.34   4
   2  13  -9    7.82    4.58   3
  -2  13   9    5.18    6.63   2
   2  13  -9    6.71    4.87   2
  -2  13   9    2.41    3.49   3
   2  13  -9   -0.22    3.68   4
   1 -13  -9   56.23    7.51   3
  -1  13   9   81.42    6.31   3
  -1  13   9   59.81   10.37   2
   1  13  -9   74.50    6.25   4
  -1  13   9   66.24    5.84   4
   1  13  -9   73.32    6.34   3
   1  13  -9   70.31    9.32   2
   0 -13  -9  108.73    7.97   3
   0  13  -9  115.13    6.67   4
   0  13  -9  107.89    6.35   3
   0  13   9  102.16    7.36   4
   0  13  -9  112.89   10.46   2
   0  13   9  108.54   13.65   2
   0  13   9  117.33    8.04   3
  -1 -13  -9    2.33    3.52   3
  -1  13  -9    2.31    1.61   4
   1  13   9   -0.07    3.77   3
  -1  13  -9    4.87    5.12   2
   1  13   9    9.27    8.59   2
   1  13   9    1.98    3.14   4
  -1  13  -9   -2.15    1.98   4
  -2 -13  -9   20.76    5.40   3
   2  13   9   43.22    6.40   3
  -2  13  -9   27.48    2.40   4
  -2  13  -9   17.47    2.02   4
  -2  13  -9   33.18    7.79   2
   2  13   9   14.27   10.49   2
  -1  14   9   -7.26    6.51   2
  -1  14   9    3.12    2.80   4
  -1  14   9    2.34    3.14   3
   1  14  -9   -7.46    4.86   2
   1  14  -9   -0.54    3.60   3
   1  14  -9    7.32    3.78   4
   0 -14  -9    1.03    4.68   3
   0  14   9    7.27    3.51   3
   0  14   9   -9.45    6.95   2
   0  14   9    4.59    3.26   4
   0  14  -9    1.05    2.83   3
   0  14  -9   -2.05    2.71   4
   0  14  -9    4.87    5.46   2
  -1 -14  -9   41.51    6.27   3
   1  14   9   66.11    7.63   3
  -1  14  -9   62.68    9.44   2
  -1  14  -9   60.14    4.48   4
   0  15  -9   28.50    4.96   3
   0  15   9   29.87    5.24   4
   0  15  -9   29.33    7.63   2
   4   0 -10   48.46    6.55   3
  -4   0  10   45.61    7.98   4
  -4   0  10   45.69    6.31   3
   3   0 -10   65.61    6.15   3
   3   0 -10   62.86    5.96   4
  -3   0  10   71.71    6.14   3
  -3   0  10   77.26    5.95   4
   3   0 -10   81.01    8.23   4
   2   0 -10   11.70    3.02   3
   2   0 -10   11.02    3.01   4
  -2   0  10    9.83    2.00   2
   2   0 -10   11.83    2.69   4
  -2   0  10    9.24    2.51   4
  -2   0  10    8.58    2.76   3
  -2   0  10    6.64    2.44   4
  -1   0  10  532.99   21.01   4
  -1   0  10  540.88   21.00   3
  -1   0  10  577.01   20.94   4
   1   0 -10  527.72   21.04   4
  -1   0  10  548.59   20.92   3
   1   0 -10  548.07   20.98   3
   1   0 -10  538.99   21.10   3
  -1   0  10  529.02   19.95   2
   1   0 -10  507.88   20.96   4
   0   0  10  300.23   11.77   3
   0   0 -10  292.05   12.14   2
   0   0 -10  299.36   11.76   3
   0   0 -10  291.35   11.78   4
   0   0 -10  297.19   11.79   3
   0   0 -10  286.27   11.78   4
   0   0  10  296.52   11.75   4
   0   0  10  296.02   11.72   3
   0   0  10  288.67   11.77   4
  -1   0 -10 3292.51  121.36   4
   1   0  10 3411.25  121.27   3
  -1   0 -10 3541.04  122.92   1
  -1   0 -10 3395.37  123.69   2
  -1   0 -10 3235.27  121.23   3
  -1   0 -10 3226.80  121.37   4
  -1   0 -10 3276.53  121.34   3
   1   0  10 3232.47  121.15   3
   1   0  10 3409.92  121.20   4
  -2   0 -10   88.19    6.65   1
  -2   0 -10   89.06    5.14   3
  -2   0 -10   87.09    5.23   4
   2   0  10   91.69    5.13   3
   2   0  10   86.33    4.80   4
  -2   0 -10   92.74    4.86   3
  -2   0 -10   87.20    4.96   4
   3   0  10   93.44    7.94   3
  -3   0 -10   85.27    6.53   3
  -3   0 -10  101.00    5.78   4
  -3   0 -10   80.66    7.91   1
  -4   0 -10   14.05    4.62   4
  -4   0 -10   23.36    5.09   3
  -4   0 -10   17.06    6.57   1
  -4  -1  10   45.17    6.35   3
   4  -1 -10   63.12    7.30   3
  -4   1  10   31.41    5.77   3
   4   1 -10   51.08    6.62   3
  -4   1  10   39.57    5.73   4
   3  -1 -10  156.65    9.09   4
  -3  -1  10  161.51    9.38   2
   3  -1 -10  157.27    9.05   3
  -3  -1  10  160.88    9.22   3
  -3  -1  10  152.07    8.85   4
   3   1 -10  156.18    9.19   3
  -3   1  10  150.69    8.90   3
  -3   1  10  155.41    9.36   2
  -3   1  10  157.23    8.83   4
   3   1 -10  174.34    9.56   4
   3   1 -10  145.98    8.90   4
   2  -1 -10  354.30   14.58   4
  -2  -1  10  317.62   14.29   3
  -2  -1  10  329.45   13.41   2
   2  -1 -10  336.17   14.49   4
   2  -1 -10  333.50   14.36   3
  -2  -1  10  328.29   13.64   2
  -2  -1  10  337.59   14.30   4
  -2   1  10  357.57   14.43   4
  -2   1  10  345.93   14.15   2
   2   1 -10  355.44   14.55   3
   2   1 -10  321.19   14.47   4
   2   1 -10  337.86   14.58   4
   2   1 -10  312.86   14.71   3
  -2   1  10  313.72   14.26   4
  -2   1  10  342.36   14.44   3
   1  -1 -10  211.31    9.60   3
  -1  -1  10  230.84    9.64   4
  -1  -1  10  220.79    9.58   3
  -1  -1  10  234.81    9.49   3
   1  -1 -10  214.96    9.70   3
   1  -1 -10  216.69    9.72   4
   1  -1 -10  208.32    9.61   4
  -1   1  10  241.68    9.43   2
   1   1 -10  212.30    9.52   3
  -1   1  10  227.07    9.71   4
  -1   1  10  211.46    9.49   3
   1   1 -10  223.01    9.65   4
  -1   1  10  217.73    9.51   4
   1   1 -10  233.28    9.76   4
  -1   1  10  223.73    9.61   3
   1   1 -10  212.32    9.64   3
   0  -1 -10  475.91   18.04   4
   0  -1  10  453.41   17.62   4
   0  -1 -10  478.17   18.03   4
   0  -1  10  449.95   17.61   4
   0  -1 -10  481.02   18.51   2
   0  -1  10  445.95   17.60   3
   0  -1 -10  463.93   17.91   3
   0  -1 -10  440.00   17.86   3
   0  -1  10  449.89   17.61   3
   0   1 -10  484.97   17.73   3
   0   1 -10  452.64   18.12   2
   0   1  10  486.14   17.96   4
   0   1 -10  474.09   17.68   3
   0   1  10  447.14   17.83   3
   0   1  10  459.34   17.92   3
   0   1 -10  468.61   17.72   4
   0   1 -10  442.42   17.67   4
  -1  -1 -10   80.79    4.46   4
   1  -1  10   76.27    3.98   3
  -1  -1 -10   76.70    4.34   3
   1  -1  10   86.61    3.99   3
  -1  -1 -10   86.12    5.80   1
  -1  -1 -10   79.88    5.96   2
  -1  -1 -10   81.46    4.55   4
  -1  -1 -10   84.26    4.58   3
   1  -1  10   84.64    3.90   4
  -1   1 -10   81.32    4.18   4
  -1   1 -10   80.75    4.05   3
   1   1  10   77.35    4.34   4
  -1   1 -10   84.18    4.20   4
  -1   1 -10   86.15    4.19   3
   1   1  10   88.42    4.54   3
  -1   1 -10   88.03    5.73   1
   1   1  10   86.57    4.35   3
  -2  -1 -10   76.55    4.58   4
   2  -1  10   80.19    4.51   3
  -2  -1 -10   72.28    4.88   3
   2  -1  10   81.13    4.22   4
  -2  -1 -10   79.94    4.92   4
  -2  -1 -10   76.14    6.64   1
  -2  -1 -10   81.86    4.69   3
  -2   1 -10   77.68    4.41   4
   2   1  10   82.15    4.93   3
   2   1  10   74.71    4.55   4
  -2   1 -10   85.53    6.68   1
  -2   1 -10   72.77    4.46   3
  -2   1 -10   82.07    4.37   3
  -2   1 -10   77.20    4.63   4
  -3  -1 -10   10.95    3.00   4
  -3  -1 -10    5.66    4.24   4
  -3  -1 -10   14.90    4.76   1
  -3   1 -10   14.75    3.02   4
  -3   1 -10   12.52    4.85   1
  -3   1 -10    9.55    3.10   4
  -3   1 -10   14.21    3.49   3
   3   1  10   14.20    3.24   3
  -4  -1 -10   -2.82    3.48   4
  -4  -1 -10    6.95    4.43   3
  -4  -1 -10    4.60    5.45   1
  -4   1 -10    6.38    3.91   3
  -4   1 -10    8.36    5.12   1
  -4   1 -10   10.60    3.93   4
   4  -2 -10   16.18    4.83   3
  -4  -2  10   19.22    4.84   3
  -4   2  10   14.28    4.21   4
  -4   2  10   15.23    4.63   3
   4   2 -10   17.38    5.36   3
  -4   2  10   11.41    4.79   2
   3  -2 -10   59.42    5.82   3
   3  -2 -10   53.94    5.59   4
  -3  -2  10   58.21    5.76   4
  -3  -2  10   63.87    6.23   3
  -3   2  10   54.17    5.59   4
   3   2 -10   54.13    5.83   4
   3   2 -10   54.69    5.99   3
  -3   2  10   52.75    5.50   3
  -3   2  10   50.03    5.76   2
   3   2 -10   56.42    6.00   4
  -3   2  10   59.98    5.85   4
   2  -2 -10   34.44    3.91   4
  -2  -2  10   27.48    2.85   2
   2  -2 -10   39.83    4.11   4
  -2  -2  10   27.77    3.66   3
  -2  -2  10   35.26    3.81   4
   2  -2 -10   47.35    4.38   3
  -2   2  10   48.02    4.35   3
  -2   2  10   38.49    3.85   4
  -2   2  10   38.33    3.98   4
   2   2 -10   31.19    3.82   4
   2   2 -10   34.73    4.02   3
   2   2 -10   35.12    4.14   3
  -2   2  10   35.76    3.88   2
   2   2 -10   31.08    4.05   4
  -1  -2  10   22.12    2.45   3
   1  -2 -10   24.31    2.85   3
   1  -2 -10   18.66    2.43   2
   1  -2 -10   24.09    2.78   4
   1  -2 -10   21.17    2.91   3
  -1  -2  10   26.04    2.77   3
  -1  -2  10   24.18    2.61   4
  -1  -2  10   19.97    2.23   4
   1  -2 -10   24.29    2.88   4
  -1   2  10   26.12    2.97   4
  -1   2  10   25.35    3.02   2
  -1   2  10   20.36    2.50   3
   1   2 -10   21.68    2.89   3
  -1   2  10   22.23    2.57   4
   1   2 -10   26.12    2.97   4
  -1   2  10   30.45    3.07   3
   1   2 -10   24.76    2.94   3
   1   2 -10   25.47    3.07   4
   0  -2 -10  455.57   17.59   3
   0  -2  10  421.46   16.89   4
   0  -2 -10  442.07   17.54   3
   0  -2  10  455.29   16.97   4
   0  -2 -10  442.19   17.61   4
   0  -2  10  426.17   17.00   3
   0  -2 -10  437.06   17.56   4
   0  -2 -10  446.18   18.28   2
   0  -2  10  455.87   16.99   3
   0   2  10  472.37   17.63   4
   0   2  10  440.77   17.46   3
   0   2 -10  490.92   17.11   3
   0   2  10  473.04   17.68   3
   0   2 -10  423.69   17.07   4
   0   2  10  443.99   18.85   2
   0   2  10  435.69   17.60   4
   0   2 -10  455.42   17.12   4
   0   2 -10  442.40   17.13   3
  -1  -2 -10   15.55    2.35   4
  -1  -2 -10   14.01    2.22   3
   1  -2  10   15.88    1.45   3
   1  -2  10   15.28    1.16   4
  -1  -2 -10   21.00    3.40   1
   1  -2  10   13.06    1.06   4
  -1  -2 -10   10.84    3.28   2
  -1  -2 -10   17.42    2.38   4
  -1  -2 -10   19.55    2.44   3
  -1   2 -10   17.15    1.66   3
  -1   2 -10   20.55    1.80   3
  -1   2 -10   15.85    1.70   4
  -1   2 -10   12.44    1.60   4
   1   2  10   19.03    2.56   3
   1   2  10   13.21    2.06   4
  -2  -2 -10  167.41    8.23   3
  -2  -2 -10  157.06    9.40   1
  -2  -2 -10  161.03    8.25   4
  -2  -2 -10  172.79    7.87   3
   2  -2  10  166.32    6.67   4
  -2  -2 -10  163.34    7.89   4
  -2   2 -10  164.84    9.43   1
   2   2  10  163.89    8.02   3
  -2   2 -10  167.58    7.28   4
  -2   2 -10  158.69    7.43   4
  -2   2 -10  160.51    7.08   3
   2   2  10  144.88    7.70   4
  -3  -2 -10   19.11    3.79   4
  -3  -2 -10   22.07    5.32   1
  -3   2 -10   11.82    3.25   4
  -3   2 -10   21.89    3.16   4
  -3   2 -10   23.23    3.77   3
   3   2  10   14.02    3.37   3
  -3   2 -10   18.02    4.90   1
  -4  -2 -10    5.68    4.05   3
  -4  -2 -10    1.09    4.87   1
  -4  -2 -10    5.60    3.79   4
  -4   2 -10   12.75    4.19   3
  -4   2 -10    3.21    3.64   4
  -4   2 -10    2.89    4.91   1
   4  -3 -10    2.93    4.57   3
  -4  -3  10   13.16    4.90   3
  -4   3  10   -1.45    3.56   3
  -4   3  10    9.60    4.02   4
   4   3 -10   12.02    4.99   3
  -4   3  10    7.82    4.62   2
   3  -3 -10   14.38    3.79   4
   3  -3 -10   19.28    4.13   3
  -3  -3  10   17.59    4.19   3
  -3  -3  10   30.25    4.58   4
  -3   3  10   23.05    3.92   4
  -3   3  10   23.06    4.07   4
  -3   3  10   16.43    3.79   3
   3   3 -10   24.43    5.08   3
   3   3 -10   21.16    4.64   4
  -3   3  10   21.15    4.61   2
   3   3 -10   21.70    4.09   4
   2  -3 -10  230.05   11.10   4
  -2  -3  10  258.25   11.41   3
  -2  -3  10  240.10   10.98   4
   2  -3 -10  229.97   11.01   3
  -2  -3  10  226.88    9.93   2
   2  -3 -10  249.49   11.26   4
  -2   3  10  259.79   11.19   3
  -2   3  10  252.06   11.15   4
   2   3 -10  246.07   11.39   4
   2   3 -10  237.71   11.34   3
  -2   3  10  241.46   11.18   4
  -2   3  10  252.48   11.70   2
   2   3 -10  237.35   11.34   4
   2   3 -10  237.70   11.19   3
  -1  -3  10  313.50   12.17   4
   1  -3 -10  298.00   13.07   2
   1  -3 -10  282.93   12.46   3
  -1  -3  10  311.90   12.30   3
   1  -3 -10  320.24   12.75   3
  -1  -3  10  294.34   12.32   3
   1  -3 -10  301.46   12.63   4
   1  -3 -10  308.21   12.71   4
  -1   3  10  283.69   12.54   4
  -1   3  10  302.09   13.23   2
  -1   3  10  330.22   12.74   4
   1   3 -10  270.62   12.38   3
  -1   3  10  283.84   12.43   3
   1   3 -10  295.89   12.40   3
   1   3 -10  299.11   12.47   4
   1   3 -10  286.61   12.49   4
   0  -3 -10   52.83    3.49   4
   0  -3  10   42.50    2.31   4
   0  -3 -10   39.80    3.95   2
   0  -3 -10   41.23    3.38   3
   0  -3  10   35.91    2.24   3
   0  -3 -10   52.25    3.62   3
   0  -3 -10   45.14    3.46   4
   0  -3  10   39.63    2.54   3
   0  -3  10   44.51    2.30   4
   0   3 -10   43.31    2.85   3
   0   3 -10   39.51    2.65   4
   0   3 -10   56.97    2.86   3
   0   3  10   44.02    3.19   3
   0   3  10   47.17    3.50   3
   0   3 -10   42.33    2.72   4
   0   3  10   42.64    5.00   2
   0   3  10   41.02    3.11   4
   0   3  10   46.15    3.38   4
  -1  -3 -10   51.32    5.05   2
  -1  -3 -10   52.67    3.61   3
  -1  -3 -10   56.08    4.73   1
   1  -3  10   54.72    2.32   3
  -1  -3 -10   53.94    3.97   3
  -1  -3 -10   51.12    3.70   4
  -1  -3 -10   52.05    3.80   4
   1  -3  10   55.39    2.38   3
  -1   3 -10   56.34    2.80   4
  -1   3 -10   53.41    2.78   4
  -1   3 -10   53.35    2.67   3
   1   3  10   53.78    3.93   3
  -1   3 -10   56.57    2.68   3
   1   3  10   47.65    3.60   4
  -2  -3 -10   11.39    2.73   4
   2  -3  10   11.59    1.40   3
   2  -3  10   11.34    1.58   3
  -2  -3 -10   17.02    4.41   1
  -2  -3 -10   13.17    2.42   3
  -2  -3 -10    9.06    2.40   4
  -2  -3 -10    8.92    2.74   3
  -2   3 -10   14.27    2.26   3
  -2   3 -10    8.60    1.81   4
  -2   3 -10   12.84    1.95   4
   2   3  10   13.65    2.95   3
  -2   3 -10   11.48    1.77   3
  -2   3 -10   13.54    3.83   1
   2   3  10    8.92    2.34   4
  -3  -3 -10   34.54    4.59   3
  -3  -3 -10   40.40    6.61   1
  -3  -3 -10   39.61    5.11   4
  -3   3 -10   33.62    4.12   3
  -3   3 -10   38.53    3.74   4
   3   3  10   37.00    4.93   3
  -3   3 -10   39.56    6.56   1
  -3   3 -10   31.55    4.05   4
  -4  -3 -10   10.98    4.28   4
  -4  -3 -10   12.72    5.93   1
  -4  -3 -10    8.20    4.85   3
  -4   3 -10    5.41    3.54   3
  -4   3 -10    1.77    3.41   4
  -4   3 -10   11.00    5.82   1
   4  -4 -10   16.01    4.68   3
  -4  -4  10   19.10    5.01   3
  -4   4  10    9.93    4.07   4
  -4   4  10   19.70    5.77   2
   4   4 -10   25.32    5.64   3
  -4   4  10   19.13    4.72   3
   3  -4 -10   15.35    3.93   3
   3  -4 -10   21.70    3.96   4
  -3  -4  10   19.15    4.14   3
  -3  -4  10   15.88    5.25   4
  -3   4  10   18.67    3.89   3
   3   4 -10   22.65    4.64   3
  -3   4  10   17.44    3.72   4
  -3   4  10   18.46    3.90   4
   3   4 -10   19.19    4.51   4
  -3   4  10   16.23    4.34   2
  -2  -4  10   40.76    3.95   4
   2  -4 -10   50.76    4.52   3
   2  -4 -10   54.16    4.48   4
  -2  -4  10   57.42    4.57   3
  -2  -4  10   49.49    3.44   2
   2  -4 -10   49.43    4.31   4
  -2   4  10   55.94    4.52   4
   2   4 -10   58.53    4.95   4
  -2   4  10   48.38    4.21   4
  -2   4  10   60.61    4.56   3
   2   4 -10   52.83    4.59   3
   2   4 -10   50.68    4.56   4
   2   4 -10   49.77    4.66   3
  -2   4  10   51.77    5.28   2
   1  -4 -10  133.08    7.54   2
   1  -4 -10  129.97    6.80   3
  -1  -4  10  137.39    6.47   3
  -1  -4  10  134.60    6.23   4
   1  -4 -10  141.82    7.00   4
   1  -4 -10  136.07    6.92   4
   1   4 -10  124.54    6.69   3
  -1   4  10  143.30    6.91   4
   1   4 -10  140.19    6.78   3
  -1   4  10  122.68    6.69   4
  -1   4  10  145.52    8.00   2
   1   4 -10  129.98    6.66   4
   1   4 -10  129.10    6.78   4
   1   4 -10  135.63    5.63   2
  -1   4  10  150.93    6.94   3
   0  -4 -10  149.16    7.08   4
   0  -4 -10  145.33    7.03   3
   0  -4  10  143.40    5.97   3
   0  -4  10  140.82    5.47   4
   0  -4 -10  153.67    7.04   3
   0  -4 -10  147.54    7.07   4
   0  -4 -10  148.21    8.07   2
   0  -4  10  147.23    5.49   4
   0   4 -10  141.22    6.23   4
   0   4 -10  139.34    6.22   4
   0   4 -10  150.87    6.10   3
   0   4  10  132.63    8.51   2
   0   4  10  148.31    6.96   4
   0   4  10  148.29    7.06   3
   0   4 -10  139.24    6.24   3
   0   4  10  151.93    7.16   4
   0   4 -10  140.40    7.06   2
  -1  -4 -10  204.81    9.97   1
  -1  -4 -10  198.11    9.30   4
  -1  -4 -10  197.17    9.33   3
  -1  -4 -10  204.71    9.20   3
  -1  -4 -10  219.36    9.53   4
  -1   4 -10  203.96    7.86   4
   1   4  10  198.43    9.31   3
  -1   4 -10  210.65    7.90   4
  -1   4 -10  201.53    7.72   3
  -1   4 -10  200.95    7.71   3
   1   4  10  199.61   12.01   2
   1   4  10  208.66    9.36   4
  -2  -4 -10  379.90   15.74   4
  -2  -4 -10  327.50   16.77   1
  -2  -4 -10  348.94   15.91   3
  -2  -4 -10  363.64   16.03   4
   2   4  10  355.80   15.72   4
  -2   4 -10  376.44   14.11   3
  -2   4 -10  378.64   14.44   3
  -2   4 -10  380.18   14.36   4
   2   4  10  397.02   16.05   3
  -2   4 -10  386.26   17.22   1
  -3  -4 -10    6.60    3.09   3
  -3  -4 -10    6.37    3.17   4
  -3  -4 -10   13.42    5.34   1
  -3   4 -10    5.20    2.54   4
   3   4  10    7.42    3.52   3
  -3   4 -10    9.98    4.59   1
  -3   4 -10    3.63    2.19   4
  -3   4 -10    2.78    2.31   3
  -4  -4 -10   -5.07    3.42   4
  -4  -4 -10   -2.39    3.90   3
  -4  -4 -10    2.48    5.25   1
  -4   4 -10    0.78    3.22   3
  -4   4 -10    3.45    5.06   1
  -4   4 -10    1.66    3.23   4
  -4  -5  10    8.69    4.81   3
   4  -5 -10    7.57    4.20   3
  -4   5  10    3.44    4.69   2
  -4   5  10   11.75    4.65   4
   4   5 -10    2.26    5.11   3
  -4   5  10   -1.52    3.60   3
   4   5 -10    7.41    7.22   4
  -3  -5  10  308.48   15.19   3
   3  -5 -10  320.77   14.54   3
   3   5 -10  310.15   15.22   4
  -3   5  10  310.96   14.58   4
  -3   5  10  331.00   14.87   3
  -3   5  10  298.18   16.28   2
   3   5 -10  323.33   15.43   3
  -2  -5  10   89.57    5.77   3
   2  -5 -10   88.84    6.01   3
  -2  -5  10   78.66    4.78   2
   2  -5 -10   81.60    5.59   4
   2   5 -10   83.04    5.80   4
  -2   5  10   85.85    5.64   4
  -2   5  10   82.42    5.53   4
  -2   5  10   79.48    6.91   2
  -2   5  10   90.93    5.68   3
   2   5 -10   83.21    6.01   4
   2   5 -10   81.29    6.20   3
   2   5 -10   78.58    5.72   3
   1  -5 -10  406.92   17.24   4
   1  -5 -10  427.69   17.17   3
  -1  -5  10  419.74   16.71   3
   1  -5 -10  393.72   18.32   2
   1  -5 -10  411.91   17.15   4
  -1  -5  10  441.71   16.51   4
  -1   5  10  414.97   17.22   4
  -1   5  10  402.14   17.10   3
  -1   5  10  409.73   17.19   4
   1   5 -10  428.68   16.51   2
   1   5 -10  413.18   16.97   3
   1   5 -10  421.89   16.88   3
   1   5 -10  433.46   17.10   4
  -1   5  10  432.46   18.75   2
   1   5 -10  435.03   17.06   4
   0  -5 -10  165.46    8.20   3
   0  -5 -10  184.60    8.33   4
   0  -5 -10  168.93    8.48   3
   0  -5  10  174.35    6.77   3
   0  -5  10  171.84    6.84   3
   0  -5 -10  165.05    8.18   4
   0  -5 -10  172.91    9.49   2
   0   5  10  169.87    8.21   3
   0   5 -10  179.16    8.51   2
   0   5  10  171.60    8.28   4
   0   5  10  173.06   10.22   2
   0   5 -10  173.94    7.34   4
   0   5 -10  183.97    7.16   3
   0   5 -10  167.31    7.25   3
   0   5 -10  174.43    7.30   4
   0   5  10  181.85    8.24   4
  -1  -5 -10   58.07    4.93   1
  -1  -5 -10   57.97    4.45   3
  -1  -5 -10   68.70    4.63   4
  -1  -5 -10   53.81    4.22   4
   1   5  10   56.00    4.28   4
   1   5  10   57.86    7.26   2
  -1   5 -10   57.48    2.50   4
  -1   5 -10   61.83    2.49   4
   1   5  10   62.11    4.69   3
  -2  -5 -10   41.01    5.63   1
  -2  -5 -10   43.13    4.96   3
  -2  -5 -10   43.29    4.71   4
  -2  -5 -10   34.14    3.97   4
  -2   5 -10   38.32    2.70   4
   2   5  10   36.39    4.12   4
  -2   5 -10   34.67    2.04   3
  -2   5 -10   36.69    2.47   4
  -2   5 -10   43.72    5.69   1
  -2   5 -10   32.33    2.14   3
   2   5  10   44.78    4.90   3
  -3  -5 -10    1.68    3.08   3
  -3  -5 -10    4.56    4.37   1
  -3  -5 -10    3.34    3.58   4
  -3   5 -10    6.93    2.27   3
  -3   5 -10    2.66    2.37   4
   3   5  10   10.09    3.87   3
  -3   5 -10    7.78    4.19   1
  -3   5 -10    4.80    2.26   4
  -4  -5 -10    6.20    4.29   4
  -4  -5 -10   -1.98    4.02   3
  -4  -5 -10   -3.53    5.26   1
  -4   5 -10    0.83    4.61   1
  -4   5 -10    0.93    3.08   4
  -4   5 -10   -2.00    2.75   3
  -4  -6  10   13.27    5.17   3
   4  -6 -10   -4.59    4.09   3
   4   6 -10   -1.91    6.51   4
  -4   6  10    2.60    3.75   4
  -4   6  10   -0.33    3.73   3
  -4   6  10    4.56    5.02   2
   4   6 -10   -2.79    4.63   3
   3  -6 -10   65.61    6.19   3
  -3  -6  10   57.53    6.22   3
   3   6 -10   62.74    6.61   3
  -3   6  10   60.95    5.75   3
  -3   6  10   60.66    7.65   2
   3   6 -10   62.71    6.83   4
  -3   6  10   61.41    6.10   4
  -2  -6  10   32.17    3.77   4
  -2  -6  10   25.42    3.74   3
   2  -6 -10   33.38    4.17   3
   2  -6 -10   31.52    4.12   4
   2  -6 -10   30.42    4.07   1
  -2  -6  10   28.13    3.26   2
  -2   6  10   20.88    4.74   2
  -2   6  10   26.13    3.73   4
  -2   6  10   25.44    3.76   3
   2   6 -10   29.74    4.35   4
   2   6 -10   30.27    4.26   4
  -2   6  10   25.86    3.74   4
   2   6 -10   36.77    4.82   3
   1  -6 -10   23.63    3.05   1
   1  -6 -10   20.61    3.16   4
  -1  -6  10   25.49    2.80   3
  -1  -6  10   21.08    2.36   4
   1  -6 -10   23.88    3.38   3
   1  -6 -10   21.71    3.26   4
   1   6 -10   23.58    3.26   4
  -1   6  10   27.77    3.58   3
   1   6 -10   22.55    3.04   4
  -1   6  10   26.23    4.89   2
   1   6 -10   26.19    3.16   2
  -1   6  10   26.81    3.33   4
  -1   6  10   22.97    3.21   4
   1   6 -10   25.54    3.23   3
   0  -6 -10  243.10   11.23   4
   0  -6  10  256.07    9.54   3
   0  -6 -10  270.45   11.41   4
   0  -6 -10  245.52   11.26   3
   0  -6  10  245.59    9.54   3
   0   6 -10  263.09   10.30   4
   0   6 -10  243.41   10.19   4
   0   6 -10  253.77   10.04   3
   0   6  10  255.66   11.38   3
   0   6 -10  249.16   11.70   2
   0   6 -10  241.09   10.02   3
   0   6  10  265.79   11.38   4
   0   6  10  260.12   13.57   2
   0   6  10  265.18   11.49   4
  -1  -6 -10   78.56    5.45   4
  -1  -6 -10   78.57    5.80   1
  -1  -6 -10   91.77    5.73   3
  -1  -6 -10   98.92    5.70   4
   1   6  10   82.81    5.56   3
  -1   6 -10   97.86    6.99   2
   1   6  10   76.50    5.33   4
   1   6  10   88.04    9.08   2
  -2  -6 -10    6.80    2.84   4
  -2  -6 -10   -0.01    2.49   4
  -2  -6 -10    5.31    3.85   1
  -2  -6 -10    6.78    2.86   3
   2   6  10    5.09    2.90   3
  -2   6 -10    2.66    1.18   4
  -2   6 -10    4.52    1.15   4
  -2   6 -10    5.93    3.15   1
   2   6  10    1.01    2.41   4
  -3  -6 -10   15.46    4.09   4
  -3  -6 -10   23.67    4.98   3
  -3  -6 -10   21.50    5.72   1
  -3   6 -10   19.84    2.92   4
  -3   6 -10   12.39    4.44   1
  -3   6 -10   15.94    2.34   3
   3   6  10   17.75    4.65   3
  -3   6 -10   20.32    2.77   4
  -4  -6 -10   -2.06    5.07   1
  -4  -6 -10    5.23    4.25   4
  -4  -6 -10   -3.26    4.96   3
  -4   6 -10    3.34    2.62   3
  -4   6 -10    5.59    3.56   4
  -4   6 -10   10.96    5.71   1
  -4  -7  10   15.75    5.29   3
  -4   7  10   13.24    5.99   2
  -4   7  10    9.61    4.62   3
   4   7 -10    8.64    5.33   3
   4   7 -10    7.92    6.58   4
  -4   7  10    3.27    3.59   4
  -3  -7  10   18.61    4.56   3
   3  -7 -10   27.98    4.42   3
  -3   7  10   23.09    5.62   2
  -3   7  10   21.39    4.14   4
   3   7 -10   22.62    5.01   4
  -3   7  10   17.11    3.97   3
   3   7 -10    9.15    4.46   3
   2  -7 -10  232.85   11.02   4
  -2  -7  10  230.49   11.34   3
   2  -7 -10  244.42   11.17   3
   2  -7 -10  207.72   10.76   1
   2   7 -10  238.60   11.58   3
   2   7 -10  215.34   10.89   3
  -2   7  10  245.48   11.36   4
  -2   7  10  241.56   11.37   3
  -2   7  10  231.58   11.31   4
   2   7 -10  233.60   11.44   4
  -2   7  10  227.13   13.38   2
   1  -7 -10   49.35    3.75   1
  -1  -7  10   47.06    3.27   4
   1  -7 -10   53.43    4.32   4
   1  -7 -10   48.85    4.38   3
  -1  -7  10   54.18    3.82   3
  -1   7  10   44.21    4.21   4
   1   7 -10   42.52    3.78   3
   1   7 -10   43.64    4.55   2
  -1   7  10   49.76    6.66   2
   1   7 -10   46.64    4.17   4
  -1   7  10   52.78    4.30   3
  -1   7  10   50.78    4.11   4
   1   7 -10   50.18    4.41   3
   0  -7 -10  282.97   11.59   1
   0  -7 -10  259.55   11.99   4
   0  -7 -10  275.00   12.10   4
   0  -7  10  265.77   10.07   3
   0  -7  10  262.59   10.06   3
   0  -7 -10  273.22   12.11   3
   0   7  10  273.29   12.15   4
   0   7  10  267.83   14.52   2
   0   7  10  270.57   12.08   3
   0   7 -10  274.71   10.74   3
   0   7  10  277.55   12.08   4
   0   7 -10  256.87   10.57   3
   0   7 -10  270.20   10.93   4
   0   7 -10  272.34   12.85   2
  -1  -7 -10  125.71    7.39   4
  -1  -7 -10  138.88    7.72   1
  -1  -7 -10  140.32    7.67   3
  -1  -7 -10  147.36    7.72   4
   1   7  10  125.81    7.45   4
  -1   7 -10  138.94    9.30   2
   1   7  10  139.49    7.59   3
   1   7  10  124.47   11.42   2
  -2  -7 -10    0.12    3.03   3
  -2  -7 -10    3.21    2.73   4
  -2  -7 -10    0.32    3.38   1
  -2  -7 -10   -0.86    2.48   4
  -2   7 -10   -1.57    0.67   4
   2   7  10    2.80    2.91   4
  -2   7 -10    0.31    0.76   4
  -2   7 -10    2.54    2.65   1
   2   7  10    2.88    2.81   3
  -3  -7 -10   21.59    6.02   1
  -3  -7 -10   22.83    4.68   4
  -3  -7 -10   17.35    4.72   3
  -3   7 -10   16.48    2.59   4
   3   7  10   19.69    5.29   3
  -3   7 -10   19.11    1.77   3
  -3   7 -10   19.47    5.13   1
  -3   7 -10   14.49    2.47   4
  -4  -8  10   14.61    5.34   3
  -4   8  10    9.06    5.87   2
  -4   8  10    5.01    3.89   4
  -4   8  10    4.97    6.08   3
   4   8 -10   -3.61    5.08   3
   3  -8 -10    3.49    3.43   3
  -3  -8  10    6.85    3.89   3
   3   8 -10    6.13    4.30   4
   3   8 -10   14.45    4.71   3
  -3   8  10    6.60    3.59   4
  -3   8  10    7.28    5.13   2
  -3   8  10    5.38    3.46   3
  -2  -8  10   99.62    6.82   3
   2  -8 -10  109.37    6.81   3
  -2   8  10  118.60    7.28   3
   2   8 -10   87.87    9.53   4
  -2   8  10  100.78    9.02   2
   2   8 -10  108.43    7.20   4
   2   8 -10  104.27    7.00   2
  -2   8  10   97.93    7.01   4
   2   8 -10  106.31    6.71   3
   2   8 -10   94.60    6.86   3
   1  -8 -10  576.25   23.51   3
  -1  -8  10  582.39   22.91   3
  -1  -8  10  619.90   22.52   4
   1  -8 -10  566.77   23.46   4
   1  -8 -10  550.76   22.58   1
  -1   8  10  579.68   23.79   4
  -1   8  10  560.57   23.69   4
   1   8 -10  593.86   23.25   4
   1   8 -10  602.83   24.42   2
   1   8 -10  588.39   23.14   3
   1   8 -10  611.20   23.33   4
  -1   8  10  579.05   26.19   2
   1   8 -10  568.37   22.92   3
  -1   8  10  594.35   23.73   3
   0  -8 -10   13.87    3.18   3
   0  -8 -10   18.80    2.65   1
   0  -8 -10   17.42    3.05   4
   0  -8  10   12.38    1.01   3
   0  -8  10   12.58    1.14   3
   0   8 -10   14.47    2.24   4
   0   8  10   16.52    2.95   4
   0   8  10   15.93    3.11   3
   0   8  10   12.90    5.05   2
   0   8  10   16.43    3.13   4
   0   8 -10   14.00    1.65   3
   0   8 -10   16.19    2.06   4
   0   8 -10   19.64    4.00   2
   0   8 -10   14.05    2.20   3
  -1  -8 -10   10.08    2.91   4
  -1  -8 -10   10.97    2.90   4
  -1  -8 -10    7.23    3.09   1
  -1  -8 -10    8.70    3.22   3
  -1   8 -10   14.13    3.92   2
   1   8  10    9.90    3.14   3
   1   8  10   19.13    7.13   2
   1   8  10    8.04    2.80   4
  -1   8 -10   17.64    3.36   1
  -2  -8 -10  147.13    8.92   3
  -2  -8 -10  139.46    9.36   1
  -2  -8 -10  139.54    8.62   4
   2   8  10  141.79    8.87   3
  -2   8 -10  125.58    8.42   1
   2   8  10  130.31   13.04   2
  -2   8 -10  145.88   11.07   2
  -3  -8 -10    2.04    3.71   3
  -3  -8 -10    6.34    3.71   4
  -3  -8 -10    9.43    5.06   1
  -3   8 -10    4.45    1.87   4
   3   8  10    4.34    4.05   3
  -3   8 -10    1.62    1.68   4
  -3   8 -10   13.91    4.38   1
   3  -9 -10    3.47    3.36   3
  -3   9  10    3.54    3.33   4
   3   9 -10    3.86    4.23   3
  -3   9  10    7.40    5.74   2
   3   9 -10    8.83    4.57   4
  -3   9  10    5.51    3.78   3
   2  -9 -10   83.89    6.26   3
  -2  -9  10   86.53    6.42   3
  -2   9  10   98.88   10.00   2
   2   9 -10   89.58    6.83   2
  -2   9  10   83.11    6.42   4
  -2   9  10   88.73    6.38   3
   2   9 -10   77.79    6.99   4
   2   9 -10   81.30    6.99   3
  -1  -9  10    2.50    2.32   2
   1  -9 -10   -1.87    2.49   3
  -1  -9  10   -0.08    1.60   4
  -1  -9  10   -2.49    2.38   3
   1  -9 -10    4.28    2.49   4
   1   9 -10   -3.01    2.69   3
   1   9 -10    1.47    2.73   4
  -1   9  10   -4.19    3.85   2
  -1   9  10    0.98    2.25   3
   1   9 -10   -2.22    1.77   3
   1   9 -10   -5.05    2.53   2
   1   9 -10    0.23    2.17   4
  -1   9  10   -2.25    1.98   4
  -1   9  10    1.53    2.07   4
   0  -9 -10  191.07    8.70   1
   0  -9 -10  197.42    9.72   4
   0  -9  10  173.55    7.37   3
   0  -9 -10  193.19    9.77   3
   0   9  10  214.88   10.07   4
   0   9  10  184.09   12.94   2
   0   9 -10  192.47   11.24   2
   0   9 -10  200.32    7.94   3
   0   9  10  202.54    9.97   3
   0   9 -10  200.11    8.37   4
   0   9 -10  185.93    8.47   4
   0   9  10  194.65    9.69   4
   0   9 -10  198.52    8.36   3
  -1  -9 -10  164.35    8.89   1
  -1  -9 -10  172.15    9.32   3
  -1  -9 -10  150.62    8.99   4
  -1   9 -10  168.34    6.36   4
  -1   9 -10  160.95    6.42   4
  -1   9 -10  173.05   11.09   2
   1   9  10  166.60    9.10   4
  -1   9 -10  185.56    9.24   1
   1   9  10  164.45    9.16   3
  -2  -9 -10   12.99    3.66   4
  -2  -9 -10    3.53    3.49   3
  -2  -9 -10    5.61    3.85   1
  -2   9 -10    8.96    5.25   2
  -2   9 -10    5.70    3.20   1
   2   9  10    7.98    3.68   3
   2   9  10    3.23    6.14   2
  -3  -9 -10   24.65    5.55   3
  -3  -9 -10   27.80    6.20   1
   3   9  10   31.82    5.98   3
  -3   9 -10   25.96    2.48   4
  -3   9 -10   21.20    7.34   2
  -3   9 -10   26.70    2.37   4
  -3   9 -10   21.08    4.98   1
   3  10 -10   36.54    6.18   4
  -3  10  10   37.42    8.38   2
  -3  10  10   31.56    5.18   4
  -3  10  10   45.99    6.03   3
   3  10 -10   36.12    6.16   3
   2 -10 -10    2.22    3.08   3
   2  10 -10    7.57    3.08   2
   2  10 -10    3.44    3.43   4
   2  10 -10    0.67    3.79   3
  -2  10  10    3.52    2.93   3
  -2  10  10    4.08    4.90   2
  -2  10  10    6.52    3.48   4
   1 -10 -10   46.01    4.93   3
   1  10 -10   37.09    5.92   2
   1  10 -10   48.45    4.83   3
  -1  10  10   43.46    4.80   4
  -1  10  10   37.38    4.65   3
   1  10 -10   49.04    4.31   4
   1  10 -10   48.24    4.86   4
  -1  10  10   41.43    7.60   2
   0 -10 -10   -1.24    2.26   4
   0 -10 -10    2.21    2.79   3
   0  10  10    0.60    2.33   4
   0  10 -10   -1.04    1.48   4
   0  10  10   -3.07    3.30   4
   0  10  10    1.13    2.43   3
   0  10 -10   -1.11    1.98   3
   0  10  10    3.34    5.49   2
   0  10 -10   -4.04    2.94   2
   0  10 -10   -0.86    1.18   3
   0  10 -10   -1.60    2.02   4
  -1 -10 -10  207.29   10.41   1
  -1 -10 -10  199.03   10.85   4
  -1 -10 -10  215.20   11.14   3
  -1  10 -10  211.75   13.06   2
   1  10  10  204.89   10.89   4
   1  10  10  220.08   11.10   3
  -1  10 -10  206.74    8.16   4
   1  10  10  246.32   17.09   2
  -1  10 -10  201.18    8.26   4
  -1  10 -10  219.24   10.63   1
  -2 -10 -10   72.13    7.26   3
  -2 -10 -10   66.02    7.16   1
  -2  10 -10   68.82    8.65   2
   2  10  10   65.72    6.99   3
   2  10  10   57.14   10.62   2
  -2  10 -10   49.89    5.46   1
  -3 -10 -10   88.20    8.83   1
  -3 -10 -10   60.15    7.53   3
  -3  10 -10   70.80    3.73   4
   3  10  10  103.56    9.05   3
  -3  10 -10   84.40   11.15   2
  -3  10 -10   70.92    3.70   4
  -3  10 -10   64.87    7.65   1
  -3  11  10   20.71    4.65   3
  -3  11  10   12.04    6.49   2
   3  11 -10   12.75    5.65   3
  -3  11  10   23.73    5.08   4
   3  11 -10   21.64    5.49   4
   2 -11 -10   -0.03    3.04   3
   2  11 -10    6.76    4.04   4
  -2  11  10    3.91    3.08   4
   2  11 -10    0.01    3.93   3
  -2  11  10    5.13    5.87   2
  -2  11  10    6.84    3.60   3
   2  11 -10    6.66    3.69   2
   1 -11 -10   72.86    6.33   3
  -1  11  10   74.19   10.32   2
  -1  11  10   78.19    6.00   4
  -1  11  10   76.41    6.28   3
   1  11 -10   60.57    7.53   2
   1  11 -10   79.37    5.91   4
   1  11 -10   88.53    6.17   3
   0 -11 -10   55.85    5.73   3
   0  11 -10   57.65    3.86   4
   0  11  10   62.55    6.10   3
   0  11  10   62.84    5.33   4
   0  11  10   55.15    9.43   2
   0  11 -10   51.83    7.02   2
   0  11 -10   57.48    4.18   3
   0  11 -10   60.70    4.41   4
  -1 -11 -10   -2.97    3.21   3
   1  11  10    7.07    7.75   2
  -1  11 -10   -0.04    1.44   4
  -1  11 -10    1.21    2.40   1
  -1  11 -10   -2.05    3.71   2
  -1  11 -10   -2.02    0.94   4
   1  11  10    4.71    3.08   4
   1  11  10   -2.15    2.72   3
  -2 -11 -10    6.45    4.44   3
  -2  11 -10   12.80    3.71   1
   2  11  10    4.57    4.19   3
   2  11  10   14.72    8.52   2
  -2  11 -10   10.68    5.68   2
  -2  12  10   -0.13    2.84   4
   2  12 -10   12.35    4.51   2
   2  12 -10    2.71    4.31   3
   2  12 -10    1.75    4.04   4
  -2  12  10   -4.39    2.59   3
  -2  12  10   -1.53    5.51   2
   1 -12 -10   91.15    6.95   3
  -1  12  10   91.76    6.91   3
   1  12 -10   76.23    6.20   4
   1  12 -10   86.07    6.37   3
   1  12 -10   72.36    8.44   2
  -1  12  10   79.78    6.28   4
  -1  12  10   80.63   10.61   2
   0 -12 -10    9.25    3.68   3
   0  12 -10   12.44    4.77   2
   0  12  10   13.56    3.42   4
   0  12 -10   16.57    2.89   3
   0  12 -10   14.26    3.00   4
   0  12 -10   15.72    2.41   4
   0  12  10   19.43    4.42   3
   0  12  10   11.40    6.92   2
  -1 -12 -10   42.99    5.67   3
   1  12  10   70.61   12.34   2
   1  12  10   46.79    5.86   4
  -1  12 -10   41.60    2.91   4
  -1  12 -10   56.60    5.03   1
  -1  12 -10   47.09    3.24   4
  -1  12 -10   52.19    7.89   2
   1  12  10   56.72    6.62   3
  -2 -12 -10    0.19    4.09   3
   2  12  10    1.47    3.86   3
  -2  12 -10    2.38    5.10   2
   2  12  10  -19.32    6.96   2
   2  13 -10   49.88    6.33   4
   2  13 -10   39.67    6.10   3
  -2  13  10   58.51    6.56   3
  -2  13  10   38.16    5.35   4
  -2  13  10   56.18   10.12   2
   1 -13 -10    2.92    3.20   3
   1  13 -10   -5.43    4.10   2
  -1  13  10   -0.63    2.45   4
  -1  13  10    4.75    3.37   3
  -1  13  10   -1.77    5.79   2
   1  13 -10    1.26    3.31   4
   1  13 -10    0.90    3.51   3
   0 -13 -10    6.05    3.77   3
   0  13 -10    7.44    4.82   2
   0  13 -10    4.02    2.78   4
   0  13  10   -1.45    6.64   2
   0  13  10    6.55    3.54   3
   0  13  10    8.74    3.32   4
   0  13 -10    4.75    2.64   3
  -1 -13 -10   23.63    4.93   3
   1  13  10   49.97   11.84   2
   1  13  10   27.65    5.14   3
  -1  13 -10   28.65    2.85   4
  -1  13 -10   32.33    7.27   2
  -1  13 -10   23.48    2.37   4
  -2 -13 -10   21.72    5.31   3
   2  13  10   20.34    5.36   3
  -2  13 -10   17.78    6.77   2
   1  14 -10   -0.38    3.48   3
  -1  14  10   -8.74    6.01   2
   1  14 -10    7.62    3.86   4
   1  14 -10  -11.90    4.29   2
  -1  14  10    1.14    3.03   3
  -1  14  10    4.72    3.11   4
   0 -14 -10   -0.18    3.55   3
   0  14 -10   -3.32    4.70   2
   0  14  10    8.79    9.11   2
   0  14  10   -0.38    3.68   3
   0  14 -10   -1.66    2.84   4
   0  14 -10    2.77    2.71   3
   0  14  10    0.44    2.87   4
  -1 -14 -10    4.20    4.39   3
  -1  14 -10    4.29    2.29   4
   1  14  10    9.70    4.15   3
  -1  14 -10    4.26    5.18   2
  -4   0  11    6.62    4.12   3
   4   0 -11    1.37    4.36   3
   3   0 -11    1.73    3.42   4
   3   0 -11   -0.11    2.67   4
   3   0 -11    6.35    4.25   3
  -3   0  11    7.08    3.16   4
  -3   0  11   11.04    3.68   3
  -3   0  11    2.22    2.63   2
   2   0 -11    0.05    2.62   3
  -2   0  11   -0.92    1.93   4
  -2   0  11    4.26    2.29   3
   2   0 -11    2.00    2.67   4
  -2   0  11    0.12    1.37   2
   2   0 -11    0.65    2.05   4
   1   0 -11   -0.45    1.71   3
  -1   0  11   -2.20    1.11   4
   1   0 -11    1.16    1.62   4
   1   0 -11   -2.59    1.78   4
   1   0 -11   -1.02    1.59   3
  -1   0  11   -1.09    1.27   3
  -1   0  11   -0.92    1.21   4
   0   0 -11    2.56    1.45   4
   0   0  11    1.71    1.28   3
   0   0  11    1.88    1.34   4
   0   0 -11    2.46    1.61   2
   0   0 -11    2.96    1.37   4
   0   0 -11    2.89    1.47   3
   0   0  11    1.74    1.24   3
   0   0  11    1.30    1.22   4
   0   0 -11    2.10    1.37   3
  -1   0 -11    3.99    1.58   4
   1   0  11    2.99    1.22   3
   1   0  11    1.69    1.37   3
  -1   0 -11    1.81    1.28   4
  -1   0 -11    3.98    1.50   3
  -2   0 -11    3.81    1.77   3
  -2   0 -11    4.66    3.07   1
  -2   0 -11    4.27    1.91   4
  -2   0 -11    4.22    1.67   4
  -2   0 -11    2.36    1.82   3
   2   0  11    3.47    1.87   3
   2   0  11    3.83    1.59   4
  -3   0 -11    0.00    3.59   1
  -4   0 -11    1.42    3.89   3
  -4   0 -11    7.89    5.75   1
  -4   0 -11   -2.65    3.41   4
  -4  -1  11   53.50    6.74   3
   4  -1 -11   58.14    7.14   3
  -4   1  11   49.49    6.46   3
   4   1 -11   48.12    6.83   3
   3  -1 -11   81.18    6.59   4
  -3  -1  11   88.75    6.46   4
  -3  -1  11   83.23    6.63   3
   3  -1 -11   90.15    6.78   3
  -3   1  11   86.94    6.55   3
  -3   1  11   79.36    6.53   2
   3   1 -11   86.42    6.87   3
   3   1 -11   86.18    6.95   4
   3   1 -11   73.18    6.33   4
  -3   1  11   81.41    6.30   4
   2  -1 -11  405.70   17.37   3
   2  -1 -11  425.14   17.47   4
  -2  -1  11  419.03   16.07   2
  -2  -1  11  419.36   17.19   4
  -2  -1  11  414.03   17.26   3
  -2  -1  11  404.16   15.86   2
   2  -1 -11  394.13   17.33   4
   2   1 -11  408.75   17.45   4
  -2   1  11  401.37   17.28   4
  -2   1  11  417.90   16.81   2
   2   1 -11  384.10   17.34   4
  -2   1  11  445.67   17.45   3
   2   1 -11  441.19   17.50   3
  -2   1  11  412.90   17.20   4
   1  -1 -11    0.09    2.03   3
  -1  -1  11    0.69    1.51   4
   1  -1 -11    0.23    1.46   4
  -1  -1  11    0.80    0.94   4
   1  -1 -11   -0.49    1.87   4
   1  -1 -11   -0.60    1.59   3
  -1  -1  11    2.99    1.60   3
   1   1 -11    0.06    1.43   4
   1   1 -11   -1.11    1.78   3
   1   1 -11   -0.84    1.71   3
  -1   1  11    0.24    1.49   3
  -1   1  11   -0.34    1.35   4
  -1   1  11   -2.14    1.44   2
  -1   1  11   -0.82    1.29   4
   1   1 -11   -0.53    1.99   4
   0  -1  11  383.97   15.24   4
   0  -1 -11  386.95   15.52   3
   0  -1 -11  401.70   15.63   4
   0  -1 -11  389.88   15.65   4
   0  -1  11  376.86   15.24   3
   0  -1 -11  402.99   16.16   2
   0  -1  11  403.02   15.30   4
   0  -1 -11  399.92   15.62   3
   0  -1  11  420.61   15.33   3
   0   1 -11  395.59   15.34   4
   0   1  11  414.63   15.62   4
   0   1  11  406.91   15.64   3
   0   1 -11  381.67   15.35   4
   0   1  11  377.59   15.57   4
   0   1  11  387.20   15.46   3
   0   1 -11  375.63   15.71   2
   0   1 -11  379.33   15.31   3
   0   1 -11  390.93   15.32   3
   1  -1  11   11.30    1.50   4
  -1  -1 -11   12.76    2.08   3
  -1  -1 -11   10.84    3.14   2
  -1  -1 -11   13.20    2.12   3
  -1  -1 -11   13.32    2.10   4
  -1  -1 -11   10.80    2.93   1
  -1  -1 -11   11.16    2.03   4
   1  -1  11   17.78    1.86   3
   1  -1  11   14.84    1.75   3
   1   1  11   14.82    2.07   4
   1   1  11   10.84    1.92   3
  -1   1 -11   16.20    2.02   3
  -1   1 -11   13.50    1.78   3
  -1   1 -11   12.62    1.84   4
  -1   1 -11   14.25    1.94   4
  -2  -1 -11    6.67    2.21   4
  -2  -1 -11    7.44    3.62   1
   2  -1  11    3.93    1.82   3
  -2  -1 -11    3.71    1.87   4
  -2  -1 -11    6.88    2.25   3
  -2  -1 -11    3.98    1.97   3
   2  -1  11    5.56    1.63   4
  -2   1 -11    8.27    3.62   1
  -2   1 -11    4.13    1.79   3
   2   1  11   -0.32    1.81   3
  -2   1 -11    3.49    1.69   3
  -2   1 -11    6.27    1.91   4
   2   1  11    3.13    1.72   4
  -2   1 -11    2.39    1.76   4
  -3  -1 -11    0.95    2.24   4
  -3  -1 -11    8.77    4.47   1
  -3   1 -11    0.12    3.47   1
  -3   1 -11    2.97    2.90   3
  -3   1 -11   -0.95    2.12   4
  -4  -1 -11    9.02    6.07   1
  -4  -1 -11    7.33    4.02   4
  -4  -1 -11    7.23    4.40   3
  -4   1 -11    5.71    3.59   4
  -4   1 -11    8.59    4.22   3
  -4   1 -11   10.92    5.73   1
   4  -2 -11   26.76    5.51   3
  -4  -2  11   26.89    5.76   3
   4   2 -11   27.67    5.83   3
  -4   2  11   29.13    7.23   2
  -4   2  11   20.54    5.08   4
  -4   2  11   28.00    5.23   3
   3  -2 -11    9.62    3.78   3
  -3  -2  11    7.35    3.48   3
   3  -2 -11    5.98    3.52   4
  -3  -2  11    2.09    2.87   4
  -3   2  11    4.40    3.12   4
   3   2 -11    4.06    4.07   3
   3   2 -11    8.19    3.95   4
   3   2 -11    9.78    3.34   4
  -3   2  11    4.16    3.07   3
  -3   2  11    6.88    3.28   2
  -2  -2  11    6.58    2.46   4
   2  -2 -11   12.92    3.18   4
   2  -2 -11   13.65    3.17   3
   2  -2 -11   15.15    2.90   4
  -2  -2  11   12.32    1.57   2
  -2  -2  11   13.29    3.21   3
  -2  -2  11   10.45    1.25   2
  -2   2  11   10.78    2.57   2
  -2   2  11   17.11    2.91   4
  -2   2  11   12.32    2.83   3
   2   2 -11    7.56    2.83   3
  -2   2  11   14.07    2.89   4
   2   2 -11   12.94    2.95   4
   2   2 -11   15.80    3.48   4
   2   2 -11    9.73    3.14   3
  -1  -2  11   90.94    4.74   4
   1  -2 -11   91.85    5.24   4
   1  -2 -11   96.63    5.40   4
   1  -2 -11   85.33    5.33   3
  -1  -2  11  103.09    5.03   3
   1  -2 -11   83.82    4.99   2
   1  -2 -11   98.09    5.33   3
   1   2 -11   87.70    5.26   3
   1   2 -11   92.35    5.26   4
  -1   2  11   89.51    5.19   3
  -1   2  11   91.93    5.43   2
   1   2 -11   97.85    5.30   4
  -1   2  11  101.71    5.37   4
   1   2 -11   90.10    5.21   3
  -1   2  11   85.70    4.97   4
   0  -2 -11 1066.74   39.34   3
   0  -2  11 1105.83   38.77   3
   0  -2 -11 1055.21   39.36   4
   0  -2  11  987.34   38.72   3
   0  -2 -11 1040.02   40.07   2
   0  -2  11 1011.65   38.63   4
   0  -2 -11 1091.97   39.37   3
   0  -2 -11 1004.22   39.33   4
   0   2  11 1087.14   39.35   4
   0   2  11 1078.74   40.69   2
   0   2 -11 1035.34   38.86   3
   0   2  11 1007.12   39.28   3
   0   2 -11 1082.93   38.81   3
   0   2 -11 1014.22   38.82   4
   0   2 -11 1026.68   38.84   4
   0   2  11 1085.75   39.43   4
  -1  -2 -11    0.90    1.66   3
   1  -2  11    0.78    0.53   3
   1  -2  11   -0.03    0.65   4
  -1  -2 -11   -0.18    1.47   4
  -1  -2 -11    1.38    1.50   4
  -1  -2 -11   -0.40    1.47   3
  -1  -2 -11   -5.08    2.11   2
   1  -2  11    1.86    0.93   3
  -1  -2 -11    2.51    2.46   1
  -1   2 -11    0.86    1.06   3
  -1   2 -11   -0.66    1.03   4
   1   2  11    0.24    1.49   3
  -1   2 -11    0.99    1.09   4
   1   2  11    0.76    1.49   4
  -1   2 -11    1.67    1.06   3
  -2  -2 -11   86.41    5.64   3
  -2  -2 -11   90.02    5.25   3
  -2  -2 -11   87.16    7.22   1
  -2  -2 -11   83.55    5.16   4
  -2  -2 -11   95.05    5.63   4
   2   2  11   91.51    5.55   3
  -2   2 -11   84.53    6.80   1
   2   2  11   90.85    5.30   4
  -2   2 -11   88.59    4.93   4
  -2   2 -11   95.60    4.75   4
  -2   2 -11   78.90    4.67   3
  -2   2 -11   84.09    4.49   3
  -3  -2 -11  276.23   13.55   3
  -3  -2 -11  248.06   15.22   1
  -3  -2 -11  283.34   13.86   4
  -3   2 -11  314.67   12.69   4
  -3   2 -11  296.92   13.17   4
   3   2  11  292.89   13.62   3
  -3   2 -11  279.80   15.47   1
  -3   2 -11  306.77   13.26   3
  -4  -2 -11   -1.23    4.05   3
  -4  -2 -11    1.09    3.45   4
  -4  -2 -11   -1.74    4.85   1
  -4   2 -11    8.74    5.23   1
  -4   2 -11    2.08    3.44   4
  -4   2 -11   -0.79    3.52   3
  -4  -3  11   95.47    8.41   3
   4  -3 -11  104.77    8.58   3
  -4   3  11  107.81    8.61   3
   4   3 -11  112.67    8.79   3
  -4   3  11   91.92    9.51   2
  -4   3  11   92.08    7.89   4
  -3  -3  11    2.29    3.05   3
  -3  -3  11    0.95    3.15   4
   3  -3 -11    4.87    3.32   4
   3  -3 -11    4.02    3.46   3
  -3   3  11    3.41    3.29   2
   3   3 -11   -3.06    3.30   3
  -3   3  11    5.41    3.15   3
  -3   3  11    1.09    2.85   4
   3   3 -11    5.48    3.76   4
  -3   3  11   -2.29    2.62   4
   2  -3 -11    2.47    2.71   3
   2  -3 -11   -0.47    2.02   4
  -2  -3  11   -2.69    1.83   4
  -2  -3  11    1.27    2.20   3
  -2  -3  11    1.57    0.86   2
   2  -3 -11    1.19    2.52   4
   2   3 -11   -0.54    2.08   4
   2   3 -11   -1.97    2.26   3
   2   3 -11    4.32    2.83   3
  -2   3  11    5.48    2.43   4
  -2   3  11    2.66    2.32   3
  -2   3  11    2.21    2.40   2
   2   3 -11    0.76    3.02   4
  -2   3  11    0.58    1.82   4
   1  -3 -11  884.58   36.20   3
  -1  -3  11  950.67   35.81   3
   1  -3 -11  936.41   36.69   2
   1  -3 -11  969.05   36.40   4
   1  -3 -11  980.77   36.33   4
  -1  -3  11  922.59   35.62   4
   1  -3 -11  942.29   36.18   3
  -1   3  11  974.30   36.83   2
  -1   3  11  991.28   36.42   4
   1   3 -11  995.72   36.06   3
  -1   3  11  945.04   36.18   3
   1   3 -11  972.16   36.18   4
   1   3 -11  946.27   36.19   3
  -1   3  11  922.88   36.17   4
   1   3 -11  965.51   36.14   4
   0  -3  11    0.02    0.84   3
   0  -3 -11   -1.06    1.53   2
   0  -3 -11    3.97    1.97   3
   0  -3  11    0.19    0.88   4
   0  -3 -11   -0.84    1.62   4
   0  -3  11   -0.99    1.04   3
   0  -3 -11   -0.43    1.41   4
   0  -3 -11    2.61    1.65   3
   0   3  11   -1.55    1.18   4
   0   3 -11    0.60    1.34   4
   0   3  11   -0.02    1.54   4
   0   3  11   -0.51    1.54   3
   0   3 -11    2.38    1.38   3
   0   3 -11    0.01    1.16   3
   0   3  11    1.82    2.96   2
   0   3 -11    1.01    1.22   4
  -1  -3 -11  263.61   11.87   4
  -1  -3 -11  274.20   11.65   3
   1  -3  11  274.59   10.33   3
  -1  -3 -11  276.07   11.84   4
  -1  -3 -11  289.11   12.80   1
  -1  -3 -11  275.56   11.88   3
   1  -3  11  268.05   10.30   3
   1   3  11  271.76   11.75   3
  -1   3 -11  276.37   10.59   3
  -1   3 -11  280.41   10.63   3
  -1   3 -11  273.84   10.75   4
  -1   3 -11  272.32   10.72   4
  -2  -3 -11    3.68    3.34   1
  -2  -3 -11    1.71    2.19   4
  -2  -3 -11    0.35    1.97   3
   2  -3  11   -0.09    1.15   3
  -2  -3 -11    0.97    2.33   3
  -2  -3 -11   -1.30    1.97   4
   2  -3  11    1.00    1.06   3
  -2   3 -11   -1.24    3.13   1
   2   3  11   -0.73    1.95   3
  -2   3 -11   -2.30    1.32   4
   2   3  11    0.10    1.74   4
  -2   3 -11    2.28    1.49   4
  -2   3 -11   -0.27    1.29   3
  -3  -3 -11   44.84    7.21   1
  -3  -3 -11   52.80    5.71   4
  -3  -3 -11   42.03    4.96   3
  -3   3 -11   56.59    7.67   1
  -3   3 -11   43.30    4.04   4
   3   3  11   46.85    5.16   3
  -3   3 -11   43.75    4.52   4
  -3   3 -11   54.52    5.00   3
  -4  -3 -11   17.36    5.39   3
  -4  -3 -11   15.14    6.30   1
  -4  -3 -11   18.37    4.77   4
  -4   3 -11   12.23    3.92   3
  -4   3 -11   13.18    5.96   1
  -4   3 -11    8.63    3.78   4
   4  -4 -11   35.23    5.78   3
  -4  -4  11   53.21    7.04   3
  -4   4  11   37.71    5.57   4
  -4   4  11   33.57    5.49   3
   4   4 -11   50.63    7.21   3
  -4   4  11   33.66    6.42   2
   3  -4 -11   47.83    5.49   3
  -3  -4  11   45.53    5.53   3
   3  -4 -11   50.40    5.34   4
   3   4 -11   44.97    5.82   4
  -3   4  11   56.87    6.42   2
  -3   4  11   47.94    5.27   3
   3   4 -11   42.76    5.75   3
  -3   4  11   50.95    5.41   4
   2  -4 -11   69.41    5.33   3
   2  -4 -11   74.34    5.29   4
   2  -4 -11   65.30    5.02   4
  -2  -4  11   64.46    3.52   2
  -2  -4  11   75.92    5.45   3
   2   4 -11   74.73    5.46   4
  -2   4  11   77.33    5.26   4
   2   4 -11   66.52    5.64   3
  -2   4  11   69.70    6.07   2
  -2   4  11   71.84    5.22   3
  -2   4  11   66.74    5.01   4
   2   4 -11   66.65    5.86   4
   2   4 -11   71.47    5.58   3
   1  -4 -11    7.39    2.22   4
   1  -4 -11    4.81    2.58   3
  -1  -4  11    7.56    1.90   3
   1  -4 -11    5.60    2.14   2
   1  -4 -11    8.06    2.16   4
  -1  -4  11    8.69    1.68   4
  -1   4  11    4.59    2.03   4
   1   4 -11    5.67    2.19   3
  -1   4  11    4.57    1.90   4
   1   4 -11    5.43    2.21   3
  -1   4  11    7.96    2.20   3
   1   4 -11    3.03    2.30   4
  -1   4  11    9.86    3.05   2
   1   4 -11    4.01    2.15   4
   0  -4 -11   36.61    3.39   3
   0  -4  11   30.77    2.25   3
   0  -4 -11   35.46    3.21   4
   0  -4 -11   36.49    3.37   4
   0  -4  11   32.91    1.69   4
   0  -4 -11   38.24    3.65   3
   0  -4 -11   35.83    3.93   2
   0   4 -11   36.56    2.63   4
   0   4  11   40.56    3.55   3
   0   4 -11   34.59    2.67   3
   0   4  11   38.34    3.34   4
   0   4 -11   37.65    3.29   2
   0   4  11   49.72    5.93   2
   0   4 -11   35.34    2.64   4
   0   4 -11   37.00    2.47   3
   0   4  11   32.05    3.00   4
  -1  -4 -11   61.94    4.30   3
  -1  -4 -11   73.53    4.93   3
  -1  -4 -11   66.78    4.65   4
  -1  -4 -11   69.05    4.58   4
  -1  -4 -11   73.05    5.50   1
  -1   4 -11   63.71    2.92   3
  -1   4 -11   65.50    3.12   4
   1   4  11   72.80    4.75   4
   1   4  11   69.83    7.52   2
  -1   4 -11   66.01    3.01   3
  -1   4 -11   63.43    3.14   4
   1   4  11   65.14    4.54   3
  -2  -4 -11  336.80   16.97   1
  -2  -4 -11  369.83   15.63   4
  -2  -4 -11  374.69   16.07   3
  -2  -4 -11  371.31   16.08   4
   2   4  11  366.42   15.88   3
  -2   4 -11  353.94   13.98   3
  -2   4 -11  379.29   17.34   1
  -2   4 -11  391.08   14.29   4
  -2   4 -11  359.12   14.29   3
  -3  -4 -11   12.07    3.56   3
  -3  -4 -11    7.29    3.21   4
  -3  -4 -11    7.21    5.14   1
  -3   4 -11   11.30    2.87   4
  -3   4 -11   11.77    2.50   4
  -3   4 -11   11.80    2.84   3
   3   4  11   10.62    3.65   3
  -3   4 -11   13.04    4.98   1
  -4  -4 -11   50.22    7.40   3
  -4  -4 -11   40.69    6.22   4
  -4  -4 -11   21.08    6.77   1
  -4   4 -11   32.57    7.31   1
  -4   4 -11   35.32    4.98   4
  -4   4 -11   30.70    4.52   3
   4  -5 -11   17.34    4.83   3
  -4  -5  11   22.00    5.34   3
  -4   5  11   14.16    4.46   4
   4   5 -11   21.16    5.84   3
  -4   5  11   17.86    5.58   2
  -4   5  11   30.48    5.23   3
  -3  -5  11   -1.07    3.44   3
   3  -5 -11    0.73    3.47   3
  -3   5  11   -0.97    3.40   2
  -3   5  11    5.95    3.61   3
  -3   5  11    5.55    3.02   4
   3   5 -11    5.92    3.98   3
   3   5 -11    7.41    3.87   4
   2  -5 -11   21.42    3.58   3
  -2  -5  11   22.48    3.73   3
   2  -5 -11   22.30    3.54   4
  -2  -5  11   15.30    2.09   2
  -2  -5  11   24.73    3.46   4
   2   5 -11   17.35    3.76   3
  -2   5  11   22.38    3.68   3
  -2   5  11   21.09    3.46   4
   2   5 -11   20.25    3.84   3
  -2   5  11   14.59    3.19   4
   2   5 -11   19.80    3.78   4
  -2   5  11   24.53    4.72   2
   2   5 -11   18.81    3.90   4
   1  -5 -11   49.46    4.20   4
  -1  -5  11   48.34    3.50   3
   1  -5 -11   52.47    4.52   3
   1  -5 -11   52.70    4.13   4
   1  -5 -11   45.70    4.62   2
  -1  -5  11   48.04    3.19   4
  -1   5  11   52.83    4.03   4
   1   5 -11   41.98    2.93   2
   1   5 -11   46.45    3.95   4
  -1   5  11   48.71    5.59   2
   1   5 -11   49.58    3.96   3
  -1   5  11   51.38    4.01   3
   1   5 -11   42.49    3.65   4
  -1   5  11   45.78    3.86   4
   1   5 -11   48.20    3.84   3
   0  -5  11    7.35    1.05   3
   0  -5 -11    7.65    2.28   4
   0  -5  11    7.00    1.15   3
   0  -5 -11    7.80    2.07   4
   0  -5 -11    7.41    2.72   2
   0  -5 -11    5.46    2.32   3
   0   5  11   10.43    4.21   2
   0   5 -11    7.00    2.15   2
   0   5 -11    7.46    1.62   3
   0   5  11    8.36    2.15   4
   0   5 -11    6.66    1.65   4
   0   5 -11    8.46    1.52   3
   0   5  11    5.94    2.13   4
   0   5  11    8.14    2.22   3
   0   5 -11    4.60    1.53   4
  -1  -5 -11   39.73    4.05   4
  -1  -5 -11   41.63    3.95   4
  -1  -5 -11   46.83    4.05   3
  -1  -5 -11   45.55    4.94   1
   1   5  11   42.65    3.96   3
  -1   5 -11   37.89    2.07   4
   1   5  11   48.38    7.08   2
   1   5  11   27.75    3.61   4
  -1   5 -11   42.16    2.02   4
  -2  -5 -11    2.18    2.87   3
  -2  -5 -11    3.68    2.41   4
  -2  -5 -11   -0.27    3.26   1
  -2  -5 -11   -0.38    2.22   4
  -2   5 -11    6.74    3.51   1
  -2   5 -11    0.88    1.14   4
  -2   5 -11   -1.27    0.87   3
   2   5  11    2.52    2.61   3
   2   5  11    2.03    2.21   4
  -2   5 -11   -0.75    1.29   4
  -3  -5 -11   -0.89    4.18   1
  -3  -5 -11    3.41    3.60   4
  -3  -5 -11    1.16    3.17   3
  -3   5 -11    1.43    2.28   4
  -3   5 -11   -1.18    1.89   4
  -3   5 -11   -0.28    1.99   3
  -3   5 -11    5.69    4.48   1
   3   5  11    0.57    2.95   3
  -4  -5 -11    6.89    4.71   4
  -4  -5 -11   11.41    6.44   1
  -4  -5 -11   11.28    5.66   3
  -4   5 -11   11.78    3.96   4
  -4   5 -11    8.96    5.23   1
  -4   5 -11   13.22    3.32   3
  -4  -6  11   25.24    5.47   3
   4  -6 -11   22.44    5.49   3
   4   6 -11   23.37    6.27   3
   4   6 -11   28.47    7.88   4
  -4   6  11   17.96    5.89   2
  -4   6  11   27.24    5.03   4
  -4   6  11   30.78    5.30   3
  -3  -6  11   57.93    6.19   3
   3  -6 -11   57.95    6.13   3
   3   6 -11   49.90    6.54   3
  -3   6  11   58.51    7.11   2
  -3   6  11   59.77    6.11   4
   3   6 -11   67.98    6.87   4
  -3   6  11   56.72    5.97   3
  -2  -6  11   78.22    6.85   4
   2  -6 -11   73.45    5.66   4
   2  -6 -11   83.68    6.20   3
  -2  -6  11   72.67    5.49   3
  -2   6  11   79.36    7.49   2
  -2   6  11   77.60    5.71   4
  -2   6  11   83.41    6.02   3
   2   6 -11   75.48    6.04   4
   2   6 -11   72.89    5.66   4
  -2   6  11   69.76    5.46   4
   2   6 -11   77.94    5.93   3
   1  -6 -11  207.28    9.83   4
   1  -6 -11  215.16    9.74   3
  -1  -6  11  199.88    8.86   3
  -1  -6  11  197.23    8.53   4
   1  -6 -11  185.22    9.50   4
  -1   6  11  199.76   11.34   2
  -1   6  11  190.70    9.51   4
   1   6 -11  211.23    9.31   3
  -1   6  11  209.86    9.68   3
   1   6 -11  201.48    9.38   4
   1   6 -11  213.67    9.45   4
   1   6 -11  185.83    8.93   2
  -1   6  11  201.05    9.65   4
   0  -6 -11  306.47   12.79   4
   0  -6 -11  286.43   12.74   4
   0  -6 -11  277.88   12.61   3
   0  -6  11  279.62   10.80   3
   0  -6  11  285.25   10.80   3
   0   6  11  295.57   12.71   3
   0   6  11  307.96   12.83   4
   0   6  11  273.56   12.51   4
   0   6 -11  280.52   11.51   4
   0   6 -11  286.30   13.00   2
   0   6 -11  294.79   11.62   4
   0   6  11  283.29   14.82   2
   0   6 -11  296.23   11.30   3
  -1  -6 -11  395.40   16.23   4
  -1  -6 -11  370.54   16.09   3
  -1  -6 -11  388.52   16.48   1
  -1  -6 -11  397.90   16.22   4
   1   6  11  390.07   16.23   3
   1   6  11  315.92   15.73   4
   1   6  11  367.84   20.19   2
  -1   6 -11  381.78   17.55   2
  -2  -6 -11  198.66   10.76   4
  -2  -6 -11  221.32   10.93   4
  -2  -6 -11  207.27   11.78   1
  -2  -6 -11  226.10   11.27   3
  -2   6 -11  201.24   11.49   1
  -2   6 -11  216.32    8.26   4
   2   6  11  218.40   10.98   3
  -2   6 -11  210.41    8.37   4
  -3  -6 -11   -3.64    2.61   4
  -3  -6 -11   -3.47    4.42   1
  -3  -6 -11    6.86    4.07   3
  -3   6 -11    0.81    3.54   1
  -3   6 -11    0.55    2.00   4
  -3   6 -11   -1.47    1.42   3
   3   6  11    0.47    3.29   3
  -3   6 -11    0.03    1.84   4
  -4  -7  11   59.89    7.20   3
  -4   7  11   45.50    6.11   3
  -4   7  11   50.13    6.39   4
  -4   7  11   36.57    7.47   2
   4   7 -11   52.29    7.85   3
   4   7 -11   58.15    9.54   4
   3  -7 -11   16.73    4.36   3
  -3  -7  11   12.60    3.91   3
  -3   7  11   12.34    4.76   2
   3   7 -11    5.50    4.18   4
   3   7 -11    8.97    4.36   3
  -3   7  11    9.13    3.70   3
  -3   7  11    8.50    3.61   4
   2  -7 -11   11.55    3.71   3
  -2  -7  11   12.49    3.35   3
   2  -7 -11   14.46    3.26   4
  -2   7  11   10.05    2.98   4
   2   7 -11   15.43    3.30   3
  -2   7  11   14.96    4.69   2
   2   7 -11   13.98    3.75   4
  -2   7  11   10.20    3.14   4
   2   7 -11   15.21    3.71   3
  -2   7  11   10.79    3.19   3
  -1  -7  11  356.49   13.93   3
   1  -7 -11  337.84   14.63   3
  -1  -7  11  343.86   13.44   4
   1  -7 -11  326.47   14.05   1
   1  -7 -11  325.19   14.52   4
   1   7 -11  328.51   14.23   4
  -1   7  11  327.19   16.70   2
   1   7 -11  341.33   14.32   4
   1   7 -11  351.57   14.23   3
  -1   7  11  356.04   14.92   4
   1   7 -11  341.25   14.60   2
  -1   7  11  326.39   14.71   4
   1   7 -11  303.74   13.91   3
  -1   7  11  334.75   14.73   3
   0  -7 -11   24.09    3.10   1
   0  -7 -11   23.08    3.20   4
   0  -7  11   21.60    1.20   3
   0  -7 -11   25.19    3.41   4
   0  -7 -11   21.70    3.47   3
   0   7 -11   22.34    3.81   2
   0   7 -11   23.02    2.34   3
   0   7  11   23.10    3.27   4
   0   7 -11   19.89    2.01   3
   0   7  11   29.36    3.77   3
   0   7  11   22.95    3.39   4
   0   7 -11   18.54    2.38   4
  -1  -7 -11  177.72    9.34   4
  -1  -7 -11  188.74    9.61   1
  -1  -7 -11  189.38    9.51   3
  -1  -7 -11  193.09    9.47   4
   1   7  11  191.47    9.49   3
   1   7  11  173.16   13.65   2
  -1   7 -11  191.69   11.13   2
   1   7  11  161.51    9.10   4
  -2  -7 -11   21.85    4.91   1
  -2  -7 -11   17.44    3.76   4
  -2  -7 -11   19.02    4.08   3
  -2   7 -11   21.36    4.33   1
   2   7  11   13.67    3.64   3
  -3  -7 -11    9.49    3.75   4
  -3  -7 -11    7.62    3.99   3
  -3  -7 -11   12.84    5.66   1
   3   7  11    5.92    4.00   3
  -3   7 -11    9.97    4.51   1
  -3   7 -11    7.93    2.01   4
  -3   7 -11    6.05    1.90   4
   3  -8 -11   12.36    4.24   3
  -3  -8  11   10.08    3.81   3
   3   8 -11   19.94    5.12   4
  -3   8  11   10.85    3.89   4
  -3   8  11   14.67    4.22   3
  -3   8  11    8.64    5.30   2
   3   8 -11   13.34    4.71   3
   2  -8 -11   73.93    6.06   3
  -2  -8  11   66.18    5.51   3
  -2   8  11   46.11    5.25   3
   2   8 -11   66.32    6.27   4
  -2   8  11   60.08    7.52   2
  -2   8  11   68.39    5.63   4
   2   8 -11   62.89    6.29   3
   1  -8 -11   94.83    6.24   4
  -1  -8  11   99.43    5.55   3
   1  -8 -11   97.87    5.70   1
  -1  -8  11   97.66    4.98   4
   1  -8 -11  103.62    6.48   3
   1   8 -11   95.68    6.74   2
  -1   8  11   93.72    6.28   4
   1   8 -11  102.22    6.25   3
  -1   8  11  107.39    9.53   2
  -1   8  11   89.96    6.18   3
   1   8 -11   97.26    5.86   4
   1   8 -11  101.35    6.20   4
   1   8 -11   92.04    5.63   3
  -1   8  11   96.55    6.13   4
   0  -8 -11  264.20   12.10   4
   0  -8 -11  252.04   12.04   3
   0  -8 -11  253.78   11.33   1
   0   8  11  278.66   15.65   2
   0   8 -11  267.17   10.75   4
   0   8 -11  262.81   10.77   4
   0   8  11  272.63   12.18   3
   0   8 -11  267.22   10.50   3
   0   8  11  240.46   11.94   4
   0   8 -11  245.31   10.22   3
   0   8  11  269.68   12.08   4
   0   8 -11  261.96   13.00   2
  -1  -8 -11   55.11    4.98   4
  -1  -8 -11   53.58    5.50   1
  -1  -8 -11   49.40    5.20   3
  -1  -8 -11   53.33    5.26   4
  -1   8 -11   55.73    5.01   1
   1   8  11   66.12    9.91   2
   1   8  11   56.66    5.67   3
   1   8  11   54.88    5.49   4
  -1   8 -11   41.46    6.04   2
  -2  -8 -11    4.06    3.79   1
  -2  -8 -11    2.82    3.24   3
  -2  -8 -11    0.76    2.88   4
  -2   8 -11   -1.34    2.53   1
   2   8  11    2.25    3.02   3
  -2   8 -11   -4.77    3.53   2
  -3  -8 -11    3.49    4.06   3
  -3  -8 -11   11.76    3.99   4
  -3  -8 -11    7.74    5.35   1
   3   8  11   -0.74    4.08   3
  -3   8 -11    3.92    1.63   4
  -3   8 -11    4.95    1.57   4
  -3   8 -11    5.74    3.63   1
   3  -9 -11   84.56    7.29   3
  -3   9  11   96.80    7.79   3
   3   9 -11   77.85    7.98   4
  -3   9  11   80.09    7.17   4
  -3   9  11  106.04   10.90   2
   3   9 -11   84.83    7.87   3
   2  -9 -11    9.29    3.38   3
  -2   9  11    9.79    3.28   4
   2   9 -11    6.63    3.61   4
  -2   9  11   18.63    6.07   2
  -2   9  11   19.69    4.08   3
   2   9 -11   18.12    3.25   2
   2   9 -11   11.63    4.19   3
   1  -9 -11   79.07    5.79   4
   1  -9 -11   90.86    6.17   3
   1   9 -11   81.78    5.76   4
   1   9 -11   91.76    5.54   4
   1   9 -11   71.86    6.74   2
   1   9 -11   80.33    5.58   3
  -1   9  11   75.82    8.99   2
  -1   9  11   82.22    5.93   4
  -1   9  11   83.59    5.98   3
  -1   9  11   79.83    5.80   4
   0  -9 -11  232.51   11.45   4
   0  -9 -11  230.48   10.57   1
   0  -9 -11  240.11   11.58   3
   0   9 -11  231.78   10.17   4
   0   9  11  248.82   11.80   3
   0   9 -11  236.81    9.87   3
   0   9 -11  234.34   10.04   4
   0   9 -11  231.52    9.52   3
   0   9  11  286.31   16.55   2
   0   9 -11  252.60   13.01   2
   0   9  11  251.51   11.65   4
   0   9  11  229.77   11.39   4
  -1  -9 -11   37.42    4.92   3
  -1  -9 -11   32.62    4.53   4
  -1  -9 -11   38.10    4.75   1
   1   9  11   63.48   10.18   2
   1   9  11   39.85    4.80   4
  -1   9 -11   39.63    4.85   1
  -1   9 -11   32.01    5.81   2
   1   9  11   41.62    5.27   3
  -2  -9 -11   -2.21    2.85   4
  -2  -9 -11    8.23    4.06   1
  -2  -9 -11    0.19    3.77   3
  -2   9 -11   -3.47    2.31   1
  -2   9 -11   -5.08    3.89   2
   2   9  11   -1.09    5.61   2
   2   9  11    4.38    3.44   3
  -3  -9 -11    2.54    4.00   3
  -3  -9 -11   -2.80    4.43   1
  -3   9 -11    2.06    5.72   2
   3   9  11    3.70    4.59   3
  -3   9 -11    1.56    3.25   1
  -3   9 -11   -1.22    1.09   4
  -3   9 -11    2.31    1.25   4
   3  10 -11    3.38    4.51   3
  -3  10  11    9.39    5.92   2
  -3  10  11   13.31    4.24   3
  -3  10  11    0.29    3.58   4
   3  10 -11   -4.56    4.26   4
   2 -10 -11   29.57    4.63   3
  -2  10  11   20.98    4.15   4
  -2  10  11   28.87    7.02   2
   2  10 -11   41.61    4.80   2
  -2  10  11   21.60    4.11   3
   2  10 -11   25.15    5.05   4
   2  10 -11   24.93    4.88   3
   1 -10 -11   24.48    4.07   3
   1  10 -11   22.75    3.52   4
   1  10 -11   23.43    3.79   4
   1  10 -11   20.73    3.81   3
  -1  10  11   22.01    3.85   3
  -1  10  11   24.43    3.94   4
  -1  10  11   22.18    6.63   2
   1  10 -11   22.13    4.85   2
   0 -10 -11  148.23    8.99   3
   0 -10 -11  190.99   10.30   4
   0  10  11  166.34    9.17   3
   0  10 -11  169.47    7.50   3
   0  10  11  167.24   13.20   2
   0  10 -11  157.21   10.49   2
   0  10  11  166.57    9.11   4
   0  10 -11  175.89    7.60   4
   0  10 -11  165.35    7.80   4
  -1 -10 -11    2.82    2.80   4
  -1 -10 -11    6.26    3.69   3
  -1 -10 -11    2.47    2.84   1
   1  10  11    2.28    2.83   4
  -1  10 -11    2.20    3.90   2
   1  10  11   18.41    8.46   2
   1  10  11    1.03    2.89   3
  -1  10 -11    2.84    2.58   1
  -2 -10 -11   -0.07    3.71   1
  -2 -10 -11   -0.14    3.46   3
   2  10  11   -5.51    6.42   2
   2  10  11    0.76    3.62   3
  -2  10 -11    1.81    2.66   1
  -2  10 -11    3.94    4.73   2
  -3 -10 -11   24.02    6.36   1
  -3 -10 -11   19.34    5.92   3
   3  10  11   19.62    5.42   3
  -3  10 -11   17.47    7.20   2
  -3  10 -11   20.91    5.16   1
  -3  11  11    5.26    3.78   4
  -3  11  11    4.00    4.50   3
  -3  11  11    4.70    6.04   2
   3  11 -11    7.24    5.08   4
   3  11 -11    1.46    5.24   3
   2 -11 -11  155.27    9.26   3
  -2  11  11  169.98    9.86   3
  -2  11  11  158.01    9.64   4
   2  11 -11  159.71   10.01   4
  -2  11  11  154.06   13.11   2
   2  11 -11  166.87    9.96   3
   1 -11 -11   -4.13    2.88   3
  -1  11  11   -0.82    2.95   3
   1  11 -11   -7.42    3.11   2
  -1  11  11   -0.02    2.39   4
  -1  11  11   -0.74    5.04   2
   1  11 -11   -0.86    3.03   3
   1  11 -11    4.44    3.05   4
   0 -11 -11   60.00    6.04   3
   0  11  11   60.88    5.40   4
   0  11  11   70.99    6.72   3
   0  11 -11   60.93    3.95   4
   0  11 -11   57.71    7.12   2
   0  11 -11   63.82    4.53   4
   0  11 -11   58.34    4.17   3
   0  11  11   61.15    9.84   2
  -1 -11 -11    6.84    3.53   3
   1  11  11   17.92    8.84   2
   1  11  11    4.61    3.15   4
   1  11  11    4.84    3.28   3
  -1  11 -11    1.80    2.50   1
  -1  11 -11    0.22    0.80   4
  -1  11 -11   -3.22    3.50   2
  -1  11 -11    1.78    1.23   4
  -2 -11 -11    1.78    3.71   3
   2  11  11    7.26    4.07   3
   2  11  11    9.77    7.66   2
  -2  11 -11    5.93    3.26   1
  -2  11 -11    6.07    5.22   2
  -2  12  11   -3.46    2.72   3
  -2  12  11    4.33    5.95   2
  -2  12  11    1.90    2.86   4
   2  12 -11    1.74    4.16   4
   2  12 -11   -4.67    3.84   3
   1 -12 -11    0.40    3.55   3
  -1  12  11   -3.39    5.52   2
   1  12 -11    1.37    3.13   4
  -1  12  11   -0.99    2.56   4
  -1  12  11    0.94    3.21   3
   1  12 -11   -5.84    3.53   2
   1  12 -11   -2.77    3.22   3
   0 -12 -11   22.03    4.73   3
   0  12  11   36.94    9.56   2
   0  12  11   24.49    4.42   3
   0  12 -11   29.95    3.38   3
   0  12  11   29.04    4.51   4
   0  12 -11   23.06    3.40   4
   0  12 -11   27.89    2.92   4
   0  12 -11   26.22    5.71   2
  -1 -12 -11    0.92    3.52   3
  -1  12 -11    0.70    2.55   1
   1  12  11    6.10    3.86   3
  -1  12 -11    0.35    3.80   2
   1  12  11   -1.04    8.22   2
  -1  12 -11   -0.27    0.97   4
  -1  12 -11    2.73    1.51   4
  -2 -12 -11   -2.75    3.57   3
  -2  12 -11   -0.44    4.90   2
   2  12  11   -4.29    7.89   2
   2  12  11    0.81    4.12   3
  -2  13  11   18.60    4.17   4
  -2  13  11   28.50    9.22   2
   2  13 -11   30.74    5.76   4
   2  13 -11   27.80    5.42   3
  -2  13  11   22.14    7.76   3
   1 -13 -11   22.52    4.72   3
  -1  13  11   43.77    5.47   4
  -1  13  11   55.66    6.30   3
   1  13 -11   41.41    7.30   2
  -1  13  11   40.46    9.49   2
   1  13 -11   45.12    5.13   3
   1  13 -11   38.96    5.12   4
   0 -13 -11   -3.56    3.27   3
   0  13 -11   -1.89    3.82   2
   0  13  11   -1.18    2.81   3
   0  13  11   -2.82    6.56   2
   0  13 -11   -1.26    2.60   4
   0  13  11   -1.06    2.57   4
   0  13 -11    1.27    3.05   3
  -1 -13 -11   49.62    6.58   3
  -1  13 -11   49.18    3.39   4
  -1  13 -11   47.50    2.96   4
   1  13  11   61.05    7.38   3
  -1  13 -11   72.29    9.14   2
   1  14 -11   -1.99    5.54   4
   1  14 -11   -1.39    3.43   3
  -1  14  11  -18.22    6.81   2
  -1  14  11   -2.34    5.53   3
  -1  14  11   -2.69    2.85   4
   0 -14 -11   88.09    7.45   3
   0  14 -11   96.00   10.52   2
   0  14  11   82.03    7.21   4
   0  14 -11   76.97    5.90   4
   0  14  11  102.34    8.07   3
  -4   0  12  152.58   10.18   3
   4   0 -12  165.29   10.97   3
   3   0 -12  123.19    8.07   3
   3   0 -12  120.86    8.07   4
  -3   0  12  105.29    7.16   2
  -3   0  12  127.53    7.70   4
   3   0 -12  113.21    7.77   4
  -3   0  12  121.23    7.81   3
   2   0 -12   41.10    4.52   4
  -2   0  12   39.56    4.11   3
   2   0 -12   37.25    4.15   4
  -2   0  12   32.83    3.82   4
  -2   0  12   30.26    2.68   2
   2   0 -12   30.18    4.14   3
   1   0 -12   18.32    2.77   3
  -1   0  12   14.81    2.30   3
   1   0 -12   14.14    2.42   4
   1   0 -12   14.59    2.53   3
   1   0 -12   14.82    2.59   4
   0   0 -12  471.94   17.59   3
   0   0 -12  438.32   17.56   4
   0   0  12  432.96   17.47   3
   0   0 -12  428.48   17.53   4
   0   0 -12  462.48   17.58   3
   0   0  12  454.28   17.53   4
   0   0 -12  447.18   17.92   2
  -1   0 -12    6.87    2.39   2
  -1   0 -12    5.10    1.76   3
  -1   0 -12    5.29    2.79   1
   1   0  12    4.73    1.59   3
   1   0  12    2.46    1.36   4
  -1   0 -12    5.39    1.71   3
  -1   0 -12    6.00    1.84   4
  -1   0 -12    5.62    1.75   4
  -2   0 -12  846.69   30.79   4
  -2   0 -12  796.52   33.07   1
   2   0  12  776.59   30.43   4
  -2   0 -12  815.43   30.95   3
  -2   0 -12  809.34   30.60   3
  -2   0 -12  813.96   31.06   4
   2   0  12  767.08   30.58   3
  -3   0 -12   12.65    4.72   1
  -3   0 -12   26.60    3.88   4
  -4   0 -12   28.24    5.22   4
  -4   0 -12   34.62    5.70   3
  -4   0 -12   25.90    6.92   1
  -4  -1  12   -1.68    3.65   3
   4  -1 -12    0.60    4.35   3
  -4   1  12   10.63    4.51   3
   4   1 -12   -4.20    4.95   3
   3  -1 -12  552.77   22.63   4
  -3  -1  12  573.24   22.79   3
   3  -1 -12  538.19   22.59   3
  -3  -1  12  500.83   21.52   2
  -3  -1  12  522.63   22.26   4
  -3   1  12  536.57   22.33   4
   3   1 -12  506.35   22.47   4
  -3   1  12  512.39   22.26   3
   3   1 -12  545.35   23.62   4
   3   1 -12  541.28   22.70   3
  -3   1  12  505.70   22.09   2
   2  -1 -12  376.07   16.50   4
   2  -1 -12  363.96   16.40   4
  -2  -1  12  385.26   16.28   3
  -2  -1  12  399.30   16.24   4
   2  -1 -12  382.90   16.39   3
  -2   1  12  398.20   16.36   3
   2   1 -12  397.01   16.63   4
  -2   1  12  390.16   16.28   4
  -2   1  12  385.16   15.69   2
   2   1 -12  374.53   16.34   3
   2   1 -12  380.52   16.56   4
   1  -1 -12  169.76    7.81   4
  -1  -1  12  161.68    7.25   3
   1  -1 -12  157.11    7.74   3
   1  -1 -12  159.43    7.54   3
   1  -1 -12  144.83    7.45   4
  -1  -1  12  152.15    7.09   4
   1   1 -12  141.69    7.42   3
   1   1 -12  158.74    7.57   4
   1   1 -12  154.23    7.51   3
  -1   1  12  149.73    7.28   4
  -1   1  12  156.19    7.19   2
   1   1 -12  156.93    7.58   4
  -1   1  12  167.35    7.56   3
   0  -1  12  221.16    9.44   3
   0  -1 -12  230.23    9.90   4
   0  -1  12  233.40    9.45   4
   0  -1 -12  236.73    9.86   3
   0  -1 -12  230.43    9.92   4
   0  -1 -12  249.30    9.95   3
   0  -1 -12  222.92   10.23   2
   0  -1  12  233.15    9.50   3
   0   1  12  227.45    9.80   3
   0   1 -12  222.02    9.52   3
   0   1 -12  233.66    9.64   4
   0   1 -12  233.11    9.63   4
   0   1  12  224.29    9.81   4
   0   1 -12  227.20    9.60   3
   0   1 -12  208.13    9.76   2
  -1  -1 -12   15.73    2.41   4
  -1  -1 -12   16.99    2.58   3
  -1  -1 -12   12.35    2.16   3
   1  -1  12   17.96    1.95   3
  -1  -1 -12   12.45    3.22   2
   1  -1  12   18.37    2.00   3
  -1  -1 -12   11.21    2.27   4
   1  -1  12   11.23    1.57   4
  -1  -1 -12   21.17    3.98   1
  -1   1 -12   15.51    2.09   4
  -1   1 -12   17.25    2.18   3
  -1   1 -12   17.57    3.20   2
  -1   1 -12   15.05    1.95   3
  -1   1 -12   17.58    2.12   4
   1   1  12   20.28    2.53   3
   1   1  12   13.05    2.06   4
  -2  -1 -12   19.69    2.84   3
  -2  -1 -12   13.34    2.50   4
  -2  -1 -12   17.06    2.97   3
  -2  -1 -12   22.34    4.77   1
   2  -1  12   14.40    2.69   4
   2  -1  12   18.15    2.48   3
  -2  -1 -12   15.98    2.87   4
   2   1  12   18.07    2.82   3
  -2   1 -12   19.23    2.64   3
  -2   1 -12   16.84    2.38   3
  -2   1 -12   19.52    4.58   1
  -2   1 -12   21.69    2.65   4
  -2   1 -12   14.97    2.60   4
   2   1  12   15.10    2.42   4
  -3  -1 -12   11.55    3.24   4
  -3  -1 -12   21.72    5.45   1
  -3   1 -12    6.30    4.55   1
  -3   1 -12   11.91    3.50   3
  -4  -1 -12    6.81    3.80   4
  -4  -1 -12   10.09    4.45   3
  -4  -1 -12    8.18    6.09   1
  -4   1 -12   12.33    4.17   4
  -4   1 -12    8.20    4.14   3
  -4   1 -12   12.29    6.31   1
  -4  -2  12    4.24    4.16   3
   4  -2 -12    9.92    4.74   3
  -4   2  12    2.26    4.08   3
   4   2 -12    7.39    5.38   3
   3  -2 -12   85.51    6.74   3
  -3  -2  12   86.39    9.75   4
  -3  -2  12   88.40    6.97   3
   3  -2 -12   78.41    6.61   4
  -3   2  12   78.24    6.70   2
  -3   2  12   82.97    6.43   3
   3   2 -12   77.76    6.83   4
  -3   2  12   78.53    6.29   4
   3   2 -12   75.62    6.74   3
   2  -2 -12    5.16    2.41   4
  -2  -2  12    3.96    2.37   3
   2  -2 -12    9.67    3.10   4
  -2  -2  12    2.75    2.21   4
   2  -2 -12    4.69    2.84   3
   2   2 -12    3.70    2.93   4
  -2   2  12    5.17    2.36   2
   2   2 -12    5.20    3.01   3
   2   2 -12    4.25    2.50   4
  -2   2  12    6.53    2.67   3
  -2   2  12    0.68    2.12   4
  -1  -2  12  149.86    7.14   4
  -1  -2  12  172.03    7.47   3
   1  -2 -12  158.56    7.83   4
   1  -2 -12  167.59    7.85   3
   1  -2 -12  167.47    7.93   4
   1  -2 -12  152.52    7.57   2
   1  -2 -12  155.52    7.82   3
  -1   2  12  161.21    7.81   4
   1   2 -12  160.54    7.56   3
   1   2 -12  156.76    7.81   4
   1   2 -12  173.06    7.91   4
   1   2 -12  154.13    7.78   3
  -1   2  12  158.85    7.64   3
  -1   2  12  156.22    7.59   4
  -1   2  12  162.21    7.97   2
   0  -2 -12  132.26    6.46   3
   0  -2  12  134.37    5.89   3
   0  -2 -12  125.82    6.99   2
   0  -2 -12  128.83    6.63   4
   0  -2  12  128.84    5.93   3
   0  -2 -12  131.60    6.58   3
   0  -2 -12  128.71    6.50   4
   0  -2  12  133.25    5.80   4
   0   2  12  132.28    6.46   3
   0   2  12  127.33    7.84   2
   0   2 -12  147.55    6.08   3
   0   2 -12  131.07    6.12   3
   0   2 -12  131.24    6.06   4
   0   2 -12  130.02    6.45   2
   0   2 -12  133.82    6.07   4
   1  -2  12   72.02    3.52   3
  -1  -2 -12   68.71    4.24   3
  -1  -2 -12   57.45    6.25   2
   1  -2  12   73.60    3.19   4
  -1  -2 -12   75.57    4.57   4
  -1  -2 -12   71.23    4.63   3
  -1  -2 -12   71.31    5.48   1
  -1  -2 -12   74.55    4.53   4
   1   2  12   74.52    4.57   3
   1   2  12   69.73    4.38   4
  -1   2 -12   73.71    3.91   4
  -1   2 -12   70.00    3.83   4
  -1   2 -12   72.09    3.74   3
  -1   2 -12   77.19    3.83   3
  -2  -2 -12   43.46    3.75   3
  -2  -2 -12   44.07    4.03   4
  -2  -2 -12   46.18    4.34   4
  -2  -2 -12   42.39    6.01   1
  -2  -2 -12   47.77    4.35   3
  -2   2 -12   47.14    3.29   4
  -2   2 -12   41.33    3.20   3
  -2   2 -12   41.72    3.38   3
  -2   2 -12   43.34    3.46   4
   2   2  12   46.93    4.11   3
  -2   2 -12   44.35    5.90   1
  -3  -2 -12   17.78    3.92   3
  -3  -2 -12   35.57    4.85   4
  -3  -2 -12   33.63    6.52   1
  -3   2 -12   32.84    4.20   4
  -3   2 -12   31.03    4.37   4
  -3   2 -12   30.05    6.07   1
  -3   2 -12   33.84    4.18   3
  -4  -2 -12   -0.56    4.91   1
  -4  -2 -12    8.27    4.36   4
  -4  -2 -12    6.27    4.57   3
  -4   2 -12    8.34    5.46   1
  -4   2 -12    5.00    3.72   3
  -4   2 -12   -2.51    3.20   4
  -4  -3  12   16.32    5.05   3
   4  -3 -12   10.22    5.17   3
   4   3 -12   12.49    5.05   3
  -4   3  12   11.88    4.41   3
  -3  -3  12  154.20    9.08   3
   3  -3 -12  165.01    9.15   3
   3  -3 -12  150.70    8.96   4
  -3   3  12  136.85    9.29   2
   3   3 -12  161.13    9.48   4
  -3   3  12  147.17    8.76   4
  -3   3  12  154.97    8.91   3
   3   3 -12  142.67    9.12   3
  -2  -3  12   83.40    5.94   3
  -2  -3  12   86.62    5.47   4
   2  -3 -12   86.91    6.04   3
   2  -3 -12   92.27    6.14   4
   2  -3 -12   87.85    5.74   4
   2   3 -12   83.40    6.09   3
  -2   3  12   93.03    6.30   2
  -2   3  12   93.03    6.26   4
   2   3 -12   91.50    6.10   4
   2   3 -12   86.25    6.21   4
  -2   3  12   89.75    5.86   4
   2   3 -12   93.58    6.50   3
  -2   3  12   96.09    6.23   3
   1  -3 -12   35.68    3.71   2
  -1  -3  12   39.92    3.17   3
   1  -3 -12   35.05    3.75   4
   1  -3 -12   39.70    3.64   4
   1  -3 -12   39.82    3.91   3
  -1  -3  12   36.36    2.86   4
  -1   3  12   45.36    4.74   2
  -1   3  12   37.48    3.36   4
   1   3 -12   40.77    3.94   4
   1   3 -12   41.13    3.52   4
   1   3 -12   42.38    3.77   3
  -1   3  12   36.88    3.41   4
   1   3 -12   46.09    4.09   3
  -1   3  12   42.81    4.01   3
   0  -3 -12  144.78    7.34   4
   0  -3 -12  154.15    8.22   2
   0  -3  12  151.88    6.46   3
   0  -3  12  156.24    6.28   4
   0  -3 -12  145.75    7.29   3
   0  -3 -12  141.71    7.30   3
   0  -3  12  151.35    6.55   3
   0  -3 -12  144.36    7.36   4
   0   3  12  157.10    9.21   2
   0   3  12  152.16    7.36   3
   0   3 -12  158.29    6.66   3
   0   3 -12  155.86    6.83   3
   0   3  12  161.77    7.48   4
   0   3 -12  152.87    6.75   4
   0   3 -12  157.05    6.79   4
   1  -3  12   19.85    1.52   3
  -1  -3 -12   28.52    4.15   1
  -1  -3 -12   22.40    2.98   4
  -1  -3 -12   23.22    3.03   4
  -1  -3 -12   23.57    3.01   3
   1  -3  12   20.47    1.59   3
  -1  -3 -12   21.99    2.86   3
  -1   3 -12   18.26    1.93   4
  -1   3 -12   22.74    1.85   3
  -1   3 -12   20.49    1.87   3
  -1   3 -12   20.30    1.94   4
   1   3  12   21.23    3.01   3
   2  -3  12    1.48    1.36   3
   2  -3  12    2.58    1.05   3
  -2  -3 -12    3.27    2.32   4
  -2  -3 -12    6.01    2.47   4
  -2  -3 -12    3.34    3.56   1
  -2  -3 -12    3.08    2.59   3
  -2  -3 -12    3.16    1.97   3
   2   3  12    5.91    2.67   3
  -2   3 -12    4.79    3.60   1
   2   3  12    5.15    2.51   4
  -2   3 -12    3.73    1.60   4
  -2   3 -12    4.06    1.48   3
  -2   3 -12    1.83    1.61   4
  -3  -3 -12   51.83    5.62   3
  -3  -3 -12   51.58    7.58   1
  -3  -3 -12   66.27    6.50   4
  -3   3 -12   55.29    7.75   1
  -3   3 -12   55.56    5.03   3
  -3   3 -12   51.64    4.29   4
  -3   3 -12   53.32    4.85   4
  -4  -3 -12   14.35    4.75   4
  -4  -3 -12   13.34    5.14   3
  -4  -3 -12   21.23    6.64   1
  -4   3 -12   17.90    4.11   3
  -4   3 -12   19.63    6.26   1
  -4   3 -12   18.86    4.25   4
   4  -4 -12   11.47    4.64   3
  -4  -4  12   18.40    4.87   3
   4   4 -12   17.80    5.47   3
  -4   4  12    8.51    4.30   3
  -3  -4  12    8.71    3.61   3
   3  -4 -12   14.50    4.11   3
   3  -4 -12    9.38    4.58   4
  -3   4  12    8.46    3.19   4
   3   4 -12   14.40    4.36   4
   3   4 -12   15.15    4.43   3
  -3   4  12   12.93    4.11   2
  -3   4  12    7.51    3.41   3
   2  -4 -12   48.83    4.88   4
  -2  -4  12   37.72    4.50   3
   2  -4 -12   49.67    4.96   3
   2  -4 -12   52.67    4.91   4
  -2   4  12   46.36    4.88   4
   2   4 -12   40.11    4.90   4
  -2   4  12   46.78    4.44   4
  -2   4  12   41.40    4.46   3
   2   4 -12   46.33    4.93   3
   2   4 -12   48.21    4.99   4
   2   4 -12   42.52    5.08   3
  -2   4  12   43.68    5.09   2
   1  -4 -12   13.68    2.82   4
   1  -4 -12    9.42    2.70   3
   1  -4 -12    9.56    2.59   2
  -1  -4  12   10.28    2.01   3
   1  -4 -12    8.20    2.34   4
  -1  -4  12   12.80    1.85   4
   1   4 -12    9.39    2.57   3
  -1   4  12    9.65    2.38   3
   1   4 -12   11.54    2.70   4
  -1   4  12   15.21    2.71   4
  -1   4  12   13.14    3.34   2
   1   4 -12   11.59    2.52   3
   1   4 -12    8.68    2.23   4
  -1   4  12   11.87    2.38   4
   0  -4 -12   67.67    4.57   3
   0  -4  12   63.30    2.79   4
   0  -4 -12   63.69    5.07   2
   0  -4  12   65.37    3.40   3
   0  -4 -12   69.06    4.60   4
   0  -4 -12   60.59    4.39   4
   0  -4 -12   76.16    4.57   3
   0   4 -12   67.16    4.44   2
   0   4 -12   64.39    3.70   4
   0   4 -12   68.66    3.59   3
   0   4  12   68.71    4.53   4
   0   4  12   63.02    7.27   2
   0   4 -12   64.75    3.77   3
   0   4 -12   61.92    3.73   4
   0   4  12   67.38    4.48   3
  -1  -4 -12  970.07   36.20   3
  -1  -4 -12  935.47   36.36   4
  -1  -4 -12  955.84   36.38   4
  -1  -4 -12  923.99   36.31   3
  -1  -4 -12  978.97   37.14   1
   1   4  12  867.68   36.15   3
  -1   4 -12  952.05   34.67   3
  -1   4 -12  996.16   34.67   3
   1   4  12  965.38   36.33   4
  -1   4 -12  953.78   34.81   4
  -1   4 -12  906.16   34.83   4
  -2  -4 -12  131.54    9.04   1
  -2  -4 -12  130.54    7.46   4
  -2  -4 -12  147.80    8.06   3
  -2  -4 -12  141.36    8.00   4
  -2   4 -12  136.23    6.40   4
   2   4  12  143.63    7.80   3
  -2   4 -12  133.75    5.93   3
  -2   4 -12  148.83    6.36   3
  -2   4 -12  145.05    6.24   4
  -2   4 -12  142.18    9.37   1
  -3  -4 -12    0.15    4.33   1
  -3  -4 -12    2.87    3.09   4
  -3  -4 -12   -0.40    3.06   3
   3   4  12    0.65    3.21   3
  -3   4 -12   -1.28    1.97   4
  -3   4 -12   -0.93    2.16   3
  -3   4 -12    6.39    4.60   1
  -3   4 -12    0.79    2.35   4
  -4  -4 -12   35.71    6.39   4
  -4  -4 -12   30.09    7.65   1
  -4  -4 -12   36.78    7.64   3
  -4   4 -12   38.17    4.66   3
  -4   4 -12   28.55    7.12   1
  -4   4 -12   27.15    6.22   4
  -4  -5  12   33.86    5.83   3
   4  -5 -12   23.27    5.81   3
  -4   5  12   35.64    5.92   3
  -4   5  12   42.07    7.68   4
   4   5 -12   45.69   10.44   4
   4   5 -12   37.20    6.95   3
  -3  -5  12   23.91    4.79   3
   3  -5 -12   11.76    4.37   3
  -3   5  12   17.59    4.68   2
  -3   5  12   22.61    4.32   3
   3   5 -12   21.75    4.79   3
   3   5 -12   13.93    4.49   4
  -3   5  12   13.61    3.78   4
  -2  -5  12  397.19   16.39   4
  -2  -5  12  358.59   16.20   3
   2  -5 -12  385.35   16.42   4
   2  -5 -12  403.27   16.51   3
  -2   5  12  362.66   16.29   4
   2   5 -12  389.89   16.69   3
  -2   5  12  381.90   17.64   2
   2   5 -12  383.41   16.57   3
   2   5 -12  359.10   16.43   4
  -2   5  12  355.83   16.37   4
   2   5 -12  386.32   16.63   4
  -2   5  12  363.55   16.26   3
  -1  -5  12    2.23    1.60   3
  -1  -5  12    0.32    1.24   4
   1  -5 -12    3.50    2.42   4
   1  -5 -12    0.34    2.06   4
   1  -5 -12    3.10    2.26   2
   1  -5 -12    2.15    2.37   3
  -1   5  12   -0.14    2.15   3
  -1   5  12    0.50    1.83   4
   1   5 -12    0.51    2.01   3
   1   5 -12    3.44    0.83   2
   1   5 -12   -2.42    2.20   3
   1   5 -12   -0.57    2.22   4
   1   5 -12    1.17    1.93   4
  -1   5  12   -0.36    1.73   4
   0  -5  12   13.73    1.38   3
   0  -5 -12   11.29    2.41   4
   0  -5  12   14.48    1.50   3
   0  -5 -12    8.58    2.59   3
   0  -5 -12   12.26    2.61   4
   0   5  12   12.45    4.47   2
   0   5 -12   14.66    2.03   4
   0   5  12   18.37    2.98   3
   0   5 -12   16.12    2.07   4
   0   5 -12   13.37    1.73   3
   0   5  12   14.35    2.63   4
   0   5 -12   13.16    2.64   2
   0   5 -12   14.43    1.97   3
  -1  -5 -12   40.89    4.26   3
  -1  -5 -12   43.76    4.05   4
  -1  -5 -12   34.26    3.87   4
  -1  -5 -12   44.53    4.96   1
   1   5  12   24.42    3.42   4
  -1   5 -12   35.21    2.06   4
   1   5  12   39.79    4.32   3
   1   5  12   27.95    6.90   2
  -1   5 -12   34.00    2.11   4
  -2  -5 -12  194.18   11.40   1
  -2  -5 -12  201.60   10.26   4
  -2  -5 -12  189.43   10.17   3
  -2  -5 -12  185.25   10.83   4
  -2   5 -12  197.71    7.97   4
   2   5  12  210.59   10.34   3
  -2   5 -12  195.81    7.43   3
  -2   5 -12  189.53    7.49   3
  -2   5 -12  206.50    8.25   4
  -2   5 -12  192.93   11.30   1
  -3  -5 -12   -2.79    2.85   4
  -3  -5 -12    1.02    4.49   1
  -3  -5 -12    6.04    3.80   3
  -3   5 -12    1.16    1.93   3
  -3   5 -12   -1.15    2.13   4
   3   5  12   -4.84    3.09   3
  -3   5 -12    0.66    1.84   4
  -3   5 -12    0.40    3.95   1
   4  -6 -12    3.07    4.05   3
  -4  -6  12    5.55    4.24   3
  -4   6  12   11.41    4.48   4
  -4   6  12    8.39    4.45   3
   4   6 -12   14.37    5.33   3
   4   6 -12   -2.92    5.78   4
  -3  -6  12   19.45    4.30   3
   3  -6 -12   28.38    4.97   3
  -3   6  12   25.17    4.50   4
   3   6 -12   12.77    4.70   4
  -3   6  12   19.53    4.21   3
  -3   6  12   18.36    5.36   2
   3   6 -12   27.34    5.51   3
   2  -6 -12   58.33    5.25   4
  -2  -6  12   61.91    5.18   3
   2  -6 -12   64.91    5.45   3
   2   6 -12   63.93    5.97   3
  -2   6  12   60.30    5.15   4
   2   6 -12   61.76    5.50   4
  -2   6  12   49.72    4.78   4
   2   6 -12   53.51    5.00   4
  -2   6  12   62.44    5.86   3
  -2   6  12   51.84    6.75   2
   1  -6 -12   18.81    3.23   4
   1  -6 -12   19.77    3.45   3
  -1  -6  12   21.09    2.62   3
  -1  -6  12   19.48    2.20   4
   1  -6 -12   18.41    3.19   4
  -1   6  12   19.81    3.28   3
   1   6 -12   16.92    3.13   4
  -1   6  12   18.71    3.10   4
   1   6 -12   17.79    3.28   3
   1   6 -12   17.11    2.91   3
   1   6 -12   17.66    3.01   4
  -1   6  12   17.88    3.08   4
   1   6 -12   17.20    2.34   2
   0  -6 -12  112.00    6.47   4
   0  -6 -12  105.01    6.40   3
   0  -6  12  113.01    4.43   3
   0  -6 -12  111.87    6.25   4
   0  -6  12  106.32    4.41   3
   0   6 -12  113.35    5.41   4
   0   6 -12  105.21    6.55   2
   0   6  12  114.49    6.43   4
   0   6  12   99.68    6.23   3
   0   6 -12  114.05    5.02   3
   0   6 -12  101.18    5.24   4
  -1  -6 -12  283.49   12.76   4
  -1  -6 -12  268.33   12.61   4
  -1  -6 -12  291.11   13.24   1
  -1  -6 -12  284.04   12.76   3
   1   6  12  269.58   16.37   2
   1   6  12  227.50   12.23   4
  -1   6 -12  284.66   10.29   4
  -1   6 -12  293.96   14.33   2
   1   6  12  281.30   12.68   3
  -1   6 -12  279.58   10.36   4
  -2  -6 -12   54.24    6.56   1
  -2  -6 -12   39.55    5.11   3
  -2  -6 -12   47.86    5.33   4
   2   6  12   51.96    5.44   3
  -2   6 -12   41.18    2.36   4
  -2   6 -12   48.21    6.17   1
  -2   6 -12   41.88    2.48   4
  -3  -6 -12    9.91    5.36   1
  -3  -6 -12   10.49    3.97   4
  -3  -6 -12   10.02    4.01   3
  -3   6 -12    3.65    2.05   3
   3   6  12    3.77    3.98   3
  -3   6 -12    3.09    2.14   4
  -3   6 -12    7.60    2.03   4
  -3   6 -12    5.73    4.09   1
  -4  -7  12   -3.03    5.84   3
   4   7 -12    0.25    5.40   4
  -4   7  12   -0.27    3.83   4
   4   7 -12    0.43    5.44   3
  -4   7  12    1.23    6.36   3
  -3  -7  12   -3.95    2.94   3
   3  -7 -12   -0.58    3.35   3
   3   7 -12    0.10    4.44   4
  -3   7  12   -2.11    4.04   2
  -3   7  12   -0.15    3.06   4
  -3   7  12   -2.84    3.18   3
   3   7 -12    0.58    4.07   3
  -2  -7  12   74.55    5.68   3
   2  -7 -12   78.34    6.16   4
   2  -7 -12   80.26    6.03   3
  -2   7  12   86.53    6.10   4
  -2   7  12   74.72    7.99   2
  -2   7  12   65.06    5.72   3
   2   7 -12   73.27    5.85   3
   2   7 -12   71.00    6.29   3
  -2   7  12   76.29    8.25   4
   2   7 -12   68.64    6.43   4
  -1  -7  12  565.49   22.84   4
   1  -7 -12  619.39   23.98   1
   1  -7 -12  583.34   24.25   3
   1  -7 -12  585.24   24.25   4
  -1  -7  12  621.36   23.38   3
  -1   7  12  579.53   24.28   3
   1   7 -12  577.68   23.81   4
  -1   7  12  599.83   24.50   4
   1   7 -12  591.62   23.85   2
   1   7 -12  648.63   24.06   4
   1   7 -12  591.09   23.64   3
   1   7 -12  649.62   23.85   3
  -1   7  12  580.38   24.44   4
  -1   7  12  635.95   27.01   2
   0  -7 -12   70.15    4.89   4
   0  -7 -12   61.57    4.98   3
   0  -7 -12   57.50    4.85   4
   0  -7 -12   59.20    4.56   1
   0   7 -12   63.33    3.52   3
   0   7 -12   57.32    3.83   4
   0   7 -12   57.54    3.79   4
   0   7 -12   69.44    5.38   2
   0   7  12   85.07    9.46   2
   0   7  12   62.12    4.79   4
   0   7  12   57.80    4.78   3
   0   7 -12   49.25    3.25   3
  -1  -7 -12    6.46    3.11   1
  -1  -7 -12    3.21    2.31   4
  -1  -7 -12    2.83    2.42   4
  -1  -7 -12    2.07    2.46   3
   1   7  12    0.02    2.12   4
  -1   7 -12    0.79    2.91   2
   1   7  12   -4.24    5.21   2
   1   7  12    6.22    2.76   3
  -2  -7 -12   20.82    4.15   4
  -2  -7 -12   29.46    5.52   1
  -2  -7 -12   29.66    4.75   3
   2   7  12   27.33    4.53   3
  -2   7 -12   33.77    5.32   1
  -3  -7 -12   47.28    7.76   1
  -3  -7 -12   48.27    6.36   4
  -3  -7 -12   37.64    6.49   3
   3   7  12   41.72    6.40   3
  -3   7 -12   46.19    7.10   1
  -3   7 -12   43.96    3.29   4
  -3   7 -12   44.28    3.18   4
   3  -8 -12   13.16    4.22   3
   3   8 -12    9.63    4.64   4
   3   8 -12    4.98    4.37   3
  -3   8  12    8.51    3.75   4
  -3   8  12    8.58    4.13   3
  -3   8  12   12.45    5.58   2
   2  -8 -12   10.03    3.51   3
   2   8 -12    3.71    3.71   3
  -2   8  12    9.13    4.91   2
  -2   8  12    3.41    2.93   4
  -2   8  12    8.21    3.55   3
   2   8 -12    4.59    3.75   4
  -1  -8  12   19.28    2.28   4
   1  -8 -12   24.07    3.90   3
   1  -8 -12   11.44    3.17   4
  -1   8  12   17.18    3.20   4
  -1   8  12   22.11    5.83   2
   1   8 -12   18.71    3.50   3
  -1   8  12   13.33    3.23   3
   1   8 -12   16.31    3.38   2
   1   8 -12   17.44    3.47   4
  -1   8  12   22.19    3.54   4
   1   8 -12   17.48    2.75   3
   0  -8 -12  116.67    6.39   1
   0  -8 -12  122.00    7.18   3
   0  -8 -12  119.40    7.10   4
   0   8 -12  120.96    7.76   2
   0   8 -12  110.92    5.59   4
   0   8 -12  101.05    5.57   4
   0   8 -12  115.10    5.36   3
   0   8 -12  112.84    5.06   3
   0   8  12  120.97   10.43   2
   0   8  12  112.80    6.96   3
   0   8  12  113.81    6.98   4
  -1  -8 -12  156.79    8.53   4
  -1  -8 -12  144.25    8.49   1
  -1  -8 -12  145.70    8.39   4
  -1  -8 -12  137.35    8.35   3
  -1   8 -12  151.00   10.03   2
   1   8  12  155.70    8.52   3
   1   8  12  129.87   14.68   2
   1   8  12  138.22    8.18   4
  -2  -8 -12    4.08    3.91   1
  -2  -8 -12    3.10    3.42   3
  -2  -8 -12    3.51    3.08   4
  -2   8 -12    0.24    3.85   2
  -2   8 -12   -1.40    2.64   1
   2   8  12    0.91    2.96   3
  -3  -8 -12    8.55    5.39   1
  -3  -8 -12    7.49    4.49   3
  -3  -8 -12   -1.98    3.08   4
  -3   8 -12    4.31    3.64   1
   3   8  12   10.24    4.24   3
  -3   8 -12    1.03    1.27   4
  -3   8 -12    6.88    1.47   4
   3  -9 -12  127.94    8.57   3
   3   9 -12  128.65    9.50   4
  -3   9  12  145.99   12.38   2
  -3   9  12  133.16    8.91   3
   3   9 -12  121.64    9.21   3
   2  -9 -12    5.35    3.62   3
   2   9 -12    2.74    3.51   4
  -2   9  12    2.90    4.83   2
  -2   9  12    7.21    3.16   4
  -2   9  12    4.08    3.09   3
   2   9 -12    4.58    3.89   3
   1  -9 -12   16.73    3.90   4
   1  -9 -12   17.55    3.85   3
  -1   9  12   16.23    3.48   3
  -1   9  12   11.17    3.05   4
   1   9 -12   14.55    3.50   3
   1   9 -12   16.55    3.52   4
   1   9 -12   20.43    3.15   4
  -1   9  12   15.18    6.11   2
   1   9 -12   16.26    3.92   2
   0  -9 -12  313.03   13.34   1
   0  -9 -12  312.48   14.25   3
   0  -9 -12  301.28   14.17   4
   0   9 -12  315.48   12.30   3
   0   9  12  314.04   14.24   3
   0   9  12  356.23   18.58   2
   0   9 -12  288.25   12.62   4
   0   9 -12  288.52   11.98   3
   0   9 -12  324.08   15.51   2
   0   9  12  299.93   14.14   4
   0   9 -12  321.78   12.65   4
  -1  -9 -12    0.82    2.95   3
  -1  -9 -12   -0.43    2.73   1
  -1  -9 -12    2.63    2.63   4
  -1   9 -12    8.45    4.05   2
  -1   9 -12    2.23    2.54   1
   1   9  12    0.55    2.52   4
   1   9  12    7.91    7.99   2
   1   9  12   -0.48    2.85   3
  -2  -9 -12    8.81    3.54   4
  -2  -9 -12   18.94    4.86   1
  -2  -9 -12   15.69    4.25   3
  -2   9 -12   10.16    3.50   1
   2   9  12   19.87    4.36   3
  -2   9 -12   12.75    5.25   2
   2   9  12   13.89    7.51   2
  -3  -9 -12   -5.81    4.05   3
  -3  -9 -12   -2.06    4.57   1
  -3   9 -12    1.66    3.07   1
  -3   9 -12   -5.90    4.97   2
   3   9  12    4.75    4.27   3
  -3  10  12   22.48    4.74   4
  -3  10  12   27.77    5.46   3
   3  10 -12   27.09    5.81   3
  -3  10  12   19.54    6.78   2
   3  10 -12   21.24    5.99   4
   2 -10 -12    7.09    3.54   3
  -2  10  12    5.60    3.28   4
   2  10 -12    3.92    3.67   4
  -2  10  12   -2.28    5.20   2
   2  10 -12   16.58    4.54   3
  -2  10  12    6.33    3.65   3
   1 -10 -12    9.88    3.83   3
  -1  10  12    1.09    2.66   4
  -1  10  12   -1.21    4.91   2
   1  10 -12    6.30    3.17   3
   1  10 -12    4.51    2.99   4
   1  10 -12    4.14    3.16   4
   1  10 -12   -3.37    3.02   2
  -1  10  12    8.35    3.28   3
   0 -10 -12  135.54    8.41   3
   0  10 -12  121.94    6.50   4
   0  10  12  135.44    8.03   3
   0  10 -12  131.91    6.24   4
   0  10 -12  126.19    9.20   2
   0  10  12  123.39   11.81   2
   0  10 -12  136.49    6.32   3
   0  10  12  125.93    7.79   4
  -1 -10 -12   18.26    5.74   1
  -1 -10 -12    7.90    3.73   3
  -1  10 -12   23.33    5.52   2
  -1  10 -12   24.13    4.13   1
   1  10  12   16.66    4.05   3
   1  10  12   20.75    8.88   2
  -2 -10 -12   90.32    8.00   1
  -2 -10 -12   79.48    8.26   3
  -2  10 -12  109.49   10.34   2
   2  10  12  108.84   13.14   2
  -2  10 -12   96.37    7.35   1
   2  10  12   93.15    7.75   3
   2 -11 -12    8.17    3.81   3
  -2  11  12    6.65    3.50   4
  -2  11  12    8.51    3.41   3
  -2  11  12    7.97    6.26   2
   2  11 -12   10.47    4.09   4
   2  11 -12    8.93    4.35   3
   1 -11 -12   24.64    4.42   3
   1  11 -12   14.92    4.64   2
   1  11 -12   21.20    3.97   3
  -1  11  12   24.53    4.55   3
  -1  11  12   14.48    3.57   4
  -1  11  12   21.62    7.39   2
   1  11 -12   25.97    4.14   4
   0 -11 -12    8.82    3.56   3
   0  11 -12    8.09    2.66   4
   0  11  12    9.90    6.86   2
   0  11 -12    4.57    3.79   2
   0  11  12   12.46    3.77   3
   0  11 -12    9.12    2.03   4
   0  11 -12    8.11    2.31   3
   0  11  12   12.49    3.28   4
  -1 -11 -12   26.67    4.86   3
   1  11  12   20.92    4.44   3
   1  11  12   44.44   11.19   2
  -1  11 -12   24.16    5.80   2
  -1  11 -12   27.35    4.33   1
  -2 -11 -12    7.58    4.58   3
   2  11  12  -11.03    7.18   2
   2  11  12    4.38    4.23   3
  -2  11 -12    4.90    3.37   1
  -2  11 -12    4.49    4.91   2
  -2  12  12   43.06    5.69   3
   2  12 -12   57.83    6.64   4
   2  12 -12   55.09    6.50   3
  -2  12  12   44.31    9.30   2
   1 -12 -12   61.32    6.46   3
  -1  12  12   85.02    6.96   3
  -1  12  12   68.87    6.11   4
   1  12 -12   56.73    7.79   2
  -1  12  12   69.85   10.57   2
   1  12 -12   80.27    6.31   3
   1  12 -12   83.24    6.48   4
   0 -12 -12   -1.03    3.21   3
   0  12 -12   -2.30    3.61   2
   0  12 -12    0.78    2.31   3
   0  12 -12   -0.24    2.39   4
   0  12  12    7.63    6.84   2
   0  12  12   -0.10    2.54   4
   0  12  12   -2.59    2.71   3
   0  12 -12    0.76    1.70   4
  -1 -12 -12    3.00    3.80   3
   1  12  12    1.07    3.40   3
  -1  12 -12    2.69    2.68   1
   1  12  12   13.52    9.47   2
  -1  12 -12   -3.80    3.59   2
  -2 -12 -12   49.80    6.73   3
   2  12  12   33.27    5.86   3
  -2  12 -12   43.50    7.99   2
   2  12  12   48.81   12.10   2
   1 -13 -12    5.86    4.13   3
  -1  13  12   12.92    4.20   3
  -1  13  12    8.33    3.28   4
  -1  13  12   -6.84    7.45   2
   1  13 -12   11.60    3.92   4
   1  13 -12   11.29    4.63   3
   0 -13 -12   11.81    4.11   3
   0  13 -12   12.10    5.29   2
   0  13  12   30.83    9.79   2
   0  13 -12   11.01    3.09   4
   0  13  12    7.84    4.03   3
  -1 -13 -12   -3.24    3.48   3
   1  13  12    2.19    3.79   3
   1  13  12   37.65   12.29   2
  -1  13 -12    4.09    5.06   2
  -1  13 -12    1.27    1.18   4
  -1  13 -12    0.79    0.79   4
   0 -14 -12    0.04    3.67   3
   0  14 -12   -7.43    4.39   2
   0  14 -12    3.50    3.28   4
   0  14  12   15.77    9.81   2
  -4   0  13   -1.54    3.71   3
   4   0 -13    2.52    4.58   3
   3   0 -13    5.47    4.28   3
   3   0 -13    2.83    3.66   4
  -3   0  13    4.01    3.19   4
  -3   0  13    2.47    3.27   3
   2   0 -13    5.45    3.08   3
  -2   0  13    1.29    1.00   2
  -2   0  13    3.46    2.56   3
   2   0 -13    0.53    3.01   4
  -2   0  13    0.73    2.12   4
   2   0 -13    2.02    2.31   4
   1   0 -13   -0.75    2.21   3
  -1   0  13   -0.32    1.69   3
   1   0 -13    4.90    2.10   3
   1   0 -13   -2.24    1.47   4
   1   0 -13   -1.75    1.99   4
  -1   0  13    0.00    0.30   4
   0   0 -13    4.55    1.62   2
   0   0 -13    5.29    1.66   4
   0   0 -13    6.41    1.89   3
   0   0 -13    5.09    1.70   3
   0   0  13    8.20    1.79   3
   0   0  13    5.00    1.71   4
   0   0 -13    3.42    1.64   4
  -1   0 -13    2.44    1.64   4
  -1   0 -13   -1.98    2.35   1
  -1   0 -13    1.96    1.70   3
  -1   0 -13    2.83    2.33   2
  -1   0 -13    1.55    1.52   3
   1   0  13    0.31    1.40   3
   1   0  13    1.89    1.39   4
  -1   0 -13    2.44    1.60   4
   2   0  13    1.85    1.92   3
  -2   0 -13    5.69    2.03   3
  -2   0 -13    1.19    1.92   4
  -2   0 -13   -0.24    3.19   1
   2   0  13    1.49    1.54   4
  -2   0 -13    0.97    1.93   4
  -2   0 -13    4.21    2.02   3
  -3   0 -13    9.35    4.43   1
  -3   0 -13   -1.68    2.13   4
  -4   0 -13    4.35    3.75   4
  -4   0 -13    1.46    5.13   1
  -4   0 -13    1.89    4.08   3
  -4  -1  13   27.29    5.64   3
   4  -1 -13   28.60    5.72   3
  -4   1  13   13.58    4.45   3
   4   1 -13   19.11    5.62   3
   3  -1 -13   15.68    4.33   3
  -3  -1  13   11.81    3.90   3
   3  -1 -13    7.51    3.90   4
  -3   1  13    5.18    3.12   4
   3   1 -13    8.52    3.96   4
  -3   1  13   -1.93    3.11   3
   3   1 -13    8.20    4.01   3
  -3   1  13    5.21    2.74   2
   2  -1 -13   19.36    3.88   3
   2  -1 -13   18.90    3.47   4
  -2  -1  13   18.90    3.21   3
   2  -1 -13   19.97    3.82   4
  -2  -1  13   20.26    3.15   4
  -2   1  13   18.83    3.34   3
  -2   1  13   15.23    3.04   4
   2   1 -13   18.86    3.78   4
  -2   1  13   15.34    2.37   2
   2   1 -13   19.14    3.64   3
   2   1 -13   18.18    3.36   4
   1  -1 -13  758.71   29.12   4
  -1  -1  13  768.86   28.73   3
   1  -1 -13  721.65   28.99   4
   1  -1 -13  736.56   28.96   3
  -1  -1  13  766.24   28.67   4
   1  -1 -13  709.66   29.03   3
   1   1 -13  735.26   28.96   4
   1   1 -13  725.24   29.02   3
   1   1 -13  758.86   29.04   4
  -1   1  13  793.81   28.96   3
   1   1 -13  746.86   28.85   3
  -1   1  13  770.15   28.53   2
   0  -1  13   13.85    2.08   3
   0  -1 -13   18.40    2.49   3
   0  -1 -13   15.86    2.38   3
   0  -1 -13   12.37    2.23   4
   0  -1 -13   16.71    2.61   2
   0  -1 -13   13.10    2.18   4
   0  -1  13   16.65    2.13   4
   0   1  13   17.34    2.44   3
   0   1 -13   20.80    2.44   3
   0   1 -13   17.72    2.36   3
   0   1  13   19.38    2.58   4
   0   1 -13   13.71    2.15   2
   0   1 -13   15.95    2.27   4
   0   1 -13   13.54    2.10   4
  -1  -1 -13   -4.30    2.08   2
   1  -1  13    2.69    1.38   3
  -1  -1 -13    0.76    1.58   4
  -1  -1 -13   -3.56    2.25   1
  -1  -1 -13    2.57    1.79   4
  -1  -1 -13    0.66    1.59   3
   1  -1  13    0.41    1.08   4
  -1  -1 -13    3.70    1.76   3
  -1   1 -13    2.74    1.48   4
   1   1  13    2.34    1.67   3
  -1   1 -13    4.33    2.13   2
  -1   1 -13    2.21    1.48   3
   1   1  13    0.92    1.40   4
  -1   1 -13   -1.46    1.29   3
  -1   1 -13    1.83    1.56   4
  -2  -1 -13   21.71    3.09   4
  -2  -1 -13   17.91    3.10   3
   2  -1  13   24.59    3.88   4
  -2  -1 -13   23.16    3.04   3
  -2  -1 -13   21.60    3.23   4
   2  -1  13   16.43    2.46   3
  -2  -1 -13   26.45    5.17   1
  -2   1 -13   24.78    2.97   3
   2   1  13   14.54    3.13   4
  -2   1 -13   21.15    2.83   4
  -2   1 -13   18.11    2.84   4
  -2   1 -13   20.52    4.58   1
   2   1  13   22.06    3.06   3
  -2   1 -13   22.47    2.67   3
  -3  -1 -13   13.29    5.08   1
  -3  -1 -13    6.64    2.75   3
  -3  -1 -13    9.54    3.18   4
  -3   1 -13    9.25    3.39   3
  -3   1 -13    2.71    4.44   1
  -4  -1 -13   14.08    4.65   3
  -4  -1 -13    3.68    3.59   4
  -4  -1 -13   10.64    6.55   1
  -4   1 -13    8.65    6.52   1
  -4   1 -13    7.21    3.89   4
  -4   1 -13   16.47    4.62   3
  -4  -2  13    9.08    4.43   3
   4  -2 -13    5.40    4.61   3
  -4   2  13    1.88    3.82   3
   4   2 -13    4.56    4.87   3
   3  -2 -13    2.55    3.74   4
   3  -2 -13   -0.10    4.04   3
  -3  -2  13    4.81    3.59   3
  -3   2  13    0.02    2.86   4
   3   2 -13    1.39    3.89   3
  -3   2  13    0.37    3.11   3
  -3   2  13   -1.72    2.66   2
   3   2 -13    0.64    3.67   4
  -2  -2  13  217.19   10.30   3
  -2  -2  13  208.10   10.08   4
   2  -2 -13  212.37   10.62   4
   2  -2 -13  229.00   10.83   3
   2  -2 -13  216.88   10.65   4
   2   2 -13  207.17   10.61   4
  -2   2  13  205.84   10.10   2
   2   2 -13  223.27   10.83   3
   2   2 -13  218.53   10.75   4
  -2   2  13  231.90   10.69   3
  -2   2  13  212.37   10.34   4
   1  -2 -13  270.53   12.05   4
   1  -2 -13  267.67   12.04   3
   1  -2 -13  282.17   12.12   3
  -1  -2  13  277.05   11.44   4
   1  -2 -13  263.44   12.01   4
   1  -2 -13  252.96   11.66   2
  -1  -2  13  277.70   11.55   3
   1   2 -13  280.91   11.94   4
   1   2 -13  256.51   11.77   4
   1   2 -13  303.03   11.95   3
   1   2 -13  264.30   11.87   3
  -1   2  13  278.43   11.88   4
  -1   2  13  286.51   12.25   2
  -1   2  13  276.43   11.95   3
   0  -2 -13   57.97    4.11   3
   0  -2 -13   52.60    4.28   2
   0  -2 -13   59.10    3.91   3
   0  -2  13   56.52    3.27   4
   0  -2 -13   58.46    4.03   4
   0  -2 -13   47.93    3.78   4
   0  -2  13   52.61    3.27   3
   0   2 -13   53.35    3.54   4
   0   2 -13   47.54    3.58   2
   0   2 -13   60.15    3.63   4
   0   2 -13   52.01    3.61   3
   0   2 -13   60.33    3.63   3
   0   2  13   56.09    4.02   3
   1  -2  13    5.72    1.00   4
  -1  -2 -13    6.42    2.07   3
  -1  -2 -13   11.05    3.50   1
  -1  -2 -13    6.84    2.11   4
  -1  -2 -13    7.01    2.03   4
   1  -2  13    6.20    1.38   3
  -1  -2 -13    8.64    2.35   3
  -1   2 -13    6.28    1.63   4
  -1   2 -13    8.07    1.64   3
  -1   2 -13    7.38    1.58   4
  -1   2 -13    7.72    1.64   3
   1   2  13    6.71    2.12   3
   1   2  13    3.20    1.81   4
  -2  -2 -13  205.40    9.73   3
  -2  -2 -13  195.86   10.06   4
  -2  -2 -13  210.91   11.80   1
  -2  -2 -13  220.67   10.32   3
  -2  -2 -13  216.43    9.88   4
  -2   2 -13  213.28    9.19   4
  -2   2 -13  210.68    9.42   4
  -2   2 -13  212.35   12.07   1
   2   2  13  202.50    9.88   3
  -2   2 -13  211.09    9.01   3
  -2   2 -13  214.14    9.28   3
  -3  -2 -13  112.50    7.69   3
  -3  -2 -13  148.22   10.58   1
  -3  -2 -13  127.36    8.35   4
  -3   2 -13  127.39   10.09   1
  -3   2 -13  139.53    7.77   3
  -4  -2 -13   28.34    5.72   3
  -4  -2 -13   23.64    5.39   4
  -4  -2 -13   27.26   11.15   1
  -4   2 -13   29.19    7.12   4
  -4   2 -13   20.97    4.54   3
  -4   2 -13   24.92    8.18   1
  -4  -3  13    3.74    4.09   3
   4  -3 -13    3.68    4.65   3
   4   3 -13   -1.28    4.63   3
  -4   3  13   -1.00    3.55   3
  -3  -3  13   84.94    6.95   3
   3  -3 -13   69.77    6.91   3
   3  -3 -13   71.97    6.49   4
  -3   3  13   80.81    6.35   4
   3   3 -13   76.15    6.86   3
  -3   3  13   73.57    6.43   3
   3   3 -13   81.24    6.98   4
  -3   3  13   79.48    6.76   2
   2  -3 -13  478.57   20.83   4
   2  -3 -13  492.10   20.69   3
   2  -3 -13  523.97   20.98   4
  -2  -3  13  521.29   20.60   3
   2   3 -13  482.04   20.80   4
   2   3 -13  508.86   20.82   3
   2   3 -13  478.42   20.81   4
  -2   3  13  488.75   20.87   2
  -2   3  13  504.47   20.68   4
  -2   3  13  519.45   20.74   3
   1  -3 -13  196.71    9.66   3
   1  -3 -13  221.57    9.96   4
  -1  -3  13  194.29    8.93   4
   1  -3 -13  228.66   10.02   4
   1  -3 -13  198.38    9.92   2
  -1  -3  13  226.39    9.27   3
  -1   3  13  209.16    9.69   3
  -1   3  13  211.71   10.39   2
   1   3 -13  206.93    9.68   4
   1   3 -13  215.85    9.54   3
   1   3 -13  209.16    9.72   4
   1   3 -13  199.25    9.62   3
  -1   3  13  211.72    9.70   4
   0  -3 -13  794.15   30.16   4
   0  -3  13  792.93   28.84   4
   0  -3 -13  729.67   29.92   3
   0  -3 -13  781.76   30.00   3
   0  -3  13  746.92   29.03   3
   0  -3  13  745.12   29.12   3
   0  -3 -13  784.22   30.08   4
   0  -3 -13  751.55   30.95   2
   0   3 -13  778.26   29.39   3
   0   3  13  791.86   31.80   2
   0   3  13  787.95   30.06   4
   0   3 -13  780.31   29.37   4
   0   3  13  792.65   30.06   3
   0   3 -13  810.15   29.37   4
   0   3 -13  816.40   29.27   3
  -1  -3 -13   10.37    2.50   3
   1  -3  13    7.72    1.18   3
  -1  -3 -13    3.23    2.85   1
  -1  -3 -13    9.68    2.41   3
   1  -3  13    9.23    1.23   3
  -1  -3 -13    5.33    2.38   4
  -1  -3 -13    7.05    2.24   4
   1   3  13    8.14    1.98   4
  -1   3 -13    8.70    1.54   3
  -1   3 -13    8.43    1.62   4
   1   3  13    8.26    2.30   3
  -1   3 -13   12.67    1.62   3
  -1   3 -13    9.66    1.56   4
  -2  -3 -13    3.36    2.33   4
  -2  -3 -13    5.38    2.43   3
  -2  -3 -13    7.41    2.41   4
  -2  -3 -13   -0.99    3.44   1
  -2  -3 -13    4.69    2.47   3
  -2   3 -13    6.98    3.64   1
  -2   3 -13    2.89    1.60   4
   2   3  13    0.99    2.31   3
  -2   3 -13    0.13    1.37   3
  -2   3 -13    4.77    1.77   4
  -3  -3 -13   27.84    4.60   4
  -3  -3 -13   30.84    4.88   3
  -3  -3 -13   26.25    5.98   1
  -3   3 -13   24.55    5.84   1
  -3   3 -13   40.33    4.25   3
  -3   3 -13   22.02    3.64   4
   4  -4 -13   14.03    4.85   3
  -4  -4  13    9.07    4.53   3
  -4   4  13   17.30    4.76   3
   4   4 -13    7.32    5.47   3
   3  -4 -13   59.01    6.32   3
  -3  -4  13   46.65    5.64   3
   3   4 -13   61.54    6.52   3
   3   4 -13   52.95    6.28   4
  -3   4  13   56.18    5.88   4
  -3   4  13   51.51    6.42   2
  -3   4  13   65.81    6.54   3
   2  -4 -13   10.05    2.97   4
  -2  -4  13    6.16    2.41   4
   2  -4 -13    8.78    3.29   4
   2  -4 -13    8.41    3.32   3
  -2  -4  13    1.57    2.35   3
   2   4 -13    6.78    3.48   4
   2   4 -13    0.25    3.54   3
  -2   4  13    7.81    3.18   2
  -2   4  13    9.77    2.77   4
   2   4 -13    5.94    3.02   4
  -2   4  13   11.72    3.35   3
   2   4 -13    3.80    3.11   3
  -1  -4  13   14.77    2.04   4
   1  -4 -13   11.08    2.89   4
   1  -4 -13   12.25    2.81   2
   1  -4 -13   17.19    3.20   3
  -1  -4  13   13.16    2.15   3
   1  -4 -13   15.72    2.94   4
   1   4 -13   12.33    2.61   3
   1   4 -13   14.48    2.84   3
   1   4 -13   11.54    2.86   4
  -1   4  13   10.54    2.56   3
   1   4 -13    9.79    2.41   4
  -1   4  13   18.40    2.93   4
  -1   4  13   15.11    3.88   2
   0  -4 -13  107.47    6.10   3
   0  -4 -13  108.19    6.99   2
   0  -4  13  111.81    4.94   3
   0  -4 -13  105.65    6.09   4
   0  -4 -13   95.62    5.93   4
   0  -4  13  103.33    4.38   4
   0   4 -13  104.38    5.28   4
   0   4  13  105.23    5.99   3
   0   4  13  101.50    5.96   4
   0   4 -13  106.31    5.07   3
   0   4  13  110.58    8.55   2
   0   4 -13  105.58    5.83   2
   0   4 -13  108.59    5.33   3
   0   4 -13  108.79    5.26   4
  -1  -4 -13  309.67   12.94   4
  -1  -4 -13  283.54   12.54   3
  -1  -4 -13  305.06   13.03   3
  -1  -4 -13  315.35   13.03   4
  -1  -4 -13  313.87   13.87   1
  -1   4 -13  254.79   11.25   4
   1   4  13  276.98   12.66   4
  -1   4 -13  290.95   11.08   3
  -1   4 -13  301.04   11.31   4
  -1   4 -13  290.14   11.15   3
   1   4  13  241.71   12.49   3
  -2  -4 -13   -1.79    3.33   1
  -2  -4 -13    0.99    2.62   3
  -2  -4 -13    3.80    2.36   4
  -2   4 -13    3.35    1.26   3
  -2   4 -13    0.90    1.44   4
  -2   4 -13    1.24    3.27   1
   2   4  13    3.16    2.76   3
  -2   4 -13    1.66    1.47   4
  -2   4 -13    2.77    1.60   3
  -3  -4 -13   95.99    7.60   3
  -3  -4 -13   95.17   10.43   1
  -3  -4 -13   97.30    7.44   4
  -3   4 -13   87.53    8.78   1
  -3   4 -13  100.95    5.50   4
  -3   4 -13   95.64    5.82   3
  -3   4 -13   91.54    6.04   4
  -4  -5  13    5.55    4.40   3
   4  -5 -13    2.97    4.85   3
   4   5 -13   -3.17    4.67   3
  -4   5  13    2.50    4.42   3
   3  -5 -13   47.11    5.97   3
  -3  -5  13   35.49    5.32   3
   3   5 -13   24.74    5.09   4
  -3   5  13   33.81    5.80   2
  -3   5  13   25.98    4.59   4
   3   5 -13   28.97    5.30   3
  -3   5  13   27.84    4.60   3
   2  -5 -13   77.26    6.01   3
  -2  -5  13   72.56    5.39   3
   2  -5 -13   83.00    6.02   4
  -2   5  13   79.11    5.78   4
   2   5 -13   75.57    5.77   4
   2   5 -13   79.11    6.52   4
  -2   5  13   74.59    6.88   2
   2   5 -13   79.69    6.05   3
  -2   5  13   75.14    5.80   3
   2   5 -13   77.69    5.92   3
   1  -5 -13   -1.14    2.37   3
   1  -5 -13    0.78    2.43   4
   1  -5 -13   -0.31    1.97   4
   1  -5 -13    1.16    2.02   2
  -1  -5  13   -1.36    1.04   4
  -1  -5  13   -2.79    1.40   3
   1   5 -13   -2.21    1.72   4
  -1   5  13   -0.24    1.85   4
   1   5 -13   -1.73    1.85   3
   1   5 -13   -4.54    2.22   4
  -1   5  13   -3.44    1.79   3
   1   5 -13   -1.25    2.31   3
   0  -5 -13  101.50    6.11   4
   0  -5  13   97.98    4.52   3
   0  -5 -13  113.75    6.39   4
   0  -5  13  106.46    4.67   3
   0  -5 -13  107.24    6.29   3
   0   5  13  109.02    6.34   4
   0   5 -13  102.32    5.20   4
   0   5 -13  106.17    6.13   2
   0   5 -13   96.16    5.17   3
   0   5 -13  112.93    5.02   3
   0   5  13  112.51    6.38   3
   0   5 -13  101.81    5.31   4
  -1  -5 -13  201.94    9.67   3
  -1  -5 -13  189.97    9.36   4
  -1  -5 -13  188.29    9.42   4
  -1  -5 -13  204.17   10.23   1
  -1   5 -13  182.37    6.99   3
  -1   5 -13  192.49    7.48   4
   1   5  13  168.42   12.73   2
   1   5  13  176.40    9.34   3
   1   5  13  148.78    8.82   4
  -1   5 -13  198.48    7.49   4
  -2  -5 -13   23.03    4.06   3
  -2  -5 -13   16.96    3.60   4
  -2  -5 -13   22.14    5.08   1
   2   5  13   23.56    3.82   3
  -2   5 -13   25.72    4.96   1
  -2   5 -13   23.09    2.12   4
  -3  -5 -13    4.69    3.50   3
  -3  -5 -13    2.44    3.22   4
  -3  -5 -13    2.46    4.50   1
  -3   5 -13    1.01    4.02   1
  -3   5 -13    2.83    2.22   4
  -3   5 -13    2.84    1.81   3
  -3   5 -13    1.51    1.93   4
   4  -6 -13   27.64    5.68   3
  -4  -6  13   44.43    6.89   3
  -4   6  13   26.07    5.69   3
   4   6 -13   32.51    6.37   3
   4   6 -13   40.31    9.08   4
   3  -6 -13    2.05    3.61   3
  -3  -6  13    2.31    3.41   3
  -3   6  13    0.74    3.88   2
  -3   6  13    2.69    3.34   3
   3   6 -13    0.76    4.03   4
  -3   6  13    4.63    3.22   4
   3   6 -13    2.09    4.39   3
   2  -6 -13   28.40    4.41   3
  -2  -6  13   36.62    4.28   3
   2  -6 -13   23.55    4.12   4
   2   6 -13   30.29    4.49   4
  -2   6  13   25.77    4.35   3
   2   6 -13   30.73    6.37   4
  -2   6  13   31.22    4.15   4
   2   6 -13   25.61    4.28   3
   2   6 -13   28.96    4.30   3
  -2   6  13   21.80    4.99   2
  -1  -6  13   -2.10    1.40   3
   1  -6 -13    1.49    2.68   3
   1  -6 -13    1.50    2.10   4
  -1  -6  13   -1.34    1.12   4
   1  -6 -13    0.59    2.20   4
   1   6 -13   -2.37    0.99   2
   1   6 -13   -0.10    2.03   3
  -1   6  13    5.29    2.59   3
   1   6 -13   -0.81    2.54   3
   1   6 -13    2.14    2.47   4
  -1   6  13    1.65    2.05   4
  -1   6  13   12.65    4.57   2
   1   6 -13    0.05    2.12   4
   0  -6 -13  358.03   15.86   4
   0  -6 -13  389.37   15.99   4
   0  -6  13  338.21   13.74   3
   0  -6 -13  368.45   15.87   3
   0  -6  13  399.27   14.14   3
   0   6  13  381.99   18.88   2
   0   6 -13  387.44   14.32   3
   0   6 -13  367.26   14.69   4
   0   6  13  407.09   16.05   3
   0   6 -13  339.14   14.50   4
   0   6  13  358.07   15.84   4
   0   6 -13  353.45   15.79   2
  -1  -6 -13   24.48    3.64   4
  -1  -6 -13   21.00    3.53   3
  -1  -6 -13   20.92    4.06   1
  -1  -6 -13   18.87    3.37   4
   1   6  13   19.90    6.17   2
  -1   6 -13   22.50    1.45   4
   1   6  13   19.13    3.43   3
   1   6  13   10.38    2.80   4
  -1   6 -13   16.30    1.59   4
  -1   6 -13   21.63    4.43   2
  -2  -6 -13   27.23    5.42   1
  -2  -6 -13   25.25    4.46   3
  -2  -6 -13   28.20    4.37   4
  -2   6 -13   33.90    5.57   1
   2   6  13   28.25    4.60   3
  -2   6 -13   26.44    2.01   4
  -2   6 -13   25.60    1.85   4
  -3  -6 -13  114.60   10.36   1
  -3  -6 -13  103.81    8.73   3
  -3  -6 -13  103.36    8.47   4
  -3   6 -13  111.62    5.62   4
  -3   6 -13  108.60    9.31   1
  -3   6 -13  120.69    6.05   4
   3   6  13  129.71   10.18   3
   3  -7 -13   33.05    5.35   3
  -3   7  13   41.42    5.40   4
  -3   7  13   37.13    5.32   3
  -3   7  13   32.94    6.64   2
   3   7 -13   37.37    5.88   4
   3   7 -13   31.91    5.48   3
   2  -7 -13  157.41    9.23   3
  -2  -7  13  152.05    8.58   3
   2  -7 -13  163.75   10.06   4
  -2   7  13  151.15   10.87   2
   2   7 -13  160.01    9.11   4
   2   7 -13  178.05    9.43   3
  -2   7  13  151.73    8.94   4
  -2   7  13  163.48    9.10   3
  -1  -7  13   20.28    2.64   3
  -1  -7  13   23.71    2.20   4
   1  -7 -13   19.86    4.00   3
   1  -7 -13   20.51    3.57   4
   1   7 -13   20.23    2.84   2
   1   7 -13   15.98    3.14   4
   1   7 -13   19.57    3.47   3
  -1   7  13   15.43    3.12   4
  -1   7  13   21.62    3.80   3
   1   7 -13   28.66    3.66   4
  -1   7  13   24.12    5.66   2
   0  -7 -13   62.80    4.90   1
   0  -7 -13   65.40    5.20   4
   0  -7 -13   74.25    5.19   4
   0  -7 -13   66.78    5.28   3
   0   7 -13   65.05    3.55   3
   0   7 -13   62.32    5.38   2
   0   7  13   65.36    5.38   3
   0   7 -13   58.68    3.45   3
   0   7 -13   58.36    3.94   4
   0   7 -13   58.87    3.89   4
   0   7  13  103.95   10.85   2
   0   7  13   60.66    4.88   4
  -1  -7 -13   32.99    4.36   4
  -1  -7 -13   36.61    4.94   1
  -1  -7 -13   34.37    4.28   4
  -1  -7 -13   37.10    4.56   3
   1   7  13   15.14    8.00   2
   1   7  13   33.53    4.17   4
   1   7  13   54.92    5.57   3
  -1   7 -13   39.07    5.75   2
  -2  -7 -13    6.93    3.98   1
  -2  -7 -13   -0.05    3.14   3
  -2  -7 -13   -3.20    2.42   4
   2   7  13    0.41    3.11   3
  -2   7 -13    0.96    3.20   1
  -3  -7 -13    6.37    5.18   1
  -3  -7 -13   -3.82    3.02   4
  -3  -7 -13    0.27    3.78   3
  -3   7 -13    2.61    1.56   4
  -3   7 -13    1.74    1.51   4
   3   7  13    9.64    4.66   3
  -3   7 -13    2.70    4.26   1
   3  -8 -13   12.45    4.56   3
  -3   8  13   21.10    5.99   2
   3   8 -13   13.51    4.92   3
   3   8 -13   16.24    4.84   4
  -3   8  13   19.68    4.54   3
  -3   8  13   16.33    4.29   4
   2  -8 -13    1.39    3.31   3
   2   8 -13    6.39    3.59   4
  -2   8  13    6.97    3.24   3
   2   8 -13    2.67    3.72   3
  -2   8  13    6.50    3.16   4
  -2   8  13   -1.30    4.37   2
   1  -8 -13   44.91    4.97   4
   1  -8 -13   51.02    5.37   3
   1   8 -13   58.72    4.86   3
  -1   8  13   61.08    5.15   3
   1   8 -13   54.49    4.79   4
  -1   8  13   51.80    4.86   4
  -1   8  13   76.73    8.97   2
   1   8 -13   47.04    4.56   2
   0  -8 -13   13.57    3.51   3
   0  -8 -13   14.88    3.36   4
   0  -8 -13   12.66    2.88   1
   0   8  13   13.17    3.23   3
   0   8 -13    9.19    1.83   3
   0   8 -13    7.33    2.19   4
   0   8 -13   12.93    3.54   2
   0   8 -13    7.42    1.47   3
   0   8  13   11.39    3.00   4
  -1  -8 -13   61.32    6.20   1
  -1  -8 -13   54.03    5.51   4
  -1  -8 -13   51.63    5.76   3
  -1   8 -13   55.46    6.70   2
   1   8  13   53.71    5.62   3
   1   8  13   48.28   10.02   2
  -2  -8 -13   70.41    6.63   4
  -2  -8 -13   55.79    6.33   3
  -2  -8 -13   66.64    7.56   1
  -2   8 -13   73.87    6.78   1
  -2   8 -13   60.04    7.67   2
   2   8  13   63.42    6.87   3
  -3  -8 -13    7.69    4.37   3
  -3  -8 -13    4.73    5.40   1
  -3  -8 -13   11.91    4.17   4
  -3   8 -13    7.88    1.17   4
   3   8  13   11.40    4.59   3
  -3   8 -13    3.34    1.07   4
  -3   8 -13    5.51    4.15   1
   3  -9 -13   21.97    4.97   3
  -3   9  13   16.42    4.55   3
  -3   9  13   21.17    4.61   4
  -3   9  13   12.07    6.11   2
   3   9 -13   19.45    5.51   3
   3   9 -13   26.99    6.02   4
   2  -9 -13   81.90    6.70   3
   2   9 -13   93.74    7.47   4
  -2   9  13   92.79    7.37   3
   2   9 -13   98.06    7.39   3
  -2   9  13   90.85    9.96   2
   1  -9 -13    2.49    3.09   3
   1   9 -13    2.67    2.83   4
  -1   9  13    2.36    2.54   4
   1   9 -13    0.90    2.28   4
  -1   9  13   -0.82    5.12   2
   1   9 -13   -0.53    2.95   3
  -1   9  13    0.83    2.61   3
   0  -9 -13    2.17    3.29   3
   0  -9 -13   -1.13    2.21   1
   0  -9 -13    1.06    2.65   4
   0   9 -13   -1.40    2.00   4
   0   9 -13   -2.12    2.83   2
   0   9 -13   -4.77    1.52   4
   0   9 -13   -1.15    1.64   3
   0   9  13   19.35    6.63   2
   0   9  13    2.60    2.85   3
   0   9  13    2.51    2.50   4
  -1  -9 -13   79.06    6.45   1
  -1  -9 -13   75.84    6.90   3
  -1  -9 -13   70.94    6.22   4
   1   9  13   98.61   12.97   2
  -1   9 -13   89.58    6.66   1
  -1   9 -13   86.69    8.25   2
   1   9  13   83.88    6.53   3
  -2  -9 -13   14.11    3.94   4
  -2  -9 -13   11.83    4.65   1
  -2  -9 -13    9.32    4.43   3
  -2   9 -13   10.86    3.83   1
   2   9  13   12.63    4.25   3
  -2   9 -13    9.05    5.12   2
  -3  -9 -13   11.13    5.10   3
  -3  -9 -13   17.48    6.06   1
  -3   9 -13   11.35    6.55   2
  -3   9 -13   11.25    4.39   1
   3   9  13   11.71    5.27   3
   3  10 -13   16.42    5.14   3
  -3  10  13    7.43    6.26   2
  -3  10  13   20.92    4.84   3
   3  10 -13   20.47    5.82   4
  -3  10  13   13.18    4.23   4
   2 -10 -13    5.08    4.02   3
  -2  10  13    3.51    3.30   3
  -2  10  13    4.17    3.14   4
  -2  10  13   -4.12    5.38   2
   2  10 -13   -4.01    3.88   4
   2  10 -13    1.24    4.01   3
   1 -10 -13   62.25    6.21   3
   1  10 -13   55.25    5.18   4
   1  10 -13   68.77    5.54   3
  -1  10  13   68.08    5.80   3
  -1  10  13   58.29    9.02   2
  -1  10  13   79.14    6.20   4
   1  10 -13   48.93    6.15   2
   0 -10 -13   -0.50    2.94   3
   0  10  13   -2.10    2.17   4
   0  10 -13    1.98    2.22   4
   0  10  13    2.53    2.71   3
   0  10  13    5.03    6.27   2
   0  10 -13   -0.89    1.52   4
   0  10 -13    3.21    1.82   3
   0  10 -13   -0.12    3.24   2
  -1 -10 -13   29.64    4.97   3
   1  10  13   50.85   11.25   2
   1  10  13   29.82    4.83   3
  -1  10 -13   34.79    4.99   1
  -1  10 -13   36.25    6.46   2
  -2 -10 -13   14.54    4.63   3
   2  10  13   11.65    4.10   3
   2  10  13   20.05    8.37   2
  -2  10 -13   11.23    3.90   1
  -2  10 -13   17.35    5.58   2
   2 -11 -13    0.90    3.43   3
  -2  11  13   -9.02    5.51   2
   2  11 -13    0.01    4.06   3
  -2  11  13   -0.42    3.15   4
  -2  11  13   -1.60    3.05   3
   2  11 -13   -0.36    4.09   4
   1 -11 -13  197.86   10.66   3
   1  11 -13  204.25    9.87   3
  -1  11  13  199.78   10.71   3
  -1  11  13  189.10   14.57   2
   1  11 -13  192.31   10.12   4
  -1  11  13  178.93   10.41   4
   0 -11 -13   14.70    4.02   3
   0  11 -13   14.80    2.29   4
   0  11 -13   14.71    4.70   2
   0  11  13   16.53    4.28   3
   0  11 -13   12.05    2.23   3
   0  11  13   33.82    8.80   2
   0  11 -13    8.05    2.66   4
   0  11  13   16.79    3.70   4
  -1 -11 -13    2.68    3.40   3
  -1  11 -13   18.01    3.86   1
   1  11  13    7.09    3.75   3
   1  11  13   21.17    9.70   2
  -1  11 -13   10.49    4.97   2
  -2 -11 -13    3.05    4.16   3
   2  11  13    7.17    4.46   3
  -2  11 -13    1.91    4.48   2
   2  11  13  -13.42    6.95   2
  -2  11 -13   -2.33    2.58   1
   2  12 -13   -2.30    4.36   3
  -2  12  13  -12.49    6.47   2
   2  12 -13   -9.59    3.96   4
  -2  12  13   -0.97    3.42   3
  -2  12  13    3.01    3.06   4
   1 -12 -13   17.72    4.42   3
   1  12 -13   20.90    4.27   4
  -1  12  13   11.04    3.41   4
  -1  12  13   20.64    4.56   3
  -1  12  13   15.85    7.45   2
   1  12 -13   20.02    4.28   3
   0 -12 -13    0.11    3.26   3
   0  12  13   13.34    7.94   2
   0  12 -13   -2.14    1.54   4
   0  12 -13   -6.00    3.09   2
   0  12  13   -1.90    2.84   3
   0  12 -13   -3.79    2.36   4
  -1 -12 -13    8.18    4.00   3
  -1  12 -13    3.55    2.92   1
   1  12  13   28.48   11.02   2
  -1  12 -13   -4.37    3.82   2
   1  12  13    2.83    3.53   3
   1 -13 -13    1.23    3.67   3
   1  13 -13    3.54    4.10   3
  -1  13  13   -9.27    8.43   2
  -1  13  13    7.60    4.11   3
   1  13 -13    0.64    3.36   4
   0 -13 -13   74.22    7.49   3
   0  13 -13   72.21    5.45   4
   0  13  13   94.36    7.72   3
   0  13 -13   75.02    8.92   2
  -1 -13 -13   30.80    5.79   3
   1  13  13   32.96   12.17   2
   1  13  13   26.22    5.41   3
  -1  13 -13   28.47    6.99   2
   4   0 -14   44.74    6.56   3
  -4   0  14   36.49    6.19   3
   3   0 -14   70.04    6.73   4
   3   0 -14   70.51    6.77   3
  -3   0  14   47.64    5.58   3
  -2   0  14  588.70   23.09   4
  -2   0  14  624.79   23.34   3
   2   0 -14  533.91   23.32   4
   2   0 -14  546.57   23.25   3
   2   0 -14  553.92   23.34   4
   1   0 -14  220.71   10.43   4
   1   0 -14  235.61   10.45   3
  -1   0  14  239.87   10.36   3
   1   0 -14  246.14   10.66   4
   1   0 -14  216.73   10.47   3
   0   0 -14    9.37    2.12   2
   0   0 -14   11.76    2.31   3
   0   0  14    7.37    1.86   3
   0   0 -14   11.17    2.16   4
   0   0 -14   10.61    2.11   4
   0   0  14   13.80    2.18   4
   0   0 -14    7.55    2.05   3
  -1   0 -14 1124.56   41.13   4
  -1   0 -14 1094.29   40.96   4
   1   0  14 1103.41   40.78   3
  -1   0 -14 1107.53   40.82   3
   1   0  14 1067.49   40.57   4
  -1   0 -14 1084.54   43.23   2
  -1   0 -14 1045.97   40.92   3
  -2   0 -14   42.65    6.29   1
   2   0  14   36.42    4.99   3
  -2   0 -14   45.78    4.41   3
  -2   0 -14   55.15    4.31   4
  -2   0 -14   46.43    4.02   3
  -2   0 -14   44.27    3.86   4
  -3   0 -14    5.51    2.78   4
  -3   0 -14    2.43    4.57   1
  -4  -1  14    7.09    4.32   3
   4  -1 -14    5.81    4.88   3
   4   1 -14    8.76    5.01   3
  -4   1  14    4.67    4.36   3
  -3  -1  14    9.71    3.44   3
   3  -1 -14    3.06    3.60   4
   3  -1 -14    5.95    4.38   3
   3   1 -14   -0.20    3.69   3
  -3   1  14    4.10    3.29   3
   3   1 -14    4.71    3.95   4
  -2  -1  14  172.14    8.47   3
  -2  -1  14  152.87    7.96   4
   2  -1 -14  140.29    8.34   4
   2  -1 -14  151.14    8.49   3
   2  -1 -14  162.27    8.73   4
  -2   1  14  152.13    7.10   2
  -2   1  14  144.82    8.06   4
   2   1 -14  157.55    8.65   4
   2   1 -14  151.98    8.45   3
   2   1 -14  151.72    8.68   4
  -2   1  14  162.41    8.37   3
   1  -1 -14   12.12    2.81   4
  -1  -1  14    6.41    1.72   4
   1  -1 -14    8.53    2.55   3
   1  -1 -14    7.86    2.36   4
   1  -1 -14    6.76    2.54   3
  -1  -1  14    9.28    2.21   3
   1   1 -14    7.01    2.51   3
   1   1 -14    9.66    2.89   4
  -1   1  14    6.94    1.83   4
  -1   1  14    6.52    2.28   3
   1   1 -14    7.13    2.68   3
   1   1 -14    6.75    2.15   4
   0  -1 -14   25.82    2.94   3
   0  -1 -14   24.10    3.02   2
   0  -1  14   26.44    2.54   4
   0  -1 -14   27.24    2.98   4
   0  -1 -14   26.35    3.07   3
   0  -1 -14   24.84    2.95   4
   0  -1  14   23.40    2.61   3
   0   1 -14   25.42    2.87   4
   0   1 -14   21.05    2.69   2
   0   1 -14   22.87    2.65   4
   0   1 -14   26.66    2.86   3
   0   1  14   27.29    2.89   3
   0   1 -14   25.75    2.84   3
   0   1  14   29.63    3.15   4
  -1  -1 -14  129.26    6.74   4
  -1  -1 -14  126.71    6.77   3
  -1  -1 -14  145.77    8.42   1
   1  -1  14  134.62    6.18   3
   1  -1  14  121.84    5.82   4
  -1  -1 -14  123.08    6.50   3
  -1  -1 -14  137.21    6.75   4
  -1   1 -14  131.70    6.36   4
  -1   1 -14  134.32    6.28   3
  -1   1 -14  137.88    8.37   2
   1   1  14  131.21    6.61   3
  -1   1 -14  141.82    6.58   4
  -1   1 -14  129.11    6.40   3
  -2  -1 -14   53.80    4.25   3
  -2  -1 -14   63.05    4.88   4
  -2  -1 -14   58.32    4.54   4
  -2  -1 -14   60.77    7.13   1
  -2  -1 -14   59.76    4.83   3
   2   1  14   59.56    4.61   3
  -2   1 -14   59.03    4.17   4
  -2   1 -14   61.43    4.85   3
  -2   1 -14   59.04    4.28   3
  -2   1 -14   58.89    7.34   1
  -2   1 -14   59.39    4.33   4
  -3  -1 -14    3.54    2.65   4
  -3  -1 -14    2.60    4.34   1
  -3  -1 -14    4.82    2.82   3
  -3   1 -14    4.71    4.48   1
  -3   1 -14    1.14    2.27   4
  -3   1 -14    1.41    2.97   3
  -4  -2  14   -0.14    3.86   3
   4  -2 -14    2.05    4.99   3
   4   2 -14    1.95    5.43   3
  -4   2  14    3.60    4.04   3
   3  -2 -14    2.19    3.74   4
  -3  -2  14    1.28    3.41   3
   3  -2 -14    4.64    3.93   3
   3   2 -14   -1.69    3.66   4
   3   2 -14    0.34    4.24   3
  -3   2  14    2.83    3.30   3
  -3   2  14    3.96    4.24   4
   2  -2 -14    4.23    2.46   4
   2  -2 -14    6.01    3.31   4
  -2  -2  14    7.36    2.62   3
  -2  -2  14    7.88    2.71   4
   2  -2 -14    5.94    3.29   3
  -2   2  14    7.70    2.85   3
   2   2 -14    4.97    3.56   3
   2   2 -14    9.61    3.79   4
   2   2 -14    9.22    2.99   4
  -2   2  14    7.37    2.56   2
  -2   2  14    6.80    2.69   4
   1  -2 -14  309.30   13.34   4
  -1  -2  14  311.73   12.74   3
  -1  -2  14  299.21   12.57   4
   1  -2 -14  298.94   13.29   4
   1  -2 -14  282.99   12.79   2
   1  -2 -14  309.27   13.33   3
  -1   2  14  303.59   13.07   3
   1   2 -14  295.45   13.18   3
   1   2 -14  302.83   13.19   4
   1   2 -14  287.82   13.03   4
   1   2 -14  338.19   13.18   3
  -1   2  14  313.48   13.62   2
  -1   2  14  309.53   13.15   4
   0  -2 -14  218.68   10.11   3
   0  -2 -14  219.88   10.72   2
   0  -2 -14  217.21   10.16   4
   0  -2  14  224.48    9.49   3
   0  -2 -14  241.02   10.27   3
   0  -2 -14  231.40   10.35   4
   0  -2  14  228.29    9.33   4
   0   2  14  237.15   10.24   3
   0   2 -14  222.19    9.70   3
   0   2 -14  208.88    9.86   2
   0   2 -14  235.88    9.77   4
   0   2 -14  238.67    9.74   3
   0   2 -14  229.73    9.80   4
  -1  -2 -14   24.49    4.38   1
  -1  -2 -14   20.48    3.06   3
  -1  -2 -14   18.06    2.74   3
  -1  -2 -14   19.68    2.78   4
  -1  -2 -14   21.44    3.04   4
  -1   2 -14   19.60    2.42   4
  -1   2 -14   17.13    2.17   4
   1   2  14   20.58    2.94   3
  -1   2 -14   17.57    2.18   3
  -1   2 -14   25.76    2.53   3
   1   2  14   17.23    2.64   4
  -2  -2 -14   13.24    3.01   4
  -2  -2 -14   12.69    3.13   4
  -2  -2 -14   11.36    2.87   3
  -2  -2 -14   15.67    4.48   1
  -2  -2 -14   15.95    2.88   3
  -2   2 -14   21.05    2.67   4
   2   2  14   12.56    2.83   3
  -2   2 -14   12.83    2.40   4
  -2   2 -14   11.69    2.26   3
  -2   2 -14    7.87    3.99   1
  -3  -2 -14   68.68    6.09   3
  -3  -2 -14   58.33    8.28   1
  -3  -2 -14   74.04    6.19   4
  -3   2 -14   67.26    5.93   3
  -3   2 -14   66.47    8.94   1
  -4  -3  14   68.31    7.60   3
   4  -3 -14   68.39    7.76   3
   4   3 -14   64.68    8.15   3
  -4   3  14   60.77    7.02   3
  -3  -3  14   -0.67    3.25   3
   3  -3 -14   -3.35    3.46   4
   3  -3 -14    2.27    3.72   3
  -3   3  14   -3.66    2.67   4
   3   3 -14    4.55    3.87   4
   3   3 -14    0.96    4.28   3
  -3   3  14   -2.29    3.29   3
   2  -3 -14  425.33   18.48   3
   2  -3 -14  460.37   18.71   4
   2  -3 -14  412.22   18.48   4
  -2  -3  14  439.97   18.16   3
  -2   3  14  448.45   18.36   4
  -2   3  14  406.41   18.23   2
   2   3 -14  427.53   18.51   4
   2   3 -14  423.95   18.61   4
  -2   3  14  448.40   18.39   3
   2   3 -14  418.27   18.23   3
   1  -3 -14  216.30   10.47   4
   1  -3 -14  234.81   10.49   3
  -1  -3  14  221.42    9.68   3
   1  -3 -14  204.32   10.36   2
   1  -3 -14  221.04   10.51   4
   1   3 -14  205.79   10.18   3
   1   3 -14  228.57   10.11   3
   1   3 -14  203.98   10.16   4
   1   3 -14  216.65   10.27   4
  -1   3  14  229.08   10.33   3
  -1   3  14  264.58   11.83   2
   0  -3 -14  218.47    9.94   3
   0  -3  14  195.15    8.76   3
   0  -3 -14  214.05    9.88   3
   0  -3 -14  211.14    9.89   4
   0  -3 -14  224.80   10.00   4
   0  -3 -14  203.29   10.58   2
   0   3  14  217.89    9.92   3
   0   3 -14  214.93    9.14   4
   0   3 -14  205.23    9.56   2
   0   3 -14  228.88    9.32   3
   0   3 -14  227.30    9.12   3
   0   3  14  200.90   11.79   2
   0   3 -14  217.58    9.24   4
   0   3  14  212.70    9.88   4
  -1  -3 -14    0.25    2.00   4
   1  -3  14    3.52    1.27   3
  -1  -3 -14    1.29    2.04   3
  -1  -3 -14    2.46    2.41   3
  -1  -3 -14   -1.26    2.84   1
   1  -3  14    2.02    1.05   3
  -1  -3 -14    3.60    2.14   4
   1   3  14    1.78    1.84   4
  -1   3 -14    0.30    1.31   3
  -1   3 -14    2.08    1.42   4
  -1   3 -14    2.31    1.29   3
  -1   3 -14    1.43    1.41   4
   1   3  14   -1.98    1.93   3
  -2  -3 -14   14.86    3.36   3
  -2  -3 -14   18.34    3.58   4
  -2  -3 -14   14.23    3.00   3
  -2  -3 -14   11.19    4.68   1
  -2   3 -14   11.64    2.25   4
   2   3  14   16.68    3.25   3
  -2   3 -14   10.53    2.07   4
  -2   3 -14   14.77    4.64   1
  -3  -3 -14   33.66    4.92   3
  -3  -3 -14   49.86    7.87   1
  -3  -3 -14   44.90    5.52   4
  -3   3 -14   38.79    4.46   4
  -3   3 -14   41.62    7.12   1
  -3   3 -14   55.93    4.96   3
  -4  -4  14   -1.75    4.27   3
   4  -4 -14    0.57    4.32   3
  -4   4  14    2.07    3.96   3
   4   4 -14    3.74    5.06   3
  -3  -4  14   12.83    3.80   3
   3  -4 -14   14.66    4.47   3
  -3   4  14    9.88    3.63   4
   3   4 -14   18.10    5.05   4
   3   4 -14    2.46    4.09   3
  -3   4  14    9.17    3.70   3
  -3   4  14    8.59    3.94   2
   2  -4 -14    9.47    3.37   4
   2  -4 -14   13.54    3.17   4
   2  -4 -14   14.87    3.67   3
  -2  -4  14    7.37    2.81   3
   2   4 -14   12.81    3.71   4
   2   4 -14    3.86    2.72   4
  -2   4  14    8.59    3.06   3
   2   4 -14    6.90    3.54   3
  -2   4  14    6.07    3.34   2
  -2   4  14   13.12    3.10   4
  -1  -4  14  184.70    8.31   3
   1  -4 -14  182.79    9.24   4
   1  -4 -14  189.80    9.31   4
   1  -4 -14  187.87    9.20   3
   1  -4 -14  176.26    9.59   2
  -1  -4  14  179.35    8.05   4
   1   4 -14  183.72    8.82   3
   1   4 -14  175.83    8.87   3
   1   4 -14  181.12    8.84   4
  -1   4  14  201.08    9.22   3
  -1   4  14  177.51    8.99   4
  -1   4  14  187.31   10.39   2
   1   4 -14  180.06    8.95   4
   0  -4 -14  187.08    9.04   3
   0  -4 -14  168.98    9.64   2
   0  -4 -14  169.64    8.74   4
   0  -4 -14  172.38    8.77   4
   0   4 -14  183.92    7.92   4
   0   4 -14  180.55    8.48   2
   0   4  14  152.15   11.41   2
   0   4 -14  183.04    8.01   4
   0   4  14  178.39    8.72   4
   0   4  14  188.82    8.80   3
   0   4 -14  189.88    7.78   3
   0   4 -14  177.17    7.94   3
  -1  -4 -14   53.37    4.77   3
  -1  -4 -14   51.30    5.75   1
  -1  -4 -14   39.07    4.17   4
  -1  -4 -14   42.34    4.61   4
   1   4  14   37.78    4.21   3
  -1   4 -14   38.49    2.86   4
  -1   4 -14   49.99    2.91   3
  -1   4 -14   47.65    2.98   4
  -1   4 -14   48.17    2.62   3
  -2  -4 -14   92.51    7.93   1
  -2  -4 -14   92.11    6.66   4
  -2  -4 -14   96.62    6.67   3
  -2   4 -14   93.42    5.13   4
  -2   4 -14  102.54    8.51   1
   2   4  14  112.15    6.93   3
  -2   4 -14  106.46    5.06   3
  -2   4 -14   99.15    5.03   4
  -3  -4 -14   12.95    3.86   3
  -3  -4 -14   17.19    4.40   4
  -3  -4 -14   17.79    6.09   1
  -3   4 -14   18.93    3.01   3
  -3   4 -14   20.60    3.40   4
  -3   4 -14   15.50    5.36   1
  -4  -5  14    6.59    4.51   3
   4  -5 -14   -2.39    4.82   3
   4   5 -14   -6.29    5.05   3
  -4   5  14   -0.69    4.20   3
   3  -5 -14  297.74   14.58   3
  -3  -5  14  283.60   14.37   3
  -3   5  14  276.72   15.11   2
  -3   5  14  288.02   14.28   3
  -3   5  14  305.74   14.43   4
   3   5 -14  311.96   15.17   4
   3   5 -14  293.63   14.60   3
   2  -5 -14   63.86    5.93   3
   2  -5 -14   49.63    5.45   4
  -2  -5  14   68.51    5.24   3
   2   5 -14   58.80    5.97   4
  -2   5  14   50.53    6.52   2
   2   5 -14   56.74    5.76   3
  -2   5  14   56.38    5.15   4
   2   5 -14   62.97    5.97   3
  -2   5  14   60.59    5.33   3
   1  -5 -14    1.55    2.31   2
  -1  -5  14    2.04    1.26   4
   1  -5 -14    2.87    2.75   3
   1  -5 -14    0.65    2.24   4
  -1  -5  14    0.34    1.50   3
   1  -5 -14    4.11    2.72   4
   1   5 -14   -1.79    2.43   4
   1   5 -14    2.92    2.31   3
   1   5 -14    0.84    2.17   4
  -1   5  14    0.38    2.27   3
   1   5 -14    1.67    2.47   3
  -1   5  14    1.52    2.00   4
   0  -5 -14  224.58   11.05   4
   0  -5 -14  236.06   11.14   4
   0  -5 -14  233.17   11.28   3
   0  -5  14  235.38    9.51   3
   0  -5  14  224.90    9.36   3
   0   5 -14  237.63   10.14   4
   0   5  14  242.26   11.14   3
   0   5 -14  231.57    9.97   4
   0   5  14  242.75   11.13   4
   0   5 -14  248.68   10.13   3
   0   5  14  276.17   14.72   2
   0   5 -14  233.68   10.83   2
   0   5 -14  254.30    9.85   3
  -1  -5 -14  133.11    7.17   4
  -1  -5 -14  111.77    7.03   4
  -1  -5 -14  136.56    7.33   3
  -1  -5 -14  126.50    7.96   1
  -1   5 -14  117.32    4.71   3
   1   5  14  108.49    7.04   3
  -1   5 -14  118.67    4.85   3
  -1   5 -14  116.98    5.19   4
  -1   5 -14  117.53    5.17   4
   1   5  14   91.61    6.43   4
  -2  -5 -14   68.64    6.99   1
  -2  -5 -14   68.22    5.90   4
  -2  -5 -14   71.22    5.94   3
  -2   5 -14   77.85    8.40   1
  -2   5 -14   68.20    3.69   4
   2   5  14   66.10    5.93   3
  -3  -5 -14   33.10    6.94   1
  -3  -5 -14   37.70    5.84   3
  -3  -5 -14   45.31    6.07   4
  -3   5 -14   59.15    8.00   1
  -3   5 -14   46.83    3.74   4
  -3   5 -14   44.67    4.14   4
   3  -6 -14   14.82    4.49   3
  -3  -6  14   15.74    4.27   3
   3   6 -14    7.02    4.26   4
  -3   6  14    7.99    3.70   3
   3   6 -14   12.82    5.06   3
  -3   6  14   12.83    4.79   2
  -3   6  14   10.50    3.89   4
   2  -6 -14   89.93    7.07   3
  -2  -6  14   93.97    6.18   3
   2  -6 -14   87.77    6.61   4
   2   6 -14  100.52    7.07   3
  -2   6  14   89.34    6.55   4
  -2   6  14   89.70    6.56   3
  -2   6  14   81.01    8.14   2
   2   6 -14  102.07    7.32   4
   1  -6 -14    3.63    2.83   4
  -1  -6  14    7.93    1.52   4
  -1  -6  14    6.66    1.90   3
   1  -6 -14    6.65    3.05   3
   1  -6 -14    8.05    2.79   4
   1   6 -14    9.86    3.00   3
   1   6 -14    6.79    0.95   2
   1   6 -14   11.75    2.73   4
  -1   6  14    6.42    2.66   3
   1   6 -14   12.18    2.67   3
  -1   6  14   11.57    4.69   2
  -1   6  14    7.05    2.51   4
   1   6 -14    6.93    2.80   4
   0  -6  14   38.37    2.09   3
   0  -6 -14   42.03    4.42   4
   0  -6 -14   39.35    4.34   4
   0  -6 -14   40.33    4.46   3
   0   6 -14   39.32    3.15   3
   0   6  14   52.89    4.99   3
   0   6 -14   35.94    3.32   4
   0   6  14   49.40    7.96   2
   0   6 -14   42.15    2.94   3
   0   6 -14   35.84    4.09   2
   0   6 -14   35.17    3.19   4
   0   6  14   35.67    4.04   4
  -1  -6 -14    3.33    2.72   3
  -1  -6 -14   -0.38    3.10   1
  -1  -6 -14    2.84    2.65   4
  -1  -6 -14    4.08    2.58   4
  -1   6 -14    3.24    3.29   2
  -1   6 -14    4.42    1.19   4
  -1   6 -14    2.89    0.96   4
   1   6  14    3.78    2.46   3
  -2  -6 -14   15.28    4.88   1
  -2  -6 -14   15.06    3.98   4
  -2  -6 -14   11.75    3.66   3
   2   6  14   15.34    3.91   3
  -2   6 -14   16.16    1.63   4
  -2   6 -14   18.22    1.61   4
  -2   6 -14   16.38    4.62   1
  -3  -6 -14    1.46    3.58   3
  -3  -6 -14    2.95    5.13   1
  -3  -6 -14    5.68    3.51   4
  -3   6 -14    5.81    4.77   1
  -3   6 -14    4.29    1.85   4
  -3   6 -14    4.58    2.09   4
   3  -7 -14   11.60    4.50   3
   3   7 -14   13.15    4.82   4
   3   7 -14   13.73    4.83   3
  -3   7  14   14.98    4.65   3
  -3   7  14    7.94    5.13   2
  -3   7  14   15.54    4.62   4
   2  -7 -14   54.74    5.78   3
   2   7 -14   56.60    5.90   3
  -2   7  14   58.88    5.57   4
  -2   7  14   54.28    5.76   3
  -2   7  14   55.40    7.48   2
   2   7 -14   51.66    5.93   4
   1  -7 -14   14.53    3.31   4
   1  -7 -14   12.26    3.60   3
   1   7 -14   18.15    3.14   4
  -1   7  14   15.62    3.40   3
  -1   7  14   13.53    3.02   4
   1   7 -14   14.16    2.20   2
   1   7 -14   10.78    3.28   4
   1   7 -14   20.32    3.42   3
   0  -7 -14   60.67    5.23   3
   0  -7 -14   61.99    4.98   4
   0  -7 -14   51.31    4.98   4
   0  -7 -14   57.99    4.78   1
   0   7 -14   56.14    3.31   3
   0   7 -14   56.00    3.32   3
   0   7  14   63.61    4.99   4
   0   7 -14   49.10    3.68   4
   0   7 -14   53.88    3.84   4
   0   7  14   57.83    4.95   3
   0   7 -14   53.35    5.10   2
  -1  -7 -14   11.19    3.09   4
  -1  -7 -14    3.66    2.94   3
  -1  -7 -14   10.52    3.74   1
  -1   7 -14    7.04    3.66   2
   1   7  14   15.18    3.81   3
   1   7  14   -2.57    5.86   2
  -2  -7 -14   69.68    7.78   1
  -2  -7 -14   53.30    6.17   3
  -2  -7 -14   62.47    6.52   4
  -2   7 -14   77.50    7.28   1
   2   7  14   51.36    5.91   3
  -3  -7 -14    7.73    4.41   3
  -3  -7 -14    6.30    5.36   1
  -3  -7 -14   10.33    4.16   4
  -3   7 -14    3.32    1.45   4
  -3   7 -14    9.02    4.72   1
  -3   7 -14    7.58    1.60   4
   3  -8 -14   -1.26    3.62   3
  -3   8  14    1.54    4.23   4
  -3   8  14    1.79    3.67   3
   3   8 -14    3.09    4.46   3
  -3   8  14   -0.47    4.65   2
   3   8 -14    5.26    4.52   4
   2  -8 -14   19.35    4.27   3
  -2   8  14   15.16    3.74   4
   2   8 -14   17.65    4.48   4
  -2   8  14   14.72    3.87   3
   2   8 -14   19.89    4.57   3
  -2   8  14   15.54    5.44   2
   1  -8 -14   27.79    4.40   3
   1  -8 -14    6.61    3.07   4
   1   8 -14   11.65    2.63   2
  -1   8  14   18.98    6.31   2
   1   8 -14   16.73    3.56   4
   1   8 -14   16.17    3.27   4
   1   8 -14   12.61    3.31   3
  -1   8  14   11.39    3.11   4
  -1   8  14   14.63    3.44   3
   0  -8 -14  245.40   11.93   3
   0  -8 -14  249.32   11.94   4
   0  -8 -14  252.87   11.51   1
   0   8 -14  244.56    9.72   3
   0   8 -14  236.55   12.20   2
   0   8  14  249.33   11.88   3
   0   8 -14  228.94    9.98   3
   0   8 -14  235.85   10.20   4
   0   8  14  248.61   11.83   4
  -1  -8 -14   16.38    3.83   3
  -1  -8 -14   19.07    3.81   4
  -1  -8 -14   20.83    4.40   1
   1   8  14   24.93    4.13   3
   1   8  14   20.51    7.36   2
  -1   8 -14   19.96    4.69   2
  -2  -8 -14   45.20    5.85   4
  -2  -8 -14   46.58    6.14   3
  -2  -8 -14   45.14    6.66   1
  -2   8 -14   45.09    7.23   2
  -2   8 -14   40.32    6.25   1
   2   8  14   29.42    5.04   3
  -3  -8 -14    4.69    3.84   4
  -3  -8 -14   -0.54    4.63   3
  -3  -8 -14   10.66    5.86   1
  -3   8 -14    2.50    4.06   1
   3  -9 -14   17.18    4.70   3
   3   9 -14   20.88    5.86   4
  -3   9  14   11.91    6.33   2
  -3   9  14   22.88    5.26   3
   3   9 -14   18.13    5.44   3
   2  -9 -14  123.33    8.25   3
   2   9 -14  135.92    8.43   4
   2   9 -14  127.49    8.59   3
  -2   9  14  115.29   11.34   2
  -2   9  14  120.18    8.25   3
   1  -9 -14   14.47    4.20   3
   1   9 -14    6.31    4.69   2
   1   9 -14   19.81    3.72   4
  -1   9  14   11.89    3.25   4
  -1   9  14   12.47    3.55   3
  -1   9  14   12.42    6.21   2
   1   9 -14   13.37    4.53   4
   1   9 -14   15.67    3.57   3
   0  -9 -14    0.16    2.51   1
   0  -9 -14    4.36    3.07   4
   0  -9 -14    4.81    3.62   3
   0   9  14    2.17    2.55   4
   0   9 -14    3.64    1.54   3
   0   9  14   17.31    7.66   2
   0   9 -14    0.35    1.76   4
   0   9 -14    3.55    3.12   2
   0   9  14    5.43    3.34   3
   0   9 -14    3.99    2.10   4
  -1  -9 -14   71.90    6.39   4
  -1  -9 -14   83.65    6.87   3
  -1  -9 -14   86.67    6.88   1
  -1   9 -14   85.48    6.94   1
   1   9  14   96.56   12.95   2
  -1   9 -14   92.51    8.45   2
   1   9  14   93.41    6.91   3
  -2  -9 -14    5.62    3.37   4
  -2  -9 -14    9.92    4.57   1
  -2  -9 -14    3.98    3.73   3
  -2   9 -14   10.62    3.86   1
   2   9  14   -0.33    3.46   3
  -2   9 -14    9.94    5.03   2
   2 -10 -14    8.39    4.28   3
  -2  10  14    2.30    3.09   4
  -2  10  14    5.90    3.83   3
  -2  10  14   -0.30    5.71   2
   2  10 -14    0.21    3.88   4
   2  10 -14    5.14    4.32   3
   1 -10 -14   52.95    5.80   3
  -1  10  14   67.97    5.87   3
   1  10 -14   56.09    5.37   4
  -1  10  14   54.92    9.34   2
  -1  10  14   36.15    4.95   4
   1  10 -14   57.83    5.12   3
   0 -10 -14   -1.99    3.17   3
   0  10 -14   -0.57    1.60   4
   0  10 -14   -0.68    2.10   4
   0  10  14   -0.62    2.77   3
   0  10  14    9.96    7.18   2
   0  10 -14    0.24    1.42   3
   0  10 -14    0.47    3.17   2
  -1 -10 -14  270.10   13.74   3
  -1  10 -14  269.78   13.49   1
   1  10  14  251.98   13.20   3
   1  10  14  227.11   18.73   2
  -1  10 -14  276.83   15.15   2
  -2 -10 -14    8.05    4.26   3
  -2  10 -14    2.10    4.26   2
  -2  10 -14    7.23    3.49   1
   2  10  14   -0.43    3.72   3
   2 -11 -14   11.52    4.07   3
  -2  11  14   -3.14    6.17   2
   2  11 -14    3.17    4.37   4
  -2  11  14    6.95    3.68   4
   2  11 -14    8.52    4.45   3
  -2  11  14    1.57    3.67   3
   1 -11 -14   44.75    5.42   3
  -1  11  14   36.82    5.62   4
  -1  11  14   36.57    8.59   2
   1  11 -14   50.19    4.91   3
  -1  11  14   38.47    5.16   3
   1  11 -14   38.68    4.88   4
   0 -11 -14   27.02    4.78   3
   0  11 -14   21.09    3.11   4
   0  11  14   25.88    4.83   3
   0  11 -14   24.48    2.66   4
   0  11 -14   20.25    4.93   2
   0  11  14   45.55   10.54   2
  -1 -11 -14    3.50    3.92   3
  -1  11 -14    2.72    4.27   2
   1  11  14    6.98    3.60   3
  -1  11 -14    2.79    2.82   1
   1  11  14   -5.86    8.99   2
  -2 -11 -14   70.35    8.15   3
  -2  11 -14   77.37    9.41   2
  -2  11 -14   71.00    6.92   1
   2  11  14   73.59    7.86   3
   2  11  14   57.55   11.38   2
   2 -12 -14   22.90    7.69   3
   2  12 -14   39.01    5.71   3
  -2  12  14   17.07    7.85   2
   1 -12 -14   -0.06    3.53   3
  -1  12  14   -0.17    3.11   3
  -1  12  14    7.40    8.67   2
   1  12 -14    2.46    3.78   3
   1  12 -14   -4.40    3.07   4
   0 -12 -14   32.64    5.55   3
   0  12 -14   36.34    4.02   4
   0  12  14   31.94    5.03   3
   0  12 -14   31.04    3.60   4
  -1 -12 -14    6.23    3.90   3
   1  12  14    9.57    3.92   3
  -1  12 -14    0.65    4.46   2
   1  12  14    6.71   10.61   2
  -1  12 -14   15.74    4.67   1
   1 -13 -14   12.36    4.25   3
  -1  13  14   18.26    8.76   2
   1  13 -14   30.73    4.46   3
  -1  13  14   35.85    8.50   3
   0 -13 -14   42.91    6.26   3
   0  13 -14   28.32    3.64   4
   0  13  14   33.85    5.64   3
  -4   0  15    5.63    4.07   3
   4   0 -15   -0.54    5.03   3
  -3   0  15   -1.99    2.77   3
   3   0 -15    0.42    4.12   3
   3   0 -15    7.52    4.08   4
   2   0 -15   -4.46    2.85   4
  -2   0  15    1.29    2.60   3
   2   0 -15   -1.31    2.85   3
  -2   0  15    1.96    2.16   4
   2   0 -15   -0.99    2.37   4
   1   0 -15    1.40    2.48   3
  -1   0  15   -1.02    1.67   3
   1   0 -15    2.58    2.20   3
  -1   0  15   -0.67    1.18   4
   1   0 -15    1.00    2.30   4
   1   0 -15    1.69    1.91   4
   0   0  15    2.64    1.75   3
   0   0 -15    2.91    1.86   3
   0   0 -15   -0.25    1.81   3
   0   0 -15    2.83    1.85   4
   0   0  15    1.61    1.65   4
   0   0 -15   -0.18    1.40   2
   0   0 -15    1.25    1.67   4
  -1   0 -15   17.73    4.01   1
  -1   0 -15   10.66    2.37   4
  -1   0 -15    7.40    2.06   4
  -2   0 -15   -0.19    1.96   3
  -2   0 -15   -2.11    3.42   1
  -2   0 -15   -3.33    1.77   4
  -2   0 -15    1.21    1.93   4
  -3   0 -15   -2.10    2.39   4
  -3   0 -15   -1.87    4.03   1
  -4  -1  15    6.96    4.41   3
   4  -1 -15   11.02    5.57   3
  -4   1  15    6.76    4.26   3
   4   1 -15   -8.34    4.89   3
  -3  -1  15   -2.51    2.80   3
   3  -1 -15    4.13    3.96   3
   3  -1 -15   -3.50    3.55   4
  -3   1  15    1.83    3.03   3
   3   1 -15    1.26    4.14   3
   3   1 -15    6.77    4.01   4
   2  -1 -15  130.50    7.93   3
  -2  -1  15  130.60    7.43   3
   2  -1 -15  119.65    7.49   4
   2  -1 -15  118.28    7.63   4
   2   1 -15  129.10    7.90   3
  -2   1  15  130.41    7.25   4
   2   1 -15  118.58    7.52   4
  -2   1  15  138.80    7.71   3
   2   1 -15  119.40    7.66   4
   1  -1 -15   82.61    5.50   4
  -1  -1  15   74.75    4.60   4
   1  -1 -15   80.90    5.43   3
  -1  -1  15   90.91    5.13   3
   1  -1 -15   85.40    5.64   4
   1  -1 -15   86.44    5.68   3
  -1   1  15   72.09    4.86   4
   1   1 -15   83.53    5.48   3
   1   1 -15   80.85    5.26   4
  -1   1  15   77.28    5.01   3
   1   1 -15   84.98    5.61   3
   1   1 -15   85.19    5.42   4
   0  -1 -15   58.09    4.31   3
   0  -1 -15   48.25    4.15   4
   0  -1 -15   57.18    4.17   3
   0  -1 -15   46.69    4.10   2
   0  -1 -15   50.51    3.90   4
   0  -1  15   54.75    3.50   4
   0  -1  15   52.16    3.60   3
   0   1 -15   48.31    3.65   4
   0   1  15   47.72    3.67   3
   0   1 -15   40.10    3.65   2
   0   1 -15   50.64    3.82   3
   0   1  15   56.42    3.98   4
   0   1 -15   49.71    3.81   3
   0   1 -15   56.01    4.02   4
  -1  -1 -15    4.20    2.23   3
  -1  -1 -15    2.74    3.13   1
  -1  -1 -15    2.46    2.05   4
  -1  -1 -15    5.33    2.05   3
   1  -1  15    3.10    1.32   4
   1  -1  15    1.85    1.52   3
  -1  -1 -15    1.69    1.77   4
   1   1  15    4.35    1.92   3
  -1   1 -15    1.88    1.75   4
  -1   1 -15    3.38    1.75   3
  -1   1 -15    5.63    1.94   3
  -1   1 -15    3.40    1.79   4
   1   1  15    5.35    1.83   4
  -2  -1 -15   52.28    4.54   3
  -2  -1 -15   53.35    5.04   4
  -2  -1 -15   46.67    6.92   1
  -2  -1 -15   52.72    4.46   4
  -2   1 -15   53.41    4.00   4
  -2   1 -15   46.22    6.66   1
  -2   1 -15   44.76    4.03   4
  -2   1 -15   49.66    4.05   3
  -3  -1 -15   54.16    7.99   1
  -3  -1 -15   40.16    5.10   4
  -3  -1 -15   31.16    4.60   3
  -3   1 -15   37.78    7.00   1
  -3   1 -15   38.52    4.42   4
   4  -2 -15   -7.97    4.70   3
  -4  -2  15   -2.06    3.69   3
  -4   2  15   -2.29    3.90   3
   4   2 -15    5.04    4.96   3
   3  -2 -15   -6.84    3.22   4
   3  -2 -15    0.34    3.77   3
  -3  -2  15    4.57    3.15   3
   3   2 -15    2.07    3.86   4
  -3   2  15    3.22    3.39   3
   3   2 -15    4.25    3.96   3
   2  -2 -15   57.07    5.32   3
   2  -2 -15   54.36    5.03   4
   2  -2 -15   59.25    5.62   4
  -2  -2  15   63.18    5.11   3
   2   2 -15   54.88    5.55   4
  -2   2  15   60.69    5.42   3
  -2   2  15   50.86    4.94   4
   2   2 -15   64.25    5.99   3
   2   2 -15   47.98    5.44   4
   1  -2 -15  413.32   17.03   4
   1  -2 -15  376.48   16.26   2
  -1  -2  15  407.85   16.26   3
  -1  -2  15  394.05   16.08   4
   1  -2 -15  426.47   17.01   4
   1  -2 -15  390.21   16.70   3
   1   2 -15  396.74   16.75   4
   1   2 -15  387.44   16.59   4
   1   2 -15  375.57   16.69   3
  -1   2  15  396.20   16.62   3
  -1   2  15  410.28   16.94   2
   1   2 -15  423.36   16.64   3
   0  -2  15   19.28    2.44   3
   0  -2 -15   28.01    3.55   3
   0  -2  15   23.45    2.31   4
   0  -2 -15   22.67    3.12   4
   0  -2 -15   26.92    3.68   2
   0  -2 -15   33.36    3.54   3
   0  -2 -15   26.67    3.21   4
   0   2 -15   19.12    2.67   2
   0   2 -15   24.37    2.94   3
   0   2 -15   27.69    2.85   3
   0   2 -15   27.00    2.97   4
   0   2  15   20.87    2.89   3
   0   2  15   23.45    2.90   4
   0   2 -15   22.49    2.72   4
  -1  -2 -15   21.39    3.08   4
  -1  -2 -15   21.64    3.15   3
  -1  -2 -15   25.20    3.12   3
  -1  -2 -15   24.01    4.51   1
  -1  -2 -15   24.96    3.32   4
   1   2  15   22.34    3.15   3
  -1   2 -15   29.89    2.74   3
  -1   2 -15   24.11    2.53   3
  -1   2 -15   25.65    2.83   4
   1   2  15   27.61    3.17   4
  -1   2 -15   22.52    2.57   4
  -2  -2 -15   58.11    5.21   3
  -2  -2 -15   69.65    7.97   1
  -2  -2 -15   61.87    5.09   4
   2   2  15   58.32    5.49   3
  -2   2 -15   80.73    8.64   1
  -2   2 -15   60.06    4.28   4
  -2   2 -15   67.33    4.34   4
  -2   2 -15   56.40    4.13   3
  -3  -2 -15   36.57    7.26   1
  -3  -2 -15   31.94    4.73   4
  -3  -2 -15   25.25    4.41   3
  -3   2 -15   25.52    4.09   3
  -3   2 -15   22.75    6.00   1
  -4  -3  15   11.29    5.03   3
   4  -3 -15   11.36    5.19   3
  -4   3  15    9.59    4.97   3
   4   3 -15   14.20    5.70   3
   3  -3 -15   64.90    7.04   3
  -3  -3  15   76.32    7.18   3
   3  -3 -15   75.82    7.40   4
  -3   3  15   69.72    6.40   3
   3   3 -15   73.67    7.26   4
   3   3 -15   62.80    7.23   3
   2  -3 -15    5.65    2.57   4
   2  -3 -15    9.35    3.25   4
  -2  -3  15    6.54    2.78   3
   2  -3 -15    5.35    3.32   3
   2   3 -15    0.76    3.05   4
  -2   3  15    5.70    2.60   4
   2   3 -15    6.55    3.32   3
   2   3 -15    6.36    3.29   4
  -2   3  15    2.87    2.68   3
  -1  -3  15  432.19   17.95   4
   1  -3 -15  444.66   18.98   2
   1  -3 -15  453.81   19.06   4
   1  -3 -15  441.79   18.84   3
  -1  -3  15  468.06   18.21   3
   1  -3 -15  463.74   19.09   4
   1   3 -15  483.51   18.59   3
   1   3 -15  452.57   18.65   4
  -1   3  15  443.27   18.78   4
  -1   3  15  473.89   18.90   3
   1   3 -15  448.20   18.71   4
  -1   3  15  496.85   20.03   2
   1   3 -15  422.70   18.66   3
   0  -3 -15   68.99    4.96   4
   0  -3 -15   71.05    4.93   4
   0  -3 -15   67.06    4.94   3
   0  -3  15   69.53    3.87   3
   0  -3 -15   70.84    4.93   3
   0  -3  15   71.38    3.53   4
   0  -3 -15   71.11    5.56   2
   0   3  15   67.49    4.74   3
   0   3 -15   59.70    4.26   2
   0   3 -15   69.55    4.24   4
   0   3 -15   69.03    4.33   3
   0   3 -15   65.69    4.23   4
   0   3 -15   67.71    4.13   3
   0   3  15   67.35    4.72   4
  -1  -3 -15    4.32    2.09   3
  -1  -3 -15    2.53    2.10   4
  -1  -3 -15    1.35    2.09   4
  -1  -3 -15    3.62    2.59   3
  -1  -3 -15   -0.23    3.31   1
  -1   3 -15    1.99    1.55   4
  -1   3 -15    3.87    1.60   3
  -1   3 -15    3.60    1.41   3
  -1   3 -15    3.84    1.65   4
   1   3  15    3.01    2.23   3
  -2  -3 -15   22.77    3.96   3
  -2  -3 -15   14.44    4.81   1
  -2  -3 -15   21.75    3.81   4
  -2   3 -15   21.74    2.57   4
  -2   3 -15   22.05    2.80   4
  -2   3 -15   15.72    4.83   1
  -2   3 -15   20.17    2.54   3
   2   3  15   17.08    3.40   3
  -3  -3 -15    9.01    5.52   1
  -3  -3 -15    2.73    3.26   3
  -3  -3 -15    7.28    3.57   4
  -3   3 -15   -0.23    2.49   4
  -3   3 -15    3.71    2.72   3
  -3   3 -15    3.71    4.59   1
  -4  -4  15   20.24    5.08   3
   4  -4 -15   18.36    5.64   3
   4   4 -15   32.70    7.38   3
  -4   4  15   29.20    5.87   3
   3  -4 -15   10.17    4.19   3
  -3  -4  15    3.90    3.34   3
  -3   4  15   11.85    3.93   3
   3   4 -15    6.35    4.82   3
   3   4 -15    3.36    4.19   4
   2  -4 -15    3.13    3.26   3
   2  -4 -15    0.33    3.02   4
   2  -4 -15    6.45    2.76   4
  -2  -4  15    1.78    2.39   3
   2   4 -15   -5.27    2.83   3
   2   4 -15    0.83    3.14   4
  -2   4  15   -0.36    2.56   3
  -2   4  15    0.53    2.29   4
  -2   4  15    1.31    3.18   2
   1  -4 -15   79.90    5.99   2
  -1  -4  15   93.30    5.01   3
   1  -4 -15   79.83    6.15   3
  -1  -4  15   86.77    4.64   4
   1  -4 -15   90.69    6.14   4
   1  -4 -15   87.64    5.97   4
   1   4 -15   92.83    5.58   3
   1   4 -15   90.56    5.72   3
  -1   4  15   78.86    5.64   3
   1   4 -15   80.07    5.67   4
   1   4 -15   89.00    5.59   4
   0  -4 -15    2.00    2.18   4
   0  -4 -15    1.79    2.26   4
   0  -4  15    0.17    0.44   3
   0  -4 -15    7.32    2.72   3
   0   4 -15    6.78    1.93   4
   0   4 -15    2.69    1.87   4
   0   4  15   -6.60    4.07   2
   0   4 -15    5.54    1.94   3
   0   4 -15    4.51    1.98   2
   0   4  15    2.18    1.94   4
   0   4 -15    5.98    1.87   3
   0   4  15    3.68    2.20   3
  -1  -4 -15  131.60    8.40   1
  -1  -4 -15  117.58    6.84   4
  -1  -4 -15  127.70    7.31   3
  -1  -4 -15  109.40    6.90   4
  -1   4 -15  120.11    5.19   3
  -1   4 -15  102.90    5.41   4
  -1   4 -15  120.90    5.51   4
   1   4  15   99.74    6.70   3
  -1   4 -15  118.65    5.35   3
  -2  -4 -15   48.16    7.08   1
  -2  -4 -15   51.57    5.54   3
  -2  -4 -15   31.37    4.58   4
   2   4  15   31.41    4.32   3
  -2   4 -15   41.63    3.21   4
  -2   4 -15   39.45    6.35   1
  -2   4 -15   44.52    3.41   4
  -3  -4 -15   -2.10    2.80   4
  -3  -4 -15    2.23    3.51   3
  -3  -4 -15  -10.81    3.53   1
  -3   4 -15    2.64    2.50   4
  -3   4 -15    3.86    2.31   3
  -3   4 -15    4.14    4.86   1
  -3  -5  15   24.85    4.68   3
   3  -5 -15   28.96    5.34   3
   3   5 -15   20.58    5.00   4
  -3   5  15   26.80    4.75   3
   3   5 -15   26.45    5.36   3
  -2  -5  15   -4.04    2.06   3
   2  -5 -15    0.53    3.25   4
   2  -5 -15   -2.72    3.11   3
  -2   5  15   -1.44    2.71   3
  -2   5  15   -1.96    2.45   4
   2   5 -15    0.02    3.17   4
  -2   5  15   -4.35    3.28   2
   2   5 -15   -0.43    3.39   3
   1  -5 -15   71.43    5.58   3
  -1  -5  15   78.98    4.45   3
   1  -5 -15   70.00    5.58   4
   1  -5 -15   63.45    5.44   4
   1   5 -15   72.45    5.24   4
   1   5 -15   72.55    5.23   4
  -1   5  15   67.30    5.38   4
  -1   5  15   92.64    8.20   2
   1   5 -15   71.01    5.18   3
   1   5 -15   61.16    5.07   3
  -1   5  15   75.44    5.47   3
   0  -5 -15    4.01    2.71   3
   0  -5 -15    3.31    2.24   4
   0  -5 -15    6.11    2.65   4
   0   5 -15    0.03    1.73   3
   0   5  15    4.34    2.65   3
   0   5  15   -0.23    4.95   2
   0   5 -15   -0.66    1.82   2
   0   5 -15    2.86    1.84   4
   0   5 -15    2.59    1.90   4
   0   5 -15    1.18    1.64   3
   0   5  15    2.36    2.09   4
  -1  -5 -15  167.15    9.75   1
  -1  -5 -15  157.99    8.71   3
  -1  -5 -15  164.69    9.01   4
  -1   5 -15  159.05    6.83   4
  -1   5 -15  160.69    6.36   3
  -1   5 -15  157.44    6.51   3
   1   5  15  157.75    8.72   3
  -1   5 -15  158.13    6.83   4
  -2  -5 -15   42.63    5.39   4
  -2  -5 -15   48.16    5.73   3
  -2  -5 -15   50.13    7.12   1
  -2   5 -15   51.26    3.16   4
  -2   5 -15   59.59    7.52   1
   2   5  15   53.18    5.67   3
  -3  -5 -15    5.68    5.35   1
  -3  -5 -15   12.35    3.92   4
  -3  -5 -15    0.84    3.22   3
  -3   5 -15    5.68    2.46   4
  -3   5 -15   -1.68    4.48   1
   3  -6 -15   15.43    4.52   3
   3   6 -15   20.10    5.43   4
   3   6 -15   17.65    5.31   3
  -3   6  15   21.09    4.52   3
   2  -6 -15    8.72    3.76   3
   2  -6 -15   13.02    3.69   4
  -2   6  15    7.27    4.46   2
   2   6 -15   15.20    4.19   4
   2   6 -15    2.07    3.31   3
  -2   6  15   13.93    3.58   3
  -2   6  15    6.79    3.12   4
   1  -6 -15  357.23   15.73   4
   1  -6 -15  352.89   15.68   3
   1  -6 -15  355.31   15.88   4
   1   6 -15  381.28   15.03   3
   1   6 -15  342.52   15.09   4
   1   6 -15  350.98   15.20   4
  -1   6  15  331.00   15.50   3
   0  -6 -15  222.35   11.35   4
   0  -6 -15  235.88   11.64   3
   0  -6 -15  258.36   11.69   4
   0   6 -15  226.81   10.03   4
   0   6 -15  247.97    9.82   3
   0   6 -15  242.81   11.24   2
   0   6 -15  244.17   10.34   4
   0   6  15  240.13   11.42   3
   0   6 -15  236.08   10.06   3
   0   6  15  236.52   11.33   4
  -1  -6 -15    3.85    2.87   3
  -1  -6 -15    3.75    3.42   1
  -1  -6 -15    0.66    2.49   4
   1   6  15   -9.90    4.94   2
  -1   6 -15    1.63    3.12   2
  -1   6 -15    2.36    1.04   4
  -1   6 -15    1.11    1.22   4
   1   6  15    4.17    2.69   3
  -2  -6 -15  174.73   11.33   1
  -2  -6 -15  156.81   10.09   3
  -2  -6 -15  163.16    9.87   4
  -2   6 -15  188.76   11.59   1
   2   6  15  151.02    9.46   3
  -2   6 -15  178.62    6.87   4
  -2   6 -15  174.30    7.02   4
  -3  -6 -15    5.40    4.13   3
  -3  -6 -15    1.94    4.63   1
  -3  -6 -15   -2.13    3.26   4
  -3   6 -15   -0.28    4.40   1
  -3   6 -15   -1.04    1.89   4
  -3   6 -15    5.09    1.79   4
   3  -7 -15    4.63    4.48   3
  -3   7  15    8.61    4.33   3
   3   7 -15    1.22    4.28   4
   3   7 -15    7.94    4.66   3
   2  -7 -15   20.69    4.45   3
   2   7 -15   30.27    4.96   3
  -2   7  15   24.13    4.68   3
  -2   7  15   27.58    6.17   2
   2   7 -15   37.88    5.20   4
  -2   7  15   27.89    4.30   4
   1  -7 -15  280.77   13.43   3
   1  -7 -15  271.39   13.13   4
   1   7 -15  276.64   12.58   4
  -1   7  15  310.45   16.50   2
   1   7 -15  278.38   12.62   4
   1   7 -15  298.96   12.47   3
  -1   7  15  260.81   13.03   3
  -1   7  15  257.34   13.01   4
   0  -7 -15   47.54    5.03   1
   0  -7 -15   34.30    4.58   3
   0  -7 -15   39.33    4.65   4
   0   7  15   41.60    4.72   4
   0   7 -15   37.20    4.52   2
   0   7  15   43.81    4.80   3
   0   7 -15   35.06    3.24   4
   0   7 -15   36.06    3.44   4
   0   7 -15   38.29    2.83   3
  -1  -7 -15   31.95    4.54   4
  -1  -7 -15   32.33    4.63   3
  -1  -7 -15   42.43    5.63   1
   1   7  15   35.11    8.12   2
  -1   7 -15   38.12    1.88   4
  -1   7 -15   42.07    6.12   2
  -1   7 -15   35.52    2.11   4
   1   7  15   47.74    5.48   3
  -2  -7 -15   45.12    7.02   1
  -2  -7 -15   36.23    5.50   3
  -2  -7 -15   40.24    5.39   4
  -2   7 -15   46.49    6.65   1
   2   7  15   33.29    5.00   3
  -3  -7 -15   11.45    5.87   1
  -3  -7 -15   18.09    5.23   3
  -3  -7 -15   14.02    4.58   4
  -3   7 -15   11.68    1.58   4
  -3   7 -15   19.41    5.86   1
  -3   7 -15   10.91    1.57   4
   3  -8 -15   -2.75    3.71   3
   3   8 -15   -5.70    4.56   4
  -3   8  15    2.04    3.63   3
   3   8 -15   -1.60    4.19   3
   2  -8 -15   32.33    4.90   3
   2   8 -15   23.67    4.59   4
  -2   8  15   27.55    4.54   3
   2   8 -15   18.23    4.50   3
  -2   8  15   13.21    3.76   4
  -2   8  15   17.62    6.00   2
   1  -8 -15   60.75    5.54   4
   1  -8 -15   54.11    5.88   3
  -1   8  15   63.70    6.26   3
  -1   8  15   59.53    8.51   2
   1   8 -15   67.43    5.14   3
   1   8 -15   54.88    5.00   4
   1   8 -15   59.91    5.01   4
  -1   8  15   43.23    5.01   4
   0  -8 -15    7.12    3.45   3
   0  -8 -15    7.87    3.18   4
   0  -8 -15   10.82    3.25   1
   0   8 -15   11.64    2.39   4
   0   8 -15   13.46    3.57   2
   0   8 -15    9.42    1.66   3
   0   8  15   14.60    3.75   3
   0   8  15   22.55    7.59   2
  -1  -8 -15  129.20    8.55   4
  -1  -8 -15  142.73    9.04   1
  -1  -8 -15  139.22    8.80   3
  -1   8 -15  152.04   10.24   2
   1   8  15  161.20   14.35   2
   1   8  15  141.79    8.65   3
  -2  -8 -15    2.82    3.44   3
  -2  -8 -15    9.43    4.54   1
  -2  -8 -15    9.19    3.82   4
  -2   8 -15    9.94    5.07   2
  -2   8 -15    4.08    3.89   1
   2   8  15    9.59    3.77   3
   3  -9 -15   45.20    6.43   3
   3   9 -15   54.76    7.23   4
   3   9 -15   40.74    6.49   3
  -3   9  15   46.58    6.16   3
   2  -9 -15    2.57    4.02   3
  -2   9  15   -3.34    4.92   2
   2   9 -15    3.56    4.00   3
   2   9 -15    4.40    4.19   4
  -2   9  15   -0.27    3.12   3
   1  -9 -15    3.48    3.37   3
  -1   9  15   -2.23    2.91   4
  -1   9  15   -5.61    5.50   2
   1   9 -15   -1.50    2.93   3
   1   9 -15    0.49    3.02   4
  -1   9  15   -0.34    3.04   3
   0  -9 -15   15.84    4.43   3
   0  -9 -15   24.83    3.89   1
   0  -9 -15   19.22    4.14   4
   0   9 -15   18.81    2.71   4
   0   9  15   36.79    9.09   2
   0   9  15   20.60    4.11   3
   0   9 -15   22.47    2.10   3
   0   9 -15   25.37    4.49   2
   0   9 -15   24.96    2.78   4
  -1  -9 -15   47.86    5.78   3
  -1  -9 -15   51.98    6.05   1
  -1  -9 -15   47.22    5.55   4
  -1   9 -15   49.96    6.25   1
  -1   9 -15   55.80    7.05   2
   1   9  15   38.77    9.76   2
   1   9  15   49.16    5.64   3
  -2  -9 -15   11.84    4.34   3
  -2  -9 -15   11.60    3.92   4
  -2  -9 -15    9.85    4.69   1
  -2   9 -15    6.69    3.75   1
  -2   9 -15   10.68    4.99   2
   2   9  15   13.76    4.16   3
   2 -10 -15   -5.14    3.34   3
  -2  10  15   -4.86    5.61   2
  -2  10  15   -1.49    3.12   3
   2  10 -15   -2.69    3.92   4
   2  10 -15   -3.18    3.75   3
   1 -10 -15   26.51    4.70   3
   1  10 -15   16.71    4.06   3
  -1  10  15   16.37    3.91   3
   1  10 -15   16.57    3.71   4
  -1  10  15   22.79    8.14   2
   0 -10 -15   52.78    5.93   3
   0  10  15   49.36    5.62   3
   0  10 -15   60.54    3.94   4
   0  10 -15   54.43    3.75   3
   0  10 -15   60.97    6.52   2
   0  10 -15   40.55    3.93   4
  -1 -10 -15   12.48    4.13   3
   1  10  15    5.72    8.23   2
   1  10  15    5.30    3.53   3
  -1  10 -15    5.41    3.32   1
  -1  10 -15    8.17    4.41   2
  -2 -10 -15   10.05    4.84   3
  -2  10 -15    0.40    3.93   2
  -2  10 -15   -0.90    2.88   1
   2  10  15   -2.33    3.83   3
   2 -11 -15  164.26   10.18   3
   2  11 -15  152.99    9.77   4
   2  11 -15  146.45    9.89   3
  -2  11  15  129.27   13.34   2
   1 -11 -15   15.01    4.34   3
   1  11 -15   14.51    4.14   3
   1  11 -15    5.30    3.59   4
  -1  11  15   15.85    7.92   2
  -1  11  15   13.01    4.00   3
   0 -11 -15   -2.06    3.21   3
   0  11 -15    0.38    2.24   4
   0  11  15   16.86    9.21   2
   0  11  15    1.72    3.24   3
   0  11 -15    1.05    1.65   4
  -1 -11 -15   -3.01    3.65   3
   1  11  15    0.99    3.61   3
  -1  11 -15   -0.03    2.59   1
  -1  11 -15    1.31    4.11   2
   1  11  15  -25.51    9.00   2
   1 -12 -15   11.02    4.35   3
   1  12 -15    4.95    3.65   4
   1  12 -15    7.80    5.30   3
  -1  12  15   10.43    3.90   3
  -1  12  15   45.53   10.08   2
   0 -12 -15    1.63    4.14   3
   0  12  15    7.38    3.43   3
   0  12 -15    0.57    2.30   4
  -1 -12 -15   -2.47    3.26   3
  -1  12 -15    2.46    4.32   1
   1  12  15    3.98    3.82   3
   1  12  15  -14.32    8.20   2
  -1  12 -15   -3.68    4.20   2
   4   0 -16   -6.02    4.27   3
  -4   0  16   -0.08    4.14   3
   3   0 -16    1.67    3.80   4
  -3   0  16   -0.16    3.36   3
   3   0 -16    2.52    3.89   3
   2   0 -16   71.73    5.93   3
   2   0 -16   79.23    6.20   4
  -2   0  16   86.83    5.80   3
   1   0 -16   76.30    5.60   3
   1   0 -16   84.18    5.69   3
   1   0 -16   83.97    5.61   4
   1   0 -16   83.12    5.44   4
  -1   0  16   82.17    5.06   3
   0   0 -16 1127.04   43.29   4
   0   0 -16 1125.97   43.52   2
   0   0 -16 1106.19   43.20   3
   0   0 -16 1197.84   43.35   3
   0   0 -16 1177.93   43.38   4
  -1   0 -16   57.14    4.44   4
   1   0  16   51.74    4.36   4
  -1   0 -16   58.11    4.38   3
  -1   0 -16   53.13    4.23   4
  -1   0 -16   73.85    6.47   1
  -1   0 -16   55.29    4.22   3
   1   0  16   58.53    3.99   3
  -2   0 -16   84.66    8.38   1
  -2   0 -16   81.85    5.58   4
  -2   0 -16   72.20    5.23   3
  -3   0 -16    6.91    2.99   4
  -3   0 -16    4.39    5.20   1
  -4  -1  16   10.19    4.29   3
   4  -1 -16    3.48    4.77   3
  -4   1  16    8.48    4.27   3
   4   1 -16    0.45    4.88   3
   3  -1 -16   72.36    6.99   3
  -3  -1  16   71.11    6.51   3
   3  -1 -16   64.38    6.74   4
  -3   1  16   60.01    6.37   3
   3   1 -16   50.09    6.34   4
   3   1 -16   65.95    6.79   3
   2  -1 -16   31.47    4.58   4
  -2  -1  16   20.58    3.46   3
   2  -1 -16   30.83    4.45   3
   2   1 -16   24.21    4.39   3
  -2   1  16   24.38    3.72   3
   2   1 -16   23.65    4.29   4
   1  -1 -16   80.01    5.68   3
   1  -1 -16   82.00    5.40   4
  -1  -1  16   65.85    4.44   4
  -1  -1  16   84.34    5.00   3
   1  -1 -16   78.93    5.54   4
   1   1 -16   84.74    5.31   3
  -1   1  16   84.77    5.35   3
   1   1 -16   80.03    5.59   3
   1   1 -16   73.49    5.21   4
   1   1 -16   71.43    5.27   4
   0  -1 -16  287.76   13.26   2
   0  -1 -16  289.10   12.86   4
   0  -1  16  271.95   12.15   4
   0  -1 -16  317.13   13.12   4
   0  -1 -16  300.67   12.96   3
   0  -1  16  309.65   12.50   3
   0  -1 -16  317.55   12.98   3
   0   1 -16  291.23   12.63   3
   0   1 -16  287.76   12.66   4
   0   1 -16  289.29   12.69   4
   0   1 -16  274.86   12.61   2
   0   1 -16  329.87   12.80   3
   0   1  16  315.03   12.80   4
   0   1  16  299.96   12.73   3
  -1  -1 -16  144.67    7.55   4
   1  -1  16  140.88    6.64   4
  -1  -1 -16  148.50    7.57   3
  -1  -1 -16  148.20    7.83   3
  -1  -1 -16  160.67    8.03   4
   1  -1  16  152.29    7.24   3
  -1  -1 -16  174.94    9.83   1
  -1   1 -16  156.49    7.27   3
  -1   1 -16  155.26    7.46   3
  -1   1 -16  157.27    7.43   4
  -1   1 -16  157.61    7.63   4
   1   1  16  138.13    7.41   3
  -2  -1 -16   17.64    3.27   3
  -2  -1 -16   20.99    3.53   4
  -2  -1 -16   17.19    5.19   1
  -2   1 -16   20.63    3.12   4
  -2   1 -16   19.13    2.96   3
  -2   1 -16   22.01    3.11   4
  -2   1 -16   21.31    5.51   1
  -3  -1 -16   30.32    6.77   1
  -3  -1 -16   31.39    4.73   4
  -3  -1 -16   22.05    3.85   3
  -3   1 -16   20.62    6.03   1
  -3   1 -16   25.86    3.96   4
   4  -2 -16   -0.75    4.53   3
  -4  -2  16    0.57    4.13   3
   4   2 -16    2.14    4.89   3
  -4   2  16   -0.47    3.89   3
   3  -2 -16   16.11    4.33   4
   3  -2 -16   20.43    5.23   3
  -3  -2  16    5.21    3.23   3
   3   2 -16    7.75    4.34   3
   3   2 -16   14.97    4.80   4
  -3   2  16   16.02    4.06   3
  -2  -2  16   -4.10    2.22   3
   2  -2 -16   -2.39    3.51   3
   2  -2 -16   -1.55    3.04   4
   2   2 -16   -0.24    2.95   3
  -2   2  16   -1.89    2.47   3
   2   2 -16    1.95    3.25   4
  -1  -2  16  175.41    8.13   3
   1  -2 -16  175.26    8.77   3
   1  -2 -16  160.77    7.98   2
   1  -2 -16  172.22    8.87   4
   1  -2 -16  155.66    8.62   4
   1   2 -16  179.45    8.60   3
  -1   2  16  164.61    8.47   4
   1   2 -16  164.71    8.67   3
   1   2 -16  176.42    8.63   4
   1   2 -16  157.98    8.45   4
  -1   2  16  183.87    8.72   3
   0  -2  16  169.79    7.56   3
   0  -2 -16  172.26    8.53   4
   0  -2 -16  189.13    8.53   3
   0  -2 -16  151.92    8.15   4
   0  -2 -16  163.17    8.81   2
   0  -2 -16  170.88    8.31   3
   0   2  16  162.67    8.04   4
   0   2 -16  168.30    7.84   3
   0   2 -16  142.75    7.63   2
   0   2  16  172.52    8.29   3
   0   2 -16  166.13    7.85   3
   0   2 -16  167.98    7.92   4
   0   2 -16  157.14    7.81   4
  -1  -2 -16   33.83    5.22   1
  -1  -2 -16   27.29    3.62   3
  -1  -2 -16   24.89    3.21   4
  -1  -2 -16   27.74    3.53   4
  -1  -2 -16   24.62    3.32   3
   1   2  16   27.00    3.47   3
  -1   2 -16   29.93    2.88   3
  -1   2 -16   30.23    3.13   4
  -1   2 -16   31.82    3.10   3
  -1   2 -16   22.85    2.79   4
  -2  -2 -16   -2.51    4.01   1
  -2  -2 -16    4.04    2.59   3
  -2  -2 -16    3.05    2.68   4
  -2   2 -16   -0.07    3.90   1
  -2   2 -16    5.06    2.04   4
  -2   2 -16   -0.08    1.79   4
  -2   2 -16    1.06    1.72   3
  -3  -2 -16    4.94    3.27   3
  -3  -2 -16    3.43    4.90   1
  -3  -2 -16   11.58    3.84   4
  -3   2 -16   11.52    5.54   1
  -3   2 -16    8.16    3.22   3
  -4  -3  16    4.60    4.00   3
   4  -3 -16   -4.43    4.33   3
   4   3 -16   -7.42    7.32   3
  -4   3  16    1.27    3.88   3
   3  -3 -16   93.32    7.47   3
  -3  -3  16   95.11    7.33   3
   3   3 -16   74.74    7.20   3
   3   3 -16   90.77    7.66   4
  -3   3  16   89.35    7.20   3
   2  -3 -16   32.56    4.61   3
   2  -3 -16   27.38    4.34   4
  -2  -3  16   34.31    4.09   3
  -2   3  16   28.57    4.04   3
   2   3 -16   26.63    4.28   3
   2   3 -16   25.20    4.37   4
   1  -3 -16   52.08    4.83   4
   1  -3 -16   49.23    4.25   2
   1  -3 -16   40.81    4.53   3
  -1  -3  16   52.44    3.87   3
   1  -3 -16   39.53    4.50   4
  -1   3  16   43.21    4.50   3
   1   3 -16   50.75    4.52   3
  -1   3  16   46.90    5.64   2
   1   3 -16   46.38    4.46   4
   1   3 -16   55.34    4.77   4
  -1   3  16   44.42    4.07   4
   1   3 -16   55.10    4.56   3
   0  -3 -16   -4.46    1.96   4
   0  -3 -16    2.46    2.21   2
   0  -3  16    1.95    1.47   3
   0  -3 -16   -1.40    2.21   3
   0  -3 -16    0.53    2.04   4
   0  -3  16    0.43    1.39   4
   0   3 -16    0.62    1.77   3
   0   3  16    0.83    1.93   3
   0   3  16   -0.50    0.61   4
   0   3 -16    2.47    1.85   4
   0   3 -16    0.85    1.87   3
   0   3 -16    0.65    1.86   4
  -1  -3 -16  155.61    9.73   1
  -1  -3 -16  152.45    7.83   3
  -1  -3 -16  178.68    8.56   4
  -1  -3 -16  148.85    8.32   3
  -1  -3 -16  151.15    8.12   4
  -1   3 -16  154.08    7.08   4
  -1   3 -16  157.21    6.98   3
  -1   3 -16  158.57    6.94   3
  -1   3 -16  139.76    7.07   4
   1   3  16  135.05    7.88   3
  -2  -3 -16   60.23    6.00   4
  -2  -3 -16   60.50    5.67   3
  -2  -3 -16   70.81    8.13   1
  -2   3 -16   60.35    4.26   4
  -2   3 -16   55.78    3.88   3
  -2   3 -16   53.73    7.32   1
  -2   3 -16   58.68    4.14   4
  -3  -3 -16   -5.60    2.47   4
  -3  -3 -16   -1.59    2.91   3
  -3  -3 -16    3.82    4.78   1
  -3   3 -16    5.93    2.79   3
  -3   3 -16   -0.68    4.09   1
   3  -4 -16    1.78    4.01   3
  -3  -4  16    4.98    3.41   3
   3   4 -16   -0.96    4.59   3
  -3   4  16   -1.35    3.24   3
   3   4 -16    5.30    4.27   4
   2  -4 -16   39.60    5.12   3
  -2  -4  16   31.16    3.95   3
   2  -4 -16   42.87    5.04   4
  -2   4  16   36.85    5.26   2
   2   4 -16   35.69    4.85   4
  -2   4  16   32.81    4.43   3
   2   4 -16   28.70    4.50   3
   1  -4 -16   -3.60    2.92   3
   1  -4 -16    3.70    2.56   4
  -1  -4  16    1.81    1.62   3
   1  -4 -16   -3.83    2.44   4
   1  -4 -16    1.54    2.00   2
   1   4 -16    1.63    2.13   4
  -1   4  16    0.71    2.25   3
   1   4 -16   -2.38    2.49   3
   1   4 -16    1.20    2.25   3
  -1   4  16   -2.97    1.67   4
   1   4 -16   -2.65    2.59   4
   0  -4 -16  449.13   18.09   3
   0  -4 -16  409.24   17.83   4
   0  -4 -16  437.19   17.97   4
   0   4 -16  399.13   17.22   2
   0   4 -16  420.35   16.95   3
   0   4  16  419.30   20.29   2
   0   4 -16  445.84   16.75   3
   0   4 -16  439.96   17.05   4
   0   4  16  426.46   17.78   3
   0   4 -16  406.71   17.11   2
   0   4  16  398.96   18.60   4
  -1  -4 -16  162.21    8.79   4
  -1  -4 -16  176.01    9.04   3
  -1  -4 -16  165.68   10.02   1
  -1   4 -16  159.50    7.05   3
  -1   4 -16  150.13    7.24   4
   1   4  16  149.65    8.50   3
  -1   4 -16  170.11    7.26   4
  -1   4 -16  164.04    6.92   3
  -2  -4 -16    2.60    2.81   4
  -2  -4 -16    3.95    3.01   3
  -2  -4 -16    4.54    4.28   1
  -2   4 -16    2.02    1.71   4
  -2   4 -16    3.02    4.05   1
   2   4  16    2.89    4.52   3
  -2   4 -16    6.84    1.85   4
  -3  -4 -16   27.18    4.97   3
  -3  -4 -16   31.05    7.42   1
  -3  -4 -16   40.90    5.92   4
  -3   4 -16   34.82    5.42   3
  -3   4 -16   31.08    6.95   1
  -3   4 -16   28.86    3.83   4
   3  -5 -16   -1.49    3.72   3
   3   5 -16    1.81    4.04   3
   3   5 -16    2.34    4.04   4
  -3   5  16   -5.79    3.04   3
   2  -5 -16   47.11    5.55   3
   2  -5 -16   49.76    5.56   4
   2   5 -16   49.73    5.60   4
   2   5 -16   49.87    5.60   3
  -2   5  16   47.78    6.20   2
  -2   5  16   42.49    5.04   3
   1  -5 -16    3.86    3.11   4
   1  -5 -16    3.97    3.34   3
   1  -5 -16    7.76    3.10   4
   1   5 -16    0.52    2.32   4
   1   5 -16    4.72    2.93   4
  -1   5  16    7.94    2.64   4
   1   5 -16    5.01    2.86   3
  -1   5  16    1.87    2.41   3
   0  -5 -16   68.61    5.44   4
   0  -5 -16   68.99    5.48   3
   0  -5 -16   64.97    5.25   4
   0   5 -16   66.18    4.38   3
   0   5 -16   71.22    4.60   4
   0   5 -16   69.67    4.34   4
   0   5 -16   77.85    4.20   3
   0   5 -16   62.64    4.68   2
   0   5  16   34.75    8.77   2
   0   5  16   71.80    5.26   3
  -1  -5 -16   44.00    4.97   4
  -1  -5 -16   37.19    4.68   3
  -1  -5 -16   51.09    6.15   1
  -1   5 -16   51.05    2.93   3
  -1   5 -16   52.48    2.67   3
   1   5  16   59.23    5.58   3
  -1   5 -16   53.29    3.31   4
  -1   5 -16   49.20    3.28   4
  -2  -5 -16   86.01    6.81   3
  -2  -5 -16   85.75    6.79   4
  -2  -5 -16   88.27    8.53   1
   2   5  16   81.75    6.73   3
  -2   5 -16   86.44    4.68   4
  -2   5 -16   94.10    4.55   4
  -2   5 -16   86.69    8.52   1
  -3  -5 -16   51.85    6.52   4
  -3  -5 -16   39.68    6.26   3
  -3  -5 -16   36.64    7.68   1
  -3   5 -16   45.80    4.27   4
  -3   5 -16   49.39    8.14   1
   3  -6 -16   40.49    5.79   3
  -3   6  16   34.85    5.74   3
   3   6 -16   32.73    6.14   3
   3   6 -16   24.41    5.37   4
   2  -6 -16    3.89    3.58   3
   2  -6 -16   -3.18    3.03   4
   2   6 -16   -0.98    3.29   4
  -2   6  16    6.64    3.35   3
  -2   6  16   -2.36    3.91   2
   2   6 -16    0.67    3.66   3
   1  -6 -16   23.61    3.97   4
   1  -6 -16   25.47    4.23   3
   1   6 -16   28.88    3.83   4
   1   6 -16   29.98    4.05   4
   1   6 -16   26.99    3.77   3
  -1   6  16   30.58    4.41   3
   0  -6 -16   21.64    3.78   4
   0  -6 -16   23.76    4.25   3
   0   6  16   23.37    7.27   2
   0   6 -16   23.41    2.88   4
   0   6  16   17.41    3.41   3
   0   6 -16   12.82    2.03   3
   0   6 -16   18.84    3.05   2
   0   6 -16   17.15    2.60   4
  -1  -6 -16   77.02    6.88   1
  -1  -6 -16   72.96    5.96   3
  -1  -6 -16   74.89    5.98   4
  -1   6 -16   66.71    6.84   2
  -1   6 -16   66.58    3.76   4
   1   6  16   67.86    5.64   3
  -1   6 -16   71.40    3.61   4
  -2  -6 -16    7.18    3.67   3
  -2  -6 -16    3.58    3.10   4
  -2  -6 -16    4.32    4.66   1
  -2   6 -16    2.92    3.84   1
   2   6  16    2.39    2.97   3
  -2   6 -16    3.20    1.24   4
  -3  -6 -16    7.64    3.81   4
  -3  -6 -16    7.77    6.13   3
  -3  -6 -16   10.41    5.64   1
  -3   6 -16    3.36    2.75   4
  -3   6 -16    7.30    5.18   1
  -3   6 -16    9.08    2.21   4
   3  -7 -16   11.02    4.55   3
  -3   7  16    6.74    4.43   3
   3   7 -16   -4.05    4.08   3
   3   7 -16    3.72    4.46   4
   2  -7 -16   19.34    4.76   3
  -2   7  16   21.22    5.85   2
  -2   7  16   20.68    4.20   3
   2   7 -16   21.48    4.60   3
   2   7 -16   22.28    4.45   4
   1  -7 -16   54.78    5.77   3
   1  -7 -16   64.02    5.73   4
   1   7 -16   57.15    5.12   4
  -1   7  16   82.48    9.05   2
  -1   7  16   59.91    6.05   3
   1   7 -16   60.33    5.06   3
   1   7 -16   52.67    5.01   4
   0  -7 -16   26.27    4.33   3
   0  -7 -16   18.80    3.74   4
   0  -7 -16   20.02    3.90   1
   0   7  16   25.94    4.33   3
   0   7 -16   22.04    2.90   4
   0   7 -16   18.84    2.12   3
   0   7 -16   21.53    2.75   4
   0   7 -16   25.68    3.81   2
   0   7  16   15.45    7.03   2
  -1  -7 -16   25.73    4.30   4
  -1  -7 -16   24.31    4.91   1
  -1  -7 -16   22.11    4.26   3
  -1   7 -16   29.63    1.79   4
  -1   7 -16   25.06    5.17   2
   1   7  16   30.38    8.12   2
   1   7  16   33.72    4.88   3
  -1   7 -16   26.91    2.10   4
  -2  -7 -16    5.63    4.65   1
  -2  -7 -16    6.89    4.01   3
  -2  -7 -16    6.76    3.36   4
  -2   7 -16    2.28    4.10   1
   2   7  16    5.02    3.49   3
   3  -8 -16   -2.30    4.35   3
  -3   8  16    6.16    4.36   3
   3   8 -16    8.53    4.67   3
   3   8 -16    4.20    5.05   4
   2  -8 -16   36.87    5.30   3
  -2   8  16   19.27    6.59   2
   2   8 -16   36.14    5.58   4
   2   8 -16   34.83    5.32   3
  -2   8  16   30.91    5.13   3
   1  -8 -16   22.40    4.46   3
   1  -8 -16   12.69    3.62   4
   1   8 -16   26.11    3.85   3
  -1   8  16   22.90    4.09   3
  -1   8  16   36.43    6.86   2
   1   8 -16   20.46    3.73   4
   0  -8 -16   -5.88    2.55   4
   0  -8 -16    3.57    3.28   3
   0  -8 -16   -0.55    2.85   1
   0   8 -16    3.45    1.39   3
   0   8  16    5.85    2.97   3
   0   8 -16    1.40    2.68   2
   0   8 -16    1.23    1.99   4
   0   8 -16    0.31    1.93   4
   0   8  16    7.56    7.74   2
  -1  -8 -16   24.32    4.26   4
  -1  -8 -16   34.45    5.09   3
  -1  -8 -16   29.53    5.04   1
  -1   8 -16   33.83    5.70   2
   1   8  16   23.08    4.29   3
   1   8  16   28.40    8.55   2
  -2  -8 -16    5.76    4.32   1
  -2  -8 -16    8.10    4.02   3
  -2  -8 -16    5.08    3.37   4
  -2   8 -16    9.58    4.76   2
  -2   8 -16    4.26    3.75   1
   2   8  16    0.04    3.29   3
   2  -9 -16    2.26    3.81   3
   2   9 -16   -9.77    3.55   3
  -2   9  16   -0.96    3.59   3
  -2   9  16   -3.48    5.04   2
   2   9 -16   -2.93    3.40   4
   1  -9 -16   10.99    3.92   3
   1   9 -16   11.68    3.40   4
  -1   9  16    4.23    3.22   3
  -1   9  16   28.20    8.05   2
   1   9 -16    8.19    3.65   3
   0  -9 -16   73.36    6.85   3
   0  -9 -16   65.19    7.39   4
   0   9 -16   65.90    4.54   4
   0   9 -16   80.76    4.69   4
   0   9  16  118.91   14.81   2
   0   9  16   63.72    6.06   3
  -1  -9 -16   21.90    4.52   3
  -1  -9 -16   20.09    4.26   4
  -1  -9 -16   25.48    5.00   1
  -1   9 -16   26.94    5.25   1
  -1   9 -16   25.01    5.32   2
   1   9  16   30.19    9.07   2
   1   9  16   20.73    4.28   3
  -2  -9 -16   22.76    5.79   1
  -2  -9 -16   21.61    5.26   3
  -2  -9 -16   28.94    7.69   4
  -2   9 -16   17.03    4.67   1
  -2   9 -16   22.32    6.12   2
   2   9  16   12.87    4.28   3
   2 -10 -16   61.74    7.01   3
  -2  10  16   59.29    6.82   3
   2  10 -16   73.55    7.16   4
  -2  10  16   40.63    9.55   2
   2  10 -16   49.95    6.31   3
   1 -10 -16    8.46    3.99   3
  -1  10  16   13.71    7.23   2
  -1  10  16    1.47    2.97   3
   1  10 -16    2.82    3.26   3
   1  10 -16    1.68    3.12   4
   0 -10 -16   39.35    5.37   3
   0  10  16   50.04   10.80   2
   0  10 -16   25.20    3.27   4
   0  10 -16   36.16    3.26   4
   0  10  16   36.87    5.30   3
  -1 -10 -16   16.31    4.50   3
  -1  10 -16   29.56    5.28   1
   1  10  16   26.35    4.92   3
   1  10  16   16.74    8.65   2
  -1  10 -16   23.47    5.46   2
   1 -11 -16    6.71    4.17   3
   1  11 -16   -0.32    3.31   3
   1  11 -16   -1.45    3.34   4
  -1  11  16    5.14    3.70   3
   0 -11 -16    1.94    3.54   3
   0  11 -16   -0.54    2.21   4
   0  11  16    0.77    3.16   3
   0  11 -16   -2.15    1.57   4
  -1 -11 -16   -3.27    3.47   3
   1  11  16    0.01    3.53   3
  -1  11 -16   -1.30    2.54   1
   1 -12 -16   35.23    5.78   3
  -1  12  16   51.39    6.37   3
  -1  12  16   40.82   10.53   2
   1  12 -16   34.38    5.95   3
   0 -12 -16   62.05    7.18   3
   0  12  16  113.32   16.83   2
   0  12 -16   64.96    4.70   4
   0  12  16   52.59    6.33   3
   3   0 -17   -0.15    3.90   4
   3   0 -17    6.79    4.65   3
  -3   0  17   -1.35    3.12   3
   2   0 -17    2.62    3.56   3
  -2   0  17    0.89    2.46   3
   2   0 -17   -2.21    3.05   4
   1   0 -17    1.02    2.47   3
  -1   0  17   -0.24    1.97   3
   1   0 -17    1.14    2.61   4
   1   0 -17   -1.16    2.23   4
   1   0 -17    3.04    2.61   3
   0   0 -17   19.86    2.86   4
   0   0 -17   16.45    2.85   3
   0   0  17   18.57    2.65   3
   0   0 -17   12.47    2.43   2
  -1   0 -17    3.15    2.05   4
  -1   0 -17    3.23    2.19   3
  -1   0 -17    3.46    2.16   4
  -1   0 -17    3.38    3.51   1
  -2   0 -17    0.20    3.98   1
  -2   0 -17    2.49    2.23   4
  -2   0 -17   -1.35    2.08   3
  -3   0 -17   -0.87    4.42   1
  -3   0 -17    3.09    2.92   4
   3  -1 -17   97.16    8.15   3
  -3  -1  17   90.49    7.39   3
   3  -1 -17   85.60    7.57   4
   3   1 -17   98.71    8.21   3
  -3   1  17  106.11    7.55   3
   3   1 -17   98.01    7.78   4
   2  -1 -17   30.35    4.87   3
  -2  -1  17   28.17    3.76   3
   2  -1 -17   29.77    4.48   4
   2   1 -17   20.36    4.12   3
   2   1 -17   31.01    4.57   4
  -2   1  17   34.33    4.44   3
   1  -1 -17   12.60    3.33   4
   1  -1 -17   16.64    3.43   3
  -1  -1  17   17.02    2.66   3
   1  -1 -17   21.10    3.38   4
   1   1 -17   22.63    3.73   4
   1   1 -17   20.34    3.32   3
   1   1 -17   27.42    3.76   3
  -1   1  17   16.50    2.82   3
   1   1 -17   22.23    3.35   4
   0  -1 -17    8.93    2.36   2
   0  -1 -17   10.76    2.52   3
   0  -1  17    9.35    2.19   3
   0  -1 -17   13.72    3.02   3
   0  -1 -17    8.68    2.44   4
   0  -1 -17   13.56    2.82   4
   0   1 -17    7.36    2.54   4
   0   1  17   14.15    2.62   3
   0   1 -17    6.73    2.04   2
   0   1 -17   12.43    2.55   4
   0   1 -17    8.06    2.51   3
   0   1 -17   10.22    2.68   3
  -1  -1 -17   79.84    5.16   4
  -1  -1 -17   63.62    5.20   3
  -1  -1 -17   79.61    6.99   1
  -1  -1 -17   63.12    4.91   4
  -1   1 -17   63.80    4.73   4
  -1   1 -17   73.82    4.78   3
  -1   1 -17   75.32    4.82   4
   1   1  17   64.23    4.63   3
  -2  -1 -17    4.92    4.38   1
  -2  -1 -17    4.67    2.64   4
  -2  -1 -17   -1.08    2.22   3
  -2   1 -17    5.94    4.71   1
  -2   1 -17    0.57    2.02   3
  -2   1 -17    6.21    2.31   4
  -3  -1 -17    6.56    5.51   1
  -3  -1 -17   18.97    3.94   4
  -3  -1 -17   10.92    3.44   3
  -3   1 -17    9.51    3.11   4
  -3   1 -17   18.00    6.16   1
   3  -2 -17    0.02    3.74   4
   3  -2 -17   -1.80    4.34   3
  -3  -2  17    2.90    3.20   3
   3   2 -17    0.54    4.49   4
  -3   2  17   -4.11    3.27   3
   3   2 -17    2.17    4.51   3
  -2  -2  17   10.24    3.07   3
   2  -2 -17    4.59    3.45   3
   2  -2 -17    3.24    3.40   4
   2   2 -17    3.70    3.31   3
  -2   2  17    6.24    3.09   3
   2   2 -17    4.18    3.43   4
   1  -2 -17   45.14    3.63   2
   1  -2 -17   40.24    4.50   3
  -1  -2  17   46.30    3.75   3
   1  -2 -17   44.11    4.91   4
   1  -2 -17   38.46    4.47   4
   1   2 -17   44.26    4.49   4
   1   2 -17   44.87    4.57   3
  -1   2  17   45.09    4.13   3
   1   2 -17   51.19    4.42   4
   1   2 -17   52.29    4.66   3
   0  -2 -17   23.76    3.45   3
   0  -2  17   15.10    2.34   4
   0  -2 -17   22.60    3.35   4
   0  -2 -17   25.73    3.54   3
   0  -2 -17   19.63    3.27   4
   0  -2  17   23.56    2.75   3
   0  -2 -17   24.80    3.64   2
   0   2  17   26.29    3.55   3
   0   2 -17   23.83    3.03   4
   0   2 -17   19.82    2.90   4
   0   2 -17   28.48    3.20   3
   0   2 -17   25.89    3.10   3
   0   2 -17   18.35    2.65   2
  -1  -2 -17  135.27    7.63   4
  -1  -2 -17  135.73    7.71   3
  -1  -2 -17  144.18    9.32   1
  -1   2 -17  132.74    6.99   4
  -1   2 -17  136.50    6.90   4
  -1   2 -17  141.73    6.81   3
  -2  -2 -17   39.81    4.86   3
  -2  -2 -17   45.70    5.06   4
  -2  -2 -17   45.39    6.74   1
  -2   2 -17   45.04    3.87   3
  -2   2 -17   38.71    3.70   4
  -2   2 -17   49.53    4.20   4
  -2   2 -17   47.84    7.14   1
  -3  -2 -17    0.06    5.00   1
  -3  -2 -17   -0.13    2.83   4
  -3  -2 -17    0.63    2.97   3
  -3   2 -17    3.26    2.99   3
  -3   2 -17    5.19    4.97   1
  -3  -3  17    6.62    3.60   3
   3  -3 -17    4.87    4.26   3
  -3   3  17   -2.62    3.72   3
   3   3 -17    4.14    4.70   4
   3   3 -17    2.49    4.11   3
  -2  -3  17  216.10   10.36   3
   2  -3 -17  214.71   10.99   3
   2  -3 -17  187.70   10.84   4
   2   3 -17  202.70   10.59   3
   2   3 -17  207.20   11.14   4
  -2   3  17  215.71   10.92   3
   1  -3 -17   15.94    4.56   2
   1  -3 -17   12.91    3.50   4
  -1  -3  17   13.66    2.39   3
   1  -3 -17   13.42    3.38   3
   1   3 -17   12.04    3.29   4
   1   3 -17   16.97    3.35   3
  -1   3  17   22.04    3.65   3
   1   3 -17   10.42    3.07   4
   1   3 -17   16.80    3.86   3
   0  -3 -17    6.30    2.77   4
   0  -3 -17   10.82    2.95   2
   0  -3 -17    6.85    3.10   3
   0  -3 -17    7.52    2.61   4
   0   3 -17    7.76    2.26   3
   0   3 -17    7.83    2.28   4
   0   3 -17   11.05    2.40   4
   0   3 -17    2.48    1.87   2
   0   3 -17    6.90    2.29   3
   0   3  17   14.97    3.10   3
  -1  -3 -17    1.05    2.72   3
  -1  -3 -17    3.47    3.89   1
  -1  -3 -17    0.86    2.30   4
   1   3  17   -0.54    2.20   3
  -1   3 -17    2.90    1.85   4
  -1   3 -17    1.89    1.78   4
  -1   3 -17    2.37    1.51   3
  -2  -3 -17  148.86    9.24   4
  -2  -3 -17  178.11    9.67   3
  -2  -3 -17  173.72   11.39   1
  -2   3 -17  172.16    8.17   4
  -2   3 -17  163.11    7.70   3
  -2   3 -17  171.93    7.90   4
  -2   3 -17  159.98   11.65   1
  -3  -3 -17   14.68    4.11   3
  -3  -3 -17    7.24    5.64   1
  -3  -3 -17   12.76    4.24   4
  -3   3 -17   10.44    3.06   3
  -3   3 -17    4.66    4.90   1
   3  -4 -17    6.01    4.31   3
   3   4 -17    8.55    4.71   4
   3   4 -17    6.52    4.33   3
  -3   4  17    1.77    3.90   3
   2  -4 -17   23.80    4.40   3
   2  -4 -17    4.72    3.64   4
  -2   4  17    9.06    3.29   3
   2   4 -17   15.97    4.43   4
   2   4 -17   16.98    4.22   3
   1  -4 -17   83.90    6.06   4
   1  -4 -17   74.21    5.82   3
   1   4 -17   81.70    5.36   3
   1   4 -17   80.62    5.68   4
   1   4 -17   72.15    5.49   4
  -1   4  17   63.51    8.65   2
  -1   4  17   63.12    5.33   3
   0  -4 -17   27.92    3.98   3
   0  -4 -17   33.13    4.23   4
   0   4 -17   38.54    3.43   3
   0   4 -17   42.79    3.81   4
   0   4  17   50.12    4.87   3
   0   4 -17   37.13    3.48   2
   0   4 -17   44.79    3.67   4
  -1  -4 -17    8.58    3.05   4
  -1  -4 -17   15.86    4.44   1
  -1  -4 -17   14.05    3.57   3
   1   4  17    9.97    3.09   3
  -1   4 -17   14.17    2.26   4
  -1   4 -17   13.03    1.81   3
  -1   4 -17   14.20    2.23   4
  -2  -4 -17   -0.72    2.69   3
  -2  -4 -17    5.05    4.69   1
  -2  -4 -17    5.21    3.32   4
  -2   4 -17    5.20    4.42   1
  -2   4 -17    4.17    1.84   4
  -2   4 -17    6.68    2.08   4
  -3  -4 -17    6.47    3.47   3
  -3  -4 -17    3.48    3.44   4
  -3  -4 -17    6.67    5.08   1
  -3   4 -17    2.06    2.65   4
  -3   4 -17    7.17    5.29   1
   3  -5 -17   16.30    4.85   3
   3   5 -17   13.34    4.81   4
  -3   5  17   24.78    5.00   3
   3   5 -17   21.23    5.64   3
   2  -5 -17   53.90    5.94   4
   2  -5 -17   60.06    6.38   3
   2   5 -17   61.82    6.13   4
   2   5 -17   59.45    6.13   3
  -2   5  17   52.67    5.85   3
   1  -5 -17    1.52    2.97   4
   1  -5 -17    7.22    3.31   3
  -1   5  17    4.81    2.74   3
   1   5 -17    2.30    2.71   3
  -1   5  17   15.14    5.85   2
   1   5 -17    2.61    2.51   4
   1   5 -17    2.79    2.92   4
   0  -5 -17    2.25    3.22   3
   0  -5 -17    5.24    2.83   4
   0   5 -17    1.52    1.97   4
   0   5 -17   -0.72    1.68   2
   0   5  17    8.32    3.04   3
   0   5 -17    1.46    1.85   3
   0   5 -17   -3.57    1.72   4
  -1  -5 -17    4.58    2.86   3
  -1  -5 -17    9.70    3.10   4
  -1  -5 -17   15.00    4.42   1
   1   5  17    8.48    2.91   3
  -1   5 -17   14.28    2.15   4
  -1   5 -17   12.68    1.49   3
  -1   5 -17    8.96    1.83   4
  -2  -5 -17   20.48    5.74   1
  -2  -5 -17   14.62    3.75   4
  -2  -5 -17   15.06    3.77   3
  -2   5 -17   12.16    2.05   4
  -2   5 -17   13.50    5.20   1
  -2   5 -17   16.26    2.23   4
  -3  -5 -17   14.17    6.38   3
  -3  -5 -17    6.19    5.32   1
  -3  -5 -17    9.06    4.00   4
  -3   5 -17    4.64    5.06   1
  -3   5 -17    7.03    2.56   4
   3  -6 -17   12.64    5.04   3
   3   6 -17    4.36    4.92   3
   3   6 -17    3.62    4.47   4
  -3   6  17   11.47    4.51   3
   2  -6 -17   31.24    5.18   3
   2  -6 -17   47.34    9.14   4
  -2   6  17   34.37    4.84   3
   2   6 -17   45.05    5.46   3
   2   6 -17   33.26    5.23   4
   1  -6 -17   24.50    4.71   3
   1  -6 -17   29.75    4.34   4
  -1   6  17   26.17    4.37   3
   1   6 -17   24.17    3.90   4
   1   6 -17   29.90    4.02   3
  -1   6  17   41.41    7.30   2
   0  -6 -17  154.86    8.78   3
   0  -6 -17  136.53    8.54   4
   0   6 -17  145.61    7.22   4
   0   6 -17  164.92    7.01   3
   0   6  17  152.27   12.14   2
   0   6 -17  161.16    7.62   4
   0   6  17  147.25    8.48   3
   0   6 -17  151.29    7.92   2
  -1  -6 -17  287.42   14.24   1
  -1  -6 -17  272.31   13.49   4
  -1  -6 -17  271.19   13.35   3
   1   6  17  259.67   13.00   3
  -1   6 -17  284.03   14.50   2
  -1   6 -17  273.34   10.92   4
  -1   6 -17  270.76   11.04   4
  -2  -6 -17   52.59    6.16   3
  -2  -6 -17   61.12    7.75   1
  -2  -6 -17   58.78    6.75   4
  -2   6 -17   64.35    3.28   4
  -2   6 -17   53.64    7.64   1
   3  -7 -17   30.23    5.70   3
   3   7 -17   33.73    5.97   3
  -3   7  17   34.15    5.88   3
   3   7 -17   49.61    7.01   4
   2  -7 -17  175.65   10.41   3
  -2   7  17  168.77   10.20   3
   2   7 -17  189.68   10.64   4
   2   7 -17  179.52   10.17   3
  -2   7  17  187.66   16.69   2
   1  -7 -17   94.75    7.07   4
   1  -7 -17  101.46    7.56   3
   1   7 -17   83.20    6.15   4
  -1   7  17  117.76   11.15   2
  -1   7  17   79.73    6.56   3
   1   7 -17   93.48    6.06   3
   0  -7 -17    0.20    2.92   4
   0  -7 -17   -0.40    2.80   1
   0  -7 -17    1.93    3.48   3
   0   7 -17    0.39    1.93   4
   0   7  17   -2.46    5.47   2
   0   7  17   -2.17    2.42   3
   0   7 -17   -0.48    1.96   4
   0   7 -17   -0.25    1.39   3
  -1  -7 -17    5.52    3.23   4
  -1  -7 -17    9.01    4.39   1
  -1  -7 -17    8.29    3.72   3
  -1   7 -17   11.34    4.21   2
  -1   7 -17   12.20    1.42   4
   1   7  17   14.70    3.70   3
  -1   7 -17   10.78    1.62   4
  -2  -7 -17   26.66    4.98   4
  -2  -7 -17   27.01    5.97   1
  -2  -7 -17   25.29    5.31   3
  -2   7 -17   29.85    6.03   1
   2  -8 -17   55.88    6.38   3
   2   8 -17   57.71    6.34   4
   2   8 -17   53.55    6.18   3
  -2   8  17   47.97    9.82   2
  -2   8  17   42.36    5.55   3
   1  -8 -17   -2.13    3.52   3
   1   8 -17   -3.39    2.80   3
   1   8 -17   -2.25    2.87   4
  -1   8  17    1.28    2.88   3
   0  -8 -17   87.88    6.72   1
   0  -8 -17   75.28    6.57   3
   0  -8 -17   73.88    6.41   4
   0   8  17  100.04   13.12   2
   0   8 -17   78.95    4.83   4
   0   8 -17   81.43    5.03   4
   0   8  17   78.07    6.32   3
  -1  -8 -17    0.34    3.70   1
  -1  -8 -17    2.45    3.29   3
  -1  -8 -17    5.21    3.15   4
   1   8  17    2.34    3.19   3
   1   8  17   -2.08    6.58   2
  -1   8 -17   -1.00    3.35   2
  -2  -8 -17   53.88    7.59   1
  -2  -8 -17   39.40    5.98   4
  -2  -8 -17   38.58    6.15   3
   2   8  17   36.69    8.04   3
  -2   8 -17   41.43    6.92   1
  -2   8 -17   44.74    7.49   2
   2  -9 -17   -2.39    4.08   3
   2   9 -17   -5.51    3.93   3
  -2   9  17   11.58    9.10   2
   2   9 -17   -6.83    3.84   4
  -2   9  17    1.77    3.42   3
   1  -9 -17   -0.51    3.82   3
  -1   9  17   -4.44    2.84   3
   1   9 -17    1.67    3.11   3
  -1   9  17   17.84    7.27   2
   1   9 -17   -2.17    2.98   4
   0  -9 -17   24.05    4.64   3
   0   9  17   25.05    4.33   3
   0   9 -17   22.03    2.95   4
   0   9  17   32.97   10.57   2
  -1  -9 -17   -2.08    2.78   4
  -1  -9 -17    2.13    3.50   3
   1   9  17    0.98    3.16   3
   1   9  17    2.02    6.70   2
  -1   9 -17   -2.55    3.29   1
  -1   9 -17    0.82    3.81   2
  -2  -9 -17   41.96    9.23   3
  -2   9 -17   47.72    7.12   1
  -2   9 -17   40.41    7.50   2
   2 -10 -17   10.15    4.48   3
   2  10 -17   11.42    4.35   4
  -2  10  17   -0.04    3.51   3
   2  10 -17   11.69    4.52   3
  -2  10  17   17.87    9.54   2
   1 -10 -17   89.53    7.62   3
   1  10 -17   67.86    5.85   3
   1  10 -17   65.27    6.06   4
  -1  10  17   75.22    6.67   3
   0 -10 -17   -5.53    3.17   3
   0  10 -17   -0.92    2.16   4
   0  10  17   -1.51    2.97   3
   0  10 -17   -3.84    1.72   4
   0  10  17   20.79   10.39   2
  -1 -10 -17   -2.12    3.41   3
  -1  10 -17   -1.73    2.97   1
   1  10  17   -0.11    3.10   3
   1 -11 -17   90.99    7.64   3
   1  11 -17   77.07    6.39   4
   1  11 -17   84.77    6.68   3
   0 -11 -17    8.05    4.19   3
   0  11  17   47.50   12.86   2
   0  11 -17    4.40    2.36   4
   0  11  17    9.49    3.69   3
  -3   0  18   29.62    5.20   3
   3   0 -18   32.16    5.55   4
   3   0 -18   34.73    5.62   3
   2   0 -18   18.85    4.15   4
  -2   0  18   13.03    3.54   3
   2   0 -18   15.02    3.96   3
   1   0 -18  234.47   11.53   4
   1   0 -18  257.82   11.72   3
   0   0  18    2.74    2.01   3
   0   0 -18    6.13    2.34   4
   0   0 -18   -2.09    2.00   4
   0   0 -18    3.96    2.37   3
   0   0 -18    8.68    3.86   3
  -1   0 -18  436.95   18.48   4
  -1   0 -18  449.59   20.37   4
  -1   0 -18  464.92   20.94   1
  -1   0 -18  430.67   18.28   3
  -2   0 -18   27.16    4.03   4
  -2   0 -18   28.28    6.32   1
  -2   0 -18   30.18    3.93   3
  -3   0 -18   40.98    8.13   1
  -3   0 -18   50.33    5.74   4
   3  -1 -18   -3.77    3.63   4
  -3  -1  18    7.40    3.53   3
   3  -1 -18    4.31    4.20   3
   3   1 -18    9.28    4.47   4
   3   1 -18    3.08    4.09   3
  -3   1  18    2.28    3.67   3
   2  -1 -18    1.45    3.41   3
   2  -1 -18    4.02    3.50   4
  -2  -1  18    1.95    2.52   3
   2   1 -18    3.93    3.55   4
   2   1 -18   -1.15    3.18   3
  -2   1  18   -3.06    2.27   3
  -1  -1  18   99.97    6.05   3
   1  -1 -18  114.45    7.02   3
   1  -1 -18  108.81    6.90   4
  -1   1  18  110.32    6.46   3
   1   1 -18  104.30    6.60   4
   1   1 -18  101.20    6.66   3
   0  -1 -18   90.99    5.97   3
   0  -1 -18   90.78    5.85   4
   0  -1 -18   83.78    5.51   3
   0  -1 -18   90.81    5.79   4
   0   1 -18   79.72    5.53   4
   0   1 -18   93.63    5.65   3
   0   1  18   85.66    5.52   3
   0   1 -18   90.36    5.76   4
  -1  -1 -18    4.82    2.58   3
  -1  -1 -18    7.84    2.63   4
  -1  -1 -18    7.59    4.14   1
  -1   1 -18    2.17    2.04   3
  -1   1 -18    3.53    2.24   4
  -1   1 -18    5.65    2.30   4
  -2  -1 -18   54.65    5.13   3
  -2  -1 -18   55.64    5.37   4
  -2  -1 -18   64.02    8.23   1
  -2   1 -18   61.56    4.94   4
  -2   1 -18   58.38    4.68   3
  -2   1 -18   69.45    8.52   1
  -3  -1 -18   32.59    7.45   1
  -3  -1 -18   31.56    4.94   4
  -3  -1 -18   34.36    4.80   3
  -3   1 -18   32.33    4.51   4
  -3   1 -18   27.06    6.89   1
   3  -2 -18   -5.75    4.36   4
  -3  -2  18   -0.42    3.41   3
   3  -2 -18   -3.17    4.02   3
   3   2 -18    0.22    4.05   3
  -3   2  18   -0.77    3.42   3
   3   2 -18   -3.95    3.90   4
  -2  -2  18   73.11    5.64   3
   2  -2 -18   64.74    6.35   4
   2  -2 -18   65.34    6.04   3
  -2   2  18   67.47    5.67   3
   2   2 -18   64.87    5.85   3
   2   2 -18   57.81    6.05   4
   1  -2 -18   26.59    4.38   4
   1  -2 -18   26.28    4.11   3
  -1  -2  18   42.50    4.01   3
   1   2 -18   41.52    4.44   3
   1   2 -18   33.97    4.08   4
  -1   2  18   21.10    3.39   3
   0  -2 -18  116.23    7.06   3
   0  -2 -18  111.47    6.85   4
   0   2 -18  105.48    6.31   4
   0   2 -18  127.66    6.46   3
   0   2  18  114.40    6.71   3
   0   2 -18  117.53    6.50   4
  -1  -2 -18    0.16    2.28   4
  -1  -2 -18   -1.02    3.78   1
  -1  -2 -18   -2.34    2.42   3
  -1   2 -18    5.99    2.14   4
  -1   2 -18   -3.17    1.80   4
  -1   2 -18    1.13    1.83   3
  -2  -2 -18    3.29    2.86   3
  -2  -2 -18    6.79    4.79   1
  -2  -2 -18    1.76    2.61   4
  -2   2 -18    3.64    4.38   1
  -2   2 -18    1.83    1.93   3
  -2   2 -18    1.56    2.09   4
  -3  -2 -18   -0.95    3.00   3
  -3  -2 -18   -2.13    4.54   1
  -3  -2 -18    4.70    3.25   4
  -3   2 -18    2.52    2.56   4
  -3   2 -18    4.95    5.65   1
  -3   2 -18    0.73    2.86   3
   3  -3 -18   -2.49    3.93   3
   3   3 -18    3.11    4.32   4
   3   3 -18   -0.26    4.47   3
  -3   3  18   -0.84    3.24   3
   2  -3 -18    4.27    3.59   3
   2  -3 -18    0.50    3.38   4
   2   3 -18   -0.68    3.82   4
  -2   3  18   -1.05    2.64   3
   2   3 -18    0.07    3.29   3
   1  -3 -18   63.72    5.57   4
   1  -3 -18   62.06    5.45   3
   1   3 -18   64.93    5.16   3
   1   3 -18   66.82    5.41   4
  -1   3  18   59.76    5.38   3
   0  -3 -18   71.94    5.54   3
   0  -3 -18   70.77    5.59   4
   0   3 -18   70.48    4.91   4
   0   3  18   74.82    5.52   3
   0   3 -18   85.22    5.01   3
   0   3 -18   73.81    4.96   4
  -1  -3 -18   73.79    5.69   3
  -1  -3 -18   82.54    7.76   1
  -1  -3 -18   70.36    5.67   4
  -1   3 -18   72.11    4.70   4
  -1   3 -18   69.59    4.73   4
  -1   3 -18   73.25    4.42   3
  -2  -3 -18   14.77    3.75   4
  -2  -3 -18   21.28    5.72   1
  -2  -3 -18   20.23    4.03   3
  -2   3 -18   19.29    5.82   1
  -2   3 -18   22.94    2.76   3
  -2   3 -18   24.72    3.17   4
  -3  -3 -18   35.91    5.55   4
  -3  -3 -18   36.64    7.49   1
  -3  -3 -18   32.24    5.43   3
  -3   3 -18   34.53   11.88   1
   3  -4 -18   -0.88    4.19   3
   3   4 -18   -0.38    4.24   3
  -3   4  18    5.92    4.02   3
   3   4 -18    0.21    4.28   4
   2  -4 -18   16.78    4.39   4
   2  -4 -18   14.67    4.50   3
   2   4 -18   20.54    4.31   3
  -2   4  18   18.19    4.16   3
   2   4 -18   12.25    4.37   4
   1  -4 -18   -0.53    2.93   4
   1  -4 -18   -1.04    2.89   3
  -1   4  18    0.23    3.99   2
   1   4 -18    1.53    2.56   4
   1   4 -18    0.08    2.64   3
  -1   4  18    2.16    2.68   3
   0  -4 -18    8.38    3.08   4
   0  -4 -18   12.80    3.66   3
   0   4 -18   12.84    2.49   3
   0   4 -18   13.81    2.65   4
   0   4  18   16.54    3.26   3
   0   4 -18   14.71    2.73   4
  -1  -4 -18   28.04    4.38   3
  -1  -4 -18   22.43    3.84   4
  -1  -4 -18   18.84    4.80   1
  -1   4 -18   25.88    2.89   4
   1   4  18   19.63    3.38   3
  -1   4 -18   26.59    2.50   3
  -1   4 -18   25.84    2.89   4
  -2  -4 -18    2.73    2.88   3
  -2  -4 -18   -2.84    4.67   1
  -2  -4 -18   -0.08    2.63   4
  -2   4 -18   -1.30    1.72   4
  -2   4 -18    2.26    1.85   4
  -2   4 -18   -1.97    3.93   1
   3  -5 -18  105.33    8.68   3
   3   5 -18  122.64    9.54   4
  -3   5  18  123.19    9.12   3
   3   5 -18  126.64    9.48   3
   2  -5 -18    6.27    3.73   4
   2  -5 -18    8.70    4.48   3
   2   5 -18    8.08    4.11   4
  -2   5  18   10.55    3.81   3
   2   5 -18    5.94    4.05   3
   1  -5 -18  156.75    8.95   3
   1  -5 -18  160.35    9.04   4
   1   5 -18  143.75    8.30   4
  -1   5  18  152.57   11.58   2
  -1   5  18  156.01    8.94   3
   0  -5 -18   47.62    5.21   4
   0  -5 -18   51.86    5.43   3
   0   5 -18   55.83    4.46   4
   0   5  18   55.24    7.93   2
   0   5  18   56.27    5.06   3
   0   5 -18   55.78    4.19   4
   0   5 -18   67.15    4.16   3
  -1  -5 -18   18.58    4.02   3
  -1  -5 -18   22.91    5.13   1
  -1  -5 -18   17.24    3.74   4
  -1   5 -18   18.28    2.36   4
  -1   5 -18   17.93    2.40   4
  -1   5 -18   17.65    1.80   3
   1   5  18   12.90    3.17   3
  -2  -5 -18   44.52    6.97   1
  -2  -5 -18   32.66    4.95   4
  -2  -5 -18   23.72    4.63   3
  -2   5 -18   36.30    3.21   4
  -2   5 -18   37.46    3.11   4
  -2   5 -18   38.03    7.19   1
   3  -6 -18    3.02    4.84   3
   3   6 -18    5.97    4.97   3
   3   6 -18   -1.24    4.25   4
  -3   6  18    2.81    4.19   3
   2  -6 -18   30.52    5.21   3
   2   6 -18   25.96    4.99   3
  -2   6  18   33.12    4.89   3
   2   6 -18   23.77    5.17   4
   1  -6 -18    5.53    3.43   4
   1  -6 -18    8.20    3.64   3
   1   6 -18   -4.87    2.63   3
   1   6 -18    7.01    3.34   4
  -1   6  18    3.25    2.72   3
  -1   6  18    6.64    6.08   2
   0  -6 -18    7.00    3.09   4
   0  -6 -18    5.78    3.53   3
   0   6  18    4.77    2.91   3
   0   6  18    1.81    5.14   2
   0   6 -18   -0.14    1.96   4
   0   6 -18    6.65    1.95   3
   0   6 -18    8.26    2.34   4
  -1  -6 -18   13.07    4.54   1
  -1  -6 -18    9.47    3.45   4
  -1  -6 -18    7.12    3.33   3
  -1   6 -18   10.80    1.80   4
  -1   6 -18   14.88    4.13   2
  -1   6 -18   10.85    2.03   4
   1   6  18   13.73    3.78   3
  -2  -6 -18   12.51    3.96   4
  -2  -6 -18    4.68    3.52   3
  -2  -6 -18   11.24    5.42   1
  -2   6 -18   13.72    5.25   1
  -2   6 -18   12.70    1.68   4
   2  -7 -18   55.22    6.34   3
   2   7 -18   48.52    6.12   4
   2   7 -18   54.54    6.13   3
  -2   7  18   35.18    5.20   3
   1  -7 -18   -0.91    3.02   4
   1  -7 -18    2.61    3.62   3
  -1   7  18   21.63    7.49   2
   1   7 -18   -0.10    2.88   3
   1   7 -18   -2.80    2.90   4
  -1   7  18   -0.66    2.58   3
   0  -7 -18    5.96    3.44   3
   0  -7 -18    4.48    3.54   1
   0  -7 -18   10.89    3.59   4
   0   7 -18    5.19    1.77   3
   0   7  18    9.38    3.42   3
   0   7  18    3.53    5.65   2
   0   7 -18    6.75    2.25   4
   0   7 -18    3.91    2.18   4
  -1  -7 -18   35.50    5.02   3
  -1  -7 -18   55.41    6.85   1
  -1  -7 -18   38.15    5.21   4
  -1   7 -18   51.22    6.55   2
   1   7  18   34.91    4.94   3
  -1   7 -18   49.61    2.74   4
  -1   7 -18   48.05    3.06   4
  -2  -7 -18    1.18    3.19   4
  -2  -7 -18   -4.80    4.46   1
  -2  -7 -18    3.04    4.01   3
  -2   7 -18    3.30    4.33   1
  -2   7 -18    7.33    4.84   2
   2  -8 -18    7.83    4.31   3
   2   8 -18   -1.34    3.82   4
  -2   8  18    4.96    3.68   3
   2   8 -18    9.41    4.36   3
   1  -8 -18    6.92    3.96   3
  -1   8  18   32.23    8.46   2
   1   8 -18   10.39    3.51   3
   1   8 -18   13.33    3.62   4
  -1   8  18   15.61    4.22   3
   0  -8 -18  103.38    7.65   4
   0  -8 -18  109.03    8.20   3
   0  -8 -18  119.57    7.82   1
   0   8 -18  107.49    5.08   3
   0   8 -18  112.73    6.09   4
   0   8 -18   97.71    5.68   4
   0   8  18  112.57   13.38   2
   0   8  18  119.56    7.93   3
  -1  -8 -18   10.05    3.56   4
  -1  -8 -18   15.43    4.85   1
  -1  -8 -18   18.60    4.21   3
   1   8  18    8.95    3.98   3
  -1   8 -18   11.25    4.49   1
  -2  -8 -18    4.23    3.40   4
  -2  -8 -18    9.11    4.96   1
  -2   8 -18   10.85    5.12   2
  -2   8 -18    6.71    4.74   1
   2  -9 -18   -3.67    3.74   3
   2   9 -18   -3.21    3.86   4
   2   9 -18   -2.06    4.08   3
  -2   9  18    1.89    3.41   3
   1  -9 -18   61.90    6.82   3
   1   9 -18   62.12    5.74   4
   1   9 -18   60.45    5.32   3
   0  -9 -18  127.25    8.61   3
   0   9  18  124.93    8.27   3
   0   9 -18  117.98    6.21   4
   0   9  18  116.88   15.16   2
  -1  -9 -18    1.77    3.49   3
  -1   9 -18   -1.87    3.30   1
   1   9  18    7.11    3.61   3
   1 -10 -18   60.67    6.64   3
  -1  10  18   67.76    6.87   3
   1  10 -18   50.19    5.48   4
   1  10 -18   55.36    5.57   3
   0 -10 -18   25.91    5.42   3
   0  10  18   21.61   12.66   2
   0  10  18   18.58    4.21   3
   0  10 -18   15.86    2.55   4
  -1 -10 -18    6.60    4.16   3
   1  10  18   -1.22    7.95   2
   1  10  18    5.81    3.67   3
  -1  10 -18   -4.36    2.76   1
   3   0 -19   -6.01    4.53   3
   3   0 -19   -2.24    4.16   4
  -3   0  19   -4.45    3.04   3
  -2   0  19    3.56    2.94   3
   2   0 -19    2.25    3.91   3
   2   0 -19    2.18    3.42   4
   1   0 -19    3.06    3.09   3
   1   0 -19    1.59    2.87   4
  -1   0  19    2.32    2.11   3
   0   0 -19    0.30    2.49   4
   0   0 -19    0.77    2.38   3
  -1   0 -19    2.09    2.30   4
  -1   0 -19    7.27    4.35   1
  -1   0 -19    3.05    2.28   3
  -2   0 -19   -2.01    2.14   3
  -2   0 -19    0.68    2.37   4
  -2   0 -19    1.20    4.32   1
   3  -1 -19    6.07    4.53   3
  -3  -1  19   15.23    4.12   3
   3  -1 -19   10.38    4.66   4
   3   1 -19   27.12    5.79   4
   3   1 -19   20.49    5.69   3
  -3   1  19   23.05    4.80   3
   2  -1 -19   84.98    7.02   3
   2  -1 -19   72.18    6.59   4
  -2  -1  19   76.05    6.03   3
  -2   1  19   77.77    5.98   3
   2   1 -19   81.44    6.99   4
   2   1 -19   75.85    7.08   3
  -1  -1  19   40.59    5.44   3
   1  -1 -19   37.58    4.59   4
   1  -1 -19   32.51    4.59   3
   1   1 -19   31.19    4.08   3
   1   1 -19   26.70    4.01   4
  -1   1  19   19.81    3.24   3
   0  -1 -19  119.05    6.99   3
   0  -1 -19  108.64    6.75   4
   0   1 -19  106.95    6.64   4
  -1  -1 -19   -3.37    2.31   4
  -1  -1 -19    0.71    2.46   3
  -1  -1 -19   -0.39    4.05   1
  -1   1 -19   -2.10    2.01   3
  -1   1 -19   -3.49    1.92   4
  -1   1 -19    5.33    4.02   1
  -2  -1 -19   31.65    4.36   3
  -2  -1 -19   26.18    4.15   4
  -2  -1 -19   38.36    7.11   1
  -2   1 -19   45.26    7.61   1
  -2   1 -19   29.53    3.71   3
  -2   1 -19   31.04    3.99   4
   3  -2 -19   29.32    5.78   3
   3   2 -19   30.60    5.56   3
   3   2 -19   28.22    5.91   4
  -3   2  19   33.92    5.64   3
   2  -2 -19   14.18    4.59   3
   2  -2 -19   17.52    4.27   4
   2   2 -19   10.25    4.24   4
   2   2 -19    3.45    3.93   3
  -2   2  19    6.13    3.33   3
   1  -2 -19   28.12    4.50   4
   1  -2 -19   21.78    4.27   3
   1   2 -19   23.32    4.07   4
   1   2 -19   32.66    4.20   3
  -1   2  19   24.94    3.78   3
   0  -2 -19   16.37    3.42   4
   0  -2 -19   13.69    3.52   3
   0   2  19   15.71    3.09   3
   0   2 -19   10.92    2.69   3
   0   2 -19   15.73    3.02   4
  -1  -2 -19   18.50    3.66   3
  -1  -2 -19   29.91    5.88   1
  -1  -2 -19   26.13    4.09   4
  -1   2 -19   26.87    3.41   4
  -1   2 -19   25.52    3.20   3
  -2  -2 -19   81.30    9.34   1
  -2  -2 -19   61.37    6.48   4
  -2  -2 -19   74.25    6.27   3
  -2   2 -19   80.60    5.22   3
  -2   2 -19   97.87    9.20   1
  -2   2 -19   77.48    5.38   4
   3  -3 -19   92.57    7.93   3
   3   3 -19   85.28    8.02   3
   3   3 -19   84.00    7.79   4
  -3   3  19   86.40    7.37   3
   2  -3 -19   89.33    7.35   3
   2  -3 -19   71.52    6.62   4
   2   3 -19   82.86    6.64   4
   2   3 -19   77.58    6.37   3
  -2   3  19   66.72    6.08   3
   1  -3 -19   13.29    3.77   4
   1  -3 -19   19.51    3.99   3
   1   3 -19   19.02    3.64   3
   1   3 -19   15.75    3.66   4
  -1   3  19   14.95    3.45   3
   0  -3 -19    7.37    3.21   3
   0  -3 -19    2.33    2.96   4
   0   3  19    4.01    2.53   3
   0   3 -19    2.09    2.18   4
   0   3 -19    5.08    2.53   4
   0   3 -19    4.90    2.31   3
  -1  -3 -19  222.03   11.06   3
  -1  -3 -19  212.07   11.05   4
  -1   3 -19  215.85    9.42   3
  -1   3 -19  218.91    9.68   4
  -1   3 -19  196.60    9.69   4
  -2  -3 -19   12.14    5.29   1
  -2  -3 -19   -1.60    2.39   4
  -2  -3 -19    4.93    3.25   3
  -2   3 -19    7.17    2.04   3
  -2   3 -19   13.15    5.46   1
  -2   3 -19    5.20    2.38   4
   3  -4 -19   -0.13    4.37   3
   3   4 -19   -9.36    4.15   3
  -3   4  19   -6.53    3.02   3
   3   4 -19    1.63    4.38   4
   2  -4 -19   79.28    7.06   4
   2  -4 -19   76.28    7.45   3
  -2   4  19   83.24    6.61   3
   2   4 -19   82.31    7.22   4
   2   4 -19   80.58    6.85   3
   1  -4 -19    2.17    3.32   4
   1  -4 -19   -0.75    3.08   3
  -1   4  19    0.88    2.57   3
   1   4 -19    1.82    2.90   3
   1   4 -19    0.15    3.00   4
   0  -4 -19   87.21    6.48   3
   0  -4 -19   84.52    6.46   4
   0   4 -19   95.29    5.86   4
   0   4 -19   94.08    5.51   3
  -1  -4 -19   -3.88    3.63   1
  -1  -4 -19    4.22    3.12   3
  -1  -4 -19   -0.15    2.79   4
  -1   4 -19   -0.59    1.33   3
  -1   4 -19    1.92    1.89   4
  -1   4 -19   -3.30    1.63   4
  -2  -4 -19    2.97    2.87   4
  -2  -4 -19   -5.25    3.99   1
  -2  -4 -19    2.68    3.04   3
  -2   4 -19    4.90    2.10   4
  -2   4 -19    0.10    4.70   1
   3  -5 -19   19.67    5.16   3
   3   5 -19   13.57    4.88   4
   3   5 -19   10.87    5.43   3
  -3   5  19   23.97    4.94   3
   2  -5 -19   22.00    5.14   3
   2  -5 -19   18.89    4.58   4
   2   5 -19   11.61    4.67   4
   2   5 -19   19.24    4.69   3
  -2   5  19   23.01    4.63   3
   1  -5 -19    3.87    3.42   4
   1  -5 -19    6.01    3.53   3
   1   5 -19   -0.25    2.98   4
   1   5 -19    4.97    3.06   3
  -1   5  19    8.41    3.24   3
   0  -5 -19    4.76    3.02   4
   0  -5 -19    2.55    3.40   3
   0   5 -19    1.04    2.18   4
   0   5 -19   -0.47    1.88   3
   0   5 -19   -2.99    2.11   4
   0   5  19    0.10    2.50   3
  -1  -5 -19   -0.70    3.05   3
  -1  -5 -19    2.41    4.11   1
  -1  -5 -19    4.21    3.26   4
  -1   5 -19    1.05    1.75   4
  -1   5 -19    0.32    1.60   4
  -1   5 -19    1.67    1.17   3
  -2  -5 -19   11.23    3.91   4
  -2  -5 -19    2.68    3.28   3
  -2  -5 -19   11.01    5.43   1
  -2   5 -19    9.90    2.10   4
  -2   5 -19    6.63    1.96   4
  -2   5 -19    4.69    5.09   1
   2  -6 -19    1.64    4.31   3
  -2   6  19    4.68    3.53   3
   2   6 -19   -4.10    4.01   4
   2   6 -19    8.40    4.25   3
   1  -6 -19   74.00    6.38   4
   1  -6 -19   63.29    6.47   3
  -1   6  19   64.27    5.83   3
   1   6 -19   72.11    5.88   4
   1   6 -19   64.86    5.41   3
   0  -6 -19   32.43    4.81   4
   0  -6 -19   42.97    5.27   3
   0   6 -19   32.04    3.40   4
   0   6 -19   38.36    3.28   3
   0   6  19   25.56    7.26   2
   0   6 -19   38.37    3.88   4
   0   6  19   31.63    4.47   3
  -1  -6 -19   -0.31    3.88   1
  -1  -6 -19    1.16    3.19   3
  -1  -6 -19    3.03    3.00   4
   1   6  19    5.74    3.09   3
  -1   6 -19    4.20    1.83   4
  -1   6 -19    3.30    1.56   4
  -2  -6 -19   27.44    6.73   1
  -2  -6 -19   24.12    4.68   4
  -2  -6 -19   28.34    5.13   3
  -2   6 -19   17.21    5.95   1
  -2   6 -19   19.81    2.05   4
   2  -7 -19  132.14    9.62   3
   2   7 -19  132.64    8.71   4
   1  -7 -19   26.20    5.13   3
   1  -7 -19   32.69    4.98   4
  -1   7  19   39.07    5.34   3
   1   7 -19   40.65    4.46   3
   1   7 -19   33.17    4.60   4
   0  -7 -19    1.21    3.42   4
   0  -7 -19    2.68    3.56   1
   0  -7 -19    1.48    3.32   3
   0   7 -19    2.99    1.70   3
   0   7 -19    1.78    2.43   4
   0   7  19    2.42    2.75   3
   0   7  19   -4.83    5.03   2
   0   7 -19    0.28    2.06   4
  -1  -7 -19  110.03    9.03   1
  -1  -7 -19  101.13    7.73   4
  -1   7 -19  102.52    5.10   4
   1   7  19  104.47    7.81   3
  -1   7 -19  105.90    4.85   4
  -2  -7 -19   -5.15    2.76   4
  -2  -7 -19    0.32    5.01   1
  -2   7 -19    9.78    5.92   2
  -2   7 -19    2.97    4.41   1
   2  -8 -19    2.65    4.46   3
   2   8 -19   -2.03    4.01   3
  -2   8  19   -3.70    3.17   3
   2   8 -19    5.10    4.33   4
   1  -8 -19   83.23    7.68   3
   1   8 -19   79.20    5.97   3
   1   8 -19   79.90    6.19   4
   0  -8 -19   10.56    4.14   1
   0  -8 -19    9.12    3.82   3
   0  -8 -19    7.46    3.56   4
   0   8  19    8.04    6.91   2
   0   8  19    9.72    3.40   3
   0   8 -19    9.65    2.55   4
  -1  -8 -19   13.55    3.78   4
  -1  -8 -19   11.76    4.09   3
  -1  -8 -19   17.93    5.04   1
   1   8  19   12.71    3.87   3
  -1   8 -19   12.47    4.97   1
   1  -9 -19   53.18    6.45   3
  -1   9  19   52.28    6.07   3
   1   9 -19   56.02    5.40   3
   1   9 -19   41.67    5.12   4
   0  -9 -19    3.85    3.64   3
   0   9 -19    4.86    2.35   4
   0   9  19   -1.81    2.78   3
  -1  -9 -19   -4.69    3.17   3
   1   9  19   11.36    4.30   3
  -1   9 -19    5.15    4.22   1
   1 -10 -19    1.84    4.09   3
   1  10 -19    1.64    3.44   3
  -1  10  19    8.15    3.77   3
   0 -10 -19   30.34    5.72   3
   0  10  19   35.86   10.98   2
   0  10  19   22.00    4.72   3
   0  10 -19   31.75    3.14   4
  -3   0  20    2.36    4.10   3
   3   0 -20    0.50    4.33   3
   3   0 -20    4.79    4.42   4
   2   0 -20   48.44    5.69   3
   2   0 -20   49.69    5.91   4
  -2   0  20   38.66    4.97   3
   1   0 -20   13.02    3.79   3
   1   0 -20   14.12    4.01   4
   0   0 -20   46.60    4.79   4
   0   0 -20   56.46    4.92   3
  -1   0 -20   10.16    2.96   3
  -1   0 -20   16.71    3.28   4
  -1   0 -20   17.32    5.00   1
  -2   0 -20    2.71    2.75   4
  -2   0 -20   11.05    5.45   1
  -2   0 -20    1.36    2.49   3
   3  -1 -20   -1.88    4.70   3
   3  -1 -20    1.55    4.35   4
   3   1 -20    0.71    4.33   3
  -3   1  20   14.39    4.41   3
   3   1 -20    6.19    4.68   4
   2  -1 -20   54.08    6.02   4
   2  -1 -20   53.98    6.10   3
  -2   1  20   50.62    5.45   3
   2   1 -20   50.16    5.83   3
   2   1 -20   48.89    5.88   4
   1  -1 -20  121.35    7.58   3
   1  -1 -20  123.36    8.09   4
   1   1 -20  119.33    7.57   3
   1   1 -20  129.02    7.93   4
  -1   1  20  128.59    7.50   3
   0  -1 -20   51.60    4.87   4
   0  -1 -20   41.14    4.71   3
   0   1 -20   58.16    4.73   3
   0   1 -20   59.79    5.02   4
  -1  -1 -20    2.33    2.40   4
  -1  -1 -20   -1.06    2.40   3
  -1  -1 -20   -0.14    4.21   1
  -1   1 -20    2.63    2.42   4
  -1   1 -20   -0.53    2.10   3
  -1   1 -20   -3.21    3.45   1
  -2  -1 -20   69.48    5.92   3
  -2  -1 -20   78.06    9.48   1
  -2  -1 -20   57.30    5.53   4
  -2   1 -20   81.07    9.67   1
  -2   1 -20   63.78    5.11   3
  -2   1 -20   70.61    5.67   4
   3  -2 -20   25.65    5.97   3
   3   2 -20   29.69    5.68   4
  -3   2  20   19.03    4.51   3
   3   2 -20   25.95    5.86   3
   2  -2 -20   21.76    4.98   4
   2  -2 -20   14.73    4.60   3
   2   2 -20    8.64    3.95   4
  -2   2  20   20.18    3.86   3
   2   2 -20   18.62    4.75   3
   1  -2 -20   31.35    4.54   4
   1  -2 -20   25.66    4.66   3
   1   2 -20   33.87    4.58   4
  -1   2  20   34.81    4.35   3
   1   2 -20   24.96    3.99   3
   0  -2 -20   38.24    4.66   3
   0  -2 -20   30.74    4.44   4
   0   2 -20   20.71    3.32   4
   0   2 -20   32.47    3.68   3
  -1  -2 -20    5.95    3.02   4
  -1  -2 -20    0.34    4.22   1
  -1  -2 -20    1.67    2.82   3
  -1   2 -20    4.82    2.17   3
  -1   2 -20    2.74    2.27   4
  -1   2 -20   -2.08    3.72   1
  -2  -2 -20    5.73    5.10   1
  -2  -2 -20    5.67    3.27   3
  -2  -2 -20   -0.70    2.75   4
  -2   2 -20    9.22    4.79   1
  -2   2 -20    3.43    2.16   3
  -2   2 -20    6.38    2.51   4
   3  -3 -20   27.62    6.15   3
   3   3 -20   19.09    5.84   3
   3   3 -20   31.93    5.86   4
  -3   3  20   25.83    5.35   3
   2  -3 -20   28.30    5.12   4
   2  -3 -20   26.53    5.32   3
  -2   3  20   22.77    4.61   3
   2   3 -20   33.86    5.15   4
   2   3 -20   23.22    4.86   3
   1  -3 -20   67.54    5.95   4
   1  -3 -20   60.75    6.22   3
   1   3 -20   64.23    5.64   4
   1   3 -20   63.51    5.41   3
  -1   3  20   55.31    5.17   3
   0  -3 -20   -0.05    2.99   3
   0  -3 -20    1.33    2.74   4
   0   3 -20    2.90    2.44   4
   0   3  20    5.76    2.83   3
   0   3 -20   -2.05    2.05   3
  -1  -3 -20   47.72    5.34   3
  -1  -3 -20   36.80    4.88   4
  -1  -3 -20   46.76    6.71   1
  -1   3 -20   41.87    3.62   3
  -1   3 -20   34.10    3.73   4
  -2  -3 -20   23.77    6.58   1
  -2  -3 -20   11.98    3.69   4
  -2  -3 -20   14.92    4.03   3
  -2   3 -20   21.34    6.23   1
  -2   3 -20   24.10    2.92   3
  -2   3 -20   25.66    3.45   4
   3  -4 -20   11.40    4.94   3
  -3   4  20   11.76    4.12   3
   2  -4 -20   13.24    4.47   4
   2  -4 -20    8.70    4.68   3
  -2   4  20    2.88    3.09   3
   2   4 -20   16.40    4.31   4
   2   4 -20    1.49    4.10   3
   1  -4 -20   22.66    4.47   4
   1  -4 -20   28.80    4.64   3
   1   4 -20   24.09    3.91   3
   1   4 -20   27.99    4.25   4
  -1   4  20   18.21    3.66   3
   0  -4 -20    0.90    2.88   4
   0  -4 -20    5.58    3.42   3
   0   4 -20    0.27    2.09   3
   0   4 -20    4.36    2.48   4
   0   4  20    1.56    2.69   3
  -1  -4 -20  -11.36    3.83   1
  -1  -4 -20    0.41    3.00   3
  -1  -4 -20   -0.52    2.92   4
  -1   4 -20    0.31    1.86   4
  -1   4 -20    1.80    1.52   3
  -2  -4 -20   17.34    4.05   4
  -2  -4 -20   13.81    5.87   1
  -2  -4 -20    7.31    3.58   3
  -2   4 -20   21.51    6.39   1
  -2   4 -20   11.74    2.60   4
   2  -5 -20   23.11    5.53   3
  -2   5  20   22.81    4.80   3
   2   5 -20   16.94    4.66   3
   2   5 -20   28.49    5.36   4
   1  -5 -20   74.36    6.48   3
   1  -5 -20   63.26    6.51   4
   1   5 -20   76.57    5.74   3
  -1   5  20   76.98    6.44   3
   1   5 -20   72.83    5.93   4
   0  -5 -20  190.85   10.95   4
   0   5 -20  207.28    9.21   3
   0   5  20  207.57   10.79   3
  -1  -5 -20   -4.94    2.96   3
  -1  -5 -20   -2.60    3.51   1
  -1  -5 -20    2.60    3.10   4
  -1   5 -20    2.29    1.96   4
  -1   5 -20    0.01    1.63   4
  -1   5 -20    2.53    1.32   3
  -2  -5 -20    0.40    3.40   4
  -2  -5 -20    1.08    5.05   1
  -2  -5 -20   -1.18    3.06   3
  -2   5 -20    1.29    1.77   4
  -2   5 -20    0.00    4.82   1
   2  -6 -20   -2.01    4.38   3
   2   6 -20   -5.54    3.97   4
  -2   6  20    5.58    3.51   3
   2   6 -20   -4.70    3.82   3
   1  -6 -20    2.83    4.12   3
   1  -6 -20    1.69    3.29   4
   1   6 -20   -3.76    2.66   3
  -1   6  20   -2.70    2.61   3
   1   6 -20    3.07    3.36   4
   0  -6 -20   -1.10    3.32   3
   0  -6 -20    7.77    3.52   4
   0   6  20    7.34    3.37   3
   0   6 -20    3.97    1.84   3
   0   6 -20    3.81    2.33   4
  -1  -6 -20   18.18    4.45   3
  -1  -6 -20   22.25    4.41   4
  -1  -6 -20   24.63    5.64   1
  -1   6 -20   25.55    2.91   4
  -1   6 -20   24.70    2.64   4
   2  -7 -20   -1.79    3.88   3
   2   7 -20    1.59    3.94   3
  -2   7  20   -4.07    3.21   3
   2   7 -20   -4.58    3.86   4
   1  -7 -20   -2.96    3.63   3
   1   7 -20   -3.31    3.20   4
   1   7 -20   -4.21    2.81   3
  -1   7  20   -1.44    3.03   3
   0  -7 -20   18.37    4.85   1
   0  -7 -20   13.59    4.46   3
   0  -7 -20   12.57    4.13   4
   0   7 -20   12.13    2.00   3
   0   7  20   14.30    4.03   3
   0   7  20    9.47    6.71   2
   0   7 -20   13.52    2.66   4
  -1  -7 -20   47.68    5.86   4
  -1  -7 -20   53.13    7.15   1
  -1  -7 -20   42.87    5.76   3
  -1   7 -20   53.40    3.22   4
  -1   7 -20   58.15    3.61   4
  -1   7 -20   43.00    6.94   1
   1  -8 -20  102.80    7.99   3
   1   8 -20  101.92    6.61   3
  -1   8  20   97.16    7.40   3
   1   8 -20   80.21    6.83   4
   0  -8 -20   12.16    4.30   3
   0   8 -20    6.17    2.40   4
   0   8  20    8.43    3.53   3
  -1  -8 -20   13.54    4.59   3
  -1  -8 -20   15.43    4.15   4
  -1  -8 -20   24.51    5.97   1
  -1   8 -20   17.39    1.19   4
  -1   8 -20   17.58    5.38   1
   1  -9 -20   51.42    6.60   3
  -1   9  20   57.77    6.55   3
   1   9 -20   57.00    5.65   3
   0  -9 -20   30.95    5.75   3
   0   9  20   43.04    5.64   3
   0   9  20   26.69    9.10   2
   2   0 -21   -0.83    3.99   4
   2   0 -21    0.86    4.13   3
   1   0 -21    1.78    3.33   3
   1   0 -21    8.05    3.47   4
   0   0 -21    0.64    2.77   4
   0   0 -21   -2.66    2.52   3
  -1   0 -21    0.21    2.37   4
  -1   0 -21    0.52    2.52   3
  -1   0 -21    3.05    4.73   1
  -2   0 -21    2.15    2.73   4
  -2   0 -21    0.91    2.56   3
  -2   0 -21    2.21    4.97   1
   2  -1 -21   85.07    7.08   3
   2  -1 -21   86.30    7.64   4
   2   1 -21   78.61    7.15   3
   2   1 -21   85.58    7.57   4
   1  -1 -21   40.66    5.08   3
   1  -1 -21   34.84    4.86   4
   1   1 -21   26.93    4.38   3
   1   1 -21   39.04    4.83   4
   0  -1 -21    4.85    2.92   3
   0  -1 -21    4.00    2.91   4
   0   1 -21    3.55    2.72   4
   0   1 -21    2.77    2.60   3
  -1  -1 -21  140.63    8.25   3
  -1  -1 -21  138.67    8.38   4
  -1  -1 -21  142.48   10.63   1
  -1   1 -21  141.25    7.97   4
  -1   1 -21  136.63    7.68   3
  -2  -1 -21    1.04    2.71   3
  -2  -1 -21    3.56    5.08   1
  -2  -1 -21    0.00    2.81   4
  -2   1 -21   12.62    6.10   1
  -2   1 -21    3.23    2.36   3
  -2   1 -21    8.69    2.86   4
   2  -2 -21   31.33    5.31   3
   2  -2 -21   45.43    5.97   4
   2   2 -21   37.97    5.72   4
   2   2 -21   41.12    5.64   3
  -2   2  21   21.35    4.31   3
   1  -2 -21   -1.76    3.21   3
   1  -2 -21   -3.52    2.96   4
   1   2 -21   -3.26    2.99   3
   1   2 -21   -0.56    2.96   4
   0  -2 -21   26.44    4.30   3
   0  -2 -21   29.38    4.45   4
   0   2 -21   30.91    3.87   3
   0   2 -21   31.45    4.09   4
  -1  -2 -21   29.56    4.20   4
  -1  -2 -21   28.47    4.45   3
  -1  -2 -21   23.39    5.73   1
  -1   2 -21   33.40    3.85   4
  -1   2 -21   33.32    3.64   3
  -1   2 -21   37.12    6.28   1
  -2  -2 -21    1.74    4.99   1
  -2  -2 -21    3.73    2.80   4
  -2  -2 -21   -0.08    2.91   3
  -2   2 -21    4.80    5.03   1
  -2   2 -21    0.09    2.07   4
  -2   2 -21    0.19    2.01   3
   2  -3 -21   83.02    7.19   4
   2  -3 -21   64.20    6.96   3
   2   3 -21   72.33    7.08   3
   2   3 -21   65.90    6.73   4
  -2   3  21   62.37    6.57   3
   1  -3 -21    6.06    3.50   4
   1  -3 -21    2.37    3.65   3
  -1   3  21    4.91    2.80   3
   1   3 -21    6.29    3.41   3
   1   3 -21    1.93    2.93   4
   0  -3 -21  120.81    7.84   3
   0  -3 -21  107.37    7.47   4
  -1  -3 -21   11.12    4.96   1
  -1  -3 -21   14.56    3.64   4
  -1  -3 -21    8.92    3.42   3
  -1   3 -21   12.06    2.44   3
  -1   3 -21    9.34    4.82   1
  -1   3 -21   11.56    2.73   4
  -2  -3 -21   40.25    5.55   4
  -2  -3 -21   48.50    6.09   3
  -2  -3 -21   49.60    8.17   1
  -2   3 -21   43.94    8.41   1
  -2   3 -21   61.11    5.35   4
   2  -4 -21    2.20    4.01   4
   2  -4 -21    5.03    4.55   3
   2   4 -21   -0.26    3.67   4
   2   4 -21    6.48    4.24   3
  -2   4  21   -2.51    2.91   3
   1  -4 -21   76.49    6.58   3
   1  -4 -21   79.02    7.07   4
   1   4 -21   69.12    6.06   4
   0  -4 -21   -1.26    3.26   4
   0  -4 -21    7.63    3.72   3
   0   4 -21    5.02    2.56   4
   0   4 -21   -1.08    1.97   3
  -1  -4 -21    0.26    4.55   1
  -1  -4 -21   -1.87    3.13   3
  -1  -4 -21   -3.82    2.57   4
  -1   4 -21   -1.94    1.42   3
  -1   4 -21    1.62    4.15   1
  -1   4 -21   -0.66    1.96   4
   2  -5 -21   13.34    5.33   3
   2   5 -21    8.47    4.28   3
  -2   5  21   17.91    4.51   3
   2   5 -21   18.77    5.01   4
   1  -5 -21    3.20    3.85   4
   1  -5 -21   -1.45    3.77   3
   1   5 -21   -0.65    2.97   3
  -1   5  21    4.27    3.29   3
   1   5 -21    9.63    3.54   4
   0  -5 -21    1.68    3.00   4
   0  -5 -21    3.51    3.61   3
   0   5 -21    1.87    2.22   4
   0   5 -21    3.54    2.05   3
  -1  -5 -21    1.72    3.16   4
  -1  -5 -21    2.35    4.33   1
  -1  -5 -21    2.15    3.11   3
  -1   5 -21   -2.42    1.63   4
  -1   5 -21   -3.43    3.77   1
   2  -6 -21   30.60    5.60   3
  -2   6  21   14.03    4.31   3
   2   6 -21   31.42    5.24   3
   2   6 -21   34.01    5.50   4
   1  -6 -21    1.78    3.81   4
   1  -6 -21    0.04    3.51   3
  -1   6  21    6.69    3.32   3
   1   6 -21    3.90    3.19   3
   1   6 -21   -1.32    3.29   4
   0  -6 -21   -3.64    3.22   3
   0  -6 -21   -3.74    2.98   4
   0  -6 -21    0.99    3.88   1
   0   6 -21   -0.37    1.68   3
   0   6  21   -0.75    2.85   3
   0   6 -21    4.66    2.45   4
  -1  -6 -21   12.70    4.17   3
  -1  -6 -21   12.38    3.82   4
  -1  -6 -21   14.75    5.03   1
  -1   6 -21   10.59    4.98   1
  -1   6 -21   13.39    2.28   4
   1  -7 -21   27.91    5.28   3
   1   7 -21   23.67    3.80   3
  -1   7  21   14.36    3.85   3
   1   7 -21   15.24    3.92   4
   0  -7 -21   24.51    5.35   1
   0  -7 -21   26.26    4.89   4
   0  -7 -21   34.62    5.23   3
  -1  -7 -21    9.27    4.97   1
  -1  -7 -21    9.13    3.64   4
  -1   7 -21   11.62    2.35   4
  -1   7 -21    7.20    1.71   4
  -1   7 -21    8.20    4.94   1
   1  -8 -21   -0.31    4.40   3
  -1   8  21   -0.99    3.29   3
   1   8 -21    0.12    2.93   3
   0  -8 -21   15.74    5.10   3
   0   8 -21    9.73    2.66   4
   0   8  21   14.16    3.79   3
   2   0 -22   -4.97    3.50   3
   2   0 -22   -0.29    3.80   4
   1   0 -22   25.50    4.48   4
   1   0 -22   23.45    4.35   3
   0   0 -22   12.44    3.42   3
   0   0 -22    5.88    3.23   4
  -1   0 -22   11.53    5.28   1
  -1   0 -22   15.43    3.47   4
  -1   0 -22    9.19    3.01   3
   2  -1 -22   59.12    6.68   3
   2  -1 -22   51.76    6.23   4
   2   1 -22   48.03    6.42   3
   2   1 -22   50.99    6.17   4
   1  -1 -22  164.71    9.66   3
   1  -1 -22  143.35    9.26   4
   1   1 -22  168.67    9.38   3
   1   1 -22  170.39    9.72   4
   0  -1 -22   33.57    4.68   4
   0  -1 -22   25.01    4.17   3
   0   1 -22   34.64    4.25   4
   0   1 -22   40.79    4.49   3
  -1  -1 -22    6.68    3.08   4
  -1  -1 -22   15.43    5.80   1
  -1  -1 -22    9.59    3.21   3
  -1   1 -22    2.22    2.57   3
  -1   1 -22   15.79    5.35   1
  -1   1 -22    7.46    2.93   4
   2  -2 -22   24.40    5.15   4
   2  -2 -22   31.65    5.40   3
   2   2 -22   30.14    5.15   4
   2   2 -22   19.21    4.78   3
   1  -2 -22   11.13    3.88   4
   1  -2 -22   10.88    3.78   3
   1   2 -22   16.33    4.01   3
   1   2 -22   12.16    3.95   4
   0  -2 -22    5.76    3.15   4
   0  -2 -22    2.91    3.16   3
   0   2 -22   -0.83    2.51   4
   0   2 -22    1.23    2.57   3
  -1  -2 -22    3.97    3.19   4
  -1  -2 -22    2.14    3.13   3
  -1  -2 -22   -4.13    4.63   1
  -1   2 -22    1.01    2.37   4
  -1   2 -22    0.55    2.07   3
  -1   2 -22    5.91    4.86   1
   2  -3 -22   -0.62    4.05   4
   2  -3 -22    0.72    4.07   3
   2   3 -22    7.98    4.57   3
   2   3 -22   -0.18    4.22   4
   1  -3 -22   15.20    4.42   3
   1  -3 -22   14.80    4.54   4
   1   3 -22   17.74    4.11   4
   1   3 -22   10.61    3.76   3
   0  -3 -22   16.24    4.07   4
   0  -3 -22   18.37    3.89   3
   0   3 -22   18.53    3.45   4
   0   3 -22   21.39    3.44   3
  -1  -3 -22    8.51    5.36   1
  -1  -3 -22   14.46    4.04   3
  -1  -3 -22   13.79    3.98   4
  -1   3 -22   14.85    2.61   3
  -1   3 -22    7.88    5.05   1
  -1   3 -22   12.25    2.90   4
   2  -4 -22    3.19    4.33   4
   2  -4 -22   -2.86    4.24   3
  -2   4  22    1.70    3.62   3
   2   4 -22    3.66    3.90   4
   2   4 -22    1.38    4.10   3
   1  -4 -22    5.09    3.92   4
   1  -4 -22    1.04    3.54   3
   1   4 -22    5.77    3.45   3
   1   4 -22    4.93    3.54   4
   0  -4 -22    3.45    3.17   4
   0  -4 -22    5.58    3.33   3
   0   4 -22   -1.74    2.00   3
   0   4 -22    0.57    2.33   4
  -1  -4 -22    1.10    4.44   1
  -1  -4 -22    1.49    3.33   4
  -1  -4 -22   -3.69    2.59   3
  -1   4 -22   -2.40    4.55   1
  -1   4 -22    2.71    2.10   4
  -1   4 -22    1.72    1.68   3
   2   5 -22   14.52    4.63   3
   1  -5 -22  200.28   11.36   3
   1  -5 -22  185.19   10.98   4
   1   5 -22  188.53   10.16   4
   0  -5 -22    4.07    3.54   4
   0  -5 -22    4.74    3.68   3
   0   5 -22    5.75    2.28   3
   0   5 -22    8.40    2.76   4
  -1  -5 -22   30.21    6.42   1
  -1  -5 -22   24.97    4.87   3
  -1  -5 -22   23.37    4.39   4
  -1   5 -22   17.67    5.91   1
  -1   5 -22   19.18    2.82   4
   1  -6 -22   -4.94    3.15   4
   1  -6 -22   -1.94    3.62   3
   1   6 -22   -5.08    3.25   4
  -1   6  22   -2.03    2.69   3
   1   6 -22   -4.07    3.01   3
   0  -6 -22    7.97    4.27   3
   0  -6 -22    6.03    3.57   4
   0  -6 -22   10.81    4.62   1
   0   6 -22   10.02    2.73   4
   0   6 -22    3.13    1.92   3
   0  -7 -22   57.07    6.50   4
   0  -7 -22   80.51    8.01   1
   2   0 -23   -5.87    3.97   4
   2   0 -23    4.28    4.76   3
   1   0 -23   -2.98    3.44   3
   1   0 -23    0.58    3.66   4
   0   0 -23    4.72    3.27   3
   0   0 -23   -1.40    2.99   4
  -1   0 -23   -1.82    4.28   1
  -1   0 -23   -3.78    2.41   3
  -1   0 -23   -3.03    2.38   4
   2  -1 -23    0.79    3.85   4
   2  -1 -23   -3.28    4.00   3
   2   1 -23   -2.06    3.65   3
   2   1 -23   -1.32    4.32   4
   1  -1 -23   22.04    4.43   4
   1  -1 -23   20.02    4.52   3
   1   1 -23   14.54    4.19   3
   1   1 -23   12.29    3.90   4
   0  -1 -23  212.21   11.02   4
   0   1 -23  191.47   10.32   3
  -1  -1 -23   -2.93    4.14   1
  -1  -1 -23    0.35    2.92   4
  -1  -1 -23   -1.59    2.73   3
  -1   1 -23   11.24    5.97   1
  -1   1 -23    2.60    2.71   4
  -1   1 -23   -0.39    2.32   3
   2  -2 -23    2.04    4.24   4
   2   2 -23    0.78    3.80   4
   2   2 -23   -0.80    4.55   3
   1  -2 -23   23.15    4.36   3
   1  -2 -23   17.52    4.30   4
   1   2 -23   10.60    3.91   4
   1   2 -23   11.75    3.89   3
   0  -2 -23   16.09    3.92   4
   0  -2 -23   17.13    3.73   3
   0   2 -23   21.14    3.75   4
   0   2 -23   19.93    3.41   3
  -1  -2 -23    0.75    2.95   4
  -1  -2 -23    1.48    3.11   3
  -1  -2 -23    0.05    4.52   1
  -1   2 -23   -1.53    4.26   1
  -1   2 -23    1.38    2.33   3
  -1   2 -23    2.16    2.46   4
   1  -3 -23   23.15    4.83   4
   1  -3 -23   32.96    5.46   3
   1   3 -23   15.00    3.97   3
   1   3 -23   16.48    4.26   4
   0  -3 -23   25.21    4.47   3
   0  -3 -23   29.36    4.88   4
   0   3 -23   22.60    3.36   3
   0   3 -23   22.21    3.77   4
  -1  -3 -23  123.57   10.15   1
  -1  -3 -23  110.18    7.86   4
  -1   3 -23  104.56    6.14   3
   1  -4 -23   -1.68    3.33   4
   1  -4 -23    4.52    3.90   3
   1   4 -23   -5.13    3.06   4
   1   4 -23   -1.09    3.29   3
   0  -4 -23    6.50    3.52   3
   0  -4 -23    2.06    3.18   4
   0   4 -23   -2.80    1.99   3
   0   4 -23    3.00    2.69   4
   1  -5 -23    5.53    3.78   4
   1   5 -23    6.23    3.46   3
   0  -5 -23    9.77    3.63   4
   0  -5 -23    9.82    4.38   3
   0   5 -23   12.29    2.58   3
   0   5 -23    8.63    3.03   4
   1   0 -24   -1.39    3.60   3
   1   0 -24    1.10    3.59   4
   0   0 -24    3.77    3.13   3
   0   0 -24   -1.92    2.96   4
   1  -1 -24   23.23    4.95   4
   1  -1 -24   20.86    4.44   3
   1   1 -24   32.52    5.07   3
   1   1 -24   29.96    4.97   4
   0  -1 -24    9.45    3.61   3
   0  -1 -24    5.12    3.49   4
   0   1 -24   12.68    3.34   3
   0   1 -24    6.78    3.35   4
   1  -2 -24   -1.19    3.41   4
   1  -2 -24    8.56    6.27   3
   1   2 -24   -1.39    3.42   4
   1   2 -24    2.68    3.56   3
   0  -2 -24    2.06    3.09   4
   0  -2 -24    2.70    3.41   3
   0   2 -24    2.73    2.75   3
   0   2 -24    0.30    2.97   4
   0  -3 -24   -0.48    3.57   3
   0  -3 -24   -1.04    3.01   4
   0   3 -24   -3.43    2.20   3
   0   0   0    0.00    0.00
;
_shelx_hkl_checksum              66027
loop_
_symmetry_equiv_pos_as_xyz
'x, y, z'
'-x, y+1/2, -z+1/2'
'-x, -y, -z'
'x, -y-1/2, z-1/2'
loop_
_atom_site_label
_atom_site_type_symbol
_atom_site_fract_x
_atom_site_fract_y
_atom_site_fract_z
_atom_site_U_iso_or_equiv
_atom_site_adp_type
_atom_site_occupancy
_atom_site_site_symmetry_order
_atom_site_calc_flag
_atom_site_refinement_flags_posn
_atom_site_refinement_flags_adp
_atom_site_refinement_flags_occupancy
_atom_site_disorder_assembly
_atom_site_disorder_group
C1 C 0.3148(5) 0.26589(16) 0.68969(11) 0.0283(4) Uani 1 1 d . . . . .
C2 C 0.4615(5) 0.19231(17) 0.64625(11) 0.0323(5) Uani 1 1 d . . . . .
H2 H 0.5401 0.1261 0.6637 0.039 Uiso 1 1 calc R U . . .
C3 C 0.4878(5) 0.22019(17) 0.57627(11) 0.0312(5) Uani 1 1 d . . . . .
C4 C 0.3732(5) 0.32055(17) 0.54986(11) 0.0316(5) Uani 1 1 d . . . . .
C5 C 0.2285(5) 0.39524(16) 0.59255(11) 0.0309(5) Uani 1 1 d . . . . .
H5 H 0.1516 0.4618 0.5754 0.037 Uiso 1 1 calc R U . . .
C6 C 0.2047(5) 0.36517(16) 0.66234(11) 0.0276(4) Uani 1 1 d . . . . .
C7 C 0.1070(5) 0.34813(18) 0.77652(11) 0.0319(5) Uani 1 1 d . . . . .
C8 C -0.0109(7) 0.3781(2) 0.84647(12) 0.0443(6) Uani 1 1 d . . . . .
H8A H -0.0416 0.3141 0.8737 0.066 Uiso 1 1 calc R U . . .
H8B H -0.2242 0.416 0.8397 0.066 Uiso 1 1 calc R U . . .
H8C H 0.1568 0.4234 0.8713 0.066 Uiso 1 1 calc R U . . .
N1 N 0.2516(5) 0.25749(15) 0.76095(9) 0.0339(4) Uani 1 1 d . . . . .
N2 N 0.0723(5) 0.41607(14) 0.71876(9) 0.0313(4) Uani 1 1 d . . . . .
Cl1 Cl 0.66285(17) 0.12776(5) 0.52118(3) 0.04721(18) Uani 1 1 d . . . . .
Cl2 Cl 0.40619(19) 0.35212(5) 0.46154(3) 0.04972(19) Uani 1 1 d . . . . .
Cl3 Cl -0.07464(14) 0.54462(4) 0.71755(3) 0.03590(15) Uani 1 1 d . . . . .
loop_
_atom_site_aniso_label
_atom_site_aniso_U_11
_atom_site_aniso_U_22
_atom_site_aniso_U_33
_atom_site_aniso_U_23
_atom_site_aniso_U_13
_atom_site_aniso_U_12
C1 0.0299(10) 0.0257(10) 0.0286(10) 0.0016(8) -0.0014(8) -0.0036(8)
C2 0.0339(11) 0.0249(10) 0.0375(12) 0.0015(9) -0.0001(9) 0.0000(8)
C3 0.0292(11) 0.0295(11) 0.0347(11) -0.0061(9) 0.0019(8) -0.0049(8)
C4 0.0332(11) 0.0316(11) 0.0299(10) 0.0003(8) 0.0015(9) -0.0088(9)
C5 0.0359(11) 0.0238(10) 0.0327(11) 0.0036(8) 0.0013(9) -0.0029(8)
C6 0.0282(10) 0.0228(10) 0.0315(10) -0.0019(8) 0.0013(8) -0.0032(8)
C7 0.0302(11) 0.0357(12) 0.0296(10) 0.0001(9) 0.0007(8) -0.0058(9)
C8 0.0503(15) 0.0511(15) 0.0322(12) -0.0018(10) 0.0077(11) 0.0005(12)
N1 0.0398(10) 0.0317(10) 0.0298(9) 0.0034(7) 0.0009(8) -0.0005(8)
N2 0.0376(10) 0.0249(8) 0.0316(9) -0.0010(7) 0.0045(7) 0.0003(8)
Cl1 0.0559(4) 0.0411(3) 0.0454(3) -0.0133(3) 0.0090(3) 0.0038(3)
Cl2 0.0702(4) 0.0487(4) 0.0316(3) 0.0047(2) 0.0119(3) -0.0034(3)
Cl3 0.0408(3) 0.0285(3) 0.0383(3) -0.0040(2) 0.0021(2) 0.0040(2)
loop_
_atom_type_symbol
_atom_type_description
_atom_type_scat_dispersion_real
_atom_type_scat_dispersion_imag
_atom_type_scat_source
C C 0.0033 0.0016 'International Tables Vol C Tables 4.2.6.8 and 6.1.1.4'
H H 0 0 'International Tables Vol C Tables 4.2.6.8 and 6.1.1.4'
N N 0.0061 0.0033 'International Tables Vol C Tables 4.2.6.8 and 6.1.1.4'
Cl Cl 0.1484 0.1585 'International Tables Vol C Tables 4.2.6.8 and 6.1.1.4'
loop_
_geom_angle_atom_site_label_1
_geom_angle_atom_site_label_2
_geom_angle_atom_site_label_3
_geom_angle
_geom_angle_site_symmetry_1
_geom_angle_site_symmetry_3
_geom_angle_publ_flag
C2 C1 C6 119.68(19) . . ?
C2 C1 N1 129.70(19) . . ?
C6 C1 N1 110.62(18) . . ?
C3 C2 C1 118.03(19) . . ?
C3 C2 H2 121 . . ?
C1 C2 H2 121 . . ?
C2 C3 C4 121.2(2) . . ?
C2 C3 Cl1 118.36(17) . . ?
C4 C3 Cl1 120.42(17) . . ?
C5 C4 C3 121.6(2) . . ?
C5 C4 Cl2 118.54(17) . . ?
C3 C4 Cl2 119.90(17) . . ?
C4 C5 C6 116.03(19) . . ?
C4 C5 H5 122 . . ?
C6 C5 H5 122 . . ?
N2 C6 C5 132.40(19) . . ?
N2 C6 C1 104.08(17) . . ?
C5 C6 C1 123.50(19) . . ?
N1 C7 N2 111.50(19) . . ?
N1 C7 C8 126.1(2) . . ?
N2 C7 C8 122.4(2) . . ?
C7 C8 H8A 109.5 . . ?
C7 C8 H8B 109.5 . . ?
H8A C8 H8B 109.5 . . ?
C7 C8 H8C 109.5 . . ?
H8A C8 H8C 109.5 . . ?
H8B C8 H8C 109.5 . . ?
C7 N1 C1 105.51(17) . . ?
C6 N2 C7 108.28(17) . . ?
C6 N2 Cl3 124.75(15) . . ?
C7 N2 Cl3 126.77(16) . . ?
loop_
_geom_bond_atom_site_label_1
_geom_bond_atom_site_label_2
_geom_bond_distance
_geom_bond_site_symmetry_2
_geom_bond_publ_flag
C1 C2 1.384(3) . ?
C1 C6 1.392(3) . ?
C1 N1 1.394(3) . ?
C2 C3 1.380(3) . ?
C2 H2 0.93 . ?
C3 C4 1.403(3) . ?
C3 Cl1 1.729(2) . ?
C4 C5 1.381(3) . ?
C4 Cl2 1.731(2) . ?
C5 C6 1.382(3) . ?
C5 H5 0.93 . ?
C6 N2 1.377(3) . ?
C7 N1 1.305(3) . ?
C7 N2 1.379(3) . ?
C7 C8 1.483(3) . ?
C8 H8A 0.96 . ?
C8 H8B 0.96 . ?
C8 H8C 0.96 . ?
N2 Cl3 1.6969(18) . ?
loop_
_geom_torsion_atom_site_label_1
_geom_torsion_atom_site_label_2
_geom_torsion_atom_site_label_3
_geom_torsion_atom_site_label_4
_geom_torsion
_geom_torsion_site_symmetry_1
_geom_torsion_site_symmetry_2
_geom_torsion_site_symmetry_3
_geom_torsion_site_symmetry_4
_geom_torsion_publ_flag
C6 C1 C2 C3 -1.1(3) . . . . ?
N1 C1 C2 C3 178.6(2) . . . . ?
C1 C2 C3 C4 0.7(3) . . . . ?
C1 C2 C3 Cl1 -178.71(16) . . . . ?
C2 C3 C4 C5 -0.3(3) . . . . ?
Cl1 C3 C4 C5 179.17(16) . . . . ?
C2 C3 C4 Cl2 -179.30(16) . . . . ?
Cl1 C3 C4 Cl2 0.1(3) . . . . ?
C3 C4 C5 C6 0.1(3) . . . . ?
Cl2 C4 C5 C6 179.19(16) . . . . ?
C4 C5 C6 N2 -178.4(2) . . . . ?
C4 C5 C6 C1 -0.5(3) . . . . ?
C2 C1 C6 N2 179.42(18) . . . . ?
N1 C1 C6 N2 -0.3(2) . . . . ?
C2 C1 C6 C5 1.0(3) . . . . ?
N1 C1 C6 C5 -178.69(19) . . . . ?
N2 C7 N1 C1 -0.1(2) . . . . ?
C8 C7 N1 C1 179.7(2) . . . . ?
C2 C1 N1 C7 -179.4(2) . . . . ?
C6 C1 N1 C7 0.2(2) . . . . ?
C5 C6 N2 C7 178.4(2) . . . . ?
C1 C6 N2 C7 0.2(2) . . . . ?
C5 C6 N2 Cl3 -6.4(3) . . . . ?
C1 C6 N2 Cl3 175.40(14) . . . . ?
N1 C7 N2 C6 -0.1(2) . . . . ?
C8 C7 N2 C6 -179.9(2) . . . . ?
N1 C7 N2 Cl3 -175.14(15) . . . . ?
C8 C7 N2 Cl3 5.1(3) . . . . ?
