#------------------------------------------------------------------------------
#$Date: 2022-05-24 00:52:21 +0300 (Tue, 24 May 2022) $
#$Revision: 275613 $
#$URL: file:///home/coder/svn-repositories/cod/cif/7/13/01/7130137.cif $
#------------------------------------------------------------------------------
#
# This file is available in the Crystallography Open Database (COD),
# http://www.crystallography.net/
#
# All data on this site have been placed in the public domain by the
# contributors.
#
data_7130137
loop_
_publ_author_name
'Mochida, Tomoyuki'
'Qiu, Yi'
'Funasako, Yusuke'
'Inokuchi, Makoto'
'Noguchi, Mariko'
'Fujimori, Hiroki'
'Furushima, Yoshitomo'
_publ_section_title
;
 Ionic liquid-containing coordination polymer: solvent-free synthesis,
 incongruent melting, and glass formation
;
_journal_name_full               'Chemical Communications'
_journal_paper_doi               10.1039/D2CC01375D
_journal_year                    2022
_chemical_formula_sum            'C14 H11 K N8'
_chemical_formula_weight         330.41
_space_group_crystal_system      triclinic
_space_group_IT_number           2
_space_group_name_Hall           '-P 1'
_space_group_name_H-M_alt        'P -1'
_atom_sites_solution_hydrogens   geom
_audit_update_record
;
2022-05-02 deposited with the CCDC.	2022-05-17 downloaded from the CCDC.
;
_cell_angle_alpha                83.222(2)
_cell_angle_beta                 82.672(2)
_cell_angle_gamma                81.215(2)
_cell_formula_units_Z            2
_cell_length_a                   8.6092(12)
_cell_length_b                   9.8641(14)
_cell_length_c                   10.4829(15)
_cell_measurement_reflns_used    2439
_cell_measurement_temperature    293.(2)
_cell_measurement_theta_max      27.8913
_cell_measurement_theta_min      2.7305
_cell_volume                     868.2(2)
_computing_cell_refinement       'SAINT V8.38A (Bruker AXS Inc., 2017)'
_computing_data_reduction        'SAINT V8.38A (Bruker AXS Inc., 2017)'
_computing_molecular_graphics    'shelXle (C.B. Huebschle, rev 833)'
_computing_structure_refinement  'SHELXL-2016/6 (Sheldrick, 2016)'
_computing_structure_solution    'SHELXT 2014/5 (Sheldrick, 2014)'
_diffrn_ambient_temperature      293.(2)
_diffrn_detector_area_resol_mean 8.3333
_diffrn_measured_fraction_theta_full 0.975
_diffrn_measured_fraction_theta_max 0.975
_diffrn_measurement_device_type  'Bruker APEXII CCD area detector'
_diffrn_measurement_method       'phi and omega scans'
_diffrn_radiation_monochromator  'Bruker Helios multilayer confocal mirror'
_diffrn_radiation_source         'Bruker TXS fine-focus rotating anode'
_diffrn_radiation_type           MoK\a
_diffrn_radiation_wavelength     0.71073
_diffrn_reflns_av_R_equivalents  0.0100
_diffrn_reflns_av_unetI/netI     0.0180
_diffrn_reflns_limit_h_max       10
_diffrn_reflns_limit_h_min       -10
_diffrn_reflns_limit_k_max       12
_diffrn_reflns_limit_k_min       -10
_diffrn_reflns_limit_l_max       12
_diffrn_reflns_limit_l_min       -11
_diffrn_reflns_number            4433
_diffrn_reflns_theta_full        25.68
_diffrn_reflns_theta_max         25.68
_diffrn_reflns_theta_min         1.97
_diffrn_source                   'rotating-anode X-ray tube'
_diffrn_source_type              'Bruker Turbo X-ray Source'
_exptl_absorpt_coefficient_mu    0.317
_exptl_absorpt_correction_T_max  0.97
_exptl_absorpt_correction_T_min  0.89
_exptl_absorpt_correction_type   multi-scan
_exptl_absorpt_process_details
;
SADABS-2016/2 - Bruker AXS area detector scaling and absorption correction
;
_exptl_crystal_colour            colourless
_exptl_crystal_density_diffrn    1.264
_exptl_crystal_density_method    'not measured'
_exptl_crystal_description       prism
_exptl_crystal_F_000             340
_exptl_crystal_size_max          0.500
_exptl_crystal_size_mid          0.129
_exptl_crystal_size_min          0.107
_refine_diff_density_max         0.337
_refine_diff_density_min         -0.221
_refine_ls_extinction_method     none
_refine_ls_goodness_of_fit_ref   1.035
_refine_ls_hydrogen_treatment    constr
_refine_ls_matrix_type           full
_refine_ls_number_parameters     230
_refine_ls_number_reflns         3222
_refine_ls_number_restraints     38
_refine_ls_restrained_S_all      1.068
_refine_ls_R_factor_all          0.0557
_refine_ls_R_factor_gt           0.0481
_refine_ls_shift/su_max          0.000
_refine_ls_shift/su_mean         0.000
_refine_ls_structure_factor_coef Fsqd
_refine_ls_weighting_details
'w=1/[\s^2^(Fo^2^)+(0.0646P)^2^+0.3520P] where P=(Fo^2^+2Fc^2^)/3'
_refine_ls_weighting_scheme      calc
_refine_ls_wR_factor_gt          0.1279
_refine_ls_wR_factor_ref         0.1349
_reflns_number_gt                2731
_reflns_number_total             3222
_reflns_threshold_expression     'I > 2\s(I)'
_cod_data_source_file            d2cc01375d3.cif
_cod_data_source_block           KEmimTCM_293K
_cod_depositor_comments
;
The following automatic conversions were performed:

data item '_exptl_absorpt_correction_type' value 'Multi-Scan' was
changed to 'multi-scan' in accordance with the
/home/data/users/saulius/crontab/automatic-downloads/rss-feeds/RSC/lib/dictionaries/cif_core.dic
dictionary named 'cif_core.dic' version 2.4.2 last updated on
2011-04-26.

Automatic conversion script
Id: cif_fix_values 7556 2019-12-06 15:28:31Z antanas 
;
_cod_database_code               7130137
_shelx_res_file
;

TITL KEmimTCN_293K_1_a.res in P-1
    KEmimTCN_293K_1_a.res
    created by SHELXL-2016/6 at 10:05:41 on 29-Apr-2022
REM Old TITL KEmimTCN_293K_1 in P-1
REM SHELXT solution in P-1
REM R1 0.196,  Rweak 0.006,  Alpha 0.056,  Orientation as input
REM Formula found by SHELXT:  C12 K N9
CELL  0.71073   8.6092   9.8641  10.4829   83.222   82.672   81.215
ZERR    2.000   0.0012   0.0014   0.0015    0.002    0.002    0.002
LATT  1
SFAC C H K N
UNIT 28 22 2 16
TEMP 20
SIZE 0.107 0.129 0.50
L.S. 30
BOND $H
LIST 6
ACTA 50
FMAP 2
SHEL 999 0.82
SIMU 0.02 C13 C14
SIMU 0.02 C13' C14'
ISOR 0.01 C13 C14
ISOR 0.01 C13' C14'
PLAN 20
DFIX 1.513 0.02 C13 C14
DFIX 1.513 0.02 C13' C14'
WGHT    0.064600    0.352000
FVAR       0.77595   0.69565
K1    3    0.754699    0.272252    0.259220    11.00000    0.03798    0.05765 =
         0.07667    0.00783   -0.00919   -0.01013
N1    4   -0.028799    0.466826    0.207627    11.00000    0.05630    0.07503 =
         0.15213    0.01579   -0.00416   -0.02073
N2    4    0.193392    0.814753    0.001369    11.00000    0.08202    0.06841 =
         0.09353    0.01459   -0.00246   -0.01132
N3    4    0.487158    0.466984    0.197280    11.00000    0.05174    0.08505 =
         0.10219    0.01412   -0.01836   -0.00530
N4    4    1.309375   -0.287804    0.462254    11.00000    0.08522    0.05639 =
         0.09805    0.00049   -0.00428   -0.01542
N5    4    1.029224    0.102877    0.325162    11.00000    0.05580    0.07813 =
         0.15607    0.01601   -0.03300   -0.00587
N6    4    1.537952    0.084488    0.320585    11.00000    0.05869    0.08109 =
         0.12139    0.01098   -0.01170   -0.02815
C1    1    0.217449    0.581506    0.136179    11.00000    0.04181    0.05637 =
         0.06504    0.00378   -0.00768   -0.00973
C2    1    0.081673    0.518500    0.175565    11.00000    0.04570    0.05763 =
         0.08731    0.00761   -0.00930   -0.00959
C3    1    0.204705    0.709855    0.062413    11.00000    0.04687    0.06211 =
         0.06280   -0.00266   -0.00277   -0.00867
C4    1    0.365544    0.518016    0.169922    11.00000    0.04721    0.06156 =
         0.06581    0.00512   -0.00749   -0.01155
C5    1    1.293866   -0.037874    0.364966    11.00000    0.04106    0.05088 =
         0.06626   -0.00049   -0.00925   -0.01002
C6    1    1.302766   -0.175325    0.418681    11.00000    0.04694    0.05468 =
         0.06614   -0.00733   -0.00463   -0.01007
C7    1    1.147820    0.039226    0.342175    11.00000    0.04912    0.05746 =
         0.08599    0.00304   -0.01535   -0.01380
C8    1    1.429357    0.027873    0.341428    11.00000    0.04851    0.05542 =
         0.07132    0.00107   -0.01052   -0.01100
N7    4    0.234372    0.285646    0.612422    11.00000    0.06310    0.05928 =
         0.07939   -0.01200    0.00020   -0.01267
N8    4    0.261263    0.203893    0.807227    11.00000    0.11999    0.09594 =
         0.08947   -0.01068   -0.03873   -0.01391
C9    1    0.309387    0.292147    0.711183    11.00000    0.07196    0.07449 =
         0.10540   -0.01504   -0.01390   -0.01285
AFIX  43
H9    2    0.384776    0.349720    0.713679    11.00000   -1.20000
AFIX   0
C10   1    0.149768    0.142031    0.769787    11.00000    0.08528    0.07738 =
         0.08470   -0.00723    0.00632   -0.02053
AFIX  43
H10   2    0.094511    0.076626    0.819453    11.00000   -1.20000
AFIX   0
C11   1    0.132412    0.191911    0.647116    11.00000    0.06872    0.07740 =
         0.08663   -0.01649   -0.00750   -0.02692
AFIX  43
H11   2    0.063447    0.167008    0.595398    11.00000   -1.20000
AFIX   0
C12   1    0.254535    0.366153    0.488192    11.00000    0.16815    0.08169 =
         0.09495    0.00673    0.00856   -0.03578
AFIX 137
H12A  2    0.291831    0.305537    0.422194    11.00000   -1.50000
H12B  2    0.330128    0.427809    0.490285    11.00000   -1.50000
H12C  2    0.155011    0.418482    0.469742    11.00000   -1.50000
AFIX   0

PART 1
C13   1    0.353614    0.166621    0.922701    21.00000    0.14610    0.16738 =
         0.13183   -0.03538   -0.04390   -0.01764
AFIX  23
H13A  2    0.371242    0.067433    0.943627    21.00000   -1.20000
H13B  2    0.455284    0.199984    0.905184    21.00000   -1.20000
AFIX   0
C14   1    0.264799    0.227785    1.020429    21.00000    0.17876    0.24816 =
         0.13518   -0.06370   -0.06033    0.03957
AFIX 137
H14A  2    0.164527    0.194051    1.036116    21.00000   -1.50000
H14B  2    0.248354    0.325729    0.998078    21.00000   -1.50000
H14C  2    0.318024    0.207300    1.096956    21.00000   -1.50000
AFIX   0
PART 2
C13'  1    0.244761    0.186712    0.948376   -21.00000    0.07545    0.14684 =
         0.12502   -0.04867   -0.01942    0.00239
AFIX  23
H13C  2    0.163208    0.257432    0.980842   -21.00000   -1.20000
H13D  2    0.211298    0.097787    0.978549   -21.00000   -1.20000
AFIX   0
C14'  1    0.387502    0.195186    0.998707   -21.00000    0.14575    0.24183 =
         0.10672    0.00046   -0.07371   -0.05480
AFIX 137
H14D  2    0.467134    0.122316    0.970571   -21.00000   -1.50000
H14E  2    0.370374    0.186385    1.091435   -21.00000   -1.50000
H14F  2    0.421829    0.282604    0.968259   -21.00000   -1.50000
PART 0
AFIX   0
HKLF 4




REM  KEmimTCN_293K_1_a.res in P-1
REM R1 =  0.0481 for    2731 Fo > 4sig(Fo)  and  0.0557 for all    3222 data
REM    230 parameters refined using     38 restraints

END

WGHT      0.0650      0.3384

REM Highest difference peak  0.337,  deepest hole -0.221,  1-sigma level  0.042
Q1    1   0.2800  0.2668  0.9304  11.00000  0.05    0.34
Q2    1   0.2484  0.2857  0.7926  11.00000  0.05    0.30
Q3    1   0.3591  0.3069  0.8794  11.00000  0.05    0.28
Q4    1   0.4620  0.3988  0.1624  11.00000  0.05    0.27
Q5    1   0.1243  0.4317  0.5057  11.00000  0.05    0.25
Q6    1   0.7535  0.2060  0.2263  11.00000  0.05    0.24
Q7    1   0.3986  0.1093  1.0020  11.00000  0.05    0.23
Q8    1   0.2260  0.2463  0.7063  11.00000  0.05    0.21
Q9    1   0.1778  0.1994  0.8154  11.00000  0.05    0.21
Q10   1   0.2071  0.6385  0.1047  11.00000  0.05    0.19
Q11   1   0.0211  0.4193  0.1587  11.00000  0.05    0.19
Q12   1   0.1720  0.5533  0.1458  11.00000  0.05    0.18
Q13   1   0.2560  0.1555  1.0265  11.00000  0.05    0.18
Q14   1   1.0616  0.0763  0.2371  11.00000  0.05    0.17
Q15   1   0.2135  0.4739  0.5030  11.00000  0.05    0.17
Q16   1   1.2971 -0.0942  0.3931  11.00000  0.05    0.17
Q17   1   0.2949  0.1760  0.7840  11.00000  0.05    0.17
Q18   1   0.1433  0.7551  0.0204  11.00000  0.05    0.16
Q19   1   1.3531 -0.2462  0.4837  11.00000  0.05    0.16
Q20   1   1.3238 -0.3287  0.4926  11.00000  0.05    0.16
;
_shelx_res_checksum              81330
_shelx_hkl_file
;
   1   0   0    0.40    0.10
   2   0   0 3885.81   62.69
   3   0   0    5.40    0.20
  -4   0   0 1162.98   14.60
   4   0   0 1174.68   15.30
  -5   0   0    2.80    0.30
   5   0   0    3.70    0.20
  -6   0   0   48.10    1.10
   6   0   0   52.29    1.00
  -8   0   0   26.30    0.90
  -9   0   0    3.90    0.50
 -10   1   0    0.80    0.40
  -9   1   0    2.60    0.40
  -8   1   0    0.20    0.30
  -7   1   0  202.28    3.30
  -6   1   0    3.10    0.40
  -6   1   0    2.40    0.30
  -5   1   0  151.28    2.20
  -4   1   0    5.50    0.30
  -3   1   0  238.18    3.20
  -2   1   0    8.00    0.20
  -1   1   0   43.20    0.70
   0   1   0   10.30    0.20
  -1  -1   0    8.80    0.10
  -1  -1   0    9.10    0.20
   1   1   0    9.10    0.20
  -2  -1   0    3.50    0.10
   2   1   0    3.50    0.20
  -3  -1   0  981.40   12.60
   3   1   0  957.70   12.80
  -4  -1   0  210.78    2.90
   4   1   0  209.08    2.90
  -5  -1   0   98.89    1.60
   5   1   0   98.19    1.60
  -6  -1   0   49.00    1.10
   6   1   0   49.10    1.00
  -7  -1   0   82.39    1.60
  -8  -1   0   67.99    1.50
  -9  -1   0    0.30    0.30
 -10  -1   0    0.20    0.30
 -11  -1   0    3.60    0.60
 -10   2   0   20.90    1.00
  -9   2   0   -0.10    0.30
  -8   2   0   11.80    0.70
  -7   2   0    2.20    0.40
  -6   2   0  254.07    3.60
  -6   2   0  253.97    3.90
  -5   2   0    0.40    0.10
  -4   2   0  329.67    4.40
  -3   2   0   17.40    0.50
  -2   2   0 7291.47  110.69
  -1   2   0  155.88    2.10
   0   2   0  790.82   10.20
  -1  -2   0  331.67    4.30
  -1  -2   0  337.57    4.20
   1   2   0  339.07    4.30
  -2  -2   0 3410.06   42.70
  -2  -2   0 3264.37   48.90
   2   2   0 3387.16   42.50
  -3  -2   0   64.79    1.20
  -3  -2   0   65.19    0.90
   3   2   0   64.39    1.10
  -4  -2   0  367.76    5.00
  -4  -2   0  366.06    4.70
   4   2   0  365.36    4.80
  -5  -2   0    3.30    0.20
  -5  -2   0    4.10    0.40
   5   2   0    4.00    0.30
  -6  -2   0   11.50    0.40
  -6  -2   0   10.90    0.60
   6   2   0   10.60    0.40
  -7  -2   0   25.60    0.90
  -7  -2   0   26.80    0.70
  -8  -2   0   48.60    1.40
  -9  -2   0   36.80    1.30
 -10  -2   0   -0.20    0.30
 -11  -2   0   10.50    0.90
 -10   3   0    0.60    0.40
  -9   3   0   25.90    1.10
  -8   3   0    0.60    0.40
  -7   3   0   -0.10    0.30
  -6   3   0   16.40    0.60
  -5   3   0   34.90    0.80
  -4   3   0    9.50    0.40
  -3   3   0   32.00    0.70
  -2   3   0  178.68    2.50
  -1   3   0    2.80    0.20
   0   3   0  227.58    3.10
  -1  -3   0  600.54    7.50
   1   3   0  597.14    7.60
  -2  -3   0 1043.90   12.90
  -2  -3   0 1011.80   13.60
   2   3   0 1057.09   13.10
  -3  -3   0   91.89    1.50
  -3  -3   0   93.19    1.20
   3   3   0   91.19    1.50
  -4  -3   0  172.28    2.20
  -4  -3   0  169.18    2.60
   4   3   0  166.48    2.50
  -5  -3   0    4.80    0.40
  -5  -3   0    5.10    0.20
   5   3   0    5.00    0.30
  -6  -3   0  113.89    2.10
  -6  -3   0  111.59    1.70
   6   3   0  110.29    1.90
  -7  -3   0   67.99    1.60
  -8  -3   0    3.90    0.50
  -9  -3   0    5.30    0.60
 -10  -3   0    8.60    0.80
 -11  -3   0    5.70    0.70
  -9   4   0    1.70    0.50
  -8   4   0   21.90    1.00
  -7   4   0    1.60    0.40
  -6   4   0    6.20    0.40
  -5   4   0   24.60    0.70
  -4   4   0   91.09    1.60
  -3   4   0   86.19    1.50
  -2   4   0  126.39    2.00
  -1   4   0   82.09    1.40
   0   4   0 1110.39   14.10
   1   4   0    0.60    0.20
  -2  -4   0  563.84    7.20
   2   4   0  565.94    7.40
  -3  -4   0   22.30    0.60
  -3  -4   0   22.90    0.40
   3   4   0   21.50    0.60
  -4  -4   0   81.39    1.50
  -4  -4   0   82.09    1.10
   4   4   0   81.99    1.50
  -5  -4   0    5.60    0.40
   5   4   0    5.90    0.40
  -6  -4   0  265.57    4.10
   6   4   0  263.87    3.90
  -7  -4   0   46.80    1.30
  -8  -4   0    8.10    0.60
  -9  -4   0   14.80    0.90
 -10  -4   0   19.50    1.10
  -9   5   0    5.60    0.70
  -8   5   0    4.10    0.60
  -7   5   0   45.90    1.40
  -6   5   0    0.30    0.20
  -5   5   0   32.50    0.90
  -4   5   0  115.19    2.00
  -3   5   0    3.50    0.30
  -2   5   0   11.60    0.50
  -1   5   0  229.78    3.30
   0   5   0  282.87    4.00
   1   5   0  302.67    4.20
  -2  -5   0    4.20    0.30
   2   5   0    3.80    0.40
  -3  -5   0  244.38    3.50
   3   5   0  240.98    3.60
  -4  -5   0   40.70    1.00
   4   5   0   39.00    1.00
  -5  -5   0   84.69    1.70
   5   5   0   83.39    1.60
  -6  -5   0   38.20    1.10
   6   5   0   40.90    1.00
  -7  -5   0    0.20    0.20
  -8  -5   0   19.80    0.90
  -9  -5   0    8.80    0.70
 -10  -5   0    8.00    0.80
  -8   6   0    7.40    0.80
  -7   6   0    5.90    0.70
  -6   6   0   35.50    1.10
  -5   6   0    0.80    0.30
  -4   6   0  107.09    2.00
  -3   6   0    0.30    0.20
  -2   6   0   29.80    0.90
  -1   6   0  134.09    2.30
   0   6   0    1.30    0.30
   1   6   0  157.38    2.60
  -2  -6   0    3.70    0.30
   2   6   0    4.20    0.40
  -3  -6   0   21.60    0.60
   3   6   0   20.80    0.80
  -4  -6   0  119.99    2.10
   4   6   0  119.69    2.20
  -5  -6   0   77.89    1.60
   5   6   0   78.79    1.60
  -6  -6   0   19.70    0.80
   6   6   0   18.50    0.70
  -7  -6   0   57.79    1.50
  -8  -6   0    8.50    0.70
  -9  -6   0   35.10    1.30
 -10  -6   0    1.80    0.50
  -8   7   0   -0.20    0.40
  -7   7   0   26.30    1.20
  -6   7   0   16.30    0.80
  -5   7   0   13.10    0.70
  -4   7   0   -0.20    0.30
  -3   7   0    5.80    0.60
  -2   7   0  127.29    2.30
  -1   7   0    3.00    0.40
   0   7   0   95.89    1.90
   1   7   0    2.90    0.40
   2   7   0  242.98    3.80
  -3  -7   0    1.20    0.20
   3   7   0    2.30    0.40
  -4  -7   0  291.07    4.20
   4   7   0  288.97    4.40
  -5  -7   0    0.40    0.20
   5   7   0    0.50    0.30
  -6  -7   0    0.20    0.20
   6   7   0    0.10    0.20
  -7  -7   0   20.30    0.90
  -8  -7   0   15.30    0.80
  -9  -7   0    0.80    0.40
 -10  -7   0    4.30    0.60
  -7   8   0   -0.10    0.40
  -6   8   0    3.80    0.60
  -5   8   0    8.90    0.70
  -4   8   0    0.20    0.30
  -3   8   0  106.89    2.20
  -2   8   0    4.50    0.50
  -1   8   0   30.20    1.00
   0   8   0    5.60    0.60
   1   8   0   50.89    1.40
   2   8   0    1.40    0.40
   3   8   0  129.59    2.50
  -4  -8   0    8.50    0.50
   4   8   0    8.10    0.70
  -5  -8   0   40.90    1.10
   5   8   0   40.30    1.30
  -6  -8   0    8.40    0.60
   6   8   0    8.90    0.70
  -7  -8   0   25.10    1.00
  -8  -8   0    4.50    0.60
  -9  -8   0    0.20    0.30
  -6   9   0    2.30    0.50
  -5   9   0   -0.60    0.40
  -4   9   0   38.20    1.30
  -3   9   0   -0.40    0.30
  -2   9   0   70.59    1.80
  -1   9   0    0.50    0.40
   0   9   0  115.69    2.40
   1   9   0   -0.70    0.30
   2   9   0  118.99    2.50
   3   9   0    0.50    0.50
   4   9   0    2.60    0.50
  -5  -9   0    4.90    0.50
   5   9   0    7.40    0.70
  -6  -9   0   25.70    1.00
   6   9   0   25.40    1.10
  -7  -9   0    3.10    0.40
  -8  -9   0    0.30    0.30
  -5  10   0    3.50    0.70
  -4  10   0    0.00    0.40
  -3  10   0   -0.20    0.40
  -2  10   0   -0.50    0.40
  -1  10   0   23.90    1.10
   0  10   0    3.50    0.60
   1  10   0   23.30    1.10
   2  10   0    0.30    0.50
   3  10   0    0.20    0.40
   4  10   0    1.30    0.50
   5  10   0    5.70    0.70
  -6 -10   0    0.30    0.30
   6  10   0    0.70    0.40
  -7 -10   0    0.00    0.30
  -4  11   0    3.30    0.70
  -3  11   0   -0.50    0.40
  -2  11   0    6.90    0.80
  -1  11   0   -1.00    0.40
   0  11   0   16.90    1.10
   1  11   0   -0.60    0.50
   2  11   0   10.60    1.00
   3  11   0    0.50    0.50
   4  11   0   45.80    1.60
   5  11   0    1.10    0.50
   6  11   0    2.70    0.50
  -2  12   0    0.70    0.70
  -1  12   0    2.40    0.70
   0  12   0    6.50    0.90
   1  12   0    1.10    0.60
   2  12   0    1.20    0.60
   3  12   0   14.50    1.10
   4  12   0    2.60    0.70
   5  12   0    3.40    0.60
   4  12  -1    0.40    0.50
   3  12  -1    0.40    0.60
   2  12  -1    0.60    0.60
   1  12  -1   -0.40    0.50
   0  12  -1   11.50    1.10
  -1  12  -1   -0.40    0.50
   5  11  -1    1.50    0.50
   4  11  -1    0.10    0.50
   3  11  -1    4.10    0.80
   2  11  -1    6.10    0.80
   1  11  -1    8.40    0.90
   0  11  -1    1.60    0.60
  -1  11  -1   10.50    1.00
  -2  11  -1    1.20    0.50
  -3  11  -1   14.80    1.10
  -4  11  -1   -0.10    0.50
  -7 -10   1    0.20    0.30
  -6 -10   1    5.20    0.50
   5  10  -1    1.60    0.50
  -5 -10   1    1.30    0.40
   4  10  -1   27.50    1.20
   3  10  -1    0.40    0.50
   2  10  -1    0.90    0.50
   1  10  -1    1.10    0.50
   0  10  -1    4.30    0.60
  -1  10  -1    1.30    0.50
  -2  10  -1    4.90    0.70
  -3  10  -1   -0.70    0.40
  -4  10  -1   15.00    1.00
  -5  10  -1   -0.20    0.40
  -8  -9   1    0.20    0.30
  -7  -9   1    1.40    0.40
  -6  -9   1    1.70    0.40
   5   9  -1   21.70    1.00
  -5  -9   1   21.50    0.90
   4   9  -1   18.80    1.00
  -4  -9   1   18.90    0.80
   3   9  -1    7.30    0.80
   2   9  -1   47.30    1.40
   1   9  -1    6.40    0.70
   0   9  -1   34.20    1.20
  -1   9  -1   16.90    0.90
  -2   9  -1    7.20    0.70
  -3   9  -1    3.90    0.60
  -4   9  -1    6.60    0.70
  -5   9  -1   17.40    1.00
  -6   9  -1    0.20    0.40
  -9  -8   1   -0.10    0.30
  -8  -8   1    2.80    0.50
  -7  -8   1    4.70    0.50
  -6  -8   1   20.70    0.90
   5   8  -1    6.90    0.60
  -5  -8   1    6.70    0.60
   4   8  -1   67.79    1.70
  -4  -8   1   66.99    1.40
   3   8  -1   40.70    1.30
  -3  -8   1   43.20    1.10
   2   8  -1    4.80    0.60
   1   8  -1   14.50    0.80
   0   8  -1    0.00    0.30
  -1   8  -1    2.40    0.40
  -2   8  -1   21.30    0.90
  -3   8  -1    9.00    0.70
  -4   8  -1    1.80    0.40
  -5   8  -1    0.20    0.40
  -6   8  -1   21.90    1.00
  -7   8  -1   -0.20    0.30
  -9  -7   1    4.20    0.60
  -8  -7   1    3.50    0.50
  -7  -7   1   25.30    1.00
   6   7  -1   17.00    1.10
  -6  -7   1   16.30    0.80
   5   7  -1    1.30    0.30
  -5  -7   1    0.50    0.20
   4   7  -1   87.49    1.80
  -4  -7   1   89.49    1.70
   3   7  -1    1.70    0.40
  -3  -7   1    1.90    0.30
   2   7  -1  143.49    2.50
   1   7  -1   44.80    1.20
   0   7  -1   78.19    1.60
  -1   7  -1   44.90    1.20
  -2   7  -1   28.90    0.90
  -3   7  -1  185.88    3.10
  -4   7  -1    6.60    0.60
  -5   7  -1   33.10    1.10
  -6   7  -1    7.20    0.60
  -7   7  -1    6.50    0.60
 -10  -6   1    0.20    0.30
  -9  -6   1    7.10    0.70
  -8  -6   1   29.20    1.10
  -7  -6   1   25.70    1.00
   6   6  -1    1.10    0.30
  -6  -6   1    0.60    0.30
   5   6  -1   47.40    1.20
  -5  -6   1   46.60    1.20
   4   6  -1  272.07    4.00
  -4  -6   1  270.47    4.00
   3   6  -1   25.90    0.90
  -3  -6   1   24.90    0.70
   2   6  -1    0.10    0.20
  -2  -6   1    0.20    0.10
   1   6  -1   36.50    1.00
   0   6  -1   17.50    0.70
  -1   6  -1   58.09    1.30
  -2   6  -1   68.09    1.40
  -3   6  -1    2.60    0.40
  -4   6  -1   70.39    1.50
  -5   6  -1    0.00    0.20
  -6   6  -1   33.10    1.10
  -7   6  -1    2.20    0.40
 -10  -5   1    2.20    0.50
  -9  -5   1   12.10    0.80
  -8  -5   1   12.80    0.80
  -7  -5   1    1.30    0.30
   6   5  -1    4.00    0.40
  -6  -5   1    4.50    0.50
   5   5  -1  118.79    2.00
   4   5  -1   43.50    1.00
  -4  -5   1   44.10    1.10
  -4  -5   1   43.80    0.70
   3   5  -1  233.68    3.40
  -3  -5   1  230.38    3.10
  -3  -5   1  230.08    3.40
   2   5  -1   49.99    1.10
  -2  -5   1   49.10    1.00
   1   5  -1   93.39    1.60
  -1   5  -1  124.69    2.00
  -2   5  -1    7.10    0.40
  -3   5  -1    1.30    0.30
  -4   5  -1  259.37    3.80
  -5   5  -1    4.90    0.40
  -6   5  -1    4.00    0.40
  -7   5  -1    7.30    0.60
  -9   5  -1    0.50    0.40
 -10  -4   1   34.30    1.40
  -9  -4   1   13.30    0.90
  -8  -4   1   17.30    0.90
  -7  -4   1   14.40    0.70
   6   4  -1  127.29    2.30
  -6  -4   1  119.59    2.30
   5   4  -1   97.99    1.70
  -5  -4   1   94.39    1.90
  -5  -4   1   97.69    1.40
   4   4  -1    9.20    0.40
  -4  -4   1    9.00    0.30
  -4  -4   1    8.50    0.40
   3   4  -1  160.48    2.40
  -3  -4   1  160.78    2.10
  -3  -4   1  162.08    2.50
   2   4  -1   91.09    1.50
  -2  -4   1   93.69    1.30
  -2  -4   1   93.09    1.50
   1   4  -1   14.20    0.50
  -1  -4   1   14.30    0.40
   0   4  -1  512.15    6.70
  -1   4  -1  226.68    3.20
  -2   4  -1    8.00    0.40
  -3   4  -1  504.15    6.70
  -4   4  -1   26.90    0.80
  -5   4  -1  131.19    2.20
  -6   4  -1    0.30    0.20
  -7   4  -1   19.50    0.80
  -9   4  -1   11.40    0.80
 -10  -3   1   25.30    1.20
  -9  -3   1    0.80    0.30
  -8  -3   1    0.50    0.30
  -7  -3   1   63.49    1.60
  -6  -3   1   93.29    1.90
  -6  -3   1   96.39    1.50
   5   3  -1   78.39    1.40
  -5  -3   1   78.29    1.20
  -5  -3   1   80.59    1.60
   4   3  -1   33.80    0.70
  -4  -3   1   33.20    0.60
  -4  -3   1   33.50    0.90
   3   3  -1   32.20    0.70
  -3  -3   1   32.10    0.50
  -3  -3   1   31.80    0.80
   2   3  -1 2266.67   29.40
  -2  -3   1 2274.17   29.20
  -2  -3   1 2307.77   28.60
   1   3  -1   97.39    1.50
  -1  -3   1   94.79    1.40
  -1  -3   1   97.69    1.40
   0   3  -1  547.75    7.00
  -1   3  -1    8.30    0.30
  -2   3  -1  906.51   11.40
  -3   3  -1   26.20    0.70
  -4   3  -1   30.30    0.80
  -5   3  -1    4.20    0.30
  -6   3  -1  168.78    2.70
  -7   3  -1    1.00    0.20
  -9   3  -1    0.30    0.30
 -10   3  -1    0.90    0.40
 -10  -2   1    0.50    0.30
  -9  -2   1   56.49    1.70
  -8  -2   1    2.20    0.40
  -7  -2   1  196.18    3.40
  -7  -2   1  203.78    3.00
  -6  -2   1    1.10    0.20
  -6  -2   1    1.00    0.30
   5   2  -1   25.30    0.60
  -5  -2   1   25.20    0.60
  -5  -2   1   24.40    0.80
   4   2  -1    7.00    0.30
  -4  -2   1    7.10    0.30
  -4  -2   1    7.80    0.40
   3   2  -1   33.60    0.60
  -3  -2   1   33.80    0.60
  -3  -2   1   34.20    0.80
   2   2  -1  633.24    8.10
  -2  -2   1  640.54    8.10
  -2  -2   1  610.34    8.00
   1   2  -1 1076.99   13.90
  -1  -2   1 1091.09   13.80
  -1  -2   1 1065.39   14.00
   0   2  -1    5.00    0.20
  -1   2  -1 1493.65   19.10
  -2   2  -1   25.20    0.60
  -3   2  -1  303.47    4.10
  -4   2  -1    7.20    0.30
  -5   2  -1   65.99    1.30
  -6   2  -1    2.80    0.30
  -7   2  -1   19.90    0.70
  -8   2  -1   -0.20    0.30
  -9   2  -1   12.20    0.80
 -10   2  -1    0.40    0.40
 -10  -1   1    0.90    0.40
  -8  -1   1  175.38    2.90
  -7  -1   1    2.90    0.30
  -6  -1   1    6.40    0.40
   5   1  -1  147.59    2.10
  -5  -1   1  146.69    2.20
   4   1  -1   91.89    1.40
  -4  -1   1   91.49    1.40
   3   1  -1   98.49    1.40
  -3  -1   1   98.99    1.50
   2   1  -1  821.02   10.50
  -2  -1   1  809.52   10.80
   1   1  -1    0.50    0.10
  -1  -1   1    0.50    0.10
  -1  -1   1    0.50    0.10
   0   1  -1  962.90   12.30
   0  -1   1  972.10   12.40
   0  -1   1  974.80   12.30
  -1   1  -1    8.30    0.20
   3  -1   1   21.40    0.50
   4  -1   1  526.45    6.80
  -7   1  -1   13.90    0.60
  -8   1  -1    3.60    0.50
  -9   1  -1   -0.30    0.20
  -9   0   1   49.40    1.30
  -8   0   1    2.30    0.40
  -7   0   1    0.60    0.20
  -6   0   1    1.60    0.30
  -5   0   1    1.00    0.20
   4   0  -1    1.50    0.10
  -4   0   1    1.70    0.20
   3   0  -1  159.38    2.10
  -3   0   1  153.88    2.20
  -2   0   1   18.60    0.40
  -1   0   1  458.85    6.10
   0   0   1   41.10    0.60
   0   0   1   41.40    0.60
   1   0   1  949.80   12.30
   2   0   1   72.19    1.10
   3   0   1 1754.22   29.10
   4   0   1   29.40    0.70
   5   0   1  729.23    9.40
   6   0   1    1.30    0.20
  -7   0  -1  366.26    5.20
   7   0   1  360.36    5.10
  -8   0  -1   -0.30    0.20
  -9   0  -1   58.59    1.50
 -11   0  -1    5.00    0.60
 -10   1   1   28.60    1.10
  -9   1   1    0.50    0.30
  -8   1   1    5.10    0.50
  -7   1   1    8.80    0.60
  -6   1   1    0.90    0.20
  -6   1   1    0.80    0.20
  -5   1   1    1.60    0.30
  -5   1   1    1.70    0.20
  -4   1   1   15.90    0.40
  -4   1   1   15.40    0.50
  -3   1   1    0.00    0.10
  -3   1   1    0.00    0.10
  -2   1   1 3167.88   48.70
  -2   1   1 3246.58   40.70
  -1   1   1   20.20    0.30
  -1   1   1   19.70    0.40
   0   1   1   95.89    1.30
   0   1   1   97.69    1.30
  -1  -1  -1   34.90    0.50
   1   1   1   36.40    0.60
   1   1   1   35.00    0.50
  -2  -1  -1    5.80    0.20
   2   1   1    6.20    0.30
  -3  -1  -1   54.59    1.00
   3   1   1   55.69    1.00
   4   1   1 1949.01   25.50
   5   1   1   45.40    1.00
  -6  -1  -1  249.68    3.60
   6   1   1  252.77    3.60
  -7  -1  -1    1.00    0.20
   7   1   1    1.60    0.30
  -8  -1  -1  238.18    3.60
  -9  -1  -1    1.00    0.30
 -10  -1  -1    6.90    0.70
 -11  -1  -1    2.10    0.50
 -10   2   1    0.20    0.30
  -9   2   1    6.20    0.70
  -8   2   1    0.80    0.30
  -7   2   1   87.49    1.80
  -6   2   1    6.60    0.40
  -6   2   1    5.80    0.50
  -5   2   1   14.80    0.50
  -5   2   1   14.90    0.60
  -4   2   1    0.40    0.20
  -4   2   1    0.60    0.10
  -3   2   1  301.07    4.10
  -3   2   1  297.77    3.90
  -2   2   1  300.67    3.90
  -1   2   1 6418.06   93.79
   0   2   1    0.00    0.10
   0   2   1    0.20    0.10
  -1  -2  -1 5801.22   89.59
   1   2   1 5862.81   95.69
  -2  -2  -1    0.60    0.10
   2   2   1    0.40    0.10
  -3  -2  -1 1564.44   19.40
  -3  -2  -1 1559.84   20.60
   3   2   1 1549.74   20.50
  -4  -2  -1    0.80    0.20
  -4  -2  -1    0.80    0.10
   4   2   1    0.60    0.20
  -5  -2  -1  873.21   11.40
  -5  -2  -1  883.71   11.00
   5   2   1  876.31   11.20
  -6  -2  -1    0.40    0.20
  -6  -2  -1    0.30    0.20
   6   2   1    0.40    0.20
  -7  -2  -1  152.78    2.40
  -7  -2  -1  149.59    2.70
   7   2   1  148.69    2.50
  -8  -2  -1   81.29    1.90
  -9  -2  -1   25.30    1.00
 -10  -2  -1    0.50    0.30
 -11  -2  -1    3.80    0.60
 -10   3   1    0.30    0.40
  -9   3   1    0.10    0.30
  -8   3   1   37.00    1.20
  -7   3   1    1.10    0.30
  -6   3   1  113.49    1.90
  -6   3   1  113.69    2.20
  -5   3   1   14.20    0.50
  -5   3   1   14.40    0.60
  -4   3   1   77.39    1.30
  -4   3   1   76.39    1.50
  -3   3   1   17.90    0.50
  -2   3   1   12.40    0.40
  -1   3   1    1.50    0.20
   0   3   1 1998.50   25.70
   1   3   1  361.26    4.80
  -2  -3  -1 1124.69   14.70
   2   3   1 1151.28   15.10
  -3  -3  -1   82.29    1.40
   3   3   1   82.89    1.40
  -4  -3  -1  180.48    2.30
  -4  -3  -1  182.38    2.70
   4   3   1  176.38    2.70
  -5  -3  -1   71.19    1.40
  -5  -3  -1   68.79    1.10
   5   3   1   69.59    1.30
  -6  -3  -1   31.20    0.90
   6   3   1   32.40    0.90
  -7  -3  -1   72.99    1.70
   7   3   1   73.59    1.50
  -8  -3  -1    1.10    0.30
  -9  -3  -1   11.70    0.80
 -10  -3  -1    5.50    0.60
 -11  -3  -1    4.90    0.60
  -9   4   1   21.10    1.00
  -8   4   1    6.00    0.60
  -7   4   1    5.50    0.60
  -6   4   1    1.60    0.30
  -6   4   1    2.00    0.40
  -5   4   1  200.98    3.00
  -5   4   1  194.78    3.20
  -4   4   1    2.10    0.30
  -3   4   1  763.02    9.80
  -2   4   1  139.19    2.10
  -1   4   1   85.09    1.40
   0   4   1  290.77    4.00
   1   4   1   92.49    1.60
  -2  -4  -1  186.08    2.60
   2   4   1  191.78    2.80
  -3  -4  -1  256.27    3.60
   3   4   1  258.67    3.70
  -4  -4  -1   26.60    0.70
   4   4   1   25.80    0.70
  -5  -4  -1  212.38    3.20
   5   4   1  204.78    3.20
  -6  -4  -1  209.98    3.40
   6   4   1  210.88    3.30
  -7  -4  -1   99.19    2.10
   7   4   1  103.49    1.90
  -8  -4  -1    4.10    0.50
  -9  -4  -1    4.50    0.60
 -10  -4  -1   67.59    1.90
 -11  -4  -1    0.50    0.40
  -9   5   1    2.20    0.50
  -8   5   1    6.40    0.70
  -7   5   1   12.40    0.80
  -6   5   1    1.30    0.40
  -6   5   1    1.40    0.30
  -5   5   1   45.40    1.10
  -5   5   1   43.00    1.20
  -4   5   1    8.90    0.50
  -3   5   1   30.30    0.80
  -2   5   1   82.39    1.50
  -1   5   1   79.99    1.50
   0   5   1  181.08    2.80
   1   5   1  122.29    2.00
  -2  -5  -1    1.40    0.20
   2   5   1    2.00    0.30
  -3  -5  -1  646.24    8.20
   3   5   1  627.04    8.40
  -4  -5  -1    8.70    0.40
   4   5   1    7.90    0.50
  -5  -5  -1   95.19    1.80
   5   5   1   93.19    1.80
  -6  -5  -1   36.40    1.00
   6   5   1   35.90    1.00
  -7  -5  -1    3.20    0.40
   7   5   1    3.60    0.40
  -8  -5  -1   15.10    0.80
  -9  -5  -1    2.70    0.40
 -10  -5  -1    5.30    0.60
  -8   6   1    2.50    0.60
  -7   6   1   15.30    0.90
  -6   6   1    1.30    0.30
  -6   6   1    1.40    0.40
  -5   6   1   39.00    1.20
  -5   6   1   37.20    1.10
  -4   6   1  108.19    2.00
  -3   6   1   14.90    0.60
  -2   6   1   15.00    0.60
  -1   6   1   87.89    1.70
   0   6   1   62.89    1.30
   1   6   1   38.50    1.00
   2   6   1   49.30    1.20
  -3  -6  -1   78.19    1.40
   3   6   1   75.29    1.60
  -4  -6  -1  151.18    2.40
   4   6   1  154.28    2.60
  -5  -6  -1   94.79    1.80
   5   6   1   93.39    1.90
  -6  -6  -1   20.00    0.80
   6   6   1   20.80    0.80
  -7  -6  -1    3.10    0.40
   7   6   1    2.90    0.40
  -8  -6  -1   86.29    2.00
  -9  -6  -1    4.00    0.50
 -10  -6  -1    0.30    0.30
  -8   7   1    1.60    0.50
  -7   7   1    5.10    0.70
  -6   7   1   10.50    0.70
  -6   7   1   11.60    0.80
  -5   7   1    1.90    0.50
  -5   7   1    1.50    0.40
  -4   7   1   14.10    0.70
  -3   7   1    4.50    0.50
  -2   7   1   89.59    1.80
  -1   7   1   27.10    0.90
   0   7   1   25.50    0.90
   1   7   1  113.69    2.10
   2   7   1    2.80    0.40
   3   7   1    2.80    0.40
  -4  -7  -1    2.40    0.30
   4   7   1    2.30    0.40
  -5  -7  -1    0.50    0.20
   5   7   1    1.40    0.30
  -6  -7  -1    0.10    0.20
   6   7   1    0.70    0.30
  -7  -7  -1   40.00    1.20
   7   7   1   41.40    1.30
  -8  -7  -1    0.90    0.30
  -9  -7  -1   23.20    1.00
 -10  -7  -1   -0.10    0.30
  -7   8   1    2.40    0.60
  -6   8   1    8.80    0.80
  -6   8   1    9.40    0.90
  -5   8   1   22.20    1.00
  -5   8   1   21.10    1.00
  -4   8   1   16.20    0.80
  -3   8   1   48.00    1.40
  -2   8   1    2.10    0.40
  -1   8   1    6.20    0.60
   0   8   1    0.00    0.30
   1   8   1    1.00    0.40
   2   8   1   88.89    2.00
   3   8   1    2.40    0.50
  -4  -8  -1   91.49    1.70
   4   8   1   93.59    2.00
  -5  -8  -1    8.00    0.50
   5   8   1    8.60    0.70
  -6  -8  -1   95.09    1.90
   6   8   1   96.89    2.10
  -7  -8  -1    0.20    0.30
   7   8   1    0.70    0.30
  -8  -8  -1   27.50    1.10
  -9  -8  -1   -0.30    0.30
  -6   9   1    3.50    0.70
  -5   9   1    0.30    0.40
  -5   9   1    1.40    0.50
  -4   9   1   11.30    0.80
  -3   9   1    7.30    0.70
  -2   9   1    4.20    0.60
  -1   9   1    8.70    0.70
   0   9   1    3.30    0.50
   1   9   1   35.60    1.30
   2   9   1    6.00    0.70
   3   9   1  105.99    2.30
   4   9   1   -0.10    0.30
  -5  -9  -1   68.49    1.50
   5   9   1   67.39    1.80
  -6  -9  -1    2.50    0.40
   6   9   1    3.00    0.50
  -7  -9  -1   22.70    0.90
   7   9   1   21.70    1.00
  -8  -9  -1   -0.20    0.30
  -9  -9  -1   14.50    1.20
  -5  10   1    0.40    0.40
  -5  10   1    0.90    0.50
  -4  10   1    9.50    0.80
  -4  10   1    9.40    0.90
  -3  10   1    2.00    0.50
  -2  10   1    2.60    0.60
  -1  10   1    0.10    0.40
   0  10   1    6.00    0.70
   1  10   1   -0.10    0.50
   2  10   1   32.60    1.40
   3  10   1    8.70    0.90
   4  10   1   36.40    1.40
   5  10   1    2.00    0.50
  -6 -10  -1   42.90    1.30
   6  10   1   41.60    1.50
  -7 -10  -1   -0.10    0.30
   7  10   1    0.50    0.40
  -8 -10  -1    6.30    0.60
  -4  11   1    0.00    0.40
  -4  11   1   -0.40    0.50
  -3  11   1    2.40    0.60
  -3  11   1    1.80    0.50
  -2  11   1    2.10    0.60
  -1  11   1   17.70    1.10
   0  11   1   -0.30    0.50
   1  11   1   29.30    1.40
   2  11   1   -0.40    0.50
   3  11   1    5.40    0.80
   4  11   1    7.90    0.90
   5  11   1   11.70    0.90
   6  11   1    1.20    0.50
   7  11   1    7.60    1.00
  -2  12   1   -1.00    0.50
  -1  12   1   -0.80    0.50
   0  12   1    0.10    0.60
   1  12   1    0.20    0.60
   2  12   1   -0.60    0.50
   3  12   1    2.50    0.70
   4  12   1    6.70    0.90
   5  12   1    3.60    0.70
   3  12  -2   12.90    1.20
   2  12  -2    0.20    0.60
   1  12  -2   -0.70    0.50
   0  12  -2    0.50    0.60
  -6 -11   2    0.10    0.40
   4  11  -2   12.70    1.10
   3  11  -2    0.90    0.60
   2  11  -2   -0.70    0.50
   1  11  -2    3.70    0.70
   0  11  -2    2.40    0.60
  -1  11  -2    2.20    0.60
  -2  11  -2    0.10    0.40
  -3  11  -2    1.10    0.60
  -7 -10   2   15.10    0.90
  -6 -10   2   -0.10    0.30
   5  10  -2   18.50    1.50
  -5 -10   2   17.70    0.80
   4  10  -2    2.00    0.60
   3  10  -2    4.30    0.70
   2  10  -2    0.50    0.50
   1  10  -2   33.40    1.30
   0  10  -2    0.30    0.40
  -1  10  -2   22.40    1.10
  -2  10  -2    2.80    0.60
  -3  10  -2    0.60    0.50
  -4  10  -2    0.80    0.50
  -5  10  -2    3.80    0.70
  -8  -9   2   11.70    0.90
  -7  -9   2   -0.30    0.30
  -6  -9   2   56.39    1.50
   5   9  -2    7.80    0.70
  -5  -9   2    6.00    0.50
   4   9  -2   20.20    1.00
  -4  -9   2   20.60    0.80
   3   9  -2    4.30    0.60
   2   9  -2   22.50    1.00
   1   9  -2   32.90    1.20
   0   9  -2    1.80    0.40
  -1   9  -2   19.70    1.00
  -2   9  -2    5.20    0.60
  -3   9  -2    8.80    0.80
  -4   9  -2   34.70    1.30
  -5   9  -2    6.70    0.80
  -6   9  -2   -0.40    0.40
  -8  -8   2   -0.40    0.30
  -7  -8   2   39.90    1.30
  -6  -8   2    0.50    0.30
   5   8  -2  113.49    2.30
  -5  -8   2  115.59    2.20
   4   8  -2   14.60    0.80
  -4  -8   2   14.20    0.70
   3   8  -2  148.39    2.80
  -3  -8   2  149.69    2.50
   2   8  -2    1.00    0.40
   1   8  -2    6.30    0.60
   0   8  -2    9.00    0.60
  -1   8  -2    0.70    0.30
  -2   8  -2   14.80    0.80
  -3   8  -2   -0.20    0.30
  -4   8  -2   12.80    0.80
  -5   8  -2    0.40    0.40
  -6   8  -2    4.80    0.60
  -7   8  -2    1.10    0.40
  -9  -7   2   -0.20    0.30
  -8  -7   2   24.50    1.10
  -7  -7   2    6.00    0.60
  -6  -7   2   45.90    1.30
   5   7  -2    1.10    0.30
  -5  -7   2    1.10    0.30
   4   7  -2   36.90    1.10
  -4  -7   2   38.90    1.10
   3   7  -2  107.79    2.10
  -3  -7   2  105.09    1.90
   2   7  -2   92.79    1.90
  -2  -7   2   96.69    1.70
   1   7  -2  121.09    2.20
   0   7  -2    0.50    0.30
  -1   7  -2  114.29    2.10
  -2   7  -2   14.90    0.70
  -3   7  -2  205.68    3.40
  -4   7  -2   23.80    0.90
  -5   7  -2   45.10    1.30
  -6   7  -2   15.00    0.80
  -7   7  -2    3.60    0.50
  -8   7  -2    1.30    0.40
  -9  -6   2   18.80    1.00
  -8  -6   2    6.20    0.60
  -7  -6   2   58.09    1.60
  -6  -6   2   -0.10    0.20
   5   6  -2   10.70    0.60
  -5  -6   2   10.70    0.60
   4   6  -2   69.79    1.50
  -4  -6   2   69.19    1.50
   3   6  -2    8.30    0.50
  -3  -6   2    8.50    0.50
  -3  -6   2    8.80    0.40
   2   6  -2    8.70    0.50
  -2  -6   2    8.70    0.40
   1   6  -2    9.50    0.50
   0   6  -2   38.60    1.00
  -1   6  -2    3.60    0.40
  -2   6  -2  176.68    2.80
  -3   6  -2   -0.30    0.20
  -4   6  -2   21.10    0.80
  -5   6  -2    2.50    0.40
  -6   6  -2   27.40    1.00
  -7   6  -2   10.30    0.70
  -8   6  -2    0.60    0.30
 -10  -5   2    0.20    0.40
  -9  -5   2   14.70    0.90
  -8  -5   2   27.40    1.10
  -7  -5   2    3.90    0.50
  -6  -5   2    2.90    0.40
   5   5  -2  106.89    1.90
  -5  -5   2  109.09    2.10
   4   5  -2  184.78    2.80
  -4  -5   2  185.88    2.50
  -4  -5   2  180.88    2.90
   3   5  -2  169.08    2.60
  -3  -5   2  166.98    2.30
  -3  -5   2  166.18    2.60
   2   5  -2    0.30    0.20
  -2  -5   2    0.40    0.10
  -2  -5   2    0.20    0.10
   1   5  -2  375.96    5.20
  -1  -5   2  383.06    5.00
   0   5  -2  174.18    2.60
  -1   5  -2  432.86    5.80
  -2   5  -2    8.20    0.40
  -3   5  -2   12.50    0.60
  -4   5  -2   77.59    1.60
  -5   5  -2   28.40    0.90
  -6   5  -2    0.00    0.20
  -7   5  -2   32.30    1.10
  -8   5  -2    1.40    0.40
 -10  -4   2   14.70    1.00
  -9  -4   2    3.50    0.50
  -8  -4   2   32.40    1.20
  -7  -4   2    0.00    0.20
  -6  -4   2  132.19    2.50
   5   4  -2   28.10    0.70
  -5  -4   2   28.20    0.60
  -5  -4   2   27.50    0.90
   4   4  -2    4.50    0.30
  -4  -4   2    4.30    0.40
  -4  -4   2    4.10    0.20
   3   4  -2  244.78    3.40
  -3  -4   2  241.78    3.20
  -3  -4   2  231.68    3.50
   2   4  -2   25.40    0.60
  -2  -4   2   24.00    0.60
  -2  -4   2   24.10    0.50
   1   4  -2    9.30    0.40
  -1  -4   2    8.60    0.30
  -1  -4   2    9.00    0.30
   0   4  -2  598.24    7.70
  -1   4  -2   17.10    0.50
  -2   4  -2   13.20    0.50
  -3   4  -2   21.50    0.70
  -4   4  -2  280.97    4.10
  -5   4  -2   27.40    0.80
  -6   4  -2    0.80    0.30
  -7   4  -2    9.20    0.60
  -8   4  -2   15.90    0.80
 -10  -3   2   20.90    1.10
  -9  -3   2    3.60    0.60
  -8  -3   2   -0.10    0.20
  -7  -3   2   64.49    1.60
  -6  -3   2   94.89    2.00
  -6  -3   2  100.09    1.60
   5   3  -2   62.49    1.10
  -5  -3   2   64.29    1.10
  -5  -3   2   62.39    1.40
   4   3  -2    5.00    0.30
  -4  -3   2    5.70    0.40
  -4  -3   2    5.10    0.20
   3   3  -2  259.27    3.50
  -3  -3   2  256.47    3.40
  -3  -3   2  262.17    3.70
   2   3  -2  259.27    3.50
  -2  -3   2  263.27    3.40
  -2  -3   2  263.67    3.60
   1   3  -2   19.10    0.50
  -1  -3   2   18.60    0.40
  -1  -3   2   19.20    0.50
   0   3  -2  225.58    3.10
   0  -3   2  222.58    3.00
  -1   3  -2    4.50    0.30
  -2   3  -2   39.60    0.80
  -3   3  -2  590.64    7.70
  -4   3  -2    5.50    0.40
  -5   3  -2  273.87    4.00
  -6   3  -2    2.10    0.30
  -7   3  -2   20.40    0.80
  -8   3  -2    0.60    0.30
 -10   3  -2   -0.20    0.30
 -10  -2   2   14.30    1.00
  -9  -2   2    6.80    0.70
  -8  -2   2   18.10    0.90
  -7  -2   2    5.10    0.50
  -7  -2   2    5.70    0.40
  -6  -2   2   83.79    1.80
  -6  -2   2   86.59    1.50
   5   2  -2    0.90    0.10
  -5  -2   2    0.90    0.20
  -5  -2   2    0.90    0.20
   4   2  -2  101.69    1.50
  -4  -2   2  105.49    1.90
  -4  -2   2  103.49    1.60
   3   2  -2    8.40    0.30
  -3  -2   2    8.30    0.30
  -3  -2   2    8.50    0.40
   2   2  -2 1176.98   15.10
  -2  -2   2 1186.28   15.20
  -2  -2   2 1201.18   15.30
   1   2  -2  278.67    3.60
  -1  -2   2  281.27    3.70
  -1  -2   2  276.87    3.60
   0   2  -2  907.71   11.40
   0  -2   2  915.61   11.70
   0  -2   2  920.61   11.70
  -1   2  -2   15.00    0.40
  -2   2  -2 2089.69   26.80
  -3   2  -2    5.90    0.30
  -4   2  -2    1.30    0.20
  -5   2  -2    6.10    0.40
  -6   2  -2  244.58    3.60
  -7   2  -2    1.50    0.30
  -8   2  -2   40.00    1.10
  -9   2  -2    0.70    0.30
 -10   2  -2    0.70    0.40
 -10  -1   2    0.10    0.30
  -8  -1   2   10.50    0.60
  -7  -1   2   91.79    1.70
  -6  -1   2    4.00    0.30
   5   1  -2  600.44    7.80
  -5  -1   2  614.04    7.90
  -4  -1   2    2.80    0.20
  -3  -1   2  599.84    7.60
  -2  -1   2   50.19    0.80
   1   1  -2 1515.25   18.80
  -1  -1   2 1482.55   19.20
  -1  -1   2 1513.05   19.10
   0   1  -2    2.50    0.10
   0  -1   2    2.30    0.10
   0  -1   2    2.40    0.10
   1  -1   2 1134.69   14.50
   1  -1   2 1149.48   14.80
   2  -1   2   67.19    1.10
   3  -1   2    0.70    0.10
   4  -1   2    1.80    0.20
   5  -1   2   67.49    1.30
   6  -1   2   28.30    0.80
  -8   1  -2    0.60    0.20
  -9   1  -2   20.40    0.90
  -9   0   2    1.00    0.30
  -8   0   2  253.47    3.90
  -7   0   2   19.50    0.70
  -6   0   2  166.68    2.70
  -5   0   2   19.80    0.60
  -4   0   2  690.73    8.90
  -3   0   2    2.10    0.20
  -2   0   2   27.20    0.60
  -1   0   2   15.70    0.30
   0   0   2 1394.36   17.90
   0   0   2 1427.16   17.90
   1   0   2   73.29    1.10
   1   0   2   75.29    1.10
   2   0   2 1075.59   14.00
   3   0   2   39.40    0.80
   4   0   2    3.00    0.30
   5   0   2    0.20    0.20
   6   0   2    3.30    0.30
   7   0   2   24.60    0.80
   8   0   2    1.10    0.30
 -10   0  -2   40.60    1.40
 -10   1   2    0.00    0.30
  -9   1   2   44.10    1.30
  -8   1   2    0.10    0.30
  -7   1   2  278.27    4.20
  -6   1   2    0.00    0.20
  -5   1   2  432.46    5.50
  -5   1   2  434.96    5.90
  -4   1   2    4.10    0.30
  -4   1   2    4.30    0.20
  -3   1   2  127.09    1.70
  -3   1   2  124.99    1.90
  -2   1   2   53.19    0.80
  -2   1   2   51.89    0.90
  -1   1   2 1014.60   12.70
  -1   1   2  997.30   13.00
   0   1   2   74.09    1.10
   0   1   2   71.99    1.00
   1   1   2  959.40   12.20
   1   1   2  959.50   12.40
  -2  -1  -2  221.68    2.90
   2   1   2  216.78    3.00
  -3  -1  -2  160.78    2.30
   3   1   2  158.68    2.30
  -4  -1  -2  173.88    2.50
   4   1   2  171.88    2.60
  -5  -1  -2   63.69    1.30
   5   1   2   62.59    1.30
   6   1   2   20.20    0.70
  -7  -1  -2   14.20    0.70
   7   1   2   14.00    0.60
  -8  -1  -2   31.50    1.10
  -8  -1  -2   31.80    1.20
   8   1   2   32.90    1.00
  -9  -1  -2   72.99    1.80
 -10  -1  -2    0.40    0.30
 -10   2   2   41.40    1.40
  -9   2   2    0.90    0.40
  -8   2   2    1.60    0.40
  -7   2   2   12.50    0.70
  -6   2   2   73.49    1.60
  -5   2   2   10.10    0.40
  -5   2   2    9.60    0.50
  -4   2   2  263.57    3.50
  -4   2   2  271.97    3.90
  -3   2   2   86.29    1.30
  -3   2   2   86.29    1.50
  -2   2   2 1051.39   13.20
  -2   2   2 1024.40   13.20
  -1   2   2  840.62   10.50
  -1   2   2  814.12   10.50
   0   2   2  156.08    2.10
   0   2   2  157.48    2.20
   1   2   2  745.13    9.50
   1   2   2  736.73   12.50
  -2  -2  -2  679.03    8.60
   2   2   2  665.53    8.60
   2   2   2  682.73    8.50
  -3  -2  -2  123.59    1.80
   3   2   2  120.79    1.90
  -4  -2  -2   59.39    1.10
   4   2   2   59.99    1.20
  -5  -2  -2   36.90    0.90
   5   2   2   38.60    0.90
  -6  -2  -2   84.59    1.70
   6   2   2   87.09    1.70
  -7  -2  -2    0.00    0.20
   7   2   2    0.00    0.20
  -8  -2  -2  240.28    3.90
   8   2   2  238.38    3.70
  -9  -2  -2   11.30    0.70
 -10  -2  -2    3.90    0.50
 -11  -2  -2    6.40    0.70
 -10   3   2    0.10    0.40
  -9   3   2   10.70    0.80
  -8   3   2    0.00    0.30
  -7   3   2   30.80    1.10
  -6   3   2   19.80    0.80
  -5   3   2   10.60    0.60
  -5   3   2   10.40    0.40
  -4   3   2    0.40    0.10
  -4   3   2    0.50    0.20
  -3   3   2   53.99    1.00
  -3   3   2   56.09    1.20
  -2   3   2   43.20    0.90
  -2   3   2   40.70    0.80
  -1   3   2   33.00    0.70
  -1   3   2   32.10    0.70
   0   3   2  713.13    9.10
   0   3   2  716.53    8.90
   1   3   2  192.08    2.50
   1   3   2  189.78    2.70
  -2  -3  -2  527.75    6.70
   2   3   2  537.95    7.00
  -3  -3  -2   15.00    0.40
   3   3   2   13.60    0.50
  -4  -3  -2   93.09    1.60
   4   3   2   95.39    1.70
  -5  -3  -2   10.40    0.50
  -5  -3  -2    9.20    0.30
   5   3   2    9.00    0.50
  -6  -3  -2    5.80    0.40
   6   3   2    5.20    0.40
  -7  -3  -2  136.49    2.50
   7   3   2  139.39    2.40
  -8  -3  -2   -0.30    0.20
   8   3   2    0.40    0.20
  -9  -3  -2   50.09    1.50
 -10  -3  -2    0.20    0.30
 -11  -3  -2   18.50    1.00
  -9   4   2    3.20    0.60
  -8   4   2   25.70    1.10
  -7   4   2    0.10    0.30
  -6   4   2   86.39    1.90
  -5   4   2   22.30    0.70
  -5   4   2   21.70    0.80
  -4   4   2  163.78    2.70
  -4   4   2  161.48    2.50
  -3   4   2  257.47    3.70
  -3   4   2  254.77    3.60
  -2   4   2  795.12   10.10
  -2   4   2  781.32   10.10
  -1   4   2  195.68    2.80
  -1   4   2  194.98    2.80
   0   4   2  255.37    3.40
   0   4   2  254.17    3.60
   1   4   2   37.80    0.60
   1   4   2   38.30    0.90
  -2  -4  -2  478.85    6.10
  -3  -4  -2    0.50    0.10
   3   4   2    0.30    0.20
  -4  -4  -2  127.29    2.00
   4   4   2  131.59    2.20
  -5  -4  -2   34.80    0.90
   5   4   2   33.90    0.90
  -6  -4  -2  139.39    2.40
   6   4   2  133.29    2.40
  -7  -4  -2  159.58    2.80
   7   4   2  155.68    2.70
  -8  -4  -2    3.90    0.50
   8   4   2    2.20    0.40
  -9  -4  -2   21.10    1.00
 -10  -4  -2   11.10    0.80
 -11  -4  -2    2.80    0.50
  -9   5   2    7.90    0.80
  -8   5   2    5.30    0.70
  -7   5   2    6.80    0.70
  -6   5   2    0.40    0.30
  -5   5   2   10.80    0.50
  -5   5   2   11.10    0.70
  -4   5   2    8.60    0.50
  -4   5   2    8.80    0.60
  -3   5   2   24.70    0.80
  -3   5   2   24.90    0.70
  -2   5   2   46.00    1.00
  -2   5   2   45.10    1.00
  -1   5   2    3.20    0.30
  -1   5   2    3.70    0.30
   0   5   2  432.76    5.60
   0   5   2  424.46    5.80
   1   5   2    4.20    0.20
   1   5   2    5.10    0.40
   2   5   2  190.08    2.50
   2   5   2  190.48    3.00
  -4  -5  -2    1.30    0.20
   4   5   2    0.80    0.30
  -5  -5  -2    0.20    0.20
   5   5   2    0.00    0.20
  -6  -5  -2   94.09    1.80
   6   5   2   90.89    1.90
  -7  -5  -2    1.50    0.30
   7   5   2    2.50    0.40
  -8  -5  -2    2.60    0.40
   8   5   2    2.40    0.40
  -9  -5  -2   12.30    0.80
 -10  -5  -2   40.50    1.40
  -8   6   2    3.10    0.60
  -7   6   2    9.10    0.80
  -6   6   2   11.30    0.80
  -5   6   2   16.90    0.70
  -5   6   2   16.90    0.80
  -4   6   2  130.39    2.40
  -4   6   2  129.29    2.30
  -3   6   2   15.30    0.70
  -3   6   2   14.60    0.70
  -2   6   2   39.30    1.00
  -2   6   2   37.20    1.00
  -1   6   2  160.68    2.60
  -1   6   2  156.68    2.50
   0   6   2   73.69    1.30
   0   6   2   74.79    1.50
   1   6   2   36.60    0.70
   1   6   2   37.90    1.00
   2   6   2   63.79    1.00
   2   6   2   64.79    1.40
  -3  -6  -2  163.88    2.40
   3   6   2  153.68    2.70
  -4  -6  -2   37.80    0.90
   4   6   2   37.30    1.10
  -5  -6  -2  179.48    2.80
   5   6   2  182.38    3.10
  -6  -6  -2   10.50    0.60
   6   6   2    9.60    0.60
  -7  -6  -2   16.30    0.70
   7   6   2   16.70    0.80
  -8  -6  -2    1.00    0.30
   8   6   2    1.20    0.40
  -9  -6  -2   24.00    1.00
 -10  -6  -2    1.50    0.40
  -8   7   2    3.90    0.80
  -7   7   2   -0.20    0.40
  -6   7   2   17.60    0.90
  -5   7   2    2.40    0.40
  -5   7   2    2.30    0.50
  -4   7   2   37.10    1.10
  -4   7   2   36.30    1.20
  -3   7   2    1.80    0.40
  -3   7   2    1.00    0.30
  -2   7   2   76.79    1.70
  -2   7   2   78.09    1.60
  -1   7   2   33.40    1.00
  -1   7   2   32.70    0.90
   0   7   2   45.80    1.00
   0   7   2   46.10    1.20
   1   7   2    4.90    0.30
   1   7   2    5.20    0.50
   2   7   2   24.90    0.90
   3   7   2    0.70    0.30
  -4  -7  -2  165.38    2.60
   4   7   2  169.18    2.90
  -5  -7  -2    1.60    0.30
   5   7   2    1.50    0.40
  -6  -7  -2   11.30    0.60
   6   7   2   11.60    0.70
  -7  -7  -2    5.90    0.50
   7   7   2    6.50    0.60
  -8  -7  -2   16.80    0.80
   8   7   2   16.50    0.80
  -9  -7  -2    0.10    0.30
 -10  -7  -2   -0.40    0.30
  -7   8   2    2.70    0.60
  -6   8   2    0.50    0.40
  -5   8   2   15.40    0.90
  -5   8   2   15.40    0.90
  -4   8   2    0.30    0.40
  -4   8   2    0.00    0.30
  -3   8   2   66.09    1.60
  -3   8   2   63.99    1.60
  -2   8   2    6.40    0.50
  -2   8   2    5.90    0.60
  -1   8   2    0.60    0.30
  -1   8   2    0.80    0.40
   0   8   2   34.40    1.10
   0   8   2   33.70    0.90
   1   8   2    3.90    0.50
   2   8   2   41.80    1.30
   3   8   2    4.40    0.50
   4   8   2   22.80    1.00
  -5  -8  -2    4.40    0.40
   5   8   2    5.80    0.60
  -6  -8  -2    0.40    0.20
   6   8   2    0.60    0.30
  -7  -8  -2   47.00    1.30
   7   8   2   46.80    1.40
  -8  -8  -2    0.10    0.30
   8   8   2    0.70    0.40
  -9  -8  -2    2.30    0.40
  -6   9   2    9.70    0.90
  -5   9   2    0.20    0.40
  -5   9   2    0.60    0.40
  -4   9   2    2.30    0.50
  -4   9   2    2.90    0.50
  -3   9   2    4.90    0.60
  -3   9   2    5.40    0.60
  -2   9   2   13.10    0.90
  -2   9   2   11.70    0.70
  -1   9   2   12.40    0.60
  -1   9   2   12.20    0.80
   0   9   2   10.80    0.80
   1   9   2   10.00    0.80
   2   9   2    1.80    0.50
   3   9   2    8.40    0.80
   4   9   2   41.40    1.40
   5   9   2    0.70    0.40
  -6  -9  -2   11.20    0.70
   6   9   2   11.80    0.80
  -7  -9  -2   -0.20    0.30
   7   9   2    0.50    0.40
  -8  -9  -2    5.20    0.60
   8   9   2    5.40    0.90
  -9  -9  -2    1.00    0.40
  -5  10   2    1.80    0.60
  -5  10   2    2.20    0.60
  -4  10   2   -0.60    0.40
  -4  10   2    0.00    0.40
  -3  10   2    0.90    0.50
  -3  10   2    0.50    0.40
  -2  10   2    1.20    0.40
  -2  10   2    1.00    0.50
  -1  10   2   -0.50    0.40
   0  10   2    5.60    0.80
   1  10   2   -0.10    0.40
   2  10   2    3.70    0.60
   3  10   2   14.90    1.00
   4  10   2    0.90    0.40
   5  10   2   37.00    1.40
   6  10   2    8.50    0.80
  -7 -10  -2    3.50    0.50
   7  10   2    3.80    0.60
  -8 -10  -2    0.10    0.30
  -4  11   2    6.10    0.80
  -4  11   2    6.80    0.80
  -3  11   2   -0.10    0.50
  -2  11   2    4.40    0.70
  -1  11   2   -0.10    0.50
   0  11   2    0.30    0.50
   1  11   2   -0.90    0.50
   2  11   2    0.10    0.50
   3  11   2    1.60    0.50
   4  11   2   14.10    1.00
   5  11   2    2.10    0.50
   6  11   2    6.10    0.80
   7  11   2    2.20    0.50
  -2  12   2   -0.90    0.60
  -1  12   2    0.50    0.60
   0  12   2   -0.90    0.50
   1  12   2    1.20    0.60
   2  12   2   -0.30    0.50
   3  12   2    3.40    0.70
   4  12   2    3.70    0.70
   5  12   2    2.20    0.60
   2  12  -3   12.20    1.10
   1  12  -3   -0.70    0.50
   4  11  -3   -0.20    0.50
   3  11  -3   33.60    1.50
   2  11  -3   -0.70    0.50
   1  11  -3    5.30    0.80
   0  11  -3   -0.50    0.40
  -1  11  -3    2.80    0.60
  -2  11  -3   -0.90    0.40
  -3  11  -3   10.00    1.10
  -6 -10   3    1.20    0.40
  -5 -10   3    0.40    0.30
   4  10  -3   68.29    1.90
   3  10  -3   -0.30    0.40
   2  10  -3   12.60    0.90
   1  10  -3    0.10    0.40
   0  10  -3   25.90    1.20
  -1  10  -3    1.80    0.50
  -2  10  -3    0.40    0.40
  -3  10  -3    2.30    0.60
  -4  10  -3    1.10    0.50
  -7  -9   3   -0.30    0.30
  -5  -9   3    9.00    0.70
   4   9  -3    4.60    0.70
  -4  -9   3    5.20    0.50
   3   9  -3    1.10    0.50
   2   9  -3    7.10    0.70
   1   9  -3   33.30    1.20
   0   9  -3    1.50    0.40
  -1   9  -3   34.20    1.20
  -2   9  -3    2.20    0.50
  -3   9  -3    0.20    0.40
  -4   9  -3    7.60    0.80
  -5   9  -3    6.10    0.70
  -6   9  -3    1.30    0.50
  -8  -8   3    1.00    0.40
  -7  -8   3    2.60    0.40
  -6  -8   3   60.89    1.60
  -5  -8   3    1.10    0.30
   4   8  -3    3.00    0.50
  -4  -8   3    2.40    0.40
   3   8  -3    1.60    0.40
  -3  -8   3    2.10    0.30
   2   8  -3  209.98    3.50
   1   8  -3   -0.20    0.30
   0   8  -3  106.89    2.10
  -1   8  -3   -0.50    0.30
  -2   8  -3   51.89    1.40
  -3   8  -3    1.30    0.40
  -4   8  -3   17.70    0.90
  -5   8  -3    1.60    0.50
  -6   8  -3    0.50    0.40
  -7   8  -3    6.90    0.80
  -9  -7   3   -0.30    0.30
  -8  -7   3    3.90    0.60
  -7  -7   3   14.30    0.80
  -6  -7   3   25.80    1.00
  -5  -7   3   27.50    1.00
   4   7  -3    9.60    0.70
  -4  -7   3   10.60    0.60
   3   7  -3  125.99    2.30
  -3  -7   3  122.39    2.10
   2   7  -3   21.80    0.80
  -2  -7   3   22.70    0.70
   1   7  -3   62.59    1.40
   0   7  -3    7.20    0.50
  -1   7  -3   47.40    1.20
  -2   7  -3   30.80    1.00
  -3   7  -3   83.09    1.80
  -4   7  -3    5.20    0.50
  -5   7  -3    3.60    0.50
  -6   7  -3   40.10    1.30
  -7   7  -3    0.70    0.40
  -8   7  -3    5.80    0.70
  -9  -6   3    2.60    0.50
  -8  -6   3   20.50    1.00
  -7  -6   3   11.40    0.80
  -6  -6   3   20.00    0.90
  -5  -6   3   10.20    0.60
   4   6  -3  336.77    4.90
  -4  -6   3  343.47    4.90
   3   6  -3   19.20    0.70
  -3  -6   3   20.00    0.60
  -3  -6   3   19.30    0.70
   2   6  -3  226.38    3.40
  -2  -6   3  225.58    3.30
  -2  -6   3  223.98    3.20
   1   6  -3    4.80    0.40
   0   6  -3   64.19    1.40
  -1   6  -3    0.30    0.20
  -2   6  -3   48.70    1.20
  -3   6  -3   33.70    1.00
  -4   6  -3    2.40    0.40
  -5   6  -3   38.30    1.20
  -6   6  -3   11.00    0.70
  -7   6  -3   27.50    1.10
  -8   6  -3    0.10    0.30
  -9  -5   3   16.60    1.00
  -8  -5   3   19.80    1.00
  -7  -5   3   11.40    0.80
  -6  -5   3    6.80    0.60
  -5  -5   3   26.00    0.90
   4   5  -3  304.77    4.30
  -4  -5   3  307.07    4.10
  -4  -5   3  313.27    4.50
   3   5  -3   20.70    0.70
  -3  -5   3   21.20    0.60
  -3  -5   3   21.90    0.70
   2   5  -3   58.39    1.20
  -2  -5   3   57.29    1.10
  -2  -5   3   56.39    1.10
   1   5  -3  204.28    3.00
  -1  -5   3  202.78    2.80
  -1  -5   3  201.28    2.90
   0   5  -3  156.08    2.40
  -1   5  -3   98.29    1.70
  -2   5  -3  185.28    2.90
  -3   5  -3    0.50    0.20
  -4   5  -3  331.57    4.80
  -5   5  -3    7.90    0.50
  -6   5  -3   53.69    1.40
  -7   5  -3    0.10    0.30
  -8   5  -3   14.70    0.80
 -10  -4   3    3.30    0.60
  -9  -4   3   14.10    0.90
  -8  -4   3   15.40    0.90
  -7  -4   3    0.80    0.30
  -6  -4   3   23.50    0.90
  -5  -4   3   86.69    1.80
  -5  -4   3   87.19    1.40
   4   4  -3    0.30    0.20
  -4  -4   3    0.30    0.20
  -4  -4   3    0.60    0.10
   3   4  -3   94.19    1.60
  -3  -4   3   95.89    1.70
  -3  -4   3   93.99    1.50
   2   4  -3   23.10    0.60
  -2  -4   3   22.00    0.50
  -2  -4   3   22.50    0.60
   1   4  -3   53.09    1.00
  -1  -4   3   54.59    1.00
  -1  -4   3   53.69    1.00
   0   4  -3   53.59    1.00
   0  -4   3   52.09    1.00
  -1   4  -3  127.39    2.00
  -2   4  -3   -0.10    0.20
  -3   4  -3   27.60    0.80
  -4   4  -3   80.69    1.60
  -5   4  -3   73.79    1.60
  -6   4  -3    0.20    0.20
  -7   4  -3   81.69    1.80
  -8   4  -3    0.70    0.30
 -10  -3   3   22.20    1.20
  -9  -3   3    2.40    0.50
  -8  -3   3    5.00    0.60
  -7  -3   3    9.00    0.70
  -7  -3   3   10.10    0.60
  -6  -3   3  264.07    4.20
  -6  -3   3  261.87    3.70
  -5  -3   3    4.70    0.30
  -5  -3   3    4.40    0.40
   4   3  -3   88.29    1.40
  -4  -3   3   88.79    1.70
  -4  -3   3   91.09    1.40
   3   3  -3   43.50    0.80
  -3  -3   3   43.60    0.80
  -3  -3   3   44.60    1.00
   2   3  -3  742.03    9.30
  -2  -3   3  738.13    9.30
  -2  -3   3  740.23    9.50
   1   3  -3   19.30    0.50
  -1  -3   3   18.50    0.50
  -1  -3   3   20.10    0.50
   0   3  -3  988.30   12.30
   0  -3   3  955.70   12.30
   0  -3   3 1003.50   12.70
  -1   3  -3   80.49    1.40
  -2   3  -3    9.60    0.40
  -3   3  -3    3.80    0.30
  -4   3  -3   37.40    0.90
  -5   3  -3    0.20    0.20
  -6   3  -3    8.20    0.50
  -7   3  -3    0.50    0.30
  -8   3  -3   54.69    1.40
  -9   3  -3    0.20    0.40
 -10  -2   3    3.70    0.60
  -9  -2   3    8.40    0.80
  -8  -2   3    1.20    0.40
  -8  -2   3    0.80    0.30
  -7  -2   3  140.09    2.70
  -7  -2   3  135.79    2.30
  -6  -2   3    0.40    0.20
  -6  -2   3    0.20    0.20
  -5  -2   3   14.20    0.50
  -5  -2   3   13.70    0.60
  -4  -2   3    0.90    0.20
  -4  -2   3    0.50    0.20
   3   2  -3   45.80    0.70
  -3  -2   3   44.70    1.00
  -3  -2   3   45.40    0.80
   2   2  -3   17.30    0.40
  -2  -2   3   17.00    0.40
  -2  -2   3   16.80    0.50
   1   2  -3  371.26    4.70
  -1  -2   3  366.96    4.80
  -1  -2   3  368.56    4.80
   0   2  -3   89.59    1.40
   0  -2   3   89.79    1.40
   0  -2   3   92.39    1.30
  -1   2  -3  195.48    2.70
   1  -2   3  194.48    2.70
  -2   2  -3   23.10    0.60
  -3   2  -3  283.07    4.00
  -4   2  -3   36.90    0.90
  -5   2  -3   92.89    1.70
  -6   2  -3    5.60    0.40
  -7   2  -3    0.40    0.20
  -8   2  -3    0.00    0.20
  -9   2  -3   22.10    1.00
 -10   2  -3    0.00    0.30
 -10  -1   3   -0.10    0.30
  -8  -1   3   24.60    0.80
  -7  -1   3   14.40    0.60
  -6  -1   3   24.00    0.70
  -5  -1   3    3.60    0.30
  -4  -1   3  534.05    6.90
  -3  -1   3   39.40    0.80
  -2  -1   3 1246.48   22.20
   1   1  -3    9.90    0.30
  -1  -1   3    9.90    0.30
   0  -1   3  479.15    5.90
   0  -1   3  459.15    5.90
   1  -1   3    1.00    0.20
   1  -1   3    1.20    0.10
   2  -1   3 1209.48   15.30
   3  -1   3    9.20    0.40
   4  -1   3   50.89    1.10
   5  -1   3   21.60    0.70
   6  -1   3  285.17    4.20
  -9   1  -3    1.80    0.40
  -9   0   3    6.10    0.50
  -8   0   3    0.80    0.30
  -7   0   3   15.60    0.70
  -6   0   3    2.10    0.30
  -5   0   3  159.78    2.50
  -4   0   3    8.30    0.40
  -3   0   3 1124.99   14.70
  -2   0   3   23.00    0.50
  -1   0   3 2118.69   27.90
   0   0   3  212.18    2.80
   0   0   3  220.68    2.90
   1   0   3 2337.67   29.80
   1   0   3 2360.16   30.00
  -2   0  -3    8.10    0.20
   2   0   3    8.40    0.30
   2   0   3    8.60    0.30
   3   0   3  313.27    4.30
   4   0   3    7.00    0.40
   5   0   3   35.30    0.90
   6   0   3    2.10    0.30
   7   0   3  119.89    2.20
   8   0   3    4.40    0.50
   9   0   3    3.80    0.50
 -10   1   3    3.50    0.50
  -9   1   3    1.60    0.40
  -8   1   3   25.20    0.90
  -7   1   3    3.60    0.50
  -6   1   3  144.29    2.50
  -5   1   3    6.70    0.40
  -4   1   3  687.33    8.90
  -3   1   3   34.00    0.80
  -2   1   3  406.76    5.30
  -1   1   3    8.20    0.30
  -1   1   3    7.90    0.30
   0   1   3 9999.00  137.89
   0   1   3 9808.72  139.79
   1   1   3   31.80    0.70
   1   1   3   32.50    0.60
  -2  -1  -3   84.89    1.20
   2   1   3   86.49    1.20
   2   1   3   84.59    1.40
  -3  -1  -3  171.58    2.40
   3   1   3  173.98    2.60
  -4  -1  -3  239.78    3.30
   4   1   3  237.08    3.50
  -5  -1  -3   93.39    1.60
   5   1   3   94.09    1.70
  -6  -1  -3    1.00    0.20
   6   1   3    1.20    0.30
  -7  -1  -3   33.70    1.00
   7   1   3   34.80    1.00
  -8  -1  -3   12.20    0.70
   8   1   3   11.90    0.60
  -9  -1  -3   12.00    0.70
   9   1   3   11.20    0.60
 -10   2   3    1.40    0.40
  -9   2   3    2.20    0.50
  -8   2   3    1.10    0.40
  -7   2   3  101.19    2.10
  -6   2   3    6.40    0.50
  -5   2   3  164.28    2.70
  -4   2   3   39.00    0.70
  -4   2   3   39.60    1.00
  -3   2   3  958.80   12.10
  -3   2   3  940.31   11.80
  -2   2   3  212.58    2.80
  -2   2   3  206.48    3.00
  -1   2   3 1999.40   25.00
  -1   2   3 1935.21   25.10
   0   2   3  599.04    7.50
   0   2   3  596.54    7.60
   1   2   3  183.98    2.40
   1   2   3  182.48    2.60
  -2  -2  -3    1.40    0.10
   2   2   3    1.50    0.20
   2   2   3    1.20    0.10
  -3  -2  -3  111.09    1.60
   3   2   3  113.99    1.90
  -4  -2  -3   59.19    1.10
   4   2   3   61.59    1.30
  -5  -2  -3    0.40    0.10
   5   2   3    0.40    0.20
  -6  -2  -3    6.60    0.40
   6   2   3    6.70    0.50
  -7  -2  -3   64.49    1.50
   7   2   3   64.29    1.50
  -8  -2  -3  145.29    2.70
   8   2   3  147.49    2.60
  -9  -2  -3    0.70    0.30
   9   2   3    0.60    0.30
  -9   3   3    0.40    0.30
  -8   3   3   21.00    1.00
  -7   3   3    5.30    0.50
  -6   3   3  123.29    2.30
  -5   3   3    0.00    0.20
  -4   3   3   94.59    1.80
  -4   3   3   93.09    1.50
  -3   3   3   15.30    0.60
  -3   3   3   15.20    0.50
  -2   3   3  664.23    8.50
  -2   3   3  670.83    8.60
  -1   3   3    0.20    0.20
  -1   3   3    0.20    0.10
   0   3   3    3.00    0.20
   0   3   3    3.10    0.30
   1   3   3  347.07    4.40
   1   3   3  342.67    4.70
   2   3   3  444.96    5.60
   2   3   3  456.35    6.00
  -3  -3  -3   94.19    1.40
  -4  -3  -3    6.70    0.30
   4   3   3    6.70    0.40
  -5  -3  -3  128.39    2.10
   5   3   3  130.69    2.30
  -6  -3  -3    6.40    0.40
   6   3   3    6.70    0.50
  -7  -3  -3   33.80    1.00
   7   3   3   34.90    1.10
  -8  -3  -3   23.00    0.90
   8   3   3   23.50    0.90
  -9  -3  -3   22.80    1.00
   9   3   3   21.50    0.90
 -10  -3  -3    3.80    0.50
  -9   4   3    5.80    0.70
  -8   4   3    3.40    0.50
  -7   4   3    0.10    0.30
  -6   4   3   26.10    1.00
  -5   4   3   52.69    1.30
  -4   4   3   43.00    1.10
  -4   4   3   43.80    1.00
  -3   4   3  301.97    4.20
  -3   4   3  301.27    4.30
  -2   4   3  659.53    8.50
  -2   4   3  659.13    8.60
  -1   4   3  191.08    2.70
  -1   4   3  185.88    2.80
   0   4   3   39.20    0.90
   0   4   3   40.10    0.80
   1   4   3  194.98    2.60
   1   4   3  190.78    2.90
   2   4   3  611.34    8.10
   2   4   3  612.24    7.60
  -3  -4  -3   13.00    0.40
   3   4   3   11.40    0.50
  -4  -4  -3   43.50    0.90
   4   4   3   43.40    1.10
  -5  -4  -3    3.60    0.30
   5   4   3    3.90    0.40
  -6  -4  -3  121.19    2.10
   6   4   3  123.89    2.30
  -7  -4  -3   21.80    0.80
   7   4   3   22.10    0.90
  -8  -4  -3    0.10    0.20
   8   4   3   -0.20    0.20
  -9  -4  -3    0.00    0.20
   9   4   3    0.50    0.40
 -10  -4  -3   19.70    1.00
  -9   5   3    4.00    0.70
  -8   5   3    6.80    0.70
  -7   5   3    0.70    0.40
  -6   5   3    1.50    0.40
  -5   5   3    8.50    0.60
  -4   5   3    0.30    0.30
  -4   5   3    0.00    0.20
  -3   5   3    2.10    0.30
  -3   5   3    2.10    0.30
  -2   5   3    4.10    0.40
  -2   5   3    4.50    0.40
  -1   5   3    4.90    0.40
  -1   5   3    4.50    0.40
   0   5   3  295.27    4.30
   0   5   3  297.17    4.00
   1   5   3    5.20    0.30
   1   5   3    5.40    0.40
   2   5   3   53.29    0.80
   2   5   3   53.89    1.20
  -3  -5  -3  123.89    1.90
   3   5   3  122.79    2.20
  -4  -5  -3    0.10    0.10
   4   5   3    0.10    0.20
  -5  -5  -3   16.10    0.60
   5   5   3   15.40    0.70
  -6  -5  -3   21.90    0.70
   6   5   3   23.60    0.90
  -7  -5  -3    7.00    0.50
   7   5   3    6.60    0.60
  -8  -5  -3    8.80    0.60
   8   5   3    8.40    0.60
  -9  -5  -3    5.20    0.50
 -10  -5  -3    3.30    0.50
  -8   6   3    1.90    0.50
  -7   6   3   14.70    0.90
  -6   6   3    1.00    0.40
  -5   6   3   28.80    1.10
  -4   6   3  121.39    2.30
  -4   6   3  125.19    2.20
  -3   6   3   43.30    1.20
  -3   6   3   46.30    1.20
  -2   6   3   24.60    0.80
  -2   6   3   22.90    0.80
  -1   6   3   82.99    1.50
  -1   6   3   81.09    1.70
   0   6   3  205.48    3.30
   0   6   3  207.78    3.00
   1   6   3  141.19    2.40
   1   6   3  140.99    2.00
   2   6   3    0.30    0.20
   2   6   3    0.50    0.10
   3   6   3  166.78    2.80
  -4  -6  -3   44.10    1.00
   4   6   3   43.10    1.20
  -5  -6  -3   41.60    1.00
   5   6   3   40.60    1.20
  -6  -6  -3  112.49    2.00
   6   6   3  112.29    2.30
  -7  -6  -3    2.90    0.40
   7   6   3    3.00    0.40
  -8  -6  -3   62.09    1.50
   8   6   3   60.49    1.60
  -9  -6  -3    2.80    0.40
 -10  -6  -3   10.30    0.80
  -7   7   3    3.40    0.60
  -6   7   3    0.10    0.30
  -5   7   3    0.40    0.40
  -4   7   3    2.40    0.40
  -4   7   3    3.10    0.50
  -3   7   3    7.60    0.60
  -3   7   3    6.30    0.60
  -2   7   3    4.50    0.50
  -2   7   3    5.00    0.50
  -1   7   3   63.59    1.50
  -1   7   3   65.39    1.30
   0   7   3    5.80    0.40
   0   7   3    5.50    0.60
   1   7   3  117.49    1.80
   1   7   3  116.09    2.20
   2   7   3    3.00    0.40
   3   7   3   19.20    0.80
   4   7   3    1.80    0.40
  -5  -7  -3   13.40    0.60
   5   7   3   12.00    0.70
  -6  -7  -3    7.20    0.50
   6   7   3    6.70    0.60
  -7  -7  -3   11.60    0.60
   7   7   3   11.90    0.80
  -8  -7  -3    1.00    0.30
   8   7   3    1.00    0.40
  -9  -7  -3   19.50    0.90
 -10  -7  -3   -0.10    0.30
  -7   8   3    2.30    0.60
  -6   8   3   10.10    0.80
  -5   8   3    3.30    0.60
  -4   8   3    4.10    0.60
  -4   8   3    4.20    0.60
  -3   8   3    0.40    0.30
  -3   8   3    0.20    0.40
  -2   8   3   54.79    1.50
  -2   8   3   52.69    1.30
  -1   8   3    0.00    0.20
  -1   8   3   -0.10    0.30
   0   8   3   20.90    0.70
   0   8   3   19.80    0.90
   1   8   3   10.20    0.80
   2   8   3  108.29    2.30
   3   8   3   24.60    1.00
   4   8   3  228.48    3.90
  -5  -8  -3    0.10    0.20
   5   8   3   -0.10    0.30
  -6  -8  -3   15.20    0.70
   6   8   3   16.80    0.90
  -7  -8  -3    0.30    0.30
   7   8   3    0.30    0.30
  -8  -8  -3   10.50    0.70
   8   8   3   10.40    0.80
  -9  -8  -3    0.00    0.30
  -6   9   3    0.10    0.40
  -5   9   3    6.30    0.70
  -4   9   3    1.00    0.50
  -4   9   3    1.10    0.40
  -3   9   3   65.99    1.70
  -3   9   3   67.29    1.80
  -2   9   3    8.00    0.60
  -2   9   3    8.10    0.80
  -1   9   3   31.50    1.30
  -1   9   3   36.30    1.00
   0   9   3    9.10    0.80
   1   9   3   23.10    1.10
   2   9   3   10.00    0.80
   3   9   3   21.30    1.00
   4   9   3   10.70    0.80
   5   9   3    1.50    0.50
  -6  -9  -3    6.90    0.60
   6   9   3    7.90    0.80
  -7  -9  -3    5.40    0.50
   7   9   3    7.10    0.70
  -8  -9  -3    0.30    0.30
   8   9   3    0.70    0.40
  -9  -9  -3   -0.10    0.30
  -5  10   3    0.20    0.40
  -4  10   3   11.40    1.00
  -4  10   3   11.10    0.80
  -3  10   3    0.20    0.50
  -3  10   3    0.90    0.40
  -2  10   3    9.70    0.90
  -2  10   3   10.30    0.90
  -1  10   3   -0.10    0.40
   0  10   3   27.60    1.30
   1  10   3    0.70    0.50
   2  10   3   30.80    1.30
   3  10   3    0.60    0.40
   4  10   3    0.60    0.40
   5  10   3    1.80    0.50
   6  10   3    5.20    0.70
   7  10   3    1.90    0.50
  -8 -10  -3    0.20    0.30
   8  10   3    1.00    0.40
  -3  11   3    0.50    0.60
  -2  11   3    1.70    0.60
  -1  11   3   11.60    1.10
   0  11   3    1.40    0.60
   1  11   3    4.70    0.70
   2  11   3    1.30    0.50
   3  11   3    1.60    0.50
   4  11   3    1.20    0.50
   5  11   3    1.40    0.50
   6  11   3    0.50    0.40
   7  11   3    1.30    0.50
  -1  12   3   -0.10    0.60
   0  12   3    1.90    0.70
   1  12   3    1.40    0.60
   2  12   3    2.60    0.70
   3  12   3    1.20    0.60
   4  12   3    7.70    0.90
   5  12   3    0.40    0.50
   3  11  -4    0.90    0.60
   2  11  -4    6.20    0.80
   1  11  -4   -0.30    0.40
   0  11  -4   19.00    1.10
  -1  11  -4    0.20    0.50
  -2  11  -4   10.30    1.00
  -6 -10   4    2.40    0.50
  -5 -10   4    0.70    0.40
   3  10  -4    4.40    0.70
   2  10  -4   -0.20    0.40
   1  10  -4   22.40    1.10
   0  10  -4    2.40    0.60
  -1  10  -4   16.30    1.00
  -2  10  -4    4.50    0.70
  -3  10  -4   16.00    1.10
  -4  10  -4    0.80    0.50
  -7  -9   4   -0.20    0.30
  -6  -9   4    3.70    0.50
  -5  -9   4    6.30    0.60
  -4  -9   4   27.70    1.00
   3   9  -4    0.60    0.40
   2   9  -4    0.80    0.40
   1   9  -4    4.80    0.60
   0   9  -4    8.10    0.70
  -1   9  -4    0.10    0.40
  -2   9  -4   14.50    0.90
  -3   9  -4    0.10    0.40
  -4   9  -4   39.00    1.40
  -5   9  -4    2.00    0.50
  -8  -8   4    2.70    0.50
  -7  -8   4    0.20    0.30
  -6  -8   4    8.50    0.70
  -5  -8   4    6.00    0.60
  -4  -8   4    4.10    0.40
   3   8  -4   15.40    0.80
  -3  -8   4   17.90    0.70
   2   8  -4   34.60    1.10
   1   8  -4   18.10    0.90
   0   8  -4   24.00    1.00
  -1   8  -4   20.80    0.90
  -2   8  -4    8.60    0.70
  -3   8  -4    0.00    0.30
  -4   8  -4   18.30    0.90
  -5   8  -4   12.00    0.90
  -6   8  -4    1.00    0.40
  -8  -7   4    0.00    0.30
  -7  -7   4   11.90    0.80
  -6  -7   4    0.90    0.30
  -5  -7   4   34.80    1.10
  -4  -7   4   93.79    1.90
   3   7  -4   95.59    1.90
  -3  -7   4   96.39    1.80
   2   7  -4    0.50    0.30
  -2  -7   4    0.50    0.20
   1   7  -4   11.70    0.60
   0   7  -4   12.80    0.70
  -1   7  -4    4.90    0.50
  -2   7  -4   85.59    1.80
  -3   7  -4   31.90    1.10
  -4   7  -4    8.90    0.70
  -5   7  -4    1.70    0.40
  -6   7  -4   14.80    0.90
  -7   7  -4    0.20    0.30
  -9  -6   4    0.40    0.40
  -8  -6   4   10.40    0.80
  -7  -6   4   11.90    0.80
  -6  -6   4   12.90    0.80
  -5  -6   4    2.70    0.40
  -4  -6   4   64.29    1.40
  -4  -6   4   64.79    1.50
   3   6  -4   11.70    0.60
  -3  -6   4   12.50    0.60
  -3  -6   4   11.20    0.50
   2   6  -4   72.09    1.50
  -2  -6   4   72.69    1.40
  -2  -6   4   74.29    1.40
   1   6  -4   56.79    1.30
  -1  -6   4   55.09    1.20
   0   6  -4    5.60    0.50
  -1   6  -4   45.10    1.10
  -2   6  -4    4.90    0.50
  -3   6  -4  152.78    2.70
  -4   6  -4   41.10    1.20
  -5   6  -4   41.00    1.30
  -6   6  -4   32.20    1.10
  -7   6  -4    3.50    0.60
  -8   6  -4    5.90    0.70
  -9  -5   4   12.10    0.90
  -8  -5   4    2.80    0.50
  -7  -5   4   40.10    1.40
  -6  -5   4   13.60    0.80
  -5  -5   4   83.19    1.50
  -5  -5   4   82.19    1.80
  -4  -5   4   37.80    0.90
  -4  -5   4   40.50    1.10
   3   5  -4   34.00    0.90
  -3  -5   4   33.70    0.90
  -3  -5   4   34.20    0.80
   2   5  -4    2.50    0.30
  -2  -5   4    2.30    0.30
  -2  -5   4    1.90    0.30
   1   5  -4  144.29    2.30
  -1  -5   4  146.29    2.20
  -1  -5   4  142.79    2.30
   0   5  -4   15.70    0.60
  -1   5  -4  134.39    2.20
  -2   5  -4   39.90    1.00
  -3   5  -4    4.90    0.50
  -4   5  -4   23.90    0.90
  -5   5  -4    4.60    0.50
  -6   5  -4    5.40    0.60
  -7   5  -4   12.60    0.70
  -8   5  -4    0.10    0.30
  -9   5  -4    7.50    0.70
  -9  -4   4    6.00    0.70
  -8  -4   4   19.20    1.00
  -7  -4   4    7.50    0.70
  -6  -4   4    5.90    0.60
  -6  -4   4    5.40    0.30
  -5  -4   4   52.79    1.40
  -5  -4   4   53.39    1.10
  -4  -4   4   24.00    0.80
  -4  -4   4   22.30    0.60
   3   4  -4   89.79    1.50
  -3  -4   4   90.09    1.50
  -3  -4   4   89.79    1.70
   2   4  -4   15.60    0.50
  -2  -4   4   14.60    0.50
  -2  -4   4   14.90    0.50
   1   4  -4   49.20    1.00
  -1  -4   4   49.90    1.00
  -1  -4   4   49.60    0.90
   0   4  -4   76.99    1.40
   0  -4   4   75.79    1.40
  -1   4  -4   75.89    1.40
  -2   4  -4   28.70    0.80
  -3   4  -4   28.50    0.80
  -4   4  -4  308.87    4.50
  -5   4  -4   13.10    0.70
  -6   4  -4    7.40    0.60
  -7   4  -4    2.50    0.40
  -8   4  -4   33.40    1.20
  -9   4  -4    0.40    0.30
  -9  -3   4    5.70    0.70
  -8  -3   4    1.90    0.40
  -7  -3   4   12.80    0.50
  -7  -3   4   12.30    0.80
  -6  -3   4   12.70    0.50
  -6  -3   4   13.60    0.70
  -5  -3   4  133.49    2.50
  -5  -3   4  132.99    2.10
  -4  -3   4   10.00    0.50
  -4  -3   4   10.30    0.40
   3   3  -4  587.44    7.50
  -3  -3   4  603.44    7.70
  -3  -3   4  594.74    7.90
   2   3  -4    0.60    0.20
  -2  -3   4    0.20    0.10
  -2  -3   4    0.20    0.10
   1   3  -4  361.76    4.70
  -1  -3   4  356.36    4.80
  -1  -3   4  361.46    4.70
   0   3  -4    8.70    0.40
   0  -3   4    8.40    0.40
   0  -3   4    8.70    0.30
  -1   3  -4  415.86    5.50
   1  -3   4  407.26    5.50
  -2   3  -4   39.70    0.90
  -3   3  -4  399.56    5.50
  -4   3  -4   10.40    0.50
  -5   3  -4  123.89    2.20
  -6   3  -4    1.80    0.30
  -7   3  -4   44.50    1.30
  -8   3  -4    0.20    0.30
  -9   3  -4   24.40    1.00
 -10  -2   4   19.90    1.20
  -9  -2   4    1.40    0.40
  -8  -2   4    0.40    0.30
  -8  -2   4    0.00    0.20
  -7  -2   4   12.60    0.80
  -7  -2   4   10.70    0.50
  -6  -2   4   49.50    1.40
  -6  -2   4   48.40    1.10
  -5  -2   4    8.90    0.60
  -5  -2   4   10.50    0.40
  -4  -2   4    2.80    0.30
  -4  -2   4    2.50    0.30
  -3  -2   4    0.30    0.20
  -3  -2   4    0.30    0.10
   2   2  -4  670.93    8.40
  -2  -2   4  668.93    8.70
  -2  -2   4  670.83    8.50
   1   2  -4   55.29    0.90
  -1  -2   4   55.19    1.00
  -1  -2   4   55.69    1.00
   0   2  -4  154.58    2.20
   0  -2   4  156.88    2.30
   0  -2   4  156.98    2.10
  -1   2  -4    0.20    0.10
   1  -2   4    0.30    0.10
  -2   2  -4  633.84    8.20
  -6   2  -4  111.99    2.10
  -7   2  -4    0.10    0.20
  -8   2  -4   53.89    1.40
  -9   2  -4    1.10    0.30
 -10  -1   4    0.00    0.30
  -9  -1   4   22.00    1.00
  -8  -1   4    1.30    0.30
  -7  -1   4   99.09    1.90
  -6  -1   4    1.00    0.20
  -5  -1   4   71.99    1.40
  -4  -1   4    3.80    0.30
  -3  -1   4   58.09    1.10
  -2  -1   4    0.60    0.10
   1   1  -4  887.41   11.00
  -1  -1   4  891.41   11.50
   0  -1   4    0.80    0.10
   0  -1   4    0.60    0.10
   0  -1   4    0.70    0.10
   1  -1   4  611.84    7.70
   1  -1   4  594.04    7.70
   2  -1   4  260.87    3.50
   2  -1   4  256.77    3.60
   3  -1   4   41.30    0.90
   4  -1   4   47.90    1.10
   5  -1   4   45.10    1.10
   6  -1   4   49.00    1.20
   7  -1   4   20.00    0.80
  -9   1  -4   23.20    1.00
  -9   0   4    0.70    0.30
  -8   0   4   51.39    1.30
  -7   0   4    0.20    0.20
  -6   0   4    0.10    0.20
  -5   0   4    3.70    0.30
  -4   0   4   17.40    0.60
  -3   0   4    1.30    0.20
  -2   0   4   -0.10    0.10
  -1   0   4   37.70    0.60
  -1   0   4   36.50    0.70
   0   0   4  172.48    2.40
   0   0   4  167.58    2.30
   1   0   4   95.89    1.50
   1   0   4   94.09    1.40
   2   0   4 1297.77   16.40
   2   0   4 1286.47   16.80
  -3   0  -4    3.60    0.20
   3   0   4    2.70    0.30
  -4   0  -4  423.96    5.50
   4   0   4  418.46    5.80
   5   0   4    0.40    0.20
   6   0   4  127.09    2.30
  -7   0  -4   13.40    0.80
   7   0   4   10.10    0.60
   8   0   4    0.20    0.30
   9   0   4    0.00    0.30
  -9   1   4    9.40    0.70
  -8   1   4    1.00    0.30
  -7   1   4    1.20    0.30
  -6   1   4    1.30    0.30
  -5   1   4    5.50    0.40
  -4   1   4    5.00    0.40
  -3   1   4   46.10    1.00
  -2   1   4    3.70    0.20
  -2   1   4    4.00    0.30
  -1   1   4    0.30    0.10
  -1   1   4    0.30    0.10
   0   1   4  576.94    7.30
   0   1   4  558.24    7.20
   1   1   4   44.10    0.90
   1   1   4   45.20    0.80
   2   1   4   79.29    1.40
   2   1   4   77.39    1.20
  -3  -1  -4  729.63    9.00
   3   1   4  718.23    9.20
   3   1   4  734.53    9.40
  -4  -1  -4  303.97    4.00
   4   1   4  307.07    4.40
  -5  -1  -4  366.56    4.90
   5   1   4  358.86    5.20
  -6  -1  -4   36.10    0.90
   6   1   4   36.80    1.00
  -7  -1  -4  208.58    3.20
   7   1   4  200.38    3.30
   8   1   4    6.80    0.50
   9   1   4   46.20    1.30
  -9   2   4    1.30    0.40
  -8   2   4   10.30    0.70
  -7   2   4    4.60    0.50
  -6   2   4    4.90    0.50
  -5   2   4    2.90    0.40
  -4   2   4    7.90    0.50
  -3   2   4   13.00    0.50
  -3   2   4   13.20    0.40
  -2   2   4   55.09    0.90
  -2   2   4   53.79    1.10
  -1   2   4   36.70    0.80
  -1   2   4   37.10    0.70
   0   2   4 2132.89   27.60
   0   2   4 2226.68   27.70
   1   2   4    2.70    0.30
   1   2   4    2.10    0.20
   2   2   4  650.43    8.20
   2   2   4  653.83    8.50
  -3  -2  -4   27.70    0.50
   3   2   4   27.00    0.60
   3   2   4   27.10    0.80
  -4  -2  -4  701.43    8.80
   4   2   4  695.13    9.20
  -5  -2  -4    1.50    0.20
   5   2   4    0.80    0.20
  -6  -2  -4  129.69    2.10
   6   2   4  129.09    2.40
  -7  -2  -4    6.80    0.50
   7   2   4    7.10    0.50
  -8  -2  -4   53.69    1.40
   8   2   4   55.39    1.50
   9   2   4    3.50    0.50
  -9   3   4    1.70    0.40
  -8   3   4    0.20    0.30
  -7   3   4   33.70    1.20
  -6   3   4    4.10    0.50
  -5   3   4    0.60    0.30
  -4   3   4    0.00    0.20
  -3   3   4    0.40    0.20
  -3   3   4   -0.10    0.20
  -2   3   4   49.10    1.00
  -2   3   4   47.10    1.00
  -1   3   4  519.55    6.70
  -1   3   4  508.95    6.70
   0   3   4   12.00    0.50
   0   3   4   12.60    0.40
   1   3   4 1201.68   17.30
   1   3   4 1196.18   15.10
   2   3   4  202.78    2.70
   2   3   4  207.38    3.10
  -3  -3  -4  585.34    7.40
   3   3   4  592.84    7.40
   3   3   4  586.04    7.80
  -4  -3  -4  226.28    3.10
   4   3   4  232.38    3.50
  -5  -3  -4  194.18    2.80
   5   3   4  189.88    3.10
  -6  -3  -4   37.80    0.90
   6   3   4   39.30    1.10
  -7  -3  -4   29.60    0.90
   7   3   4   29.20    1.00
  -8  -3  -4  119.89    2.30
   8   3   4  121.49    2.40
   9   3   4    6.60    0.60
  -9   4   4    2.50    0.50
  -8   4   4    5.90    0.70
  -7   4   4    1.10    0.40
  -6   4   4   20.40    0.90
  -5   4   4   10.00    0.60
  -4   4   4   19.00    0.70
  -3   4   4   81.29    1.50
  -3   4   4   78.39    1.60
  -2   4   4  187.48    2.80
  -2   4   4  187.28    2.80
  -1   4   4   59.19    1.20
  -1   4   4   60.39    1.10
   0   4   4    0.30    0.20
   0   4   4    0.30    0.10
   1   4   4  120.49    1.70
   1   4   4  119.19    2.00
   2   4   4  347.37    4.50
   2   4   4  363.66    5.00
   3   4   4    8.10    0.50
   3   4   4    8.90    0.20
  -4  -4  -4  181.68    2.60
   4   4   4  181.58    3.00
  -5  -4  -4   25.50    0.70
   5   4   4   26.10    0.90
  -6  -4  -4    4.10    0.40
   6   4   4    3.20    0.40
  -7  -4  -4  108.39    2.00
   7   4   4  108.29    2.20
  -8  -4  -4    2.90    0.40
   8   4   4    3.50    0.50
  -9  -4  -4   25.70    1.10
   9   4   4   24.00    1.00
  -8   5   4    4.10    0.60
  -7   5   4    0.70    0.40
  -6   5   4    3.00    0.50
  -5   5   4    7.50    0.60
  -4   5   4    5.90    0.50
  -3   5   4   30.80    0.90
  -3   5   4   31.00    0.90
  -2   5   4    0.10    0.20
  -2   5   4    0.30    0.20
  -1   5   4    3.90    0.30
  -1   5   4    3.70    0.40
   0   5   4  148.99    2.20
   0   5   4  146.59    2.40
   1   5   4   40.00    0.80
   1   5   4   40.40    1.10
   2   5   4  348.17    4.50
   2   5   4  353.36    5.00
   3   5   4   35.80    1.00
  -4  -5  -4   20.80    0.60
   4   5   4   20.30    0.80
  -5  -5  -4   22.00    0.60
   5   5   4   21.10    0.80
  -6  -5  -4  111.79    2.00
   6   5   4  112.69    2.20
  -7  -5  -4   30.70    0.90
   7   5   4   30.20    1.10
  -8  -5  -4    0.40    0.20
   8   5   4    0.90    0.30
  -9  -5  -4    2.60    0.40
   9   5   4    2.80    0.50
  -8   6   4    0.10    0.40
  -7   6   4    7.80    0.80
  -6   6   4    0.90    0.40
  -5   6   4   51.99    1.40
  -4   6   4    5.30    0.60
  -3   6   4   88.79    1.80
  -3   6   4   86.09    1.80
  -2   6   4    0.80    0.30
  -2   6   4    0.20    0.30
  -1   6   4   76.39    1.60
  -1   6   4   75.89    1.50
   0   6   4   25.70    0.90
   0   6   4   27.10    0.70
   1   6   4    3.60    0.40
   1   6   4    3.60    0.30
   2   6   4   29.70    1.00
   3   6   4  179.88    3.10
   4   6   4    6.40    0.50
  -5  -6  -4  111.99    1.90
   5   6   4  111.39    2.30
  -6  -6  -4    0.50    0.20
   6   6   4    1.40    0.40
  -7  -6  -4    2.50    0.30
   7   6   4    3.10    0.50
  -8  -6  -4    0.20    0.20
   8   6   4    0.30    0.30
  -9  -6  -4    6.50    0.60
   9   6   4    6.40    0.70
  -7   7   4    1.20    0.50
  -6   7   4    0.30    0.40
  -5   7   4    0.60    0.40
  -4   7   4   10.30    0.70
  -3   7   4    0.50    0.40
  -3   7   4    0.90    0.30
  -2   7   4    0.80    0.40
  -2   7   4    1.10    0.30
  -1   7   4    4.90    0.60
  -1   7   4    5.10    0.40
   0   7   4   17.80    0.60
   0   7   4   17.30    0.80
   1   7   4    0.50    0.30
   1   7   4    0.60    0.20
   2   7   4    0.80    0.30
   3   7   4    0.60    0.30
   4   7   4   19.10    0.90
  -5  -7  -4   25.10    0.80
   5   7   4   26.00    1.00
  -6  -7  -4    0.40    0.20
   6   7   4    0.10    0.30
  -7  -7  -4    4.20    0.40
   7   7   4    4.40    0.60
  -8  -7  -4   35.30    1.10
   8   7   4   34.60    1.30
  -9  -7  -4   -0.10    0.30
   9   7   4    0.30    0.40
 -10  -7  -4    0.00    0.30
  -6   8   4    4.10    0.60
  -5   8   4    5.60    0.60
  -4   8   4    5.20    0.60
  -3   8   4    7.40    0.60
  -3   8   4    8.70    0.80
  -2   8   4    5.80    0.70
  -2   8   4    5.70    0.50
  -1   8   4   10.50    0.60
  -1   8   4    9.10    0.80
   0   8   4    7.40    0.50
   0   8   4    7.30    0.70
   1   8   4   36.50    1.20
   2   8   4    7.20    0.70
   3   8   4   14.80    0.80
   4   8   4    9.60    0.80
   5   8   4   21.20    1.00
  -6  -8  -4    2.70    0.40
   6   8   4    2.40    0.50
  -7  -8  -4   47.30    1.20
   7   8   4   47.10    1.50
  -8  -8  -4    0.90    0.30
   8   8   4    1.90    0.50
  -9  -8  -4   14.10    0.80
   9   8   4   17.50    1.00
  -5   9   4    2.80    0.60
  -4   9   4    4.90    0.60
  -3   9   4    1.20    0.50
  -3   9   4    1.70    0.40
  -2   9   4    0.70    0.50
  -2   9   4    0.50    0.30
  -1   9   4    1.60    0.50
  -1   9   4    1.40    0.50
   0   9   4    6.00    0.70
   1   9   4   18.10    1.00
   2   9   4   14.40    0.90
   3   9   4    3.10    0.50
   4   9   4   15.70    1.00
   5   9   4    0.30    0.40
   6   9   4   23.10    1.10
  -7  -9  -4   -0.20    0.20
   7   9   4   -0.20    0.30
  -8  -9  -4    6.10    0.60
   8   9   4    5.00    0.70
  -4  10   4    1.20    0.50
  -3  10   4    1.70    0.60
  -3  10   4    2.00    0.50
  -2  10   4   -0.60    0.50
  -1  10   4    3.10    0.60
   0  10   4   -0.20    0.40
   1  10   4   23.20    1.20
   2  10   4    7.80    0.80
   3  10   4   77.69    2.10
   4  10   4    2.10    0.50
   5  10   4   40.10    1.50
   6  10   4    9.10    0.90
   7  10   4   10.40    0.90
   8  10   4    0.00    0.40
  -3  11   4   -1.50    0.50
  -2  11   4    5.10    0.80
  -1  11   4    3.60    0.70
   0  11   4    5.50    0.80
   1  11   4    4.80    0.70
   2  11   4    7.90    0.90
   3  11   4    1.80    0.50
   4  11   4    5.70    0.70
   5  11   4    0.70    0.40
   6  11   4    7.30    0.90
  -1  12   4    3.10    0.70
   0  12   4    1.70    0.60
   1  12   4   10.60    1.00
   2  12   4    3.00    0.70
   3  12   4    2.90    0.60
   4  12   4   17.30    1.20
   5  12   4    3.70    1.10
   2  11  -5    0.10    0.50
   1  11  -5   -0.40    0.50
   0  11  -5   -0.30    0.50
  -1  11  -5   -0.70    0.50
  -5 -10   5   -0.20    0.30
   2  10  -5   -0.60    0.40
   1  10  -5    2.50    0.60
   0  10  -5    8.80    0.80
  -1  10  -5    3.60    0.60
  -2  10  -5   -0.10    0.40
  -3  10  -5    2.50    0.60
  -6  -9   5    0.10    0.30
  -5  -9   5    7.10    0.60
  -4  -9   5    8.70    0.60
   2   9  -5    2.00    0.50
   1   9  -5    8.00    0.70
   0   9  -5    1.70    0.50
  -1   9  -5   19.40    1.00
  -2   9  -5    1.80    0.50
  -3   9  -5   10.10    0.90
  -4   9  -5    2.10    0.50
  -5   9  -5    6.60    0.80
  -7  -8   5    0.30    0.30
  -6  -8   5   27.20    1.10
  -5  -8   5    6.10    0.60
  -4  -8   5   10.50    0.60
  -3  -8   5    1.90    0.30
   2   8  -5   12.00    0.80
   1   8  -5   29.40    1.10
   0   8  -5   -0.30    0.30
  -1   8  -5   22.60    1.00
  -2   8  -5    0.00    0.30
  -3   8  -5    1.90    0.50
  -4   8  -5   14.60    0.90
  -5   8  -5    6.90    0.70
  -6   8  -5   -0.10    0.40
  -8  -7   5    0.00    0.30
  -7  -7   5   16.70    0.90
  -6  -7   5   10.70    0.70
  -5  -7   5   24.50    1.00
  -4  -7   5    0.10    0.20
  -3  -7   5   18.40    0.70
  -3  -7   5   18.50    0.70
   2   7  -5   23.40    0.90
  -2  -7   5   23.00    0.70
  -2  -7   5   22.40    0.80
   1   7  -5    0.90    0.30
   0   7  -5   29.10    1.00
  -1   7  -5    0.80    0.30
  -2   7  -5   42.70    1.30
  -3   7  -5    2.60    0.50
  -4   7  -5   18.40    0.90
  -5   7  -5    4.10    0.60
  -6   7  -5    4.00    0.60
  -7   7  -5    1.00    0.40
  -8  -6   5   10.60    0.80
  -7  -6   5    8.90    0.80
  -6  -6   5   25.40    1.00
  -5  -6   5    5.20    0.50
  -4  -6   5   17.60    0.60
  -4  -6   5   16.60    0.80
  -3  -6   5  133.39    2.30
  -3  -6   5  127.89    2.20
   2   6  -5    7.30    0.50
  -2  -6   5    6.10    0.40
  -2  -6   5    6.60    0.50
   1   6  -5  107.89    2.00
  -1  -6   5  108.49    1.90
  -1  -6   5  106.29    1.70
   0   6  -5   21.20    0.80
  -1   6  -5   60.89    1.40
  -2   6  -5    3.40    0.40
  -3   6  -5  134.69    2.50
  -4   6  -5   12.40    0.70
  -5   6  -5   36.30    1.20
  -6   6  -5   12.90    0.80
  -7   6  -5    5.90    0.70
  -8   6  -5    2.30    0.50
  -9  -5   5    5.60    0.70
  -8  -5   5   10.60    0.80
  -7  -5   5    6.90    0.70
  -6  -5   5    3.10    0.50
  -5  -5   5    5.10    0.50
  -5  -5   5    5.20    0.40
  -4  -5   5  160.68    2.50
  -4  -5   5  160.48    2.80
  -3  -5   5   48.10    1.10
  -3  -5   5   49.40    1.20
   2   5  -5   80.49    1.50
  -2  -5   5   81.29    1.50
  -2  -5   5   81.39    1.50
   1   5  -5    0.10    0.20
  -1  -5   5    0.10    0.10
  -1  -5   5    0.10    0.20
   0   5  -5  126.49    2.10
   0  -5   5  129.49    2.20
  -1   5  -5    3.90    0.40
  -2   5  -5  222.58    3.40
  -3   5  -5    0.10    0.20
  -4   5  -5   10.50    0.70
  -5   5  -5    0.70    0.30
  -6   5  -5   12.80    0.80
  -7   5  -5    6.00    0.60
  -8   5  -5   -0.30    0.30
  -9  -4   5   13.30    1.00
  -8  -4   5   10.20    0.80
  -7  -4   5    6.20    0.60
  -6  -4   5   14.70    0.60
  -6  -4   5   15.90    0.80
  -5  -4   5   87.19    1.90
  -5  -4   5   83.69    1.50
  -4  -4   5   56.59    1.10
  -4  -4   5   57.89    1.40
  -3  -4   5   72.69    1.30
  -3  -4   5   73.19    1.50
   2   4  -5    0.00    0.20
  -2  -4   5    0.30    0.20
  -2  -4   5    0.10    0.10
   1   4  -5  195.68    2.90
  -1  -4   5  198.28    2.80
  -1  -4   5  193.08    2.90
   0   4  -5    3.70    0.30
   0  -4   5    3.70    0.30
   0  -4   5    3.40    0.20
  -1   4  -5  126.59    2.10
   1  -4   5  131.89    2.20
  -2   4  -5    4.00    0.40
  -3   4  -5    0.00    0.20
  -4   4  -5   30.30    1.00
  -5   4  -5    9.20    0.60
  -6   4  -5    1.40    0.30
  -7   4  -5   33.50    1.20
  -8   4  -5    0.50    0.30
  -9   4  -5    0.60    0.40
  -9  -3   5    0.10    0.30
  -8  -3   5   19.60    1.00
  -7  -3   5    4.10    0.40
  -7  -3   5    4.20    0.60
  -6  -3   5   87.69    2.00
  -6  -3   5   82.89    1.60
  -5  -3   5    0.30    0.20
  -5  -3   5    0.40    0.20
  -4  -3   5    6.00    0.30
  -4  -3   5    6.60    0.50
  -3  -3   5   11.50    0.50
  -3  -3   5   11.80    0.40
   2   3  -5   43.10    0.80
  -2  -3   5   42.80    0.90
  -2  -3   5   42.60    1.00
   1   3  -5   14.60    0.50
  -1  -3   5   14.50    0.50
  -1  -3   5   14.30    0.50
   0   3  -5  768.32    9.80
   0  -3   5  766.32    9.60
   0  -3   5  772.32    9.90
  -1   3  -5   25.90    0.70
   1  -3   5   27.00    0.70
  -2   3  -5    8.60    0.50
  -3   3  -5   30.70    0.90
  -4   3  -5  165.38    2.70
  -5   3  -5    0.20    0.20
  -6   3  -5    3.90    0.50
  -7   3  -5    0.00    0.30
  -8   3  -5   15.60    0.80
  -9   3  -5    0.20    0.30
  -9  -2   5    1.90    0.50
  -8  -2   5    2.00    0.40
  -8  -2   5    1.70    0.40
  -7  -2   5   32.90    1.20
  -7  -2   5   33.20    0.90
  -6  -2   5   20.10    0.70
  -6  -2   5   19.70    0.90
  -5  -2   5    3.70    0.30
  -5  -2   5    3.40    0.40
  -4  -2   5   19.30    0.60
  -4  -2   5   18.50    0.70
  -3  -2   5   31.00    0.70
  -3  -2   5   30.30    0.90
   2   2  -5   52.39    0.90
  -2  -2   5   53.59    1.00
  -2  -2   5   51.89    1.10
   1   2  -5   30.30    0.60
  -1  -2   5   29.90    0.70
  -1  -2   5   29.60    0.70
   0   2  -5   76.79    1.30
   0  -2   5   78.69    1.20
   0  -2   5   78.69    1.30
  -1   2  -5    1.50    0.20
   1  -2   5    1.40    0.20
  -2   2  -5   34.70    0.90
   2  -2   5   34.00    0.80
  -6   2  -5    1.00    0.30
  -7   2  -5    7.60    0.60
  -8   2  -5    3.20    0.50
  -9   2  -5   30.20    1.10
 -10   2  -5    1.00    0.40
  -9  -1   5   -0.20    0.30
  -8  -1   5    6.80    0.50
  -7  -1   5    1.40    0.30
  -6  -1   5   37.30    1.00
  -5  -1   5    1.60    0.30
  -4  -1   5  160.88    2.50
  -3  -1   5    2.00    0.20
   2   1  -5  842.72   10.30
  -2  -1   5  825.12   10.60
   1   1  -5    0.20    0.10
  -1  -1   5    0.30    0.10
   0  -1   5    2.10    0.20
   0  -1   5    2.40    0.20
   0  -1   5    2.80    0.20
   1  -1   5  129.79    2.00
   1  -1   5  132.09    2.00
   2  -1   5  793.92   10.10
   2  -1   5  786.72   10.20
   3  -1   5   76.79    1.50
   4  -1   5    8.60    0.50
   5  -1   5   31.40    1.00
   6  -1   5  199.78    3.30
   7  -1   5    2.00    0.40
  -9   1  -5    7.60    0.60
 -10   1  -5    2.50    0.50
  -9   0   5   20.00    0.90
  -8   0   5    0.30    0.30
  -7   0   5   17.30    0.80
  -6   0   5    0.10    0.20
  -5   0   5   64.39    1.30
  -4   0   5    0.10    0.20
  -3   0   5    3.30    0.30
  -2   0   5    0.10    0.10
  -1   0   5  109.69    1.60
  -1   0   5  112.29    1.70
   0   0   5   93.19    1.50
   0   0   5   94.79    1.50
   1   0   5  401.76    5.30
   1   0   5  406.16    5.40
   2   0   5    1.20    0.20
   2   0   5    1.00    0.20
   3   0   5   19.70    0.60
   3   0   5   20.70    0.70
  -4   0  -5    0.10    0.10
   4   0   5    0.00    0.20
   5   0   5   28.80    0.90
   6   0   5   22.10    0.80
   7   0   5   50.49    1.40
   8   0   5    0.40    0.30
   9   0   5    4.80    0.60
  -9   1   5    2.30    0.40
  -8   1   5   90.99    2.00
  -7   1   5    1.40    0.30
  -6   1   5   98.99    1.90
  -5   1   5   12.40    0.60
  -4   1   5  105.09    1.90
  -3   1   5    2.40    0.30
  -2   1   5    3.80    0.30
  -2   1   5    3.20    0.20
  -1   1   5    7.90    0.30
  -1   1   5    8.30    0.30
   0   1   5  105.79    1.70
   0   1   5  106.19    1.60
   1   1   5   44.50    0.90
   1   1   5   43.80    0.80
   2   1   5   83.49    1.30
   2   1   5   84.49    1.50
   3   1   5  168.98    2.40
   3   1   5  170.78    2.70
  -4  -1  -5   42.30    0.70
   4   1   5   40.20    1.10
  -5  -1  -5   93.99    1.50
   5   1   5   96.19    1.90
   6   1   5   19.90    0.80
   7   1   5  122.59    2.40
   8   1   5    4.20    0.50
   9   1   5   17.30    0.90
  10   1   5   28.70    1.10
  -9   2   5   10.40    0.70
  -8   2   5    3.20    0.50
  -7   2   5   33.10    1.10
  -6   2   5    2.90    0.40
  -5   2   5   22.60    0.80
  -4   2   5    7.10    0.40
  -3   2   5    2.70    0.30
  -2   2   5   10.30    0.40
  -2   2   5   10.60    0.40
  -1   2   5   89.09    1.40
  -1   2   5   86.49    1.40
   0   2   5  206.78    3.00
   0   2   5  211.78    2.90
   1   2   5   74.99    1.20
   1   2   5   72.29    1.40
   2   2   5   37.30    0.90
   2   2   5   38.30    0.70
   3   2   5   98.49    1.50
   3   2   5  101.09    1.80
  -4  -2  -5   19.80    0.40
   4   2   5   19.20    0.70
  -5  -2  -5   71.99    1.20
   5   2   5   72.79    1.60
  -6  -2  -5    0.20    0.20
   6   2   5    0.00    0.20
   7   2   5   13.30    0.70
   8   2   5   21.40    0.90
   9   2   5   22.70    1.00
  10   2   5    1.50    0.40
  -9   3   5    0.40    0.30
  -8   3   5    4.80    0.60
  -7   3   5   14.10    0.80
  -6   3   5    8.50    0.60
  -5   3   5    4.80    0.50
  -4   3   5    4.70    0.40
  -3   3   5   10.10    0.50
  -3   3   5   10.60    0.60
  -2   3   5    2.70    0.30
  -2   3   5    2.30    0.30
  -1   3   5   95.39    1.60
  -1   3   5   94.59    1.60
   0   3   5  129.59    2.10
   0   3   5  127.09    1.90
   1   3   5  183.78    2.80
   1   3   5  181.38    2.50
   2   3   5   20.20    0.70
   2   3   5   19.40    0.50
   3   3   5  236.58    3.20
  -4  -3  -5   28.50    0.60
   4   3   5   28.40    0.90
  -5  -3  -5  129.29    2.00
   5   3   5  128.29    2.40
  -6  -3  -5   94.49    1.60
   6   3   5   97.99    2.00
   7   3   5    8.50    0.60
   8   3   5  115.89    2.40
   9   3   5   15.00    0.90
  10   3   5    9.60    0.70
  -8   4   5    2.20    0.50
  -7   4   5    1.00    0.30
  -6   4   5   18.30    0.90
  -5   4   5    2.30    0.40
  -4   4   5   14.80    0.70
  -3   4   5    0.50    0.20
  -3   4   5    0.80    0.30
  -2   4   5  107.69    1.80
  -2   4   5  104.79    1.80
  -1   4   5    3.10    0.30
  -1   4   5    3.80    0.30
   0   4   5  124.99    2.10
   0   4   5  128.09    1.90
   1   4   5   32.20    0.70
   1   4   5   30.50    0.90
   2   4   5   19.50    0.70
   2   4   5   19.70    0.50
   3   4   5   28.10    0.90
   3   4   5   28.50    0.60
  -4  -4  -5    2.30    0.20
   4   4   5    2.10    0.30
  -5  -4  -5   49.80    1.00
   5   4   5   49.60    1.30
  -6  -4  -5    0.10    0.20
   6   4   5    0.10    0.30
  -7  -4  -5   45.00    1.10
   7   4   5   44.50    1.30
   8   4   5    0.10    0.30
   9   4   5    6.20    0.70
  10   4   5    1.40    0.40
  -8   5   5    7.30    0.70
  -7   5   5    0.20    0.30
  -6   5   5   10.10    0.70
  -5   5   5    4.00    0.50
  -4   5   5    0.90    0.30
  -3   5   5   26.80    0.80
  -3   5   5   25.60    0.90
  -2   5   5   11.20    0.60
  -2   5   5   11.00    0.60
  -1   5   5   13.20    0.60
  -1   5   5   13.60    0.50
   0   5   5   16.50    0.50
   0   5   5   16.20    0.70
   1   5   5   90.99    1.40
   1   5   5   90.29    1.80
   2   5   5   10.90    0.60
   2   5   5   11.40    0.30
   3   5   5   32.10    1.00
   4   5   5   29.10    1.00
  -5  -5  -5   33.00    0.80
   5   5   5   33.00    1.10
  -6  -5  -5   27.40    0.80
   6   5   5   27.60    1.00
  -7  -5  -5  102.09    1.90
   7   5   5  107.99    2.30
   8   5   5   14.30    0.80
   9   5   5   19.30    1.00
  10   5   5    1.50    0.50
  -7   6   5    1.80    0.50
  -6   6   5    3.40    0.50
  -5   6   5    3.50    0.50
  -4   6   5   25.30    1.00
  -3   6   5    9.70    0.70
  -3   6   5    8.30    0.60
  -2   6   5    0.90    0.40
  -2   6   5    1.50    0.30
  -1   6   5    1.00    0.30
  -1   6   5    0.70    0.30
   0   6   5   77.09    1.70
   0   6   5   75.39    1.40
   1   6   5    0.00    0.20
   1   6   5    0.10    0.10
   2   6   5    7.80    0.60
   3   6   5    1.10    0.30
   4   6   5    0.20    0.20
   5   6   5    0.40    0.30
  -6  -6  -5   49.80    1.10
   6   6   5   52.19    1.50
  -7  -6  -5    0.20    0.20
   7   6   5    0.30    0.30
  -8  -6  -5    6.30    0.50
   8   6   5    6.80    0.70
   9   6   5    0.80    0.40
  10   6   5   26.20    1.20
  -7   7   5    2.70    0.60
  -6   7   5    0.20    0.40
  -5   7   5    1.40    0.40
  -4   7   5    5.90    0.60
  -3   7   5   -0.10    0.30
  -3   7   5   -0.50    0.30
  -2   7   5    4.40    0.50
  -2   7   5    5.10    0.50
  -1   7   5   58.79    1.50
  -1   7   5   58.99    1.30
   0   7   5    0.30    0.20
   0   7   5    0.60    0.40
   1   7   5   44.70    1.30
   2   7   5    1.20    0.40
   3   7   5   61.59    1.60
   4   7   5    0.20    0.30
   5   7   5   46.90    1.40
  -6  -7  -5   12.70    0.60
   6   7   5   12.60    0.80
  -7  -7  -5    2.90    0.40
   7   7   5    2.90    0.50
  -8  -7  -5    0.20    0.30
   8   7   5    0.30    0.40
   9   7   5    8.60    0.80
  -6   8   5   10.00    0.90
  -5   8   5   -0.20    0.30
  -4   8   5   27.50    1.10
  -3   8   5    0.90    0.40
  -3   8   5    0.40    0.40
  -2   8   5   32.40    1.20
  -2   8   5   33.00    1.00
  -1   8   5    2.60    0.50
  -1   8   5    3.10    0.40
   0   8   5    2.00    0.50
   1   8   5    1.20    0.40
   2   8   5   14.60    0.80
   3   8   5    0.60    0.40
   4   8   5   70.99    1.90
   5   8   5    3.20    0.50
   6   8   5    0.30    0.40
  -7  -8  -5    2.30    0.40
   7   8   5    2.70    0.50
  -8  -8  -5    5.80    0.50
   8   8   5    6.50    0.70
   9   8   5    0.50    0.40
  -5   9   5    2.10    0.50
  -4   9   5    1.50    0.40
  -3   9   5   10.30    0.90
  -3   9   5   11.40    0.80
  -2   9   5    1.60    0.40
  -2   9   5    1.00    0.50
  -1   9   5    1.30    0.50
   0   9   5    1.60    0.50
   1   9   5   -0.10    0.30
   2   9   5    1.10    0.40
   3   9   5    1.80    0.50
   4   9   5    4.10    0.70
   5   9   5    0.90    0.40
   6   9   5    1.50    0.50
   7   9   5   12.50    0.90
  -8  -9  -5   -0.20    0.30
   8   9   5    0.80    0.40
  -4  10   5    0.90    0.40
  -3  10   5    1.00    0.40
  -2  10   5    0.10    0.50
  -1  10   5    5.50    0.70
   0  10   5    7.00    0.80
   1  10   5    2.30    0.50
   2  10   5    5.20    0.70
   3  10   5    4.40    0.70
   4  10   5    0.20    0.40
   5  10   5   15.70    1.10
   6  10   5    7.00    0.80
   7  10   5    1.20    0.50
  -2  11   5    0.20    0.50
  -1  11   5    0.40    0.50
   0  11   5    0.60    0.50
   1  11   5    0.70    0.50
   2  11   5    1.20    0.50
   3  11   5    0.90    0.50
   4  11   5    1.70    0.60
   5  11   5    8.30    0.90
   6  11   5    3.70    0.70
   0  12   5    1.10    0.60
   1  12   5    1.50    0.60
   2  12   5    3.60    0.70
   3  12   5    2.60    0.60
   4  12   5    4.30    0.90
   1  10  -6    3.00    0.60
   0  10  -6    2.70    0.60
  -1  10  -6    0.30    0.40
  -2  10  -6    1.80    0.60
  -5  -9   6    2.30    0.40
  -4  -9   6   32.40    1.10
   2   9  -6    0.60    0.50
   1   9  -6    3.90    0.60
   0   9  -6    6.90    0.70
  -1   9  -6    2.60    0.50
  -2   9  -6   -0.60    0.40
  -3   9  -6    3.40    0.60
  -4   9  -6    1.50    0.50
  -6  -8   6    0.70    0.40
  -5  -8   6    8.80    0.70
  -4  -8   6    4.80    0.50
  -3  -8   6   10.40    0.60
   2   8  -6    9.60    0.70
   1   8  -6   16.70    0.90
   0   8  -6    8.50    0.70
  -1   8  -6    3.50    0.50
  -2   8  -6    6.50    0.70
  -3   8  -6    4.90    0.60
  -4   8  -6   16.70    1.00
  -5   8  -6    0.80    0.40
  -7  -7   6    2.40    0.50
  -6  -7   6   24.60    1.10
  -5  -7   6    6.80    0.60
  -4  -7   6   -0.20    0.20
  -3  -7   6    6.40    0.50
  -3  -7   6    6.60    0.50
   2   7  -6   51.89    1.30
  -2  -7   6   51.19    1.30
  -2  -7   6   53.09    1.20
   1   7  -6    2.60    0.40
   0   7  -6   47.40    1.30
  -1   7  -6   11.60    0.70
  -2   7  -6   35.30    1.20
  -3   7  -6    7.70    0.70
  -4   7  -6    6.70    0.70
  -5   7  -6    4.40    0.60
  -6   7  -6    0.50    0.40
  -8  -6   6    2.10    0.50
  -7  -6   6   10.90    0.80
  -6  -6   6   10.20    0.80
  -5  -6   6   52.19    1.40
  -4  -6   6   -0.20    0.20
  -4  -6   6    0.30    0.20
  -3  -6   6   92.39    1.80
  -3  -6   6   91.79    1.80
   2   6  -6   23.30    0.80
  -2  -6   6   23.90    0.80
  -2  -6   6   25.50    0.70
   1   6  -6    7.30    0.50
  -1  -6   6    6.70    0.40
  -1  -6   6    7.70    0.50
   0   6  -6   11.10    0.60
   0  -6   6   13.00    0.70
  -1   6  -6    2.10    0.40
  -2   6  -6   32.00    1.10
  -3   6  -6    0.20    0.30
  -4   6  -6    2.90    0.50
  -5   6  -6    0.20    0.30
  -6   6  -6   56.89    1.60
  -7   6  -6    2.00    0.50
  -8  -5   6    5.80    0.70
  -7  -5   6    8.60    0.80
  -6  -5   6    3.40    0.50
  -5  -5   6    0.90    0.20
  -5  -5   6    0.00    0.30
  -4  -5   6   70.99    1.60
  -4  -5   6   70.79    1.40
  -3  -5   6    2.90    0.40
  -3  -5   6    3.10    0.40
   2   5  -6   89.19    1.70
  -2  -5   6   88.59    1.60
  -2  -5   6   91.79    1.70
   1   5  -6   24.10    0.80
  -1  -5   6   23.50    0.60
  -1  -5   6   23.30    0.80
   0   5  -6   43.60    1.10
   0  -5   6   44.80    1.10
  -1   5  -6   78.89    1.60
  -2   5  -6    4.80    0.50
  -3   5  -6  122.59    2.30
  -4   5  -6    6.50    0.60
  -5   5  -6   40.30    1.30
  -6   5  -6   -0.10    0.30
  -7   5  -6    7.70    0.70
  -8   5  -6    0.30    0.30
  -8  -4   6    8.10    0.80
  -7  -4   6   15.40    0.90
  -6  -4   6    1.40    0.30
  -6  -4   6    1.20    0.40
  -5  -4   6   24.30    0.80
  -5  -4   6   25.50    1.00
  -4  -4   6  150.68    2.70
  -4  -4   6  151.08    2.40
  -3  -4   6    7.40    0.40
  -3  -4   6    7.30    0.50
   2   4  -6   24.50    0.70
  -2  -4   6   24.20    0.70
  -2  -4   6   24.40    0.70
   1   4  -6    5.70    0.40
  -1  -4   6    6.00    0.40
  -1  -4   6    5.80    0.30
   0   4  -6   44.90    1.00
   0  -4   6   43.00    0.80
   0  -4   6   46.50    1.10
  -1   4  -6    0.00    0.20
   1  -4   6    0.10    0.20
  -2   4  -6   97.69    1.90
  -3   4  -6    8.70    0.60
  -4   4  -6  289.57    4.40
  -5   4  -6   15.90    0.80
  -6   4  -6   69.09    1.70
  -7   4  -6    1.90    0.40
  -8   4  -6    9.70    0.80
  -9   4  -6    0.00    0.30
  -9  -3   6    6.60    0.80
  -8  -3   6    0.50    0.40
  -7  -3   6    0.10    0.30
  -7  -3   6   -0.10    0.20
  -6  -3   6    0.20    0.20
  -6  -3   6    0.10    0.30
  -5  -3   6   31.60    1.10
  -5  -3   6   30.10    0.80
  -4  -3   6    2.30    0.40
  -4  -3   6    1.60    0.30
  -3  -3   6   91.19    1.70
  -3  -3   6   90.09    1.60
   2   3  -6    0.30    0.20
  -2  -3   6    0.40    0.20
  -2  -3   6    0.50    0.20
   1   3  -6  147.29    2.20
  -1  -3   6  143.89    2.30
  -1  -3   6  143.49    2.20
   0   3  -6    0.50    0.20
   0  -3   6    0.80    0.20
   0  -3   6    0.40    0.10
  -1   3  -6  197.68    3.00
   1  -3   6  198.18    3.00
  -2   3  -6    2.40    0.30
   2  -3   6    1.90    0.30
  -3   3  -6   33.20    1.00
  -4   3  -6    4.00    0.40
  -5   3  -6   15.40    0.80
  -6   3  -6    0.40    0.30
  -7   3  -6   35.30    1.20
  -8   3  -6    0.60    0.30
  -9   3  -6    1.20    0.40
  -9  -2   6    0.80    0.40
  -8  -2   6    6.40    0.50
  -8  -2   6    6.50    0.70
  -7  -2   6    3.80    0.60
  -7  -2   6    3.70    0.40
  -6  -2   6  100.09    1.90
  -6  -2   6   99.79    2.20
  -5  -2   6    4.70    0.40
  -5  -2   6    4.10    0.50
  -4  -2   6   11.70    0.50
  -4  -2   6   11.10    0.60
  -3  -2   6    2.60    0.30
  -3  -2   6    2.80    0.30
   2   2  -6   66.29    1.10
  -2  -2   6   68.79    1.30
  -2  -2   6   68.29    1.30
   1   2  -6    6.30    0.30
  -1  -2   6    5.80    0.30
  -1  -2   6    5.80    0.40
   0   2  -6  211.38    3.00
   0  -2   6  208.38    2.80
   0  -2   6  214.28    3.10
  -1   2  -6   38.90    0.90
   2  -2   6   26.30    0.80
  -7   2  -6    4.40    0.50
  -8   2  -6   20.30    0.90
  -9   2  -6    1.10    0.40
  -9  -1   6    2.50    0.40
  -9  -1   6    2.00    0.50
  -8  -1   6    2.50    0.40
  -7  -1   6   45.30    1.20
  -6  -1   6    9.40    0.50
  -5  -1   6   15.10    0.60
  -4  -1   6    3.80    0.30
  -3  -1   6   55.69    1.10
   2   1  -6   27.10    0.60
  -2  -1   6   29.40    0.70
   1   1  -6  119.19    1.80
  -1  -1   6  119.09    1.90
   0  -1   6   32.60    0.80
   0  -1   6   32.20    0.60
   0  -1   6   32.60    0.80
   1  -1   6   29.80    0.70
   1  -1   6   28.50    0.80
   2  -1   6   71.39    1.40
   2  -1   6   70.39    1.30
   3  -1   6   43.20    1.10
   3  -1   6   41.60    1.00
   4  -1   6    0.10    0.20
   5  -1   6   44.50    1.20
   6  -1   6    9.60    0.70
   7  -1   6    0.40    0.30
 -10   1  -6    0.80    0.40
  -9   0   6    0.40    0.30
  -8   0   6    7.70    0.60
  -7   0   6    0.90    0.30
  -6   0   6    5.30    0.50
  -5   0   6    0.50    0.20
  -4   0   6   56.49    1.20
  -3   0   6    1.40    0.30
  -2   0   6   65.79    1.20
  -1   0   6    5.90    0.30
  -1   0   6    7.40    0.40
   0   0   6   56.49    1.10
   0   0   6   55.49    1.10
   1   0   6    2.00    0.20
   1   0   6    1.90    0.30
   2   0   6  325.37    4.50
   2   0   6  333.07    4.60
   3   0   6   13.00    0.50
   3   0   6   13.00    0.60
   4   0   6   60.29    1.40
   5   0   6    2.00    0.30
   6   0   6   68.09    1.60
   7   0   6    3.10    0.50
   8   0   6    7.50    0.70
   9   0   6    1.60    0.40
  -9   1   6    2.90    0.50
  -8   1   6    3.60    0.50
  -7   1   6   -0.50    0.20
  -6   1   6   10.50    0.60
  -5   1   6  108.89    2.00
  -4   1   6   38.30    1.00
  -3   1   6  320.67    4.50
  -2   1   6   32.80    0.70
  -2   1   6   32.80    0.80
  -1   1   6  305.37    4.10
  -1   1   6  301.37    4.10
   0   1   6   94.89    1.50
   0   1   6   94.79    1.60
   1   1   6  135.29    2.00
   1   1   6  136.99    2.20
   2   1   6   24.20    0.80
   2   1   6   25.40    0.60
   3   1   6    9.40    0.40
   3   1   6    9.80    0.50
   4   1   6   32.50    1.00
   5   1   6   15.10    0.70
   6   1   6   24.60    0.90
   7   1   6   70.39    1.70
   8   1   6    0.30    0.30
   9   1   6    1.50    0.40
  10   1   6   26.80    1.20
  -8   2   6    7.80    0.70
  -7   2   6    0.50    0.30
  -6   2   6   34.50    1.10
  -5   2   6    9.60    0.60
  -4   2   6   64.29    1.40
  -3   2   6   18.30    0.70
  -2   2   6   77.29    1.30
  -2   2   6   75.49    1.40
  -1   2   6    4.90    0.30
  -1   2   6    5.10    0.30
   0   2   6  763.82    9.90
   0   2   6  795.92   10.00
   1   2   6   19.40    0.70
   1   2   6   19.80    0.50
   2   2   6   14.20    0.40
   2   2   6   13.40    0.60
   3   2   6   21.20    0.60
   3   2   6   20.20    0.70
   4   2   6    1.40    0.30
   4   2   6    1.90    0.20
   5   2   6    1.80    0.30
   6   2   6    1.90    0.40
   7   2   6    5.60    0.60
   8   2   6    0.00    0.30
   9   2   6    6.80    0.70
  10   2   6    2.20    0.50
  -8   3   6    0.50    0.30
  -7   3   6   55.09    1.50
  -6   3   6    4.70    0.50
  -5   3   6   81.79    1.80
  -4   3   6   23.20    0.80
  -3   3   6  127.69    2.20
  -2   3   6   42.00    1.00
  -2   3   6   41.60    0.90
  -1   3   6   71.49    1.30
  -1   3   6   74.59    1.40
   0   3   6   99.59    1.80
   0   3   6   99.09    1.60
   1   3   6    4.90    0.30
   1   3   6    4.30    0.40
   2   3   6   21.60    0.50
   2   3   6   21.70    0.70
   3   3   6    4.60    0.30
   4   3   6   99.69    2.00
   4   3   6  103.39    1.60
   5   3   6    3.20    0.40
   6   3   6   66.89    1.60
   7   3   6   11.20    0.70
   8   3   6  142.59    2.80
   9   3   6    0.40    0.40
  10   3   6    0.40    0.40
  -8   4   6    3.20    0.50
  -7   4   6    5.80    0.60
  -6   4   6   14.00    0.80
  -5   4   6    3.30    0.40
  -4   4   6   39.70    1.10
  -3   4   6    8.40    0.50
  -2   4   6   69.29    1.40
  -2   4   6   66.69    1.40
  -1   4   6   44.30    1.10
  -1   4   6   44.00    1.00
   0   4   6    1.00    0.20
   0   4   6    0.90    0.30
   1   4   6  123.79    1.90
   1   4   6  123.49    2.20
   2   4   6    2.00    0.20
   2   4   6    1.90    0.30
   3   4   6    1.10    0.20
   3   4   6    0.90    0.30
   4   4   6    1.20    0.30
  -5  -4  -6    5.40    0.40
   5   4   6    5.60    0.50
   6   4   6    3.20    0.50
   7   4   6    2.30    0.50
   8   4   6    1.90    0.40
   9   4   6    6.70    0.70
  10   4   6    2.20    0.50
  -7   5   6    1.40    0.40
  -6   5   6    9.30    0.70
  -5   5   6    9.40    0.70
  -4   5   6    5.90    0.60
  -3   5   6   12.90    0.70
  -2   5   6   74.29    1.50
  -2   5   6   75.29    1.50
  -1   5   6    3.30    0.40
  -1   5   6    3.10    0.30
   0   5   6   27.20    0.90
   0   5   6   28.40    0.70
   1   5   6    0.70    0.20
   1   5   6    1.00    0.30
   2   5   6  198.38    2.80
   2   5   6  202.58    3.30
   3   5   6   13.50    0.70
   4   5   6   78.79    1.80
   5   5   6    3.80    0.50
   6   5   6   56.99    1.60
   7   5   6    6.90    0.70
   8   5   6    0.20    0.30
   9   5   6    0.80    0.40
  10   5   6    6.30    0.70
  -7   6   6    0.60    0.40
  -6   6   6    1.90    0.40
  -5   6   6   14.30    0.80
  -4   6   6    0.80    0.30
  -3   6   6   31.90    1.00
  -2   6   6    4.10    0.50
  -2   6   6    4.20    0.40
  -1   6   6    1.30    0.30
  -1   6   6    1.70    0.40
   0   6   6   22.40    0.70
   0   6   6   24.90    0.90
   1   6   6    1.80    0.40
   1   6   6    1.10    0.20
   2   6   6    3.60    0.50
   3   6   6   11.70    0.70
   4   6   6    1.70    0.40
   5   6   6    0.80    0.30
   6   6   6    1.80    0.40
   7   6   6    0.90    0.40
   8   6   6    0.80    0.40
   9   6   6    1.40    0.40
  -6   7   6   -0.10    0.30
  -5   7   6    1.40    0.40
  -4   7   6    6.90    0.60
  -3   7   6    5.90    0.60
  -2   7   6    6.20    0.60
  -2   7   6    6.50    0.50
  -1   7   6    2.60    0.40
  -1   7   6    2.40    0.40
   0   7   6   67.09    1.70
   0   7   6   69.19    1.40
   1   7   6    1.90    0.40
   2   7   6   10.70    0.70
   3   7   6    0.20    0.30
   4   7   6    9.80    0.70
   5   7   6    1.30    0.40
   6   7   6   35.90    1.30
   7   7   6    0.20    0.30
   8   7   6   25.80    1.20
   9   7   6    0.20    0.40
  -6   8   6    0.40    0.40
  -5   8   6    2.00    0.50
  -4   8   6    0.70    0.40
  -3   8   6    0.10    0.30
  -2   8   6    0.40    0.40
  -2   8   6    0.20    0.30
  -1   8   6   10.60    0.60
  -1   8   6   10.80    0.80
   0   8   6    0.10    0.30
   1   8   6   22.20    1.00
   2   8   6    0.40    0.30
   3   8   6    9.10    0.80
   4   8   6   11.50    0.80
   5   8   6    8.00    0.80
   6   8   6    0.30    0.40
   7   8   6    1.80    0.50
   8   8   6    0.90    0.50
   9   8   6    6.80    0.80
  -5   9   6    0.80    0.40
  -4   9   6    1.50    0.40
  -3   9   6    1.30    0.40
  -2   9   6   14.70    1.00
  -2   9   6   14.00    0.80
  -1   9   6    0.60    0.40
   0   9   6   12.20    0.90
   1   9   6   -0.30    0.30
   2   9   6   18.90    1.00
   3   9   6    7.50    0.80
   4   9   6   36.00    1.40
   5   9   6    3.10    0.60
   6   9   6    5.10    0.70
   7   9   6    0.60    0.40
   8   9   6    0.90    0.40
  -3  10   6   12.90    0.90
  -2  10   6    1.60    0.50
  -1  10   6    9.00    0.90
   0  10   6    1.10    0.40
   1  10   6    8.90    0.90
   2  10   6    5.20    0.70
   3  10   6    7.80    0.80
   4  10   6    0.40    0.40
   5  10   6    0.30    0.40
   6  10   6    1.70    0.50
   7  10   6    0.90    0.50
  -2  11   6    1.70    0.60
  -1  11   6    1.80    0.50
   0  11   6    1.90    0.60
   1  11   6    1.50    0.50
   2  11   6    0.10    0.40
   3  11   6    2.00    0.60
   4  11   6    1.70    0.60
   5  11   6    0.60    0.50
   1  12   6    2.20    0.60
   2  12   6    1.30    0.60
   0  10  -7   10.80    0.90
   1   9  -7   11.70    0.90
   0   9  -7    1.60    0.50
  -1   9  -7   12.00    0.90
  -2   9  -7    0.80    0.40
  -3   9  -7   14.10    1.00
  -5  -8   7    3.00    0.50
   1   8  -7   16.40    0.90
   0   8  -7    4.00    0.60
  -1   8  -7   11.10    0.80
  -2   8  -7    1.70    0.50
  -3   8  -7    1.50    0.50
  -4   8  -7    6.10    0.70
  -5   8  -7    4.70    0.70
  -6  -7   7   11.00    0.80
  -5  -7   7   -0.20    0.30
  -4  -7   7    1.40    0.40
  -3  -7   7    2.00    0.40
  -2  -7   7   14.10    0.70
   1   7  -7   12.00    0.70
  -1  -7   7   13.00    0.70
   0   7  -7   10.10    0.70
  -1   7  -7   27.60    1.10
  -2   7  -7   14.80    0.90
  -3   7  -7    1.00    0.40
  -4   7  -7   30.60    1.20
  -5   7  -7    5.50    0.70
  -6   7  -7    0.70    0.50
  -7  -6   7    5.70    0.70
  -6  -6   7    0.20    0.30
  -5  -6   7   12.30    0.80
  -4  -6   7    3.90    0.50
  -4  -6   7    4.80    0.50
  -3  -6   7   65.29    1.50
  -2  -6   7    4.20    0.50
   1   6  -7    3.70    0.50
  -1  -6   7    4.60    0.50
   0   6  -7    7.00    0.60
   0  -6   7    6.60    0.60
  -1   6  -7    0.10    0.30
  -2   6  -7   14.30    0.80
  -3   6  -7   12.60    0.80
  -4   6  -7    1.20    0.40
  -5   6  -7    6.30    0.70
  -6   6  -7    1.00    0.40
  -7   6  -7    2.10    0.50
  -7  -5   7    0.10    0.30
  -6  -5   7    5.60    0.60
  -5  -5   7    1.60    0.30
  -5  -5   7    1.00    0.30
  -4  -5   7   16.70    0.70
  -4  -5   7   15.30    0.80
  -3  -5   7    2.50    0.40
  -3  -5   7    1.80    0.30
  -2  -5   7   20.70    0.80
   1   5  -7   55.49    1.30
  -1  -5   7   55.29    1.30
   0   5  -7   16.00    0.70
   0  -5   7   15.50    0.70
  -1   5  -7   53.69    1.30
   1  -5   7   53.59    1.30
  -2   5  -7   30.40    1.00
  -3   5  -7   62.59    1.60
  -4   5  -7   10.80    0.70
  -5   5  -7    7.90    0.70
  -6   5  -7   25.30    1.10
  -7   5  -7    0.00    0.30
  -8   5  -7    6.00    0.80
  -8  -4   7    0.10    0.30
  -7  -4   7   16.00    1.00
  -6  -4   7    0.30    0.20
  -6  -4   7   -0.10    0.30
  -5  -4   7   27.10    1.00
  -5  -4   7   29.90    0.90
  -4  -4   7    7.80    0.60
  -4  -4   7    8.70    0.50
  -3  -4   7   -0.10    0.20
  -3  -4   7   -0.30    0.20
  -2  -4   7    0.20    0.20
  -2  -4   7    0.20    0.20
   1   4  -7    7.00    0.50
  -1  -4   7    6.40    0.50
   0   4  -7    1.60    0.30
   0  -4   7    1.90    0.30
  -1   4  -7    2.20    0.40
   1  -4   7    2.20    0.40
  -2   4  -7    7.10    0.60
   2  -4   7    6.20    0.50
  -3   4  -7    2.30    0.40
  -4   4  -7    1.40    0.40
  -5   4  -7   19.20    0.90
  -6   4  -7    0.90    0.40
  -7   4  -7   26.10    1.10
  -8   4  -7    1.90    0.50
  -8  -3   7    5.70    0.70
  -7  -3   7    0.30    0.30
  -7  -3   7    0.20    0.30
  -6  -3   7    1.10    0.40
  -6  -3   7    0.70    0.30
  -5  -3   7    0.30    0.20
  -5  -3   7    0.20    0.30
  -4  -3   7    3.20    0.40
  -4  -3   7    4.30    0.40
  -3  -3   7   22.80    0.80
  -3  -3   7   23.20    0.70
  -2  -3   7    1.60    0.30
  -2  -3   7    2.10    0.30
   1   3  -7   21.20    0.60
  -1  -3   7   21.10    0.70
   0   3  -7   75.59    1.40
   0  -3   7   75.99    1.50
  -1   3  -7   17.70    0.70
   1  -3   7   17.60    0.70
  -2   3  -7    4.60    0.40
   2  -3   7    4.80    0.40
  -3   3  -7    4.10    0.40
  -4   3  -7  145.19    2.60
  -5   3  -7    4.70    0.50
  -6   3  -7    6.60    0.60
  -7   3  -7    0.40    0.40
  -8   3  -7   22.00    1.00
  -9   3  -7    1.00    0.40
  -8  -2   7    1.80    0.50
  -8  -2   7    1.80    0.40
  -7  -2   7    8.40    0.80
  -7  -2   7    7.90    0.60
  -6  -2   7    1.10    0.40
  -6  -2   7    1.40    0.30
  -5  -2   7   40.80    1.10
  -5  -2   7   42.00    1.30
  -4  -2   7    3.30    0.40
  -4  -2   7    4.50    0.40
  -3  -2   7  113.59    2.10
  -3  -2   7  109.89    1.90
  -2  -2   7    2.90    0.30
  -2  -2   7    2.90    0.30
   1   2  -7    9.00    0.40
  -1  -2   7    8.70    0.50
  -1  -2   7    9.00    0.40
   0   2  -7    2.30    0.30
   0  -2   7    2.30    0.30
  -1   2  -7   46.30    1.10
   1  -2   7   46.00    1.10
   2  -2   7    0.20    0.20
   3  -2   7  167.88    2.80
  -7   2  -7   36.00    1.30
  -8   2  -7    4.00    0.60
  -9   2  -7    9.20    0.80
  -8  -1   7   -0.20    0.30
  -7  -1   7    0.50    0.30
  -6  -1   7    7.30    0.50
  -5  -1   7    0.20    0.20
  -4  -1   7   19.00    0.70
  -3  -1   7    9.80    0.50
  -2  -1   7  191.98    2.90
   1   1  -7   20.70    0.60
  -1  -1   7   21.10    0.70
  -1  -1   7   19.90    0.60
   0  -1   7   87.29    1.60
   0  -1   7   90.09    1.60
   1  -1   7   13.20    0.50
   1  -1   7   12.40    0.60
   2  -1   7   43.50    1.00
   2  -1   7   42.70    1.10
   3  -1   7    2.90    0.40
   3  -1   7    2.90    0.40
   4  -1   7    0.10    0.20
   5  -1   7    0.90    0.30
   6  -1   7   39.00    1.20
   7  -1   7    0.00    0.30
  -8   0   7    0.70    0.30
  -7   0   7   31.00    1.00
  -6   0   7    0.20    0.20
  -5   0   7   16.80    0.70
  -4   0   7    0.10    0.20
  -3   0   7    0.80    0.20
  -2   0   7    7.80    0.40
  -1   0   7  122.59    1.90
  -1   0   7  122.29    2.00
   0   0   7   13.20    0.50
   0   0   7   15.60    0.50
   1   0   7  215.98    3.20
   1   0   7  213.98    3.10
   2   0   7   51.09    1.20
   2   0   7   50.89    1.10
   3   0   7   57.99    1.30
   3   0   7   55.69    1.20
   4   0   7    5.80    0.50
   5   0   7    8.00    0.60
   6   0   7   31.20    1.10
   7   0   7    3.90    0.50
   8   0   7    2.10    0.50
   9   0   7    7.10    0.70
  -8   1   7    4.00    0.50
  -7   1   7    0.00    0.30
  -6   1   7    0.30    0.30
  -5   1   7    4.20    0.50
  -4   1   7   16.50    0.70
  -3   1   7   23.20    0.70
  -2   1   7   17.00    0.60
  -1   1   7  123.49    2.00
  -1   1   7  127.49    2.00
   0   1   7    0.80    0.20
   0   1   7   -0.10    0.20
   1   1   7  156.18    2.50
   1   1   7  151.28    2.30
   2   1   7   27.00    0.80
   2   1   7   27.20    0.70
   3   1   7   13.50    0.50
   3   1   7   12.40    0.60
   4   1   7   71.99    1.40
   4   1   7   70.89    1.60
   5   1   7    9.00    0.60
   6   1   7   32.00    1.10
   7   1   7   41.50    1.30
   8   1   7    0.80    0.40
   9   1   7    5.80    0.70
  10   1   7    7.00    0.80
  -8   2   7    0.70    0.40
  -7   2   7    1.10    0.40
  -6   2   7    0.20    0.30
  -5   2   7   -0.10    0.20
  -4   2   7    0.60    0.30
  -3   2   7   14.70    0.60
  -2   2   7    1.50    0.30
  -1   2   7   44.80    1.00
  -1   2   7   44.90    1.00
   0   2   7  119.29    2.00
   0   2   7  117.99    1.90
   1   2   7  163.68    2.60
   1   2   7  159.18    2.40
   2   2   7    5.20    0.30
   2   2   7    5.10    0.50
   3   2   7  153.98    2.30
   3   2   7  150.68    2.60
   4   2   7   15.70    0.60
   4   2   7   17.10    0.80
   5   2   7   39.20    1.20
   6   2   7    0.40    0.30
   7   2   7   30.20    1.10
   8   2   7    0.40    0.30
   9   2   7    8.90    0.80
  10   2   7    8.80    0.80
  -8   3   7    1.90    0.50
  -7   3   7    3.80    0.50
  -6   3   7    0.40    0.30
  -5   3   7    7.20    0.60
  -4   3   7   13.20    0.70
  -3   3   7   29.50    0.90
  -2   3   7   31.40    0.90
  -1   3   7   43.30    1.00
  -1   3   7   42.20    1.00
   0   3   7  149.88    2.30
   0   3   7  147.89    2.40
   1   3   7    7.20    0.40
   1   3   7    6.70    0.50
   2   3   7   78.19    1.70
   2   3   7   79.19    1.40
   3   3   7  109.09    2.10
   3   3   7  107.29    1.70
   4   3   7   52.39    1.00
   4   3   7   51.09    1.40
   5   3   7   54.39    1.50
   6   3   7   26.10    1.00
   7   3   7    4.70    0.60
   8   3   7    1.30    0.40
   9   3   7    5.10    0.70
  10   3   7   -0.10    0.30
  -7   4   7    0.70    0.40
  -6   4   7   -0.20    0.30
  -5   4   7    0.30    0.30
  -4   4   7    1.80    0.40
  -3   4   7    9.30    0.60
  -2   4   7   21.40    0.80
  -1   4   7  178.48    2.70
  -1   4   7  172.78    2.80
   0   4   7   -0.10    0.20
   0   4   7    0.30    0.20
   1   4   7  193.28    3.10
   1   4   7  194.08    2.80
   2   4   7   11.90    0.40
   2   4   7   12.70    0.70
   3   4   7   78.09    1.70
   3   4   7   77.19    1.30
   4   4   7    3.90    0.50
   5   4   7   10.10    0.70
   6   4   7    0.30    0.30
   7   4   7   -0.40    0.30
   8   4   7   33.00    1.30
   9   4   7   -0.20    0.30
  10   4   7    1.00    0.50
  -7   5   7    0.20    0.30
  -6   5   7    5.00    0.60
  -5   5   7    1.30    0.40
  -4   5   7    7.90    0.60
  -3   5   7    7.40    0.60
  -2   5   7   15.00    0.70
  -1   5   7   14.20    0.70
  -1   5   7   15.00    0.60
   0   5   7    5.80    0.50
   0   5   7    4.70    0.40
   1   5   7   88.49    1.50
   1   5   7   87.69    1.90
   2   5   7    8.70    0.60
   2   5   7    8.20    0.40
   3   5   7   23.50    0.90
   4   5   7    3.80    0.50
   5   5   7   59.29    1.60
   6   5   7    3.90    0.50
   7   5   7   82.49    2.10
   8   5   7    1.90    0.50
   9   5   7   11.50    0.90
  -6   6   7    2.50    0.50
  -5   6   7    0.80    0.40
  -4   6   7    0.80    0.30
  -3   6   7    6.20    0.60
  -2   6   7    4.10    0.50
  -1   6   7    6.30    0.60
  -1   6   7    6.20    0.50
   0   6   7   36.20    0.90
   0   6   7   35.90    1.10
   1   6   7   17.30    0.60
   1   6   7   17.10    0.80
   2   6   7   30.80    1.10
   3   6   7    9.70    0.70
   4   6   7    2.90    0.50
   5   6   7    0.10    0.30
   6   6   7    8.90    0.80
   7   6   7    0.30    0.40
   8   6   7    0.60    0.40
   9   6   7    0.70    0.40
  -6   7   7    0.20    0.40
  -5   7   7    4.00    0.60
  -4   7   7   -0.10    0.30
  -3   7   7    9.90    0.70
  -2   7   7   -0.10    0.30
  -1   7   7   17.50    0.90
  -1   7   7   17.70    0.70
   0   7   7    0.80    0.20
   0   7   7    1.00    0.40
   1   7   7   10.20    0.80
   2   7   7    0.20    0.30
   3   7   7   61.69    1.70
   4   7   7    0.70    0.40
   5   7   7   45.20    1.50
   6   7   7    0.90    0.40
   7   7   7    3.70    0.60
   8   7   7    1.30    0.50
   9   7   7    1.30    0.50
  -5   8   7    0.10    0.30
  -4   8   7    4.30    0.60
  -3   8   7    0.60    0.30
  -2   8   7    1.10    0.40
  -1   8   7    0.90    0.30
  -1   8   7    1.50    0.40
   0   8   7    0.40    0.40
   1   8   7    1.60    0.50
   2   8   7    0.40    0.40
   3   8   7    0.50    0.40
   4   8   7    1.00    0.40
   5   8   7    0.30    0.40
   6   8   7    0.60    0.40
   7   8   7    0.40    0.40
   8   8   7    7.20    0.90
  -4   9   7    0.90    0.40
  -3   9   7    0.30    0.40
  -2   9   7    0.50    0.40
  -1   9   7    3.10    0.50
   0   9   7    1.10    0.40
   1   9   7   10.30    0.90
   2   9   7    1.10    0.40
   3   9   7    4.30    0.70
   4   9   7    4.00    0.60
   5   9   7    7.60    0.80
   6   9   7    0.60    0.40
   7   9   7   11.90    1.00
  -1  10   7    1.20    0.50
   0  10   7    3.00    0.60
   1  10   7    3.60    0.60
   2  10   7    3.90    0.60
   3  10   7    4.10    0.70
   4  10   7    5.10    0.70
   5  10   7    2.50    0.60
   6  10   7    3.00    0.70
  -1  11   7    2.60    0.60
   1  11   7    3.80    0.70
   2  11   7    1.20    0.50
   3  11   7   16.30    1.20
   4  11   7    1.50    0.50
   0   9  -8    5.50    0.70
  -1   9  -8    1.80    0.50
  -2   9  -8    1.10    0.50
  -2  -8   8    3.20    0.50
   0   8  -8    3.60    0.60
  -1   8  -8    4.80    0.60
  -2   8  -8    0.80    0.50
  -3   8  -8    2.40    0.50
  -4   8  -8    3.40    0.60
  -3  -7   8    0.70    0.30
  -2  -7   8    0.80    0.40
  -1  -7   8    6.90    0.70
   0   7  -8    0.70    0.40
  -1   7  -8   12.70    0.80
  -2   7  -8    3.30    0.50
  -3   7  -8    1.00    0.40
  -4   7  -8    8.70    0.80
  -5   7  -8    4.20    0.70
  -6  -6   8    7.40    0.70
  -4  -6   8    0.90    0.30
  -3  -6   8    0.60    0.30
  -2  -6   8   27.40    1.00
  -1  -6   8    6.80    0.60
   0   6  -8   15.90    0.80
   0  -6   8   16.00    0.80
  -1   6  -8    1.80    0.40
  -2   6  -8   16.00    0.90
  -3   6  -8   -0.50    0.30
  -4   6  -8    9.90    0.80
  -5   6  -8    1.00    0.40
  -6   6  -8    3.90    0.60
  -7  -5   8    5.30    0.70
  -6  -5   8    0.10    0.30
  -5  -5   8    5.40    0.50
  -5  -5   8    3.80    0.50
  -4  -5   8    2.40    0.40
  -3  -5   8   38.80    1.10
  -2  -5   8    0.30    0.30
  -1  -5   8   37.70    1.10
   0   5  -8    0.50    0.30
   0  -5   8    0.30    0.30
  -1   5  -8   37.00    1.10
   1  -5   8   38.30    1.20
  -2   5  -8   -0.30    0.30
  -3   5  -8   69.49    1.70
  -4   5  -8    0.10    0.30
  -5   5  -8   16.10    0.90
  -6   5  -8    4.30    0.60
  -7   5  -8    0.50    0.40
  -7  -4   8    1.40    0.40
  -6  -4   8    6.20    0.60
  -6  -4   8    7.60    0.60
  -5  -4   8    2.20    0.40
  -5  -4   8    2.80    0.40
  -4  -4   8   94.89    2.70
  -4  -4   8   94.49    1.90
  -3  -4   8   24.90    0.90
  -2  -4   8   33.60    1.00
  -1  -4   8   13.50    0.70
   0   4  -8    4.70    0.50
   0  -4   8    3.80    0.50
  -1   4  -8    5.90    0.50
   1  -4   8    4.80    0.50
  -2   4  -8   17.20    0.80
   2  -4   8   16.50    0.80
  -3   4  -8   -0.20    0.30
  -4   4  -8    1.00    0.40
  -5   4  -8    0.40    0.30
  -6   4  -8    8.90    0.80
  -7   4  -8    0.30    0.40
  -8   4  -8   -0.20    0.40
  -7  -3   8    2.50    0.40
  -7  -3   8    2.40    0.50
  -6  -3   8    0.20    0.30
  -6  -3   8    0.10    0.30
  -5  -3   8   19.60    0.80
  -5  -3   8   20.20    0.90
  -4  -3   8    0.00    0.20
  -4  -3   8    0.30    0.30
  -3  -3   8   26.50    0.90
  -2  -3   8    0.20    0.20
  -1  -3   8  132.39    2.30
   0   3  -8    1.80    0.30
   0  -3   8    2.40    0.40
  -1   3  -8   79.09    1.60
   1  -3   8   76.89    1.60
  -2   3  -8    2.10    0.40
   2  -3   8    1.50    0.30
  -3   3  -8    0.30    0.30
  -4   3  -8    5.00    0.60
  -5   3  -8    0.20    0.30
  -6   3  -8    3.90    0.60
  -7   3  -8   12.80    0.90
  -8   3  -8    0.30    0.40
  -8  -2   8    9.70    0.70
  -8  -2   8    8.00    0.80
  -7  -2   8   -0.40    0.20
  -7  -2   8   -0.10    0.30
  -6  -2   8   36.90    1.30
  -6  -2   8   35.90    1.10
  -5  -2   8    1.00    0.30
  -5  -2   8    1.10    0.40
  -4  -2   8    2.30    0.30
  -4  -2   8    1.20    0.30
  -3  -2   8    4.70    0.50
  -3  -2   8    5.80    0.50
  -2  -2   8    0.40    0.20
  -1  -2   8   11.80    0.60
   0   2  -8   26.10    0.80
   0  -2   8   25.10    0.80
  -1   2  -8    5.40    0.50
   1  -2   8    5.00    0.40
  -2   2  -8    0.60    0.30
   2  -2   8    0.40    0.30
   3  -2   8   19.60    0.80
  -6   2  -8    0.00    0.30
  -7   2  -8    3.10    0.60
  -8   2  -8    5.60    0.70
  -9   2  -8    0.60    0.40
  -8  -1   8    0.00    0.30
  -8  -1   8    0.20    0.40
  -7  -1   8    2.70    0.50
  -6  -1   8   -0.20    0.30
  -5  -1   8    0.80    0.30
  -4  -1   8    2.50    0.30
  -3  -1   8   44.20    1.10
  -2  -1   8    0.10    0.20
  -1  -1   8   11.90    0.60
   0  -1   8    6.40    0.40
   1  -1   8    6.10    0.50
   1  -1   8    6.00    0.50
   2  -1   8    1.00    0.30
   2  -1   8    0.20    0.30
   3  -1   8   73.59    1.50
   3  -1   8   73.29    1.60
   4  -1   8    3.70    0.50
   5  -1   8   51.09    1.40
   6  -1   8   -0.40    0.30
   7  -1   8    7.30    0.70
  -8   0   8    3.60    0.50
  -7   0   8    1.20    0.40
  -6   0   8    7.00    0.60
  -5   0   8    1.30    0.30
  -4   0   8   18.30    0.70
  -3   0   8    0.80    0.20
  -2   0   8   42.40    1.00
  -1   0   8   -0.10    0.20
   0   0   8   11.50    0.50
   0   0   8   11.30    0.50
   1   0   8   25.40    0.80
   1   0   8   25.00    0.80
   2   0   8  119.09    2.00
   2   0   8  114.69    2.10
   3   0   8   31.30    0.90
   3   0   8   32.80    1.00
   4   0   8    6.50    0.50
   4   0   8    6.40    0.50
   5   0   8   33.10    1.10
   6   0   8   31.30    1.20
   7   0   8    0.40    0.30
   8   0   8   14.80    0.90
   9   0   8    2.80    0.60
  -8   1   8    1.00    0.40
  -7   1   8    1.30    0.40
  -6   1   8   -0.30    0.30
  -5   1   8   14.30    0.70
  -4   1   8    2.10    0.40
  -3   1   8    7.50    0.50
  -2   1   8   15.00    0.60
  -1   1   8   23.30    0.70
   0   1   8   -0.30    0.20
   0   1   8    0.10    0.20
   1   1   8   17.10    0.60
   1   1   8   16.90    0.70
   2   1   8   16.80    0.70
   2   1   8   16.70    0.60
   3   1   8    2.20    0.30
   3   1   8    1.70    0.40
   4   1   8    8.70    0.50
   4   1   8    9.10    0.60
   5   1   8   10.30    0.70
   6   1   8   27.40    1.10
   7   1   8   11.10    0.80
   8   1   8    3.00    0.50
   9   1   8    0.90    0.40
  -7   2   8    0.70    0.40
  -6   2   8   10.20    0.70
  -5   2   8    0.50    0.30
  -4   2   8    0.10    0.20
  -3   2   8    0.10    0.20
  -2   2   8    0.40    0.20
  -1   2   8   -0.10    0.20
   0   2   8   41.30    1.00
   0   2   8   39.60    1.00
   1   2   8    8.20    0.50
   1   2   8    8.60    0.50
   2   2   8    6.70    0.50
   2   2   8    6.80    0.40
   3   2   8   36.90    0.90
   3   2   8   35.10    1.10
   4   2   8    4.10    0.50
   4   2   8    4.40    0.40
   5   2   8   11.90    0.70
   6   2   8    1.10    0.40
   7   2   8   30.40    1.20
   8   2   8    1.90    0.50
   9   2   8    3.70    0.60
  -7   3   8    2.90    0.50
  -6   3   8    2.10    0.40
  -5   3   8    1.10    0.30
  -4   3   8    8.10    0.60
  -3   3   8    0.60    0.30
  -2   3   8    5.80    0.50
  -1   3   8   46.60    1.10
   0   3   8   97.89    1.70
   0   3   8   96.69    1.80
   1   3   8   21.10    0.80
   1   3   8   20.20    0.60
   2   3   8   15.80    0.70
   2   3   8   15.10    0.60
   3   3   8   15.00    0.80
   3   3   8   15.00    0.60
   4   3   8   49.20    1.10
   4   3   8   47.20    1.40
   5   3   8   27.40    1.10
   6   3   8   26.10    1.10
   7   3   8    3.50    0.50
   8   3   8   18.50    1.00
   9   3   8    4.60    0.60
  -7   4   8    3.90    0.60
  -6   4   8    0.40    0.40
  -5   4   8    0.30    0.30
  -4   4   8    0.10    0.30
  -3   4   8   -0.10    0.20
  -2   4   8    0.20    0.20
  -1   4   8    7.00    0.50
   0   4   8    0.80    0.20
   0   4   8    1.00    0.30
   1   4   8   15.80    0.60
   1   4   8   15.40    0.70
   2   4   8    6.40    0.60
   2   4   8    7.10    0.40
   3   4   8    8.20    0.60
   3   4   8    7.90    0.40
   4   4   8    9.50    0.70
   5   4   8    2.00    0.40
   6   4   8   29.90    1.20
   7   4   8    1.20    0.40
   8   4   8   12.40    0.90
   9   4   8    2.50    0.60
  -6   5   8    4.90    0.60
  -5   5   8   -0.10    0.30
  -4   5   8    8.40    0.70
  -3   5   8    6.40    0.60
  -2   5   8   17.20    0.70
  -1   5   8    0.50    0.20
   0   5   8    3.60    0.40
   0   5   8    2.80    0.40
   1   5   8    0.90    0.20
   1   5   8    1.40    0.40
   2   5   8   27.90    0.70
   2   5   8   27.30    1.00
   3   5   8   13.20    0.80
   4   5   8   49.60    1.50
   5   5   8    9.70    0.80
   6   5   8   12.80    0.90
   7   5   8    3.90    0.60
   8   5   8    2.80    0.60
   9   5   8    0.10    0.40
  -6   6   8    0.30    0.40
  -5   6   8    0.60    0.40
  -4   6   8    0.30    0.30
  -3   6   8    4.10    0.50
  -2   6   8    1.70    0.40
  -1   6   8    0.80    0.30
   0   6   8    6.30    0.60
   0   6   8    5.50    0.50
   1   6   8    1.50    0.40
   1   6   8    1.60    0.30
   2   6   8    4.80    0.60
   3   6   8    1.40    0.40
   4   6   8   13.70    0.80
   5   6   8    0.00    0.30
   6   6   8    2.00    0.50
   7   6   8   18.90    1.10
   8   6   8    1.50    0.50
   9   6   8    6.60    0.80
  -5   7   8   -0.10    0.40
  -4   7   8    1.60    0.40
  -3   7   8    0.60    0.30
  -2   7   8    0.40    0.30
  -1   7   8    1.50    0.30
   0   7   8   20.70    0.70
   0   7   8   19.10    0.90
   1   7   8    0.20    0.30
   2   7   8   15.10    0.90
   3   7   8    1.70    0.50
   4   7   8   12.10    0.90
   5   7   8    1.10    0.40
   6   7   8   21.80    1.10
   7   7   8   -0.10    0.40
   8   7   8    4.40    0.70
  -4   8   8    0.90    0.40
  -3   8   8    0.70    0.40
  -2   8   8    0.10    0.30
  -1   8   8    4.70    0.60
   0   8   8    0.30    0.40
   1   8   8    2.70    0.50
   2   8   8    2.80    0.50
   3   8   8    3.00    0.60
   4   8   8    1.30    0.50
   5   8   8    5.40    0.70
   6   8   8    0.10    0.40
   7   8   8    0.10    0.40
   8   8   8    0.90    0.60
  -3   9   8   -0.50    0.30
   0   9   8    0.90    0.50
   1   9   8    2.00    0.50
   2   9   8    4.90    0.70
   3   9   8    1.50    0.50
   4   9   8    8.50    0.90
   5   9   8    0.70    0.50
   6   9   8    0.50    0.50
   7   9   8    1.20    0.50
   0  10   8    0.80    0.50
   1  10   8    0.20    0.40
   2  10   8    0.50    0.40
   3  10   8    0.90    0.50
   4  10   8    0.20    0.50
   5  10   8    0.80    0.50
   1  11   8    0.70    0.50
   2  11   8    0.30    0.50
   3  11   8    2.00    0.60
  -2  -8   9   -0.30    0.30
  -1   8  -9    1.30    0.50
  -2   8  -9    0.70    0.40
  -3  -7   9    0.70    0.40
  -2  -7   9    7.20    0.70
  -1  -7   9    1.90    0.50
  -1   7  -9    1.90    0.50
  -2   7  -9    3.80    0.60
  -3   7  -9   -0.20    0.40
  -4   7  -9   12.20    1.00
  -4  -6   9    0.10    0.30
  -3  -6   9   11.80    0.70
  -2  -6   9    1.60    0.40
  -1  -6   9    2.60    0.50
   0  -6   9    0.20    0.30
  -1   6  -9    4.10    0.50
  -2   6  -9   -0.10    0.30
  -3   6  -9    1.00    0.40
  -4   6  -9   -0.10    0.40
  -5   6  -9    1.30    0.50
  -5  -5   9    7.50    0.60
  -4  -5   9    0.00    0.30
  -3  -5   9   10.70    0.70
  -2  -5   9    7.10    0.60
  -1  -5   9    2.10    0.40
   0  -5   9   18.70    0.90
  -1   5  -9    0.40    0.30
   1  -5   9    0.00    0.30
  -2   5  -9   22.00    1.00
  -3   5  -9    0.30    0.40
  -4   5  -9    0.90    0.40
  -5   5  -9    0.50    0.40
  -6   5  -9   16.50    1.00
  -6  -4   9    4.00    0.50
  -5  -4   9    3.30    0.50
  -4  -4   9    6.30    0.60
  -3  -4   9    0.60    0.30
  -2  -4   9    0.30    0.30
  -1  -4   9    9.20    0.60
   0  -4   9    2.40    0.40
  -1   4  -9   15.40    0.80
   1  -4   9   15.60    0.80
  -2   4  -9   13.50    0.80
   2  -4   9   13.30    0.80
  -3   4  -9   45.80    1.40
  -4   4  -9    7.50    0.70
  -5   4  -9   20.50    1.00
  -6   4  -9    3.40    0.60
  -7   4  -9    2.30    0.50
  -7  -3   9    1.30    0.40
  -7  -3   9    1.20    0.40
  -6  -3   9    2.50    0.40
  -5  -3   9    1.00    0.30
  -4  -3   9   29.30    1.00
  -3  -3   9    2.80    0.40
  -2  -3   9   39.30    1.10
  -1  -3   9    1.00    0.30
   0   3  -9   51.09    1.60
   0  -3   9   51.29    1.30
  -1   3  -9    5.80    0.50
   1  -3   9    5.80    0.60
  -2   3  -9   59.89    1.50
   2  -3   9   59.09    1.50
  -3   3  -9    4.80    0.60
   3  -3   9    4.60    0.50
  -4   3  -9   66.69    1.70
  -5   3  -9    1.80    0.50
  -6   3  -9   18.50    1.00
  -7   3  -9    0.90    0.40
  -7  -2   9    1.90    0.50
  -7  -2   9    2.00    0.40
  -6  -2   9   -0.20    0.30
  -6  -2   9   -0.10    0.30
  -5  -2   9   16.10    0.80
  -4  -2   9    3.30    0.40
  -3  -2   9   17.30    0.70
  -2  -2   9    1.40    0.30
  -1  -2   9   10.40    0.60
   0   2  -9    7.20    0.50
   0  -2   9    7.00    0.50
  -1   2  -9   24.90    0.80
   1  -2   9   24.10    0.90
  -2   2  -9    8.70    0.60
   2  -2   9   10.50    0.60
  -3   2  -9    6.20    0.60
   3  -2   9    7.50    0.60
  -5   2  -9    2.20    0.50
  -6   2  -9    2.60    0.50
  -7   2  -9    5.70    0.70
  -8   2  -9    1.80    0.50
  -7  -1   9   -0.10    0.30
  -7  -1   9    0.10    0.30
  -6  -1   9    7.60    0.60
  -6  -1   9   10.80    0.80
  -5  -1   9    0.30    0.30
  -5  -1   9    0.70    0.40
  -4  -1   9    8.50    0.60
  -3  -1   9    0.90    0.30
  -2  -1   9   44.50    1.10
  -1  -1   9    1.50    0.30
   0  -1   9  100.79    1.90
   1  -1   9   -0.20    0.20
   1  -1   9    0.10    0.20
   2  -1   9   14.80    0.70
   2  -1   9   14.20    0.70
   3  -1   9    0.60    0.30
   3  -1   9    0.50    0.30
   4  -1   9    5.60    0.60
   4  -1   9    4.80    0.50
   5  -1   9    1.60    0.40
   6  -1   9    1.00    0.40
   7  -1   9    1.80    0.50
  -7   0   9   11.10    0.80
  -6   0   9    3.30    0.50
  -5   0   9    1.10    0.30
  -4   0   9    4.10    0.50
  -2   0   9    6.70    0.50
  -1   0   9    0.30    0.20
   0   0   9    5.80    0.50
   0   0   9    5.50    0.50
   1   0   9    0.00    0.20
   1   0   9    0.40    0.20
   2   0   9   50.69    1.30
   2   0   9   52.89    1.20
   3   0   9   12.20    0.60
   3   0   9   15.40    0.80
   4   0   9   13.70    0.70
   4   0   9   13.10    0.80
   5   0   9    2.40    0.40
   6   0   9   12.20    0.80
   7   0   9    0.10    0.40
   8   0   9    5.70    0.70
  -7   1   9   -0.50    0.30
  -6   1   9    0.70    0.40
  -5   1   9    0.40    0.30
  -4   1   9   20.60    0.80
  -3   1   9    0.90    0.30
  -2   1   9   19.70    0.70
  -1   1   9    2.70    0.30
   0   1   9    0.40    0.20
   0   1   9    0.10    0.20
   1   1   9    1.60    0.30
   1   1   9    1.40    0.30
   2   1   9   34.50    0.90
   2   1   9   32.70    1.00
   3   1   9   10.00    0.70
   3   1   9   10.80    0.60
   4   1   9   33.40    1.10
   4   1   9   33.40    1.00
   5   1   9    0.20    0.30
   6   1   9   12.20    0.80
   7   1   9    4.40    0.60
   8   1   9    3.30    0.60
   9   1   9    2.10    0.50
  -7   2   9    0.60    0.40
  -6   2   9    5.90    0.60
  -5   2   9    5.90    0.60
  -4   2   9    3.80    0.50
  -3   2   9   17.50    0.80
  -2   2   9    0.70    0.30
  -1   2   9   24.40    0.80
   0   2   9    8.60    0.50
   0   2   9    8.30    0.60
   1   2   9   17.00    0.70
   1   2   9   18.10    0.70
   2   2   9   17.50    0.70
   2   2   9   17.80    0.80
   3   2   9    1.40    0.40
   3   2   9    1.10    0.30
   4   2   9   24.70    1.00
   4   2   9   26.70    0.80
   5   2   9   -0.30    0.30
   6   2   9    4.10    0.60
   7   2   9    6.20    0.70
   8   2   9    0.40    0.40
   9   2   9    0.20    0.40
  -6   3   9   10.00    0.80
  -5   3   9    3.70    0.50
  -4   3   9    8.90    0.60
  -3   3   9   10.90    0.70
  -2   3   9    3.30    0.40
  -1   3   9    0.40    0.30
   1   3   9    8.70    0.60
   1   3   9    9.60    0.50
   2   3   9    1.90    0.30
   2   3   9    1.30    0.30
   3   3   9    7.30    0.50
   3   3   9    7.80    0.60
   4   3   9    0.90    0.30
   4   3   9    0.60    0.30
   5   3   9   10.60    0.80
   6   3   9    0.50    0.30
   7   3   9   15.50    1.00
   8   3   9    0.40    0.40
   9   3   9    6.30    0.80
  -6   4   9    1.30    0.40
  -5   4   9    6.70    0.60
  -4   4   9    2.10    0.40
  -3   4   9   10.80    0.70
  -2   4   9    4.60    0.50
  -1   4   9    5.50    0.50
   0   4   9   18.10    0.80
   0   4   9   19.70    0.70
   1   4   9    3.30    0.40
   1   4   9    2.40    0.40
   2   4   9    4.20    0.40
   2   4   9    5.10    0.60
   3   4   9    8.60    0.70
   3   4   9    8.60    0.50
   4   4   9    1.40    0.40
   5   4   9    1.40    0.40
   6   4   9    8.60    0.80
   7   4   9    0.30    0.40
   8   4   9   28.40    1.30
   9   4   9    0.40    0.40
  -5   5   9    3.00    0.50
  -4   5   9    0.40    0.30
  -3   5   9    2.30    0.40
  -2   5   9    2.20    0.40
  -1   5   9    7.40    0.60
   0   5   9    7.50    0.50
   0   5   9    8.00    0.60
   1   5   9   26.20    1.00
   1   5   9   25.60    0.80
   2   5   9    3.40    0.40
   2   5   9    2.90    0.50
   3   5   9   16.60    0.90
   4   5   9    4.10    0.60
   5   5   9   16.30    0.90
   6   5   9    1.50    0.50
   7   5   9    4.20    0.70
   8   5   9    1.00    0.50
  -5   6   9    1.20    0.40
  -4   6   9    1.70    0.40
  -3   6   9    3.30    0.50
  -2   6   9    8.90    0.60
  -1   6   9    0.00    0.30
   0   6   9    3.80    0.50
   0   6   9    3.10    0.40
   1   6   9    3.20    0.50
   1   6   9    2.10    0.40
   2   6   9    2.70    0.50
   3   6   9    1.00    0.40
   4   6   9    0.90    0.40
   5   6   9   -0.10    0.30
   6   6   9    0.10    0.40
   7   6   9    1.30    0.50
   8   6   9    0.00    0.40
  -4   7   9    0.20    0.40
  -3   7   9    4.90    0.60
  -2   7   9    0.20    0.30
  -1   7   9    0.30    0.30
   0   7   9    1.00    0.40
   1   7   9    1.90    0.50
   2   7   9    2.40    0.50
   3   7   9   10.20    0.80
   4   7   9    0.90    0.40
   5   7   9    2.20    0.50
   6   7   9    1.20    0.50
   7   7   9    0.70    0.50
  -3   8   9    0.20    0.40
  -2   8   9    0.60    0.30
   0   8   9    2.00    0.60
   1   8   9    0.20    0.40
   2   8   9    0.70    0.40
   3   8   9    0.60    0.40
   4   8   9    0.50    0.40
   5   8   9    0.60    0.40
   6   8   9    2.20    0.60
   7   8   9   -0.40    0.40
   1   9   9    6.00    0.70
   2   9   9    2.00    0.60
   3   9   9    4.00    0.70
   4   9   9    3.50    0.60
   5   9   9    2.40    0.60
   6   9   9    0.40    0.50
   1  10   9    0.50    0.40
   2  10   9    1.50    0.50
   3  10   9    1.60    0.60
   4  10   9    3.20    0.70
  -2  -7  10    2.70    0.50
  -1  -7  10    8.40    0.80
  -2   7 -10    0.20    0.40
  -4  -6  10    0.60    0.40
  -3  -6  10    0.00    0.40
  -2  -6  10    5.90    0.70
  -1  -6  10    1.40    0.50
   0  -6  10    3.40    0.50
  -2   6 -10    4.30    0.60
  -3   6 -10    0.20    0.40
  -4   6 -10   12.50    0.90
  -4  -5  10    0.50    0.40
  -3  -5  10   16.50    0.90
  -2  -5  10    4.00    0.60
  -1  -5  10    3.00    0.50
   0  -5  10    6.60    0.70
  -1   5 -10    3.10    0.50
   1  -5  10    4.10    0.60
  -2   5 -10    2.40    0.50
  -3   5 -10    7.10    0.70
  -4   5 -10    0.50    0.40
  -5   5 -10    3.80    0.60
  -5  -4  10   -0.10    0.30
  -4  -4  10    3.60    0.50
  -3  -4  10    0.30    0.30
  -2  -4  10    1.70    0.40
  -1  -4  10    3.20    0.50
   0  -4  10    0.80    0.40
  -1   4 -10    2.10    0.40
   1  -4  10    1.80    0.40
  -2   4 -10    2.10    0.50
   2  -4  10    3.80    0.50
  -3   4 -10    0.60    0.40
  -4   4 -10    1.30    0.40
  -5   4 -10    0.80    0.40
  -6   4 -10    8.30    0.80
  -6  -3  10    0.50    0.30
  -5  -3  10    0.70    0.30
  -4  -3  10    1.80    0.40
  -3  -3  10    0.40    0.30
  -2  -3  10    4.20    0.50
  -1  -3  10    9.10    0.70
   0  -3  10    4.30    0.50
  -1   3 -10    6.00    0.60
   1  -3  10    6.40    0.60
  -2   3 -10    1.20    0.40
   2  -3  10    1.10    0.40
  -3   3 -10    4.00    0.50
   3  -3  10    4.70    0.60
  -4   3 -10    0.70    0.40
  -5   3 -10    8.30    0.80
  -6   3 -10    1.20    0.40
  -6  -2  10    1.80    0.40
  -5  -2  10    0.20    0.30
  -4  -2  10    0.30    0.30
  -3  -2  10    0.60    0.30
  -2  -2  10    0.40    0.30
  -1  -2  10   -0.10    0.30
   0  -2  10    1.10    0.30
  -1   2 -10    0.20    0.30
   1  -2  10   -0.40    0.30
  -2   2 -10   10.00    0.70
   2  -2  10   10.50    0.70
  -3   2 -10    3.40    0.50
   3  -2  10    2.10    0.40
  -4   2 -10   46.90    1.40
  -5   2 -10    1.00    0.40
  -6   2 -10    3.90    0.60
  -7   2 -10    5.80    0.70
  -6  -1  10    0.10    0.30
  -5  -1  10    3.00    0.50
  -4  -1  10    0.20    0.30
  -3  -1  10   29.20    1.00
  -2  -1  10    0.20    0.30
  -1  -1  10   12.90    0.70
   0  -1  10    2.20    0.40
   1  -1  10   16.40    0.80
   2  -1  10    0.70    0.30
   2  -1  10    0.60    0.30
   3  -1  10   26.00    1.00
   3  -1  10   26.70    1.10
   4  -1  10    3.00    0.50
   4  -1  10    3.00    0.50
   5  -1  10   25.40    1.10
   6  -1  10    1.60    0.50
  -6   0  10    1.30    0.40
  -5   0  10    0.70    0.40
  -4   0  10    0.70    0.30
  -3   0  10    2.20    0.40
  -2   0  10    4.10    0.50
  -1   0  10    0.70    0.30
   0   0  10   12.20    0.70
   1   0  10    7.60    0.60
   1   0  10    5.90    0.60
   2   0  10    6.20    0.60
   2   0  10    5.60    0.50
   3   0  10   21.00    0.90
   3   0  10   18.70    0.80
   4   0  10    0.00    0.30
   4   0  10    0.20    0.30
   5   0  10   11.30    0.80
   6   0  10    3.10    0.50
   7   0  10    0.20    0.40
   8   0  10    2.00    0.60
  -6   1  10    0.00    0.30
  -5   1  10    3.50    0.50
  -4   1  10    1.30    0.40
  -3   1  10    3.60    0.50
  -2   1  10   10.80    0.70
  -1   1  10   17.70    0.80
   0   1  10    0.40    0.30
   1   1  10   15.10    0.70
   1   1  10   16.40    0.70
   2   1  10    0.30    0.30
   2   1  10    0.30    0.30
   3   1  10   10.00    0.60
   3   1  10    9.40    0.70
   4   1  10    0.40    0.30
   4   1  10    0.10    0.30
   5   1  10    2.10    0.50
   6   1  10   13.00    0.90
   7   1  10    0.90    0.40
   8   1  10    4.50    0.70
  -6   2  10    0.00    0.30
  -5   2  10    2.10    0.40
  -4   2  10   -0.20    0.30
  -3   2  10    2.10    0.40
  -2   2  10    0.90    0.30
  -1   2  10   23.10    0.90
   0   2  10    0.20    0.30
   1   2  10   55.69    1.30
   1   2  10   52.29    1.40
   2   2  10    0.30    0.30
   2   2  10    0.50    0.30
   3   2  10   12.60    0.70
   3   2  10   12.60    0.80
   4   2  10    1.30    0.40
   4   2  10    2.40    0.40
   5   2  10    1.40    0.40
   5   2  10    1.50    0.40
   6   2  10    0.40    0.40
   7   2  10    5.80    0.70
   8   2  10    0.60    0.40
  -5   3  10    0.40    0.40
  -4   3  10    1.20    0.40
  -3   3  10    3.50    0.50
  -2   3  10    0.10    0.30
  -1   3  10    1.50    0.30
   0   3  10    5.60    0.50
   1   3  10   20.70    0.80
   1   3  10   20.40    0.90
   2   3  10    0.10    0.30
   2   3  10    0.10    0.30
   3   3  10   18.80    0.70
   3   3  10   20.70    1.00
   4   3  10    1.60    0.40
   4   3  10    1.60    0.40
   5   3  10    5.40    0.60
   6   3  10    1.50    0.50
   7   3  10    0.70    0.40
   8   3  10   -0.40    0.40
  -5   4  10    1.40    0.40
  -4   4  10    1.90    0.40
  -3   4  10    6.40    0.60
  -2   4  10   11.90    0.70
  -1   4  10   15.70    0.80
   0   4  10   14.40    0.70
   1   4  10    5.70    0.60
   1   4  10    7.00    0.50
   2   4  10    1.50    0.30
   2   4  10    1.50    0.40
   3   4  10   12.90    0.80
   4   4  10    0.50    0.40
   5   4  10    3.10    0.50
   6   4  10    1.70    0.50
   7   4  10    0.10    0.40
   8   4  10    1.40    0.50
  -5   5  10   -0.10    0.40
  -4   5  10    1.70    0.40
  -3   5  10    1.20    0.40
  -2   5  10    0.60    0.30
  -1   5  10    9.00    0.60
   0   5  10    1.90    0.40
   1   5  10    9.40    0.60
   1   5  10    9.30    0.70
   2   5  10    1.90    0.50
   3   5  10    1.60    0.40
   4   5  10    3.50    0.60
   5   5  10    2.00    0.50
   6   5  10    2.10    0.50
   7   5  10    1.90    0.50
   8   5  10    7.00    1.00
  -4   6  10    2.00    0.50
  -3   6  10    1.70    0.50
  -2   6  10    2.80    0.50
  -1   6  10   10.00    0.70
   0   6  10    1.00    0.30
   1   6  10   12.60    0.90
   2   6  10    0.20    0.40
   3   6  10    0.20    0.40
   4   6  10   -0.20    0.30
   5   6  10    1.80    0.50
   6   6  10    2.30    0.60
   7   6  10   10.20    1.00
  -3   7  10   -0.10    0.30
  -2   7  10    0.10    0.30
  -1   7  10   -0.10    0.30
   1   7  10    0.30    0.40
   2   7  10    9.60    0.80
   3   7  10    2.40    0.60
   4   7  10    6.60    0.80
   5   7  10    3.60    0.70
   6   7  10    1.60    0.50
   7   7  10    0.10    0.50
  -2   8  10    0.10    0.40
   1   8  10    0.30    0.40
   2   8  10    0.20    0.40
   3   8  10    3.20    0.60
   4   8  10    0.50    0.50
   5   8  10    2.10    0.60
   6   8  10    0.90    0.50
   1   9  10    2.80    0.70
   2   9  10    1.30    0.50
   3   9  10    3.50    0.70
   4   9  10   -0.50    0.40
   5   9  10    0.60    0.50
  -1  -6  11    2.50    0.60
   0  -6  11    0.30    0.40
  -2   6 -11   -0.30    0.60
  -3  -5  11   -0.30    0.30
  -2  -5  11    3.10    0.50
  -1  -5  11    0.00    0.40
   0  -5  11    5.70    0.70
   1  -5  11   -0.60    0.30
  -2   5 -11    6.90    0.70
  -3   5 -11   -0.30    0.40
  -4   5 -11    5.50    0.70
  -4  -4  11    1.90    0.50
  -3  -4  11    6.40    0.70
  -2  -4  11    2.50    0.50
  -1  -4  11    2.60    0.50
   0  -4  11    0.30    0.40
   1  -4  11    2.30    0.50
  -2   4 -11    0.10    0.40
   2  -4  11    0.60    0.40
  -3   4 -11    8.80    0.80
  -4   4 -11   -0.50    0.40
  -5   4 -11    3.00    0.60
  -4  -3  11   14.70    0.90
  -3  -3  11    2.00    0.50
  -2  -3  11   10.90    0.80
  -1  -3  11    0.50    0.40
   0  -3  11    3.00    0.50
   1  -3  11    0.40    0.40
  -2   3 -11    3.90    0.50
   2  -3  11    4.20    0.60
  -3   3 -11    0.90    0.40
   3  -3  11    0.40    0.40
  -4   3 -11    0.30    0.40
  -5   3 -11    0.30    0.40
  -5  -2  11    3.60    0.50
  -4  -2  11    2.20    0.50
  -3  -2  11    0.20    0.30
  -2  -2  11    1.20    0.40
  -1  -2  11    2.30    0.40
   0  -2  11    0.50    0.30
   1  -2  11    2.00    0.40
  -2   2 -11    0.80    0.30
   2  -2  11    0.10    0.30
  -3   2 -11    3.00    0.50
   3  -2  11    2.50    0.50
  -4   2 -11    1.00    0.40
  -5   2 -11    0.30    0.40
  -6   2 -11   -0.10    0.40
  -5  -1  11    0.00    0.30
  -4  -1  11    0.80    0.40
  -3  -1  11    2.30    0.50
  -2  -1  11    1.30    0.40
  -1  -1  11    1.70    0.40
   0  -1  11    1.90    0.40
   1  -1  11    0.20    0.30
   2  -1  11   -0.20    0.30
   3  -1  11    0.90    0.40
   4  -1  11    6.30    0.70
   4  -1  11    5.40    0.70
  -5   0  11   -0.40    0.30
  -4   0  11   -0.20    0.30
  -3   0  11    0.90    0.30
  -2   0  11    0.30    0.30
  -1   0  11   -0.30    0.30
   0   0  11    4.20    0.50
   1   0  11    0.40    0.30
   2   0  11    2.20    0.40
   2   0  11    1.40    0.40
   3   0  11    7.30    0.70
   3   0  11    7.80    0.70
   4   0  11    0.30    0.40
   4   0  11    0.30    0.30
   5   0  11    4.40    0.60
   6   0  11   -0.10    0.40
   7   0  11    1.70    0.50
  -5   1  11    0.00    0.30
  -4   1  11    4.90    0.60
  -3   1  11    1.30    0.40
  -2   1  11    5.30    0.50
  -1   1  11    1.80    0.40
   0   1  11    2.70    0.40
   1   1  11    1.20    0.40
   2   1  11    6.10    0.60
   2   1  11    5.00    0.60
   3   1  11    2.30    0.40
   3   1  11    1.70    0.40
   4   1  11    2.70    0.50
   4   1  11    2.10    0.40
   5   1  11    6.10    0.70
   6   1  11    6.60    0.80
   7   1  11    0.10    0.40
  -5   2  11   -0.60    0.40
  -4   2  11    0.30    0.30
  -3   2  11    0.10    0.30
  -2   2  11    0.80    0.30
  -1   2  11    1.90    0.40
   0   2  11    0.40    0.30
   1   2  11    0.40    0.30
   2   2  11    7.40    0.70
   2   2  11    8.40    0.60
   3   2  11   -0.20    0.30
   3   2  11    0.50    0.30
   4   2  11    4.40    0.60
   4   2  11    4.90    0.50
   5   2  11   -0.10    0.30
   6   2  11    2.90    0.60
   7   2  11    0.20    0.40
  -4   3  11    0.40    0.40
  -3   3  11    1.10    0.40
  -2   3  11    0.20    0.30
  -1   3  11    1.00    0.40
   0   3  11    1.00    0.40
   1   3  11    0.80    0.40
   2   3  11    2.30    0.40
   2   3  11    2.60    0.50
   3   3  11    5.40    0.50
   3   3  11    4.80    0.60
   4   3  11    0.90    0.40
   5   3  11    7.40    0.80
   6   3  11    0.10    0.40
   7   3  11   14.50    1.00
  -4   4  11   -0.10    0.30
  -3   4  11    0.20    0.30
  -2   4  11    2.20    0.40
  -1   4  11    2.10    0.40
   0   4  11   26.90    1.00
   1   4  11    2.30    0.50
   2   4  11    8.20    0.80
   2   4  11    7.50    0.60
   3   4  11   -0.20    0.30
   4   4  11    1.20    0.50
   5   4  11    1.60    0.50
   6   4  11    1.00    0.50
   7   4  11    0.80    0.50
  -3   5  11   -0.10    0.30
  -2   5  11    0.20    0.40
  -1   5  11    0.30    0.30
   0   5  11    1.40    0.40
   1   5  11    1.60    0.40
   2   5  11    3.70    0.60
   3   5  11    4.50    0.60
   4   5  11    1.60    0.50
   5   5  11    2.80    0.60
   6   5  11    1.40    0.50
   7   5  11   -0.40    0.50
  -3   6  11   -0.30    0.30
  -2   6  11    4.10    0.60
  -1   6  11   -0.60    0.30
   0   6  11    0.30    0.30
   2   6  11    0.40    0.40
   3   6  11    1.80    0.50
   4   6  11    2.40    0.60
   5   6  11    1.80    0.50
   6   6  11    0.00    0.40
  -2   7  11    0.10    0.40
  -1   7  11    0.20    0.40
   2   7  11   -0.20    0.40
   3   7  11    0.80    0.50
   4   7  11    0.80    0.50
   5   7  11   -0.20    0.40
   2   8  11    1.10    0.50
   3   8  11    0.40    0.50
   4   8  11    0.60    0.50
  -1  -4  12    0.10    0.40
   0  -4  12    3.30    0.60
   1  -4  12    1.00    0.50
   2  -4  12    1.80    0.50
  -2  -3  12    0.60    0.40
  -1  -3  12    3.70    0.60
   0  -3  12    2.50    0.50
   1  -3  12    5.70    0.70
   2  -3  12    5.30    0.70
  -3   3 -12   14.70    0.90
   3  -3  12   15.20    1.00
  -4   3 -12    0.60    0.50
  -3  -2  12    0.00    0.40
  -2  -2  12    3.90    0.60
  -1  -2  12    3.00    0.50
   0  -2  12    1.30    0.40
   1  -2  12    3.00    0.50
   2  -2  12    2.90    0.60
  -3   2 -12    2.10    0.50
   3  -2  12    2.30    0.50
  -4   2 -12    4.30    0.60
  -5   2 -12    1.50    0.50
  -3  -1  12    8.50    0.80
  -2  -1  12    1.20    0.40
  -1  -1  12    6.80    0.70
   0  -1  12    4.00    0.60
   1  -1  12    8.50    0.70
   2  -1  12    1.90    0.50
   3  -1  12    0.40    0.40
   4  -1  12    3.70    0.60
  -3   0  12    0.80    0.40
  -2   0  12    0.70    0.40
  -1   0  12    1.40    0.40
   0   0  12    2.80    0.50
   1   0  12    0.60    0.40
   2   0  12    0.10    0.30
   3   0  12    3.40    0.50
   3   0  12    2.60    0.50
   4   0  12    1.70    0.50
   4   0  12    1.20    0.40
   5   0  12    3.40    0.60
   6   0  12    2.60    0.60
  -3   1  12    0.30    0.30
  -2   1  12    3.10    0.50
  -1   1  12    1.10    0.40
   0   1  12    2.10    0.40
   1   1  12    0.20    0.30
   2   1  12    4.70    0.60
   3   1  12    2.20    0.40
   3   1  12    1.80    0.50
   4   1  12    0.60    0.40
   4   1  12    0.60    0.40
   5   1  12    0.90    0.40
   6   1  12    1.10    0.50
  -3   2  12    0.20    0.30
  -2   2  12    0.00    0.30
  -1   2  12    1.20    0.40
   0   2  12   -0.10    0.30
   1   2  12    2.40    0.40
   2   2  12   -0.50    0.30
   3   2  12   -0.20    0.30
   3   2  12    0.00    0.30
   4   2  12    0.70    0.40
   4   2  12   -0.10    0.30
   5   2  12   -0.10    0.30
   6   2  12   -0.20    0.40
  -3   3  12    0.60    0.40
  -2   3  12    0.50    0.40
  -1   3  12    1.60    0.40
   0   3  12    1.70    0.40
   1   3  12    2.90    0.50
   2   3  12    1.60    0.40
   3   3  12    0.60    0.30
   3   3  12    0.10    0.40
   4   3  12    5.20    0.70
   5   3  12    0.20    0.40
   6   3  12    1.40    0.50
  -3   4  12    0.70    0.40
  -2   4  12    0.40    0.40
  -1   4  12    0.30    0.40
   1   4  12   -0.50    0.30
   2   4  12    1.60    0.40
   3   4  12    0.30    0.40
   4   4  12    0.70    0.40
   5   4  12    1.50    0.50
   6   4  12    0.40    0.50
  -2   5  12    0.40    0.40
  -1   5  12    0.00    0.30
   0   5  12    1.70    0.40
   1   5  12    0.10    0.30
   3   5  12    0.50    0.40
   4   5  12    2.00    0.50
   5   5  12    0.30    0.40
  -1   6  12    0.70    0.40
   3   6  12    0.60    0.40
   4   6  12    0.40    0.50
   5   6  12    0.30    0.50
   3   7  12   -0.50    0.40
   1  -2  13    0.60    0.50
   2  -2  13    1.10    0.60
   0  -1  13    1.40    0.50
   1  -1  13    0.70    0.40
   2  -1  13    3.30    0.60
   3  -1  13    1.10    0.50
  -1   0  13    0.40    0.40
   0   0  13    1.50    0.50
   1   0  13    0.80    0.40
   2   0  13    1.10    0.40
   3   0  13    1.60    0.50
   4   0  13    4.20    0.60
   4   0  13    3.20    0.60
  -1   1  13    0.60    0.40
   0   1  13    2.60    0.50
   1   1  13    0.10    0.40
   2   1  13    1.60    0.40
   3   1  13    0.90    0.40
   4   1  13    0.70    0.40
   4   1  13    0.00    0.40
  -1   2  13    0.00    0.40
   0   2  13    0.10    0.40
   1   2  13   -0.10    0.30
   2   2  13    1.50    0.50
   3   2  13    0.20    0.40
   4   2  13    1.20    0.50
  -1   3  13    2.00    0.50
   0   3  13    0.50    0.40
   1   3  13    1.90    0.50
   2   3  13    0.50    0.40
   4   3  13    0.90    0.50
   0   4  13    0.90    0.40
   1   4  13   -0.40    0.30
   4   4  13    0.40    0.40
   0   0   0    0.00    0.00

_computing_structure_solution     'SHELXT 2014/5 (Sheldrick, 2014)'
;
_shelx_hkl_checksum              11625
loop_
_space_group_symop_operation_xyz
'x, y, z'
'-x, -y, -z'
loop_
_atom_site_type_symbol
_atom_site_label
_atom_site_fract_x
_atom_site_fract_y
_atom_site_fract_z
_atom_site_U_iso_or_equiv
_atom_site_adp_type
_atom_site_calc_flag
_atom_site_refinement_flags_adp
_atom_site_refinement_flags_occupancy
_atom_site_refinement_flags_posn
_atom_site_occupancy
_atom_site_disorder_assembly
_atom_site_disorder_group
K K1 0.75470(5) 0.27225(5) 0.25922(5) 0.05801(19) Uani d . . . 1.0 . .
N N1 -0.0288(3) 0.4668(3) 0.2076(3) 0.0961(8) Uani d . . . 1.0 . .
N N2 0.1934(3) 0.8148(2) 0.0014(2) 0.0837(7) Uani d . . . 1.0 . .
N N3 0.4872(2) 0.4670(3) 0.1973(2) 0.0812(6) Uani d . . . 1.0 . .
N N4 1.3094(3) -0.2878(2) 0.4623(2) 0.0805(6) Uani d . . . 1.0 . .
N N5 1.0292(3) 0.1029(3) 0.3252(3) 0.0974(8) Uani d . . . 1.0 . .
N N6 1.5380(3) 0.0845(3) 0.3206(3) 0.0867(7) Uani d . . . 1.0 . .
C C1 0.2174(2) 0.5815(2) 0.1362(2) 0.0548(5) Uani d . . . 1.0 . .
C C2 0.0817(3) 0.5185(2) 0.1756(3) 0.0643(6) Uani d . . . 1.0 . .
C C3 0.2047(2) 0.7099(2) 0.0624(2) 0.0577(5) Uani d . . . 1.0 . .
C C4 0.3655(3) 0.5180(2) 0.1699(2) 0.0586(5) Uani d . . . 1.0 . .
C C5 1.2939(2) -0.0379(2) 0.3650(2) 0.0525(5) Uani d . . . 1.0 . .
C C6 1.3028(2) -0.1753(2) 0.4187(2) 0.0557(5) Uani d . . . 1.0 . .
C C7 1.1478(3) 0.0392(2) 0.3422(2) 0.0637(6) Uani d . . . 1.0 . .
C C8 1.4294(3) 0.0279(2) 0.3414(2) 0.0583(5) Uani d . . . 1.0 . .
N N7 0.2344(2) 0.2856(2) 0.6124(2) 0.0671(5) Uani d . . . 1.0 . .
N N8 0.2613(4) 0.2039(3) 0.8072(3) 0.0994(8) Uani d . . . 1.0 . .
C C9 0.3094(3) 0.2921(3) 0.7112(3) 0.0828(8) Uani d . . . 1.0 . .
H H9 0.384776 0.34972 0.713679 0.099 Uiso calc U . R 1.0 . .
C C10 0.1498(4) 0.1420(3) 0.7698(3) 0.0829(8) Uani d . . . 1.0 . .
H H10 0.094511 0.076626 0.819453 0.1 Uiso calc U . R 1.0 . .
C C11 0.1324(3) 0.1919(3) 0.6471(3) 0.0753(7) Uani d . . . 1.0 . .
H H11 0.063447 0.167008 0.595398 0.09 Uiso calc U . R 1.0 . .
C C12 0.2545(5) 0.3662(4) 0.4882(3) 0.1163(13) Uani d . . . 1.0 . .
H H12A 0.291831 0.305537 0.422194 0.174 Uiso calc U . R 1.0 . .
H H12B 0.330128 0.427809 0.490285 0.174 Uiso calc U . R 1.0 . .
H H12C 0.155011 0.418482 0.469742 0.174 Uiso calc U . R 1.0 . .
C C13 0.3536(14) 0.1666(9) 0.9227(8) 0.145(3) Uani d U P D 0.696(14) A 1
H H13A 0.371242 0.067433 0.943627 0.174 Uiso calc U P R 0.696(14) A 1
H H13B 0.455284 0.199984 0.905184 0.174 Uiso calc U P R 0.696(14) A 1
C C14 0.2648(14) 0.2278(13) 1.0204(9) 0.187(5) Uani d U P D 0.696(14) A 1
H H14A 0.164527 0.194051 1.036116 0.281 Uiso calc U P R 0.696(14) A 1
H H14B 0.248354 0.325729 0.998078 0.281 Uiso calc U P R 0.696(14) A 1
H H14C 0.318024 0.2073 1.096956 0.281 Uiso calc U P R 0.696(14) A 1
C C13' 0.2448(17) 0.1867(18) 0.9484(18) 0.114(5) Uani d U P D 0.304(14) A 2
H H13C 0.163208 0.257432 0.980842 0.137 Uiso calc U P R 0.304(14) A 2
H H13D 0.211298 0.097787 0.978549 0.137 Uiso calc U P R 0.304(14) A 2
C C14' 0.388(2) 0.195(3) 0.999(2) 0.158(8) Uani d U P D 0.304(14) A 2
H H14D 0.467134 0.122316 0.970571 0.237 Uiso calc U P R 0.304(14) A 2
H H14E 0.370374 0.186385 1.091435 0.237 Uiso calc U P R 0.304(14) A 2
H H14F 0.421829 0.282604 0.968259 0.237 Uiso calc U P R 0.304(14) A 2
loop_
_atom_site_aniso_label
_atom_site_aniso_U_11
_atom_site_aniso_U_22
_atom_site_aniso_U_33
_atom_site_aniso_U_12
_atom_site_aniso_U_13
_atom_site_aniso_U_23
K1 0.0380(3) 0.0577(3) 0.0767(4) -0.01013(19) -0.0092(2) 0.0078(2)
N1 0.0563(13) 0.0750(15) 0.152(2) -0.0207(11) -0.0042(14) 0.0158(15)
N2 0.0820(15) 0.0684(14) 0.0935(16) -0.0113(11) -0.0025(12) 0.0146(12)
N3 0.0517(12) 0.0851(15) 0.1022(17) -0.0053(10) -0.0184(11) 0.0141(12)
N4 0.0852(15) 0.0564(13) 0.0980(16) -0.0154(11) -0.0043(12) 0.0005(11)
N5 0.0558(14) 0.0781(16) 0.156(2) -0.0059(11) -0.0330(14) 0.0160(15)
N6 0.0587(13) 0.0811(15) 0.1214(19) -0.0281(11) -0.0117(12) 0.0110(14)
C1 0.0418(10) 0.0564(12) 0.0650(13) -0.0097(9) -0.0077(9) 0.0038(10)
C2 0.0457(12) 0.0576(13) 0.0873(16) -0.0096(10) -0.0093(11) 0.0076(11)
C3 0.0469(11) 0.0621(14) 0.0628(13) -0.0087(9) -0.0028(9) -0.0027(11)
C4 0.0472(12) 0.0616(13) 0.0658(13) -0.0116(10) -0.0075(10) 0.0051(10)
C5 0.0411(10) 0.0509(12) 0.0663(12) -0.0100(8) -0.0092(9) -0.0005(9)
C6 0.0469(11) 0.0547(13) 0.0661(13) -0.0101(9) -0.0046(9) -0.0073(10)
C7 0.0491(13) 0.0575(13) 0.0860(16) -0.0138(10) -0.0154(11) 0.0030(11)
C8 0.0485(12) 0.0554(12) 0.0713(14) -0.0110(10) -0.0105(10) 0.0011(10)
N7 0.0631(12) 0.0593(12) 0.0794(13) -0.0127(9) 0.0002(10) -0.0120(10)
N8 0.120(2) 0.0959(19) 0.0895(18) -0.0139(16) -0.0387(16) -0.0107(15)
C9 0.0720(17) 0.0745(18) 0.105(2) -0.0129(13) -0.0139(16) -0.0150(16)
C10 0.0853(19) 0.0774(18) 0.0847(19) -0.0205(15) 0.0063(15) -0.0072(15)
C11 0.0687(16) 0.0774(17) 0.0866(18) -0.0269(13) -0.0075(13) -0.0165(14)
C12 0.168(4) 0.082(2) 0.095(2) -0.036(2) 0.009(2) 0.0067(18)
C13 0.146(7) 0.167(6) 0.132(5) -0.018(5) -0.044(5) -0.035(4)
C14 0.179(9) 0.248(10) 0.135(6) 0.040(7) -0.060(7) -0.064(7)
C13' 0.075(7) 0.147(9) 0.125(9) 0.002(6) -0.019(6) -0.049(7)
C14' 0.146(13) 0.242(16) 0.107(11) -0.055(12) -0.074(10) 0.000(10)
loop_
_atom_type_symbol
_atom_type_description
_atom_type_scat_dispersion_real
_atom_type_scat_dispersion_imag
_atom_type_scat_source
C C 0.0033 0.0016 'International Tables Vol C Tables 4.2.6.8 and 6.1.1.4'
H H 0.0000 0.0000 'International Tables Vol C Tables 4.2.6.8 and 6.1.1.4'
K K 0.2009 0.2494 'International Tables Vol C Tables 4.2.6.8 and 6.1.1.4'
N N 0.0061 0.0033 'International Tables Vol C Tables 4.2.6.8 and 6.1.1.4'
loop_
_geom_angle_atom_site_label_1
_geom_angle_atom_site_label_2
_geom_angle_atom_site_label_3
_geom_angle_site_symmetry_1
_geom_angle_site_symmetry_3
_geom_angle
_geom_angle_publ_flag
N5 K1 N6 . 1_455 99.69(7) ?
N5 K1 N1 . 1_655 80.50(7) ?
N6 K1 N1 1_455 1_655 177.54(8) ?
N5 K1 N3 . . 174.57(8) ?
N6 K1 N3 1_455 . 85.11(7) ?
N1 K1 N3 1_655 . 94.60(7) ?
N5 K1 N4 . 2_756 83.50(8) ?
N6 K1 N4 1_455 2_756 80.33(7) ?
N1 K1 N4 1_655 2_756 97.27(8) ?
N3 K1 N4 . 2_756 94.88(7) ?
N5 K1 N2 . 2_665 90.97(8) ?
N6 K1 N2 1_455 2_665 87.64(8) ?
N1 K1 N2 1_655 2_665 94.81(8) ?
N3 K1 N2 . 2_665 91.78(7) ?
N4 K1 N2 2_756 2_665 165.68(6) ?
N5 K1 C3 . 2_665 103.25(8) ?
N6 K1 C3 1_455 2_665 100.63(7) ?
N1 K1 C3 1_655 2_665 81.69(8) ?
N3 K1 C3 . 2_665 78.19(7) ?
N4 K1 C3 2_756 2_665 172.84(6) ?
N2 K1 C3 2_665 2_665 19.79(6) ?
N5 K1 C6 . 2_756 72.97(7) ?
N6 K1 C6 1_455 2_756 67.51(7) ?
N1 K1 C6 1_655 2_756 110.30(8) ?
N3 K1 C6 . 2_756 106.86(6) ?
N4 K1 C6 2_756 2_756 19.05(5) ?
N2 K1 C6 2_665 2_756 146.84(6) ?
C3 K1 C6 2_665 2_756 166.14(6) ?
C2 N1 K1 . 1_455 163.4(2) ?
C3 N2 K1 . 2_665 100.81(19) ?
C4 N3 K1 . . 164.2(2) ?
C6 N4 K1 . 2_756 104.59(18) ?
C7 N5 K1 . . 173.8(2) ?
C8 N6 K1 . 1_655 167.7(2) ?
C3 C1 C2 . . 119.49(19) ?
C3 C1 C4 . . 119.64(19) ?
C2 C1 C4 . . 120.9(2) ?
N1 C2 C1 . . 179.8(3) ?
N2 C3 C1 . . 179.4(3) ?
N2 C3 K1 . 2_665 59.40(17) ?
C1 C3 K1 . 2_665 120.24(16) ?
N3 C4 C1 . . 179.5(3) ?
C7 C5 C6 . . 120.58(18) ?
C7 C5 C8 . . 118.66(19) ?
C6 C5 C8 . . 120.62(19) ?
N4 C6 C5 . . 179.6(3) ?
N4 C6 K1 . 2_756 56.36(16) ?
C5 C6 K1 . 2_756 123.82(15) ?
N5 C7 C5 . . 179.0(3) ?
N6 C8 C5 . . 178.2(3) ?
C9 N7 C11 . . 108.0(2) ?
C9 N7 C12 . . 125.8(3) ?
C11 N7 C12 . . 126.2(3) ?
C9 N8 C10 . . 108.7(3) ?
C9 N8 C13' . . 139.1(7) ?
C10 N8 C13' . . 107.2(6) ?
C9 N8 C13 . . 120.0(5) ?
C10 N8 C13 . . 129.9(5) ?
N7 C9 N8 . . 109.0(3) ?
N7 C9 H9 . . 125.5 ?
N8 C9 H9 . . 125.5 ?
N8 C10 C11 . . 107.1(3) ?
N8 C10 H10 . . 126.5 ?
C11 C10 H10 . . 126.5 ?
C10 C11 N7 . . 107.2(2) ?
C10 C11 H11 . . 126.4 ?
N7 C11 H11 . . 126.4 ?
N7 C12 H12A . . 109.5 ?
N7 C12 H12B . . 109.5 ?
H12A C12 H12B . . 109.5 ?
N7 C12 H12C . . 109.5 ?
H12A C12 H12C . . 109.5 ?
H12B C12 H12C . . 109.5 ?
C14 C13 N8 . . 105.8(10) ?
C14 C13 H13A . . 110.6 ?
N8 C13 H13A . . 110.6 ?
C14 C13 H13B . . 110.6 ?
N8 C13 H13B . . 110.6 ?
H13A C13 H13B . . 108.7 ?
C13 C14 H14A . . 109.5 ?
C13 C14 H14B . . 109.5 ?
H14A C14 H14B . . 109.5 ?
C13 C14 H14C . . 109.5 ?
H14A C14 H14C . . 109.5 ?
H14B C14 H14C . . 109.5 ?
C14' C13' N8 . . 112.3(17) ?
C14' C13' H13C . . 109.1 ?
N8 C13' H13C . . 109.1 ?
C14' C13' H13D . . 109.1 ?
N8 C13' H13D . . 109.1 ?
H13C C13' H13D . . 107.9 ?
C13' C14' H14D . . 109.5 ?
C13' C14' H14E . . 109.5 ?
H14D C14' H14E . . 109.5 ?
C13' C14' H14F . . 109.5 ?
H14D C14' H14F . . 109.5 ?
H14E C14' H14F . . 109.5 ?
loop_
_geom_bond_atom_site_label_1
_geom_bond_atom_site_label_2
_geom_bond_site_symmetry_2
_geom_bond_distance
_geom_bond_publ_flag
K1 N5 . 2.792(2) ?
K1 N6 1_455 2.792(2) ?
K1 N1 1_655 2.836(2) ?
K1 N3 . 2.855(2) ?
K1 N4 2_756 2.919(3) ?
K1 N2 2_665 2.920(3) ?
K1 C3 2_665 3.332(2) ?
K1 C6 2_756 3.394(2) ?
N1 C2 . 1.142(3) ?
N2 C3 . 1.148(3) ?
N3 C4 . 1.146(3) ?
N4 C6 . 1.145(3) ?
N5 C7 . 1.137(3) ?
N6 C8 . 1.146(3) ?
C1 C3 . 1.400(3) ?
C1 C2 . 1.400(3) ?
C1 C4 . 1.401(3) ?
C5 C7 . 1.399(3) ?
C5 C6 . 1.400(3) ?
C5 C8 . 1.401(3) ?
N7 C9 . 1.301(4) ?
N7 C11 . 1.358(3) ?
N7 C12 . 1.448(4) ?
N8 C9 . 1.319(4) ?
N8 C10 . 1.334(4) ?
N8 C13' . 1.460(18) ?
N8 C13 . 1.511(10) ?
C9 H9 . 0.93 ?
C10 C11 . 1.340(4) ?
C10 H10 . 0.93 ?
C11 H11 . 0.93 ?
C12 H12A . 0.96 ?
C12 H12B . 0.96 ?
C12 H12C . 0.96 ?
C13 C14 . 1.343(11) ?
C13 H13A . 0.97 ?
C13 H13B . 0.97 ?
C14 H14A . 0.96 ?
C14 H14B . 0.96 ?
C14 H14C . 0.96 ?
C13' C14' . 1.415(17) ?
C13' H13C . 0.97 ?
C13' H13D . 0.97 ?
C14' H14D . 0.96 ?
C14' H14E . 0.96 ?
C14' H14F . 0.96 ?
