#------------------------------------------------------------------------------
#$Date: 2022-09-21 00:51:50 +0300 (Wed, 21 Sep 2022) $
#$Revision: 278009 $
#$URL: file:///home/coder/svn-repositories/cod/cif/7/13/07/7130746.cif $
#------------------------------------------------------------------------------
#
# This file is available in the Crystallography Open Database (COD),
# http://www.crystallography.net/
#
# All data on this site have been placed in the public domain by the
# contributors.
#
data_7130746
loop_
_publ_author_name
'Tang, Jie'
'Xiong, Hualin'
'Zhang, Guojie'
'tang, yongying'
'Yang, Hongwei'
'Cheng, Guangbin'
_publ_section_title
;
 An advanced primary explosive and secondary explosive based on
 zwitterionic pyrazole-triazole derivative
;
_journal_name_full               'Chemical Communications'
_journal_paper_doi               10.1039/D2CC04531A
_journal_year                    2022
_chemical_formula_moiety         'C5 H N9 O4'
_chemical_formula_sum            'C5 H N9 O4'
_chemical_formula_weight         251.15
_space_group_crystal_system      monoclinic
_space_group_IT_number           14
_space_group_name_Hall           '-P 2ybc'
_space_group_name_H-M_alt        'P 1 21/c 1'
_atom_sites_solution_hydrogens   geom
_atom_sites_solution_primary     dual
_audit_creation_date             2019-05-20
_audit_creation_method
;
Olex2 1.2
(compiled 2018.05.29 svn.r3508 for OlexSys, GUI svn.r5506)
;
_audit_update_record
;
2019-05-27 deposited with the CCDC.	2022-09-20 downloaded from the CCDC.
;
_cell_angle_alpha                90
_cell_angle_beta                 115.308(9)
_cell_angle_gamma                90
_cell_formula_units_Z            4
_cell_length_a                   9.324(3)
_cell_length_b                   11.795(4)
_cell_length_c                   9.195(3)
_cell_measurement_reflns_used    2204
_cell_measurement_temperature    100
_cell_measurement_theta_max      25.756
_cell_measurement_theta_min      2.416
_cell_volume                     914.2(5)
_computing_cell_refinement       'SAINT V8.38A (?, 2016)'
_computing_data_reduction        'SAINT V8.38A (?, 2016)'
_computing_molecular_graphics    'Olex2 (Dolomanov et al., 2009)'
_computing_publication_material  'Olex2 (Dolomanov et al., 2009)'
_computing_structure_refinement  'ShelXL (Sheldrick, 2015)'
_computing_structure_solution    'ShelXT (Sheldrick, 2015)'
_diffrn_ambient_temperature      100.0
_diffrn_measured_fraction_theta_full 0.988
_diffrn_measured_fraction_theta_max 0.982
_diffrn_measurement_device_type  'Bruker APEX-II CCD'
_diffrn_measurement_method       '\f and \w scans'
_diffrn_radiation_type           MoK\a
_diffrn_radiation_wavelength     0.71073
_diffrn_reflns_av_R_equivalents  0.0674
_diffrn_reflns_av_unetI/netI     0.0835
_diffrn_reflns_Laue_measured_fraction_full 0.988
_diffrn_reflns_Laue_measured_fraction_max 0.982
_diffrn_reflns_limit_h_max       11
_diffrn_reflns_limit_h_min       -9
_diffrn_reflns_limit_k_max       13
_diffrn_reflns_limit_k_min       -14
_diffrn_reflns_limit_l_max       11
_diffrn_reflns_limit_l_min       -11
_diffrn_reflns_number            5469
_diffrn_reflns_point_group_measured_fraction_full 0.988
_diffrn_reflns_point_group_measured_fraction_max 0.982
_diffrn_reflns_theta_full        25.242
_diffrn_reflns_theta_max         25.832
_diffrn_reflns_theta_min         2.416
_diffrn_standards_number         0
_exptl_absorpt_coefficient_mu    0.159
_exptl_absorpt_correction_T_max  0.7453
_exptl_absorpt_correction_T_min  0.5882
_exptl_absorpt_correction_type   multi-scan
_exptl_absorpt_process_details
'SADABS-2016/2 (Bruker,2016/2) was used for absorption correction. wR2(int) was 0.1363 before and 0.0717 after correction. The Ratio of minimum to maximum transmission is 0.7892. The \l/2 correction factor is Not present.'
_exptl_crystal_colour            colourless
_exptl_crystal_colour_primary    colourless
_exptl_crystal_density_diffrn    1.825
_exptl_crystal_description       needle
_exptl_crystal_F_000             504
_exptl_crystal_size_max          0.12
_exptl_crystal_size_mid          0.08
_exptl_crystal_size_min          0.02
_refine_diff_density_max         0.306
_refine_diff_density_min         -0.400
_refine_diff_density_rms         0.078
_refine_ls_extinction_method     none
_refine_ls_goodness_of_fit_ref   1.030
_refine_ls_hydrogen_treatment    constr
_refine_ls_matrix_type           full
_refine_ls_number_parameters     163
_refine_ls_number_reflns         1729
_refine_ls_number_restraints     0
_refine_ls_restrained_S_all      1.030
_refine_ls_R_factor_all          0.1267
_refine_ls_R_factor_gt           0.0686
_refine_ls_shift/su_max          0.000
_refine_ls_shift/su_mean         0.000
_refine_ls_structure_factor_coef Fsqd
_refine_ls_weighting_details
'w=1/[\s^2^(Fo^2^)+(0.0651P)^2^+1.8099P] where P=(Fo^2^+2Fc^2^)/3'
_refine_ls_weighting_scheme      calc
_refine_ls_wR_factor_gt          0.1460
_refine_ls_wR_factor_ref         0.1756
_reflns_Friedel_coverage         0.000
_reflns_number_gt                1090
_reflns_number_total             1729
_reflns_threshold_expression     'I > 2\s(I)'
_iucr_refine_instructions_details
;
TITL 22019568_0m_a.res in P2(1)/c
    22019568_0m.res
    created by SHELXL-2018/3 at 19:37:10 on 20-May-2019
REM Old TITL 22019568_0m in P21/a #14
REM SHELXT solution in P2(1)/c
REM R1 0.202, Rweak 0.032, Alpha 0.050, Orientation a'=c, b'=-b, c'=a
REM Formula found by SHELXT: C14 O2 N2
CELL 0.71073 9.3244 11.7955 9.1953 90 115.308 90
ZERR 4 0.0027 0.0036 0.0027 0 0.009 0
LATT 1
SYMM -X,0.5+Y,0.5-Z
SFAC C H N O
UNIT 20 4 36 16

L.S. 10
PLAN  20
SIZE 0.12 0.08 0.02
TEMP -173.15
BOND $H
list 4
fmap 2
ACTA
REM <olex2.extras>
REM <HklSrc "%.\\22019568_0m.hkl">
REM </olex2.extras>

WGHT    0.065100    1.809900
FVAR       0.61660
O4    4    0.983893    0.418612    0.730029    11.00000    0.03735    0.04081 =
         0.03039    0.00481    0.01613    0.00831
O3    4    0.876522    0.555008    0.557449    11.00000    0.04220    0.04336 =
         0.02625    0.00595    0.02014   -0.00096
O1    4    0.526383    0.652536    0.407387    11.00000    0.06057    0.03246 =
         0.01358    0.00176    0.00865   -0.00223
O2    4    0.677332    0.768342    0.590064    11.00000    0.06960    0.02905 =
         0.03007    0.00253    0.00780   -0.01792
N4    3    0.643480    0.493617    0.869201    11.00000    0.03234    0.02636 =
         0.01904    0.00548    0.01190    0.00287
AFIX  43
H4    2    0.615195    0.467954    0.942978    11.00000   -1.20000
AFIX   0
N5    3    0.313704    0.674112    0.608864    11.00000    0.03283    0.02517 =
         0.01827    0.00212    0.00836   -0.00074
N1    3    0.612241    0.677112    0.545243    11.00000    0.03851    0.02674 =
         0.02073    0.00237    0.01458   -0.00100
N2    3    0.886506    0.494705    0.670785    11.00000    0.03985    0.03038 =
         0.01954   -0.00030    0.01472   -0.00193
N3    3    0.771356    0.456343    0.854232    11.00000    0.03071    0.02645 =
         0.01817    0.00003    0.01067   -0.00052
N8    3    0.054407    0.744747    0.541847    11.00000    0.04382    0.02703 =
         0.02075    0.00244    0.01398   -0.00201
N6    3    0.347307    0.604335    0.850722    11.00000    0.03611    0.03191 =
         0.02055    0.00181    0.01331    0.00020
N7    3    0.202941    0.652659    0.786976    11.00000    0.03849    0.02952 =
         0.01543    0.00107    0.00844    0.00114
N9    3   -0.057744    0.786396    0.460521    11.00000    0.04642    0.03209 =
         0.02683    0.00671    0.00897    0.00248
C2    1    0.643235    0.591349    0.669507    11.00000    0.03724    0.01967 =
         0.01117    0.00047    0.00742   -0.00315
C4    1    0.409172    0.618605    0.741666    11.00000    0.02978    0.02404 =
         0.01552    0.00170    0.00969   -0.00262
C3    1    0.560826    0.574261    0.761350    11.00000    0.03376    0.01818 =
         0.01769   -0.00071    0.00967   -0.00432
C1    1    0.769867    0.516029    0.730690    11.00000    0.03365    0.02487 =
         0.01766   -0.00044    0.01070   -0.00256
C5    1    0.193114    0.692220    0.646983    11.00000    0.02814    0.02503 =
         0.01685   -0.00044    0.00521    0.00183
HKLF 4




REM  22019568_0m_a.res in P2(1)/c
REM wR2 = 0.1756, GooF = S = 1.030, Restrained GooF = 1.030 for all data
REM R1 = 0.0686 for 1090 Fo > 4sig(Fo) and 0.1267 for all 1729 data
REM 163 parameters refined using 0 restraints

END  
     
WGHT      0.0434      1.7065 

REM Highest difference peak  0.306,  deepest hole -0.400,  1-sigma level  0.078
Q1    1   0.8701  0.4529  0.9021  11.00000  0.05    0.31
Q2    1  -0.1673  0.8194  0.4664  11.00000  0.05    0.27
Q3    1   0.7352  0.6349  0.3771  11.00000  0.05    0.25
Q4    1   0.7593  0.3357  0.7014  11.00000  0.05    0.25
Q5    1   0.4025  0.6034  0.8136  11.00000  0.05    0.25
Q6    1   0.0995  0.6782  0.6008  11.00000  0.05    0.25
Q7    1   0.8139  0.3564  0.5919  11.00000  0.05    0.24
Q8    1   0.0876  0.6488  0.7211  11.00000  0.05    0.24
Q9    1   0.3131  0.7521  0.8562  11.00000  0.05    0.23
Q10   1   0.3946  0.5163  0.8832  11.00000  0.05    0.23
Q11   1   0.2801  0.7931  0.6414  11.00000  0.05    0.23
Q12   1   0.6866  0.5653  0.3759  11.00000  0.05    0.23
Q13   1   0.8443  0.6017  0.7861  11.00000  0.05    0.23
Q14   1   0.9951  0.4834  0.7320  11.00000  0.05    0.23
Q15   1   0.3915  0.6976  0.3589  11.00000  0.05    0.22
Q16   1  -0.1743  0.8621  0.4006  11.00000  0.05    0.22
Q17   1   0.7729  0.6111  0.5037  11.00000  0.05    0.22
Q18   1   0.7193  0.6307  0.7478  11.00000  0.05    0.22
Q19   1  -0.0603  0.7506  0.6586  11.00000  0.05    0.22
Q20   1   0.8430  0.3602  0.9082  11.00000  0.05    0.22

  REM The information below was added by Olex2.
  REM
  REM R1 = 0.0686 for 1090 Fo > 4sig(Fo) and 0.1267 for all 5682 data
  REM n/a parameters refined using n/a restraints
  REM Highest difference peak 0.31, deepest hole -0.40
  REM Mean Shift 0, Max Shift 0.000.

  REM +++ Tabular Listing of Refinement Information +++
  REM R1_all = 0.1267
  REM R1_gt = 0.0686
  REM wR_ref = 0.1756
  REM GOOF = 1.030
  REM Shift_max = 0.000
  REM Shift_mean = 0
  REM Reflections_all = 5682
  REM Reflections_gt = 1090
  REM Parameters = n/a
  REM Hole = -0.40
  REM Peak = 0.31
  REM Flack = n/a

  
;
_cod_data_source_file            d2cc04531a2.cif
_cod_data_source_block           22019568_0m
_cod_original_cell_volume        914.3(5)
_cod_database_code               7130746
_shelx_shelxl_version_number     2018/3
_shelx_space_group_comment
;
The symmetry employed for this shelxl refinement is uniquely defined
by the following loop, which should always be used as a source of
symmetry information in preference to the above space-group names.
They are only intended as comments.
;
_shelx_estimated_absorpt_t_max   0.997
_shelx_estimated_absorpt_t_min   0.981
_olex2_refinement_description
;
1. Fixed Uiso
 At 1.2 times of:
  All N(H) groups
2.a Aromatic/amide H refined with riding coordinates:
 N4(H4)
;
_olex2_submission_special_instructions 'No special instructions were received'
loop_
_space_group_symop_operation_xyz
'x, y, z'
'-x, y+1/2, -z+1/2'
'-x, -y, -z'
'x, -y-1/2, z-1/2'
loop_
_atom_site_label
_atom_site_type_symbol
_atom_site_fract_x
_atom_site_fract_y
_atom_site_fract_z
_atom_site_U_iso_or_equiv
_atom_site_adp_type
_atom_site_occupancy
_atom_site_site_symmetry_order
_atom_site_calc_flag
_atom_site_refinement_flags_posn
_atom_site_refinement_flags_adp
_atom_site_refinement_flags_occupancy
_atom_site_disorder_assembly
_atom_site_disorder_group
O4 O 0.9839(4) 0.4186(3) 0.7300(4) 0.0356(8) Uani 1 1 d . . . . .
O3 O 0.8765(4) 0.5550(3) 0.5574(4) 0.0353(8) Uani 1 1 d . . . . .
O1 O 0.5264(4) 0.6525(3) 0.4074(3) 0.0380(9) Uani 1 1 d . . . . .
O2 O 0.6773(4) 0.7683(3) 0.5901(4) 0.0476(10) Uani 1 1 d . . . . .
N4 N 0.6435(4) 0.4936(3) 0.8692(4) 0.0256(9) Uani 1 1 d . . . . .
H4 H 0.615195 0.467954 0.942978 0.031 Uiso 1 1 calc R . . . .
N5 N 0.3137(4) 0.6741(3) 0.6089(4) 0.0263(9) Uani 1 1 d . . . . .
N1 N 0.6122(4) 0.6771(3) 0.5452(4) 0.0280(9) Uani 1 1 d . . . . .
N2 N 0.8865(4) 0.4947(3) 0.6708(4) 0.0292(9) Uani 1 1 d . . . . .
N3 N 0.7714(4) 0.4563(3) 0.8542(4) 0.0250(9) Uani 1 1 d . . . . .
N8 N 0.0544(5) 0.7447(3) 0.5418(4) 0.0305(9) Uani 1 1 d . . . . .
N6 N 0.3473(4) 0.6043(3) 0.8507(4) 0.0291(9) Uani 1 1 d . . . . .
N7 N 0.2029(4) 0.6527(3) 0.7870(4) 0.0289(9) Uani 1 1 d . . . . .
N9 N -0.0577(5) 0.7864(4) 0.4605(5) 0.0374(10) Uani 1 1 d . . . . .
C2 C 0.6432(5) 0.5913(3) 0.6695(5) 0.0237(10) Uani 1 1 d . . . . .
C4 C 0.4092(5) 0.6186(4) 0.7417(5) 0.0231(10) Uani 1 1 d . . . . .
C3 C 0.5608(5) 0.5743(4) 0.7614(5) 0.0237(10) Uani 1 1 d . . . . .
C1 C 0.7699(5) 0.5160(4) 0.7307(5) 0.0255(10) Uani 1 1 d . . . . .
C5 C 0.1931(5) 0.6922(4) 0.6470(5) 0.0249(10) Uani 1 1 d . . . . .
loop_
_atom_site_aniso_label
_atom_site_aniso_U_11
_atom_site_aniso_U_22
_atom_site_aniso_U_33
_atom_site_aniso_U_23
_atom_site_aniso_U_13
_atom_site_aniso_U_12
O4 0.0374(19) 0.041(2) 0.0304(18) 0.0048(15) 0.0161(15) 0.0083(16)
O3 0.0422(19) 0.043(2) 0.0262(17) 0.0059(15) 0.0201(15) -0.0010(16)
O1 0.061(2) 0.032(2) 0.0136(16) 0.0018(14) 0.0087(15) -0.0022(16)
O2 0.070(3) 0.029(2) 0.0301(19) 0.0025(16) 0.0078(17) -0.0179(18)
N4 0.032(2) 0.026(2) 0.0190(18) 0.0055(15) 0.0119(15) 0.0029(16)
N5 0.033(2) 0.025(2) 0.0183(18) 0.0021(15) 0.0084(15) -0.0007(16)
N1 0.039(2) 0.027(2) 0.021(2) 0.0024(16) 0.0146(17) -0.0010(18)
N2 0.040(2) 0.030(2) 0.0195(19) -0.0003(17) 0.0147(17) -0.0019(19)
N3 0.031(2) 0.026(2) 0.0182(18) 0.0000(15) 0.0107(15) -0.0005(16)
N8 0.044(2) 0.027(2) 0.021(2) 0.0024(18) 0.0140(18) -0.002(2)
N6 0.036(2) 0.032(2) 0.0205(19) 0.0018(16) 0.0133(17) 0.0002(17)
N7 0.038(2) 0.030(2) 0.0154(18) 0.0011(16) 0.0084(16) 0.0011(17)
N9 0.046(3) 0.032(2) 0.027(2) 0.0067(19) 0.0090(19) 0.002(2)
C2 0.037(3) 0.020(2) 0.0112(19) 0.0005(17) 0.0074(18) -0.0031(19)
C4 0.030(2) 0.024(2) 0.016(2) 0.0017(18) 0.0097(17) -0.0026(19)
C3 0.034(2) 0.018(2) 0.018(2) -0.0007(17) 0.0097(19) -0.0043(18)
C1 0.034(2) 0.025(2) 0.018(2) -0.0004(18) 0.0107(18) -0.003(2)
C5 0.028(2) 0.025(3) 0.017(2) -0.0004(18) 0.0052(18) 0.0018(19)
loop_
_atom_type_symbol
_atom_type_description
_atom_type_scat_dispersion_real
_atom_type_scat_dispersion_imag
_atom_type_scat_source
C C 0.0033 0.0016 'International Tables Vol C Tables 4.2.6.8 and 6.1.1.4'
H H 0.0000 0.0000 'International Tables Vol C Tables 4.2.6.8 and 6.1.1.4'
N N 0.0061 0.0033 'International Tables Vol C Tables 4.2.6.8 and 6.1.1.4'
O O 0.0106 0.0060 'International Tables Vol C Tables 4.2.6.8 and 6.1.1.4'
loop_
_geom_angle_atom_site_label_1
_geom_angle_atom_site_label_2
_geom_angle_atom_site_label_3
_geom_angle
_geom_angle_site_symmetry_1
_geom_angle_site_symmetry_3
_geom_angle_publ_flag
N3 N4 H4 122.9 . . ?
N3 N4 C3 114.3(3) . . ?
C3 N4 H4 122.9 . . ?
C5 N5 C4 98.4(3) . . ?
O1 N1 O2 125.3(4) . . ?
O1 N1 C2 118.4(4) . . ?
O2 N1 C2 116.4(3) . . ?
O4 N2 O3 124.9(4) . . ?
O4 N2 C1 119.8(4) . . ?
O3 N2 C1 115.3(4) . . ?
C1 N3 N4 103.3(3) . . ?
N9 N8 C5 178.3(4) . . ?
N7 N6 C4 106.6(3) . . ?
C5 N7 N6 102.2(3) . . ?
C3 C2 N1 127.3(4) . . ?
C3 C2 C1 105.0(4) . . ?
C1 C2 N1 127.6(4) . . ?
N5 C4 N6 114.0(4) . . ?
N5 C4 C3 121.8(4) . . ?
N5 C4 C5 40.7(2) . . ?
N6 C4 C3 124.2(4) . . ?
N6 C4 C5 73.3(3) . . ?
C3 C4 C5 162.4(3) . . ?
N4 C3 C2 105.1(4) . . ?
N4 C3 C4 124.5(4) . . ?
C2 C3 C4 130.0(4) . . ?
N3 C1 N2 120.1(4) . . ?
N3 C1 C2 112.4(4) . . ?
C2 C1 N2 127.5(4) . . ?
N5 C5 N8 122.0(4) . . ?
N5 C5 N7 118.7(4) . . ?
N5 C5 C4 40.9(2) . . ?
N8 C5 C4 162.7(4) . . ?
N7 C5 N8 119.2(4) . . ?
N7 C5 C4 77.8(3) . . ?
loop_
_geom_bond_atom_site_label_1
_geom_bond_atom_site_label_2
_geom_bond_distance
_geom_bond_site_symmetry_2
_geom_bond_publ_flag
O4 N2 1.226(5) . ?
O3 N2 1.232(5) . ?
O1 N1 1.210(4) . ?
O2 N1 1.218(5) . ?
N4 H4 0.8800 . ?
N4 N3 1.332(5) . ?
N4 C3 1.352(5) . ?
N5 C4 1.335(5) . ?
N5 C5 1.330(5) . ?
N1 C2 1.460(5) . ?
N2 C1 1.436(5) . ?
N3 C1 1.331(5) . ?
N8 N9 1.107(5) . ?
N8 C5 1.386(6) . ?
N6 N7 1.344(5) . ?
N6 C4 1.364(5) . ?
N7 C5 1.335(5) . ?
C2 C3 1.378(6) . ?
C2 C1 1.390(6) . ?
C4 C3 1.445(6) . ?
C4 C5 2.018(6) . ?
loop_
_refln_index_h
_refln_index_k
_refln_index_l
_refln_F_squared_meas
_refln_F_squared_sigma
0 0 -1 0.06 1.76
0 0 1 0.64 1.82
0 0 2 582.2 25.06
0 0 -2 575.93 24.93
0 0 3 1.14 4.01
0 0 -3 3.62 3.86
0 0 4 121.19 11.04
0 0 -4 142.41 20.6
0 0 -5 7.26 5.13
0 0 5 -0.32 5.36
0 0 6 207.43 15.95
0 0 -6 203.67 15.31
0 0 7 2.64 7.57
0 0 -7 -3.16 8.29
0 0 -8 10.84 10.96
0 0 8 13.02 8.27
0 0 9 -0.06 8.8
0 0 10 209.03 20.05
0 1 1 375.38 17.01
0 1 -1 400.76 16.34
0 -1 1 409.63 16.35
0 -1 -1 389.93 17.04
0 1 2 955.23 40.08
0 1 -2 977.83 39.31
0 -1 2 969.26 39.22
0 -1 -2 959.91 40.03
0 1 -3 45.22 6.6
0 1 3 56.1 7.94
0 -1 3 49.4 6.79
0 -1 -3 52.3 7.33
0 1 4 349.62 19.53
0 1 -4 352.02 18.59
0 -1 4 368.06 18.88
0 -1 -4 342.31 18.97
0 1 -5 27.77 6.71
0 1 5 38.21 8.61
0 -1 5 37.57 8.39
0 -1 -5 40.26 7.56
0 1 6 15.73 7.67
0 1 -6 23.97 7.21
0 -1 -6 34.15 8.4
0 -1 6 29.02 8.01
0 1 7 222.13 18.34
0 1 -7 246.65 18.32
0 -1 7 243.53 17.58
0 -1 -7 251.08 19.17
0 1 -8 40.84 11.78
0 1 8 42.11 10.07
0 -1 8 53.31 11.44
0 1 9 16.37 9.52
0 -1 9 24.61 10.02
0 1 10 6.15 10.17
0 -1 10 23.67 9.01
0 -2 0 153.62 8.06
0 2 1 2220.34 89.34
0 -2 -1 2348.59 89.44
0 2 2 3492.45 139.76
0 -2 2 3739.38 138.49
0 -2 -2 3501.96 139.77
0 -2 2 3596.17 138
0 2 -3 11.13 4.73
0 2 3 17.89 5.57
0 -2 3 7.32 4.13
0 -2 -3 8.83 2.9
0 -2 -3 11.52 4.89
0 2 -4 9.37 4.88
0 -2 4 0.79 4.01
0 -2 -4 7.33 4.83
0 2 5 44.43 9.77
0 2 -5 56.62 8.55
0 -2 -5 49.84 8.84
0 2 6 72.19 11.48
0 2 -6 93.98 11.04
0 -2 -6 77.43 11.27
0 -2 6 83.92 10.23
0 2 -7 77.18 13.28
0 2 7 72.43 12.59
0 -2 7 85.6 13.18
0 -2 -7 74.53 13.03
0 2 -8 42.78 12.98
0 2 8 38.67 12.66
0 -2 8 56.49 10.98
0 2 9 103.68 15.1
0 -2 9 88.95 13.49
0 2 10 26.39 10.28
0 -2 10 47.14 10.19
0 -3 0 2 3.55
0 3 1 643.62 28.44
0 -3 -1 646.83 28.33
0 3 2 187.88 12.72
0 -3 -2 186.73 12.21
0 -3 2 195.89 10.89
0 3 3 55.46 8.47
0 -3 3 49.25 6.18
0 -3 3 58.45 6.63
0 -3 -3 48.55 8.32
0 3 4 7.47 5.35
0 3 -4 -0.23 3.84
0 -3 -4 5.37 5.06
0 -3 4 4.29 2.47
0 -3 -4 3.59 2.8
0 -3 4 3.96 4.19
0 3 5 680.59 34.67
0 3 -5 689.71 32.69
0 -3 5 782.59 39.57
0 -3 -5 653.72 34.38
0 3 -6 -0.17 6.03
0 3 6 20.05 7.94
0 -3 6 1.03 5.09
0 -3 -6 13.05 7.96
0 3 7 123.33 14.66
0 3 -7 111.08 14.87
0 -3 -7 89.66 13.64
0 -3 7 97.87 13
0 3 8 69.5 13.45
0 3 -8 75.76 13.78
0 -3 8 58.82 11.19
0 3 9 12.69 9.23
0 -3 9 12.02 8.61
0 -4 0 121.65 9.36
0 4 1 143.07 10.5
0 -4 -1 127.23 10.1
0 4 2 696.02 32.19
0 -4 -2 696.39 31.98
0 -4 3 0.76 4.06
0 -4 3 9.06 4.84
0 -4 -3 8.18 4.8
0 4 4 66.55 10.41
0 -4 -4 68.4 9.62
0 -4 4 66.04 7.58
0 -4 4 63.95 6.86
0 4 5 19.51 7.56
0 -4 -5 30.74 5.22
0 -4 -5 46.89 8.32
0 -4 5 27.95 5.05
0 4 6 34.58 9.42
0 -4 -6 45.49 10.2
0 -4 -6 49.97 6.57
0 -4 6 31.67 8.67
0 4 7 29.97 10.87
0 -4 7 19.74 7.24
0 4 8 6.38 9.08
0 -4 8 -4.82 7.45
0 4 9 53.3 12.27
0 -4 9 70.22 18.39
0 -5 0 5.42 4.16
0 5 1 7.24 5.4
0 -5 -1 4.28 5.05
0 5 2 948.87 42.15
0 -5 -2 915.47 41.49
0 5 3 76.7 10.97
0 -5 3 68.21 7.97
0 -5 -3 55.31 8.55
0 -5 3 59.2 7.99
0 5 4 85.94 11.15
0 -5 4 77.81 8.19
0 -5 -4 83.57 10.48
0 -5 4 76.56 8.42
0 5 5 2.36 6.63
0 -5 5 2.11 5.14
0 -5 -5 10.3 7.58
0 -5 -5 5.84 4.44
0 -5 5 8.11 4.43
0 5 6 8.25 8.41
0 -5 6 -1.48 5.26
0 -5 6 7.26 3.95
0 -5 -6 4.67 4.86
0 -5 -6 -0.22 6.82
0 5 7 -8.63 7.97
0 -5 7 5.39 7.24
0 5 8 0.84 8.92
0 -5 8 5.14 6.47
0 5 9 29.91 12.09
0 -5 9 -10.67 15.33
0 6 1 92.99 9.94
0 -6 -1 99.71 9.67
0 -6 1 89.39 8.52
0 6 2 10.23 6.06
0 -6 -2 2.06 4.93
0 6 3 186.67 15.17
0 -6 3 181.17 13.34
0 -6 -3 180.38 14.46
0 6 4 255.65 18.88
0 -6 -4 247.91 17.25
0 -6 4 240.03 15.43
0 -6 4 247.2 15.65
0 6 5 207.14 17.45
0 -6 -5 196.67 16.43
0 -6 5 216.51 14.77
0 -6 5 213.23 14.1
0 6 6 -0.44 8.65
0 -6 6 12.56 5.33
0 -6 -6 4.87 5.92
0 -6 6 25.47 7.73
0 6 7 26.72 11.04
0 -6 7 29.01 8.29
0 -6 -7 22.52 7.34
0 6 8 4.26 10.31
0 -6 8 19.1 8.52
0 6 9 -19.85 10.07
0 -6 9 -9.38 14.56
0 -7 0 -3.16 4.21
0 -7 1 47.73 7.6
0 -7 -1 53.79 9.04
0 7 2 180.75 14.8
0 -7 -2 209.01 15.11
0 7 3 0.58 6.35
0 -7 3 12.43 5.78
0 -7 -3 10.68 6.56
0 7 4 4.05 6.53
0 -7 4 6.48 6.84
0 -7 4 14.07 5.53
0 7 5 40.8 10.18
0 -7 5 33.26 7.08
0 -7 -5 21.28 8.27
0 -7 5 48.62 9.04
0 7 6 31.67 9.97
0 -7 -6 37.35 8.95
0 -7 6 44.96 8.84
0 -7 6 59.12 8.83
0 7 7 10.91 9.75
0 -7 7 5.98 5.82
0 -7 7 15.61 7.73
0 7 8 36.3 12.55
0 -7 -8 15.69 9.14
0 -8 0 -0.9 4.85
0 -8 -1 21.49 7.37
0 -8 1 35.72 7.3
0 8 2 22.46 7.66
0 -8 2 22.08 6.79
0 -8 -2 32.25 8.94
0 8 3 82.87 11.48
0 -8 3 77.04 11.08
0 -8 -3 85.31 16.62
0 8 4 8.47 8.51
0 -8 -4 7.28 7.62
0 -8 4 -5.13 5.84
0 -8 4 7.16 6.34
0 -8 5 138.64 12.41
0 -8 5 117.64 13.14
0 8 6 7.12 9.92
0 -8 6 0.49 5.79
0 -8 6 15.67 7.16
0 -8 -6 0.63 13.03
0 8 7 40.75 11.19
0 -8 -7 62.11 13.22
0 -8 7 51.91 10.09
0 -8 7 37.38 8.51
0 8 8 12.9 11.29
0 -8 -8 0.61 11.85
0 -9 0 -2 5.65
0 -9 1 396.11 22.47
0 -9 -1 404.92 23.65
0 -9 -2 -6.78 7.57
0 -9 2 11.4 5.75
0 9 3 70.02 12.21
0 -9 -3 102.01 13.6
0 -9 3 65.37 10.9
0 9 4 12.1 8.43
0 -9 4 6.41 8.92
0 -9 4 7.07 6.25
0 9 5 278.51 21.23
0 -9 5 274.91 18.72
0 -9 5 251.12 18.63
0 9 6 27.05 11.48
0 -9 6 54.71 9.74
0 -9 -6 27.45 9.87
0 -9 6 25.36 7.63
0 9 7 -0.73 11.28
0 -9 -7 -8.75 11.65
0 -9 7 7.68 7.81
0 -9 7 -9.7 6.91
0 -10 0 3.41 7.16
0 -10 1 31.25 8.66
0 -10 -1 20.88 15.52
0 -10 2 137.41 13.34
0 -10 -2 131.64 15.31
0 10 3 180.65 18.07
0 -10 3 181.16 16.83
0 -10 3 181.48 14.94
0 10 4 4.28 8.95
0 -10 4 -2.55 7.35
0 10 5 47.78 11.4
0 -10 5 53.2 10.17
0 -10 5 80.58 12.09
0 10 6 125.06 17.76
0 -10 6 83.83 12.46
0 -10 6 126.95 13.34
0 10 7 15.71 13.81
0 -10 7 12.73 7.61
0 -10 7 -16.56 6.82
0 -11 0 5.76 9.2
0 -11 -1 86.78 14.23
0 -11 1 109.16 24.58
0 -11 2 6.16 7.19
0 -11 2 -10.29 8
0 -11 3 80.7 12.93
0 -11 3 99.54 14.08
0 11 4 104.22 16.1
0 -11 4 122.17 15.14
0 -11 4 99.02 15.88
0 11 5 21.07 10.21
0 -11 5 13.95 7.96
0 11 6 11.08 10.45
0 -11 6 7.33 8.02
0 -11 6 11.06 8.62
0 -12 1 43.15 10.96
0 -12 2 23.58 9.17
0 -12 2 25.35 10.8
0 -12 3 48.87 11.36
0 -12 3 26.74 11.8
0 -12 4 -6.14 10.51
0 -12 4 15.88 9.81
0 12 5 26.75 12.04
0 -12 5 -1.32 11.09
0 -12 5 33.16 8.12
0 -13 1 5.48 9.31
0 -13 2 31.24 11.24
0 -13 3 -11.87 8.38
0 -13 4 5.46 10.61
0 -14 0 -9.43 10.14
0 -14 1 9.1 10.83
0 -14 2 36.9 13.92
-1 0 10 19.63 9.7
-1 0 9 24.36 7.93
-1 0 8 67.38 11.73
1 0 -8 32.08 10.61
1 0 -7 4.77 6.37
-1 0 7 8.94 6.89
-1 0 6 199.14 14.62
1 0 -6 175.2 13.58
-1 0 5 -0.06 4.47
1 0 -5 -1.54 4.02
-1 0 4 1271.8 52.32
1 0 -4 1242.17 52.19
-1 0 3 -1.54 3.8
1 0 -3 -0.35 3.27
-1 0 2 40.41 4.62
1 0 -2 33.96 4.45
1 0 -1 0.51 1.36
-1 0 1 0.23 1.28
1 0 0 121.67 7.11
-1 0 0 129.23 6.75
1 0 0 127.87 6.37
-1 0 0 127.83 6.99
1 0 1 -1.74 3.26
-1 0 -1 -0.37 3.46
-1 0 -1 0.9 2.34
1 0 1 1.57 2.39
-1 0 -2 120 7.39
1 0 2 118.32 7.55
1 0 2 117.45 9.83
-1 0 -2 128.78 9.85
-1 0 -3 -0.44 2.52
-1 0 -3 -3.49 3.74
1 0 3 -1.69 4.53
1 0 3 0.45 2.72
-1 0 -4 292.33 17.42
1 0 4 307.34 18.39
-1 0 -5 -0.71 5.21
1 0 5 0.22 5.99
1 0 6 869.82 42.14
-1 0 -6 874.34 42.24
1 0 7 -2.88 7.77
-1 0 -7 3.61 8.42
1 0 8 140.33 16.32
1 0 9 7.39 9.36
-1 1 10 26.49 10.26
-1 -1 10 44.29 9.53
-1 1 9 39.08 11.59
1 1 -9 31.61 17.48
-1 -1 9 43.48 10.76
1 1 -8 58.13 13.2
-1 1 8 57.43 11.43
-1 -1 8 68.2 11.5
1 -1 -8 54.22 12.4
1 1 -7 34.37 7.84
-1 1 7 26.79 9.17
-1 -1 7 51.14 9.06
1 -1 -7 30.56 9.05
1 1 -6 254.34 16.02
-1 1 6 260.38 17.53
1 -1 -6 250.62 16.88
-1 -1 6 265.24 16.45
1 1 -5 50.96 8
1 -1 -5 60.46 8.01
-1 -1 5 55.42 7.37
1 1 -4 129.22 9.52
-1 1 4 123.8 10.97
1 -1 -4 120.21 10.2
-1 -1 4 135.47 9.36
-1 1 3 479.74 22.47
1 1 -3 496.58 21.25
1 -1 -3 482.05 22.41
-1 -1 3 474.19 21.19
-1 1 2 962.95 40.18
1 1 -2 1035.81 38.84
-1 -1 2 982.71 38.78
1 -1 -2 975.27 40.23
1 -1 -2 977.05 38.69
-1 1 1 445.89 18.03
1 1 -1 433.3 17.97
1 -1 -1 441.92 17.96
-1 -1 1 435.5 17.9
1 -1 -1 415.32 18.34
-1 1 0 190.81 8.96
1 1 0 187.47 8.96
1 1 0 184.01 8.97
-1 -1 0 188.84 8.92
1 -1 0 182.87 8.9
-1 -1 0 189.95 8.92
-1 1 -1 1345.56 52.01
1 1 1 1288.6 51.16
-1 1 -1 1278.32 51.06
1 1 1 1302.09 52.24
-1 -1 -1 1291.99 52.14
-1 -1 -1 1299.7 51.09
1 -1 1 1262.29 50.94
1 -1 1 1307.2 51.95
-1 1 -2 600 25.45
1 1 2 628.28 28.02
1 1 2 590.05 25.62
-1 1 -2 646.3 27.52
-1 -1 -2 613.8 27.71
1 -1 2 610.08 25.39
-1 -1 -2 598.68 25.42
1 -1 2 603.92 27.21
-1 1 -3 59.67 5.39
-1 1 -3 59.77 7.8
1 1 3 52.82 8.52
1 1 3 58.64 5.88
1 -1 3 69.14 9.19
-1 -1 -3 58.64 5.58
1 -1 3 58.4 5.5
1 1 4 10.82 6.96
-1 1 -4 17.97 5.68
-1 -1 -4 17.49 6.04
1 -1 4 3.17 10.75
1 1 5 48.28 9.54
-1 1 -5 37.29 8.11
-1 -1 -5 47.55 8.31
1 -1 5 35.09 8.33
-1 1 -6 -4.5 6.2
1 1 6 -6.02 6.76
1 -1 6 4.94 7.79
-1 -1 -6 1.68 8.55
1 1 7 42.35 11.03
-1 1 -7 38.03 11.62
1 -1 7 31.69 9.62
-1 -1 -7 20.42 9.53
1 1 8 60.98 11.4
1 -1 8 57.39 12.83
1 1 9 23.57 10.73
1 -1 9 4.05 8.81
-1 2 10 40.61 12.15
-1 -2 10 54.46 11.66
-1 2 9 230.82 20.86
1 2 -9 179.25 19.21
-1 -2 9 247.98 17.94
-1 2 8 75.58 13.25
1 2 -8 67.22 12.64
1 -2 -8 85.17 13.53
-1 -2 8 66.14 11.01
1 2 -7 -0.16 5.84
-1 2 7 6.03 7.59
1 -2 -7 -5.8 6.71
-1 -2 7 6.27 6.5
-1 2 6 301.45 19.22
1 2 -6 265.11 17.1
1 -2 -6 296.14 18.98
-1 -2 6 320.47 23.86
-1 2 5 71.03 9.88
1 2 -5 85.33 8.29
-1 -2 5 82.59 8.2
1 -2 -5 85.71 9.27
1 2 -4 5.16 3.85
-1 2 4 12.67 5.77
-1 -2 4 8.77 3.93
1 -2 -4 7.03 4.72
-1 2 3 621.57 28.46
1 2 -3 629.91 26.14
1 -2 -3 611.64 28.35
-1 -2 3 624.99 26.12
-1 2 2 56.8 7.23
1 -2 -2 53.44 6.73
1 -2 -2 39.58 5.51
1 -2 -1 183.95 10.37
1 -2 -1 180.49 9.91
1 2 0 4.06 3.12
-1 2 0 1.03 3.13
1 -2 0 3.63 3.08
-1 -2 0 -0.39 2.92
-1 2 -1 1960.01 74.25
1 2 1 1773.66 74.77
-1 -2 -1 1928.49 74.95
-1 -2 -1 1905.84 74.14
1 -2 1 1863.2 74.03
-1 2 -2 34.64 4.65
-1 2 -2 36.05 6.21
1 2 2 29.38 6.66
1 -2 2 46.06 6.86
1 -2 2 34.02 4.67
-1 -2 -2 42.45 6.84
-1 -2 -2 32.97 4.7
-1 2 -3 1626.4 65.12
1 2 3 1592.36 65.88
-1 2 -3 1523.15 62.73
-1 -2 -3 1576.39 65.79
1 -2 3 1528.84 62.4
-1 -2 -3 1612.34 62.81
1 -2 3 1582.31 64.66
-1 2 -4 94.16 10
-1 2 -4 87.29 7.12
1 2 4 78.81 10.61
-1 -2 -4 102.6 10.29
-1 -2 -4 98.86 7.36
1 2 5 139 13.51
-1 2 -5 105.04 12.03
-1 -2 -5 132.95 12.65
1 -2 5 108.41 11.36
-1 2 -6 -8.01 7.35
1 2 6 11 8.01
1 -2 6 0.02 6.94
-1 -2 -6 9.38 7.79
-1 2 -7 -17.49 9.59
1 2 7 16.67 9.2
1 -2 7 2.27 8
1 2 8 -7.35 9.29
1 -2 8 1.99 10.75
1 2 9 12 10.81
1 -2 9 19.5 9.85
-1 3 10 26.24 10.43
-1 -3 10 15.5 9.54
1 3 -9 3.53 11.85
-1 3 9 9.96 9.52
-1 -3 9 16.03 7.49
1 3 -8 6.81 10
-1 3 8 27.99 10.74
-1 -3 8 33.82 9.27
-1 3 7 3.32 7.44
1 3 -7 6.07 7.01
1 -3 -7 1.08 7.63
-1 -3 7 6.94 5.83
1 3 -6 18.18 6.73
-1 3 6 22.05 7.66
-1 -3 6 30.99 8.65
1 -3 -6 14.91 6.78
1 3 -5 81.7 8.87
-1 3 5 98.35 11.13
1 -3 -5 95 10.39
-1 -3 5 88.8 8.22
1 3 -4 754.51 32.54
-1 -3 4 772.66 32.59
1 -3 -4 771.06 35.49
-1 3 3 81.86 9.09
-1 -3 3 85.69 6.37
1 -3 -3 83.52 8.93
-1 3 2 179.68 12.17
1 -3 -2 176.32 11.7
1 -3 -1 528.11 24.11
-1 -3 1 537 22.61
1 -3 -1 562.86 24.59
1 3 0 163.4 9.88
1 -3 0 158.66 10.52
-1 -3 0 160.91 9.8
1 3 1 9692.91 375.83
1 -3 1 9999 375.36
-1 -3 -1 9722.93 375.74
1 3 2 56.03 8.53
1 -3 2 39.1 6
1 -3 2 54.92 7.61
-1 -3 -2 48.07 7.63
-1 -3 -2 51.56 6.45
1 3 3 12.99 11.34
-1 -3 -3 1.96 4.37
1 -3 3 11.6 5.06
-1 -3 -3 1.97 2.97
1 -3 3 6.54 3.29
-1 3 -4 27.4 6.9
1 3 4 46.32 9.5
1 -3 4 30.59 4.86
1 -3 4 38.47 9.34
-1 -3 -4 24.75 7.05
-1 -3 -4 33.12 5.19
1 3 5 183.75 15.94
-1 3 -5 172.55 14.33
1 -3 5 184.26 13.92
-1 -3 -5 192.47 11.01
-1 -3 -5 170.15 15.01
1 3 6 7.32 7.77
-1 3 -6 24.74 8.83
1 -3 6 15.45 6.96
-1 -3 -6 12.06 8.17
-1 3 -7 170.19 17.61
1 3 7 163.58 25.74
1 -3 7 192.4 16.36
1 3 8 29.92 10.73
1 -3 8 1.77 16.21
1 3 9 23.75 9.51
1 -3 9 31.62 9.91
-1 4 10 17.91 10.93
-1 -4 10 37.95 11.72
-1 4 9 36.08 11.46
-1 -4 9 52.76 10.93
-1 4 8 39.51 11.24
1 4 -8 22.94 9.74
-1 -4 8 53.84 10.04
-1 4 7 253.87 19.99
1 -4 -7 243.58 19.54
-1 -4 7 262.5 17.03
-1 4 6 1.47 6.31
1 -4 -6 9.71 7.02
-1 -4 6 -2.03 4.55
-1 4 5 156.41 14.21
-1 -4 5 164.19 11.15
1 -4 -5 160.33 13.85
-1 4 4 44.31 8.18
-1 -4 4 50.77 5.69
1 -4 -4 39.06 7.83
-1 4 3 15.71 6.13
1 -4 -3 13.87 6.09
-1 -4 3 27.33 4.73
-1 4 2 267.91 15.97
1 -4 -2 259.84 15.21
-1 -4 1 0.41 3.14
1 -4 -1 4.61 4.41
1 4 0 1560.77 61.8
-1 -4 0 1465.07 61.4
1 -4 0 1561.85 62.34
1 4 1 3642.5 143.55
1 -4 1 3764.27 143.28
-1 -4 -1 3576.13 143.33
1 4 2 0.28 5.62
1 -4 2 8.5 4.02
-1 -4 -2 0.03 4.58
1 4 3 947.34 43.95
1 -4 3 987.39 41.46
-1 -4 -3 944.83 43.65
1 -4 3 1004.16 42.45
-1 -4 -3 974.97 41.81
1 4 4 103.69 12.28
1 -4 4 111.96 10.89
-1 -4 -4 133.42 15.02
1 -4 4 124.06 9.17
-1 -4 -4 114.89 12.07
1 4 5 82.65 11.95
-1 -4 -5 59.75 11.87
1 -4 5 73.92 9.43
1 -4 5 57.14 6.82
-1 -4 -5 63.31 7.88
1 4 6 4.11 8.55
1 -4 6 -1.65 6.31
-1 -4 -6 12.11 4.35
-1 -4 -6 10.71 7.93
1 4 7 48.84 12.51
1 -4 7 27.8 7.7
1 4 8 138.95 17.09
1 4 9 -0.15 10.28
1 -4 9 10.76 9.01
-1 5 9 94.7 15.32
-1 -5 9 67.77 11.52
-1 5 8 24.87 11.69
-1 -5 8 40.35 8.68
-1 5 7 1.35 8.15
-1 -5 7 12.61 6.1
-1 5 6 -8.71 6.85
-1 -5 6 11.56 6.84
1 -5 -6 2.81 6.63
-1 5 5 21.09 7.93
-1 -5 5 24.24 5.42
1 -5 -5 29.52 7.82
-1 -5 5 21.23 5.62
-1 5 4 97.57 11.47
1 -5 -4 112.13 11.16
-1 -5 4 102.92 8.29
-1 5 3 58.02 9.21
1 -5 -3 51.2 8.14
-1 5 2 128.03 11.49
1 -5 -2 145.89 10.99
-1 -5 1 195.61 11.48
1 5 0 501.05 24.23
-1 -5 0 533.55 24.25
1 -5 0 517.33 25
1 5 1 9.69 5.67
1 -5 1 7.77 4.81
-1 -5 -1 6.13 5.27
1 5 2 27.3 8.4
1 -5 2 18.19 5.4
-1 -5 -2 21.82 6.19
1 5 3 301.81 19.49
-1 -5 -3 307.78 19.17
1 -5 3 318.34 18.76
-1 -5 -3 308.13 17.16
1 -5 3 309.39 17.29
1 5 4 -0.22 6.53
1 -5 4 -1.6 3.66
-1 -5 -4 6.95 4.12
1 -5 4 2.16 5.26
-1 -5 -4 7.3 5.45
1 5 5 -1.76 6.55
1 -5 5 6.35 6.29
-1 -5 -5 -1.78 4.56
-1 -5 -5 -9.31 5.63
1 -5 5 0.32 4.76
1 5 6 374.85 25.24
-1 -5 -6 356.78 18.87
1 -5 6 324.86 21.33
1 -5 6 303.37 21.88
1 5 7 54.39 12.72
1 -5 7 84.21 11.48
-1 -5 -7 46.92 7.94
1 5 8 25.28 11.28
1 -5 8 47.35 18.83
1 5 9 7.49 14.82
1 -5 9 7.5 10.47
-1 6 9 17.45 11.8
-1 -6 9 27.64 8.45
-1 6 8 -4.63 7.84
-1 -6 8 19.05 8.51
-1 6 7 7.21 8.6
1 -6 -7 13.82 5.54
-1 -6 7 -2.52 5.93
-1 6 6 43.79 10.64
-1 -6 6 57.65 10.32
-1 -6 6 59.66 14
1 -6 -6 54.53 11.21
-1 6 5 58.54 10.97
-1 -6 5 44.68 7.04
-1 6 4 29.71 7.93
-1 -6 4 28.41 6.21
1 -6 -4 22.17 6.94
-1 6 3 128.87 13.15
1 -6 -3 135.05 11.89
-1 6 2 2.82 5.03
1 -6 -2 14.09 5.74
-1 -6 2 4.08 3.53
1 -6 -1 24.53 6.11
-1 -6 1 23.33 5.42
1 6 0 252.84 15
-1 -6 0 247.37 14.89
1 -6 0 245.83 14.91
1 6 1 105.35 11.46
-1 -6 -1 104.02 9.82
1 -6 1 111.95 10.72
1 6 2 1451.23 62.22
-1 -6 -2 1392.9 61.62
1 -6 2 1475.58 61.21
1 6 3 5.18 6.02
1 -6 3 0.69 4.12
1 -6 3 -4.28 5.89
-1 -6 -3 2.88 5.74
1 6 4 29.5 9.64
-1 -6 -4 34.07 7.39
-1 -6 -4 41.84 10.86
1 -6 4 38.51 8.57
1 -6 4 33.91 7.06
1 6 5 2.32 8.12
-1 -6 -5 18.68 6.64
1 -6 5 7.28 4.64
1 -6 5 7.08 7.48
-1 -6 -5 1.8 6.83
1 6 6 584.88 33.8
-1 -6 -6 602.17 28.59
1 -6 6 547.8 27.5
1 -6 6 528.98 29.46
1 6 7 6.65 9.88
1 -6 7 38.36 9.44
-1 -6 -7 15.06 7.47
1 6 8 7.18 11.29
1 -6 8 24.26 8.92
-1 7 9 65.26 15.26
-1 -7 9 69.9 11.21
-1 7 8 69.68 14.77
-1 -7 8 104.09 12.05
1 -7 -8 63.24 10.05
1 -7 -8 78.3 10.23
-1 7 7 173.3 18.57
1 -7 -7 158.67 13.97
-1 -7 7 143.97 12.31
-1 -7 7 156.55 13.14
-1 7 6 36.6 19.11
-1 -7 6 55.2 10.71
-1 -7 6 31.13 7.33
-1 7 5 142.61 15.06
-1 -7 5 131.02 11.52
-1 -7 5 154.08 13
1 -7 -5 154.25 15.63
-1 7 4 195.17 16.63
1 -7 -4 228.73 17.3
-1 -7 4 179.84 12.79
-1 7 3 36.86 8.32
1 -7 -3 36.64 8.27
-1 -7 2 9.37 4.75
1 -7 -2 17.37 6.6
1 -7 -1 26.5 7.07
-1 -7 0 68.93 8.47
1 -7 0 68.1 9.04
1 7 1 19.65 6.95
1 -7 1 23.94 7.08
-1 -7 -1 13.88 6.31
1 7 2 18.27 6.98
-1 -7 -2 22.47 6.89
1 -7 2 39.35 7.64
1 7 3 22.92 8.5
1 -7 3 18.68 6.44
-1 -7 -3 11.69 7.49
1 7 4 389.37 25.26
-1 -7 -4 398.99 25.93
1 -7 4 394.22 23
-1 -7 -4 417.76 23.4
1 -7 4 434.5 24.25
1 7 5 9.89 8.87
1 -7 5 2.07 5.39
-1 -7 -5 15.8 6.9
1 -7 5 11.5 8.25
1 7 6 -0.03 8.89
1 -7 6 1.18 5.8
1 -7 6 1.01 7.12
-1 -7 -6 -2.22 6.54
1 7 7 61.16 13.17
1 -7 7 46.03 9.88
-1 -7 -7 37.06 9.87
1 -7 7 46.29 7.97
1 7 8 30.92 11.96
1 -7 8 41.86 9.53
-1 8 8 10.91 11.5
1 -8 -8 22.24 10.95
-1 -8 8 16.44 7.31
1 -8 -8 24.27 8.84
-1 8 7 167.46 18.84
-1 -8 7 174.59 13.79
-1 -8 7 139.43 13.59
-1 8 6 86.36 14.03
-1 -8 6 111.33 10.76
-1 -8 6 92.42 11.41
-1 8 5 16.14 9.19
-1 -8 5 3.93 6.63
-1 -8 5 5.64 6.96
-1 8 4 194.47 16.56
-1 -8 4 173.81 13.53
1 -8 -4 194.61 17.33
-1 8 3 54.38 10.13
-1 -8 3 52.28 8.5
1 -8 -3 51.55 10.18
1 -8 -2 30.97 8.18
-1 -8 2 40.86 7.61
-1 -8 1 506.57 25.42
1 -8 -1 519.62 27.47
1 -8 0 5.03 5.75
-1 -8 0 9.65 5.46
1 8 1 12.5 7.61
-1 -8 -1 20.34 5.73
1 -8 1 10.97 6.53
1 8 2 164.68 15.12
1 -8 2 191.71 14.7
-1 -8 -2 173.53 15.06
1 8 3 84.93 12.63
-1 -8 -3 99.39 14.85
1 -8 3 84.72 11.49
1 8 4 27.15 9.69
-1 -8 -4 21.69 9.87
-1 -8 -4 19.77 14.36
1 -8 4 42.03 8.22
1 -8 4 35.49 9.87
1 8 5 6.08 7.86
1 -8 5 3.86 5.52
1 -8 5 5.21 8.59
-1 -8 -5 7.23 7.57
1 8 6 -12 8.94
-1 -8 -6 -3.32 7.93
1 -8 6 20.62 8.34
1 -8 6 2.09 6.32
1 8 7 -1.26 10.6
1 -8 7 11 9.08
1 -8 7 -9.93 5.95
1 8 8 37.83 13.76
-1 9 8 27.51 14.12
1 -9 -8 14.14 9.87
1 -9 -8 19.66 11.72
-1 -9 8 13.26 7.03
-1 9 7 36.75 12.37
-1 -9 7 32.12 7.84
1 -9 -7 11.02 8.83
-1 -9 7 37.65 8.72
-1 9 6 15.38 10.43
-1 -9 6 3.7 5.7
-1 -9 6 2.85 6.15
-1 9 5 12.01 8.43
-1 -9 5 6.47 6.98
-1 -9 5 5.79 6.62
-1 9 4 7.59 7.91
-1 -9 3 16.33 6.57
1 -9 -3 4.05 7.39
-1 -9 2 54.24 8.82
1 -9 -1 25.65 8.23
1 -9 0 7.77 6.86
1 -9 0 6.15 6.74
-1 -9 0 17.25 6.9
1 9 1 94.34 12.35
1 -9 1 115.81 13.21
-1 -9 -1 113.97 12.71
1 -9 1 112.27 12.12
1 9 2 14.28 8.44
1 -9 2 14.24 7.15
1 9 3 159.9 15.95
-1 -9 -3 149.37 16.29
1 -9 3 146.62 14.03
1 9 4 75.56 22.32
1 -9 4 119.02 12.72
1 -9 4 102.55 14.88
1 9 5 66.26 13.36
1 -9 5 69.77 10.96
1 -9 5 100.95 13.7
-1 -9 -5 71.52 13.35
1 9 6 105.17 16.07
1 -9 6 80.43 12.56
1 -9 6 71.27 11.05
1 9 7 -9.05 10.23
1 -9 7 35.17 13.61
1 -9 7 -5.4 6.92
-1 10 7 35.46 13.79
1 -10 -7 2.47 9.47
-1 -10 7 31.57 8.8
-1 10 6 5.96 9.97
-1 -10 6 8.44 7.37
-1 -10 6 2.89 7.27
-1 10 5 27.42 11.62
-1 -10 5 52.98 8.86
-1 -10 5 34.34 9.34
-1 -10 4 17.65 6.89
-1 -10 3 14.08 6.68
-1 -10 2 18.74 7.39
1 -10 -2 6.13 8.59
1 -10 -1 30.19 8.81
-1 -10 1 33.97 9.1
1 -10 0 10.15 7.47
-1 -10 0 -1.81 7.08
1 -10 1 89.84 13.54
1 -10 1 90.48 13.58
1 10 2 5.55 8.26
1 -10 2 14.94 7.37
1 -10 2 -4.43 6.04
-1 -10 -2 6.68 8.99
1 10 3 54.32 13.2
1 -10 3 62.75 10.43
1 10 4 24.82 10.79
1 -10 4 35.28 9.45
1 -10 4 6.81 9.86
1 10 5 47.98 12.06
1 -10 5 38.32 10.27
1 10 6 12.06 10.31
1 -10 6 16.79 9.43
1 -10 6 -6.57 8.64
-1 11 6 52.3 12.2
1 -11 -6 27.62 11.13
-1 -11 6 46.67 9.6
-1 -11 5 20.56 9.72
-1 -11 5 -10.42 7.94
-1 -11 5 7.41 8.34
-1 -11 4 11.56 8.6
-1 -11 3 9.36 8.82
-1 -11 2 32.3 9.53
1 -11 -1 33.71 10.39
-1 -11 1 35.58 10.16
1 -11 -1 44.7 14.51
1 -11 0 21.3 8.34
1 -11 0 12.55 9.81
-1 -11 0 7.18 10.72
-1 -11 -1 14.27 10.19
1 -11 1 -2.66 7.84
1 -11 1 19.91 8.17
1 -11 2 25.41 9.72
1 -11 2 9.32 7.65
1 11 3 97.29 15.65
1 -11 3 136.35 14.91
1 11 4 133.26 17.49
1 -11 4 125.2 15.18
1 11 5 52.67 13.59
1 -11 5 9.09 9.98
1 -11 5 20.28 8.64
1 11 6 -12.3 18.59
1 -11 6 -4.15 7.82
1 -11 6 9.14 10.7
-1 -12 6 34.31 8.89
-1 -12 6 -21.14 10.27
1 -12 -5 24.21 11.46
-1 -12 5 -14.6 9.44
-1 -12 5 25.73 9.74
-1 -12 4 91.14 13.49
1 -12 -4 137.96 17.71
-1 -12 4 101.73 15.6
-1 -12 3 33.68 10.95
1 -12 -3 36.15 11.47
1 -12 -2 75.08 12.55
-1 -12 2 110.37 22.94
1 -12 -1 9.81 9.12
-1 -12 1 5.1 9.75
-1 -12 0 26.8 10.24
1 -12 0 14.96 9.63
1 -12 1 60.24 12.65
1 -12 2 13.36 8.41
1 -12 3 64.73 11.77
1 12 4 13.16 11.8
1 -12 4 7.06 8.99
1 12 5 5.1 12.06
1 -12 5 -21.5 9.32
1 -12 5 -3.12 7.99
1 -13 -4 46.27 13.86
-1 -13 4 52.87 12.67
1 -13 -3 -2.47 10.85
1 -13 -2 37.18 11.64
-1 -13 2 21.08 12.24
1 -13 -1 12.77 9.56
1 -13 0 -8.15 9.69
1 -13 1 -10.67 8.22
1 -13 2 -7.44 8.2
1 -13 3 3.39 8.97
1 -14 -2 -2.77 16.7
1 -14 -1 4.51 12.9
1 -14 0 2.33 11.14
1 -14 1 -17.85 12.47
-2 0 10 48.52 10.98
-2 0 9 11.21 7.23
2 0 -9 -0.47 8.67
-2 0 8 179.97 15.52
2 0 -8 170.75 15.64
-2 0 7 9.59 5.68
2 0 -7 8.23 5.82
2 0 -6 273.28 16.71
-2 0 6 288.86 23.8
-2 0 5 5.13 4.02
2 0 -5 -1.26 3.56
2 0 -4 2348.47 92.08
-2 0 4 2308.43 92.01
-2 0 3 5.32 3.34
2 0 -3 3.98 3.32
-2 0 2 427.18 17.88
2 0 -2 388.71 17.73
2 0 -2 425.37 17.88
-2 0 1 4.19 2.89
2 0 -1 -0.45 3.09
-2 0 0 27.66 4.57
2 0 0 28.06 4.85
2 0 0 37.77 6.08
-2 0 -1 -1.84 4.5
2 0 1 -1.4 4.6
-2 0 -1 -3.17 3.2
2 0 1 -2.86 3.46
-2 0 -2 162.45 9.96
2 0 2 169.51 12.13
2 0 2 146.33 9.75
-2 0 -2 169.4 12.01
2 0 3 3.1 3.32
-2 0 -3 2.83 3.1
-2 0 -3 1.99 4.58
2 0 3 -6.41 4.8
2 0 4 251.81 17.31
-2 0 -4 257.36 17.21
2 0 4 244.54 13.27
-2 0 -4 254.55 13.51
-2 0 -5 0.15 3.75
2 0 5 9.65 3.71
2 0 5 -6.26 6.71
-2 0 -5 -1.17 5.73
2 0 6 137.44 15.22
-2 0 -6 137.77 15.27
2 0 7 -12.75 7.51
2 0 8 219.89 19.73
2 0 9 -0.61 10.02
-2 1 10 5.57 9.29
-2 -1 10 -11.03 8.34
2 1 -9 14.14 9.35
-2 1 9 -3.63 7.37
-2 -1 9 12.37 7.35
2 -1 -9 22.52 11.05
2 1 -8 169.95 14.75
-2 1 8 123.09 14.11
-2 -1 8 124.64 13.24
2 -1 -8 161.33 18.74
-2 1 7 6.5 5.82
2 1 -7 -4.96 5
2 -1 -7 5.41 6.45
-2 -1 7 5.66 5.48
2 1 -6 170.3 12.71
-2 1 6 191.89 13.92
-2 -1 6 176.12 12.53
2 -1 -6 185.43 13.21
2 1 -5 69.94 7.15
-2 1 5 81.12 8.53
-2 -1 5 66.96 7.02
2 -1 -5 64.92 9.46
2 1 -4 129.61 8.42
-2 1 4 102.66 9.36
2 -1 -4 110.42 9.51
-2 -1 4 119.24 8.07
-2 1 3 684.81 30.03
2 1 -3 703.11 28.41
-2 1 3 709.44 28.53
-2 -1 3 666 28.28
2 -1 -3 698.79 30.12
2 -1 -3 716.01 28.31
2 1 -2 1299.73 51.87
-2 1 2 1347.33 52.03
-2 -1 2 1326.79 51.8
2 -1 -2 1297.26 51.8
2 -1 -2 1288.39 52.54
2 1 -1 8.24 3.63
2 1 -1 8.54 3.16
-2 1 1 5.05 2.93
-2 -1 1 6.81 3.23
2 -1 -1 13.41 3.49
2 1 0 459.86 21.39
-2 1 0 527.77 21.57
2 1 0 454.64 21.44
-2 -1 0 473.16 21.57
-2 -1 0 487.03 21.47
2 -1 0 493.08 21.35
2 1 1 623.83 27.73
2 1 1 651.15 26.79
-2 1 -1 579.58 26.48
-2 1 -1 614.7 27.66
-2 -1 -1 631.39 27.73
-2 -1 -1 574.72 26.68
2 -1 1 583.83 26.28
2 -1 1 630.13 27.71
2 1 2 489.34 22.84
2 1 2 519.89 25.18
-2 1 -2 529.83 25.24
-2 1 -2 514.07 22.86
-2 -1 -2 497.32 22.73
2 -1 2 493.93 22.52
-2 -1 -2 547.36 25.94
2 -1 2 495.57 24.5
2 1 3 34.45 5.34
2 1 3 22.14 7.17
-2 1 -3 23.21 4.61
-2 1 -3 38.25 7.64
-2 -1 -3 27.8 7.03
2 -1 3 28.16 4.9
2 -1 3 41.52 9.8
-2 -1 -3 32.61 4.84
-2 1 -4 50.5 9.23
2 1 4 49.82 10.47
2 1 4 48.88 6.45
-2 1 -4 41.76 6.2
2 -1 4 55.9 6.28
-2 -1 -4 42.66 8.97
-2 -1 -4 44.97 6.18
2 -1 4 47.3 9.48
-2 1 -5 1.79 6.76
-2 1 -5 6.62 4.3
2 1 5 8.36 3.92
2 1 5 1.49 7.24
-2 -1 -5 6.87 6.1
-2 -1 -5 8.96 4.25
2 -1 5 -3.69 5.91
2 -1 5 10.37 3.73
2 1 6 50.76 12.14
-2 1 -6 45.55 12.59
2 -1 6 59.39 11.97
-2 -1 -6 30.97 10.08
2 1 7 -2.85 8.01
2 -1 7 -3.16 16.22
2 1 8 1.31 9.83
2 -1 8 15.35 9.61
2 1 9 7.03 11.38
2 -1 9 20.26 10.53
-2 2 10 4.48 9.55
-2 -2 10 11.78 8.03
2 2 -9 222.65 22.2
-2 2 9 253.72 27.08
-2 -2 9 321.13 19.34
-2 2 8 27.12 8.8
2 2 -8 14.18 7.67
-2 -2 8 46.97 8.87
2 -2 -8 20.76 9.41
2 2 -7 36.11 8.09
-2 2 7 29.93 8.01
2 -2 -7 27.41 9.1
-2 -2 7 26.19 6.9
-2 2 6 358 21.43
2 2 -6 367.97 19.41
-2 -2 6 391.96 19.47
2 -2 -6 370.06 21.45
2 2 -5 15.88 4.43
2 -2 -5 11.31 5.19
-2 -2 5 11.28 4.02
-2 2 4 521.96 25.5
-2 -2 4 528.14 22.6
2 -2 -4 534.13 25.71
-2 2 3 52.47 7.71
2 -2 -3 39.65 6.39
2 -2 -3 40.21 5.09
-2 -2 3 36.36 4.94
-2 2 2 3458.07 131.32
-2 -2 2 3358.16 130.9
2 -2 -2 3352.34 131.92
2 -2 -2 3364.45 130.99
2 2 -1 1613.01 62.03
-2 2 1 1589.42 62
2 2 -1 1469.49 60.39
2 -2 -1 1558.41 61.8
-2 -2 1 1544.27 61.71
-2 -2 1 1537.8 60.42
2 2 0 112.11 8.88
2 2 0 100.92 8.84
-2 2 0 133.85 8.79
-2 -2 0 105.83 8.79
2 -2 0 119.45 8.59
-2 -2 0 103.03 8.68
2 2 1 163.1 11.65
-2 2 -1 172.94 10.36
2 2 1 169.9 10.64
2 -2 1 164.28 10.18
-2 -2 -1 156.25 11.22
-2 -2 -1 169.54 10.4
2 -2 1 175.58 11.85
2 2 2 274.24 16.95
-2 2 -2 281.45 14.58
2 2 2 283.29 15.04
-2 -2 -2 266.21 18.71
-2 -2 -2 292.33 14.59
2 -2 2 281.31 14.41
2 -2 2 278.76 16.49
2 2 3 74.03 7.58
2 2 3 71.06 9.85
-2 2 -3 66.48 6.8
-2 2 -3 76.98 9.4
2 -2 3 67.26 7.09
-2 -2 -3 80.2 7.12
2 -2 3 60.41 9.43
-2 -2 -3 66.73 9.27
2 2 4 136.99 13.02
-2 2 -4 120.66 9.57
-2 2 -4 129.29 12.32
2 -2 4 135.58 9.19
2 -2 4 140.08 12.55
-2 -2 -4 124.18 9.51
-2 -2 -4 150.02 13.19
-2 2 -5 14.56 4.52
-2 2 -5 24.1 9.68
2 2 5 21.79 8.79
2 -2 5 18.6 4.28
-2 -2 -5 16.25 12.16
-2 -2 -5 30.78 9.15
2 -2 5 16.39 6.75
-2 2 -6 26.78 11.01
2 2 6 13.85 9.37
-2 -2 -6 4.8 8.66
2 -2 6 20.81 8.1
-2 -2 -6 15.94 6.96
2 2 7 130.72 16.46
2 2 8 49.64 13.47
2 -2 8 31.63 11.9
2 2 9 -8.07 11.09
2 -2 9 17.9 10.72
2 3 -10 21.84 13.22
-2 3 10 39.65 11.38
-2 3 9 0.48 8.57
2 3 -9 2.3 10.02
-2 -3 9 35.56 8.99
2 3 -8 -9.98 6.71
-2 3 8 -5.11 7.37
2 -3 -8 -3.25 8.11
-2 -3 8 -1.89 6.54
2 3 -7 13.72 6.09
-2 3 7 -0.1 6.89
2 -3 -7 8.95 7.63
-2 -3 7 8.29 8.26
-2 3 6 198.65 15.3
2 3 -6 195.52 12.64
-2 -3 6 194.62 12.36
2 -3 -6 199.49 15.02
2 3 -5 99.06 8.48
-2 3 5 109.45 11.3
-2 -3 5 107.63 7.95
2 -3 -5 116.34 10.38
-2 3 4 4.87 5.64
2 -3 -4 -0.16 2.76
-2 -3 4 0.84 2.81
2 -3 -4 1.03 4.02
-2 3 3 53.09 8.32
2 -3 -3 46.33 5.99
2 -3 -3 49.5 7.24
-2 -3 3 46.74 6.12
-2 3 2 267.28 14.83
2 -3 -2 276.91 15.27
-2 -3 2 273.03 14.47
2 -3 -2 276.08 14.35
2 3 -1 10.75 3.48
-2 3 1 9.89 4.38
-2 -3 1 5.36 3.5
2 -3 -1 9.74 4.24
-2 -3 1 7.85 4.14
2 3 0 403.5 19.6
-2 3 0 404.12 20.06
-2 -3 0 434.93 19.97
2 -3 0 426.95 20
-2 -3 0 401.74 19.46
-2 3 -1 21.21 5.23
2 3 1 25.39 6.35
-2 -3 -1 21.19 5.05
2 -3 1 14.81 5.43
-2 -3 -1 23.1 6.09
-2 3 -2 324.12 16.94
2 3 2 326.66 18.97
2 -3 2 315.94 18.53
-2 -3 -2 334.51 16.89
-2 -3 -2 343.7 18.9
2 -3 2 330.62 16.85
-2 3 -3 105.55 8.58
2 3 3 100.3 11.62
-2 -3 -3 122.15 14.08
2 -3 3 106.75 8.71
2 -3 3 107.11 11.03
-2 -3 -3 116 11
2 3 4 95.46 11.74
-2 -3 -4 104.64 8.66
2 -3 4 99.41 8.34
-2 -3 -4 101.33 11.71
2 -3 4 93.52 10.62
-2 3 -5 -3.56 5.31
2 3 5 7.49 7.76
-2 3 -5 -0.45 7.15
2 -3 5 3.05 6.78
-2 -3 -5 -5.09 4.34
2 -3 5 0.29 3.71
-2 -3 -5 10.79 7.39
2 3 6 9.89 8.54
-2 3 -6 0.99 8.35
2 -3 6 0.65 4.42
2 -3 6 -3.21 6.42
2 3 7 565.24 34.32
2 -3 7 568.08 44.95
2 3 8 -17.46 9.42
2 -3 8 -15.93 9.21
-2 4 10 33.74 11.57
-2 -4 10 40.56 8.85
-2 4 9 27.52 9.93
2 4 -9 37.59 11.1
-2 -4 9 48.7 9.57
2 4 -8 358.51 21.54
-2 4 8 399.09 26.27
-2 4 7 191.14 16.2
-2 -4 7 150.21 11.66
2 -4 -7 138.97 15.66
-2 4 6 496.65 27.58
-2 -4 6 491.74 23.31
2 -4 -6 504.81 27.66
-2 4 5 177.48 14.84
2 -4 -5 174.27 11.4
2 -4 -5 184.33 14.42
-2 4 4 581.11 28.74
2 -4 -4 559.98 26
2 -4 -4 574.76 28.41
-2 4 3 1311.18 54.38
2 -4 -3 1211.44 53.7
2 -4 -3 1255.92 52.12
2 -4 -2 12.76 4.77
2 4 -1 609.74 26.49
-2 -4 1 644.91 28.15
-2 -4 1 591.5 26.23
2 -4 -1 635.71 28.34
2 4 0 173.43 11.31
-2 4 0 173 12.51
-2 -4 0 177.13 11.16
2 -4 0 179.96 11.81
-2 -4 0 190.6 12.44
2 4 1 1.48 5.28
-2 -4 -1 10.21 4.54
-2 -4 -1 6.21 4.64
2 -4 1 4.07 4.18
2 4 2 419.83 23.09
-2 4 -2 380.47 20.14
-2 -4 -2 380.78 19.54
2 -4 2 401.14 23.36
-2 -4 -2 360.45 20.7
2 -4 2 384.95 19.71
2 4 3 80.08 11.26
-2 4 -3 53 7.98
2 -4 3 76.14 10.12
2 -4 3 73.53 8.26
-2 -4 -3 73.16 7.85
-2 -4 -3 75.21 9.98
2 4 4 101.78 13.54
2 -4 4 115.38 12.45
-2 -4 -4 144.48 12.75
2 -4 4 136.08 11.8
-2 -4 -4 119.85 10.42
2 4 5 101.86 13.91
-2 -4 -5 89.86 13.09
2 -4 5 102.48 13.04
2 -4 5 89.68 12.11
-2 -4 -5 108.32 9.59
2 4 6 13.06 13.72
2 -4 6 5.6 5.53
2 -4 6 10.05 8.16
-2 -4 -6 7.28 5.92
2 4 7 0.2 9.89
-2 -4 -7 -8.31 5.88
2 4 8 11.87 12.12
2 -4 8 24.17 9.75
-2 5 10 31.45 12.45
-2 -5 10 44.54 8.99
-2 5 9 34.45 9.98
-2 -5 9 35.14 8.66
-2 5 8 48.95 12.05
-2 -5 8 38.48 8.03
-2 5 7 9.35 7.99
2 -5 -7 -10.43 7.63
-2 -5 7 11.61 5.88
-2 5 6 53.27 9.94
-2 -5 6 51.89 7.52
2 -5 -6 44.37 7
-2 5 5 26.37 7.78
2 -5 -5 19.79 5.28
2 -5 -5 23.81 7.7
-2 5 4 527.72 27.32
2 -5 -4 496.76 26.72
2 -5 -4 513.8 24.84
2 -5 -3 64.98 8.55
2 -5 -3 56.18 7.83
2 -5 -2 82.09 8.67
2 -5 -2 87.8 9.32
-2 -5 2 77.42 5.99
2 5 -1 22.27 5.08
-2 -5 1 23.58 4.92
2 -5 -1 29.18 6.42
2 5 0 -4.36 4.41
2 -5 0 -0.37 3.93
-2 -5 0 3.07 4.41
2 5 1 42.96 7.36
-2 -5 -1 52.37 7.25
2 -5 1 41.34 11.15
-2 -5 -1 52.38 7.88
2 5 2 146.51 13.18
-2 -5 -2 169.57 11.8
-2 -5 -2 153.44 12.84
2 -5 2 165.62 12.35
2 5 3 1.39 6.13
-2 -5 -3 -2.6 5.68
2 -5 3 6.66 4.55
2 -5 3 -5 5.9
-2 -5 -3 7.81 3.61
2 5 4 111.71 13.78
2 -5 4 100.35 12.25
-2 -5 -4 112.87 22.23
2 -5 4 112.59 10.54
-2 -5 -4 115.59 10.54
2 5 5 12.55 8.5
-2 -5 -5 13.19 6.07
2 -5 5 6.74 6.6
2 -5 5 17.38 5.62
-2 -5 -5 -1.82 7.17
2 5 6 32.85 10.88
2 -5 6 37.36 10.33
-2 -5 -6 33.87 7.85
2 5 7 21.3 10.23
-2 -5 -7 4.04 7.32
2 -5 7 16.88 8.98
2 5 8 30.73 13.32
2 -5 8 50.89 10.14
-2 6 9 17.3 10.62
-2 -6 9 -4.39 6.15
-2 6 8 58.22 12.99
-2 -6 8 59.85 9.5
-2 -6 7 20.56 5.87
2 -6 -7 4.9 5.44
-2 6 6 211.37 17.64
2 -6 -6 214.87 14.72
2 -6 -6 211.69 17.88
-2 6 5 69.34 11.32
2 -6 -5 80.51 9.85
2 -6 -5 81.13 11.72
-2 6 4 69.74 10.58
2 -6 -4 69.63 8.77
2 -6 -4 72.07 10.03
2 -6 -3 79.03 9.77
2 -6 -3 83.17 9.45
2 -6 -2 85.05 9.31
2 -6 -2 78.52 9.15
-2 -6 2 71.6 6.74
2 6 -1 151.22 10.49
-2 -6 1 128.99 9.92
2 -6 -1 148.93 12.12
2 -6 -1 165.63 11.98
2 6 0 442.32 22.78
2 -6 0 451.3 23.47
-2 -6 0 438.51 28.04
2 6 1 -3.01 5.64
-2 -6 -1 -2.2 4.06
2 -6 1 -4.05 4.69
-2 -6 -1 6.86 5.19
2 6 2 1562.34 68.05
2 -6 2 1653.6 67.13
-2 -6 -2 1549.55 67.68
-2 -6 -2 1574.37 66.7
2 6 3 157.31 15.49
-2 -6 -3 172.29 15.44
2 -6 3 190.05 13.66
-2 -6 -3 184.73 13.42
2 -6 3 183.58 15.23
2 6 4 461.61 27.69
2 -6 4 449.03 25.01
2 -6 4 469.69 26.57
-2 -6 -4 450.85 27.78
-2 -6 -4 495.87 25.12
2 6 5 66.78 14.75
2 -6 5 39.18 10.24
2 -6 5 37.69 7.26
-2 -6 -5 30.98 8.94
2 6 6 0.53 9.14
2 -6 6 -11.31 7.42
-2 -6 -6 3.75 6.74
2 -6 6 -6.71 5.49
2 6 7 6.63 9.88
2 -6 7 16.98 6.35
2 -6 7 36.45 10.06
-2 -6 -7 -0.43 8.1
2 6 8 24.75 15.04
-2 7 9 12.77 11.63
-2 -7 9 3.29 7.01
-2 7 8 54.16 12.85
2 -7 -8 48.15 8.4
-2 -7 8 62.02 10.58
-2 7 7 -7.03 9.36
-2 -7 7 1.03 5.61
2 -7 -7 2.98 6.29
-2 7 6 9.44 7.6
2 -7 -6 3.47 5.73
-2 7 5 19.93 8.14
2 -7 -5 12.76 7.28
2 -7 -5 18.67 6.74
-2 7 4 10.79 7.29
2 -7 -4 10.57 5.83
2 -7 -4 13.52 7.01
2 -7 -3 187.71 13.98
-2 -7 3 174.58 10.62
2 -7 -3 184.79 14.36
2 -7 -2 31.5 7.29
-2 -7 2 34.52 5.82
2 -7 -2 31.65 7.86
2 -7 -1 14.58 6.28
2 -7 -1 16.95 5.9
-2 -7 1 14.01 4.58
2 7 0 2.25 5.64
2 -7 0 -0.19 4.73
-2 -7 0 3.18 4.12
2 7 1 88.98 11.08
-2 -7 -1 89.82 10.13
2 -7 1 81.25 10.05
2 7 2 394.45 23.37
-2 -7 -2 398.58 22.34
2 -7 2 386.66 22.09
-2 -7 -2 375.39 22.93
2 7 3 139.22 14.62
-2 -7 -3 159.98 13.42
-2 -7 -3 138.29 21.79
2 -7 3 132.19 13.72
2 -7 3 133.62 12.63
2 7 4 -3.37 7.62
2 -7 4 0.39 7.49
-2 -7 -4 17.87 6.57
-2 -7 -4 -2.38 9.11
2 -7 4 11.46 6.7
2 7 5 38.42 10.33
-2 -7 -5 39.59 12
2 -7 5 20.02 8.41
2 -7 5 18.95 7.58
2 7 6 55.34 13.78
-2 -7 -6 39.11 10.67
2 -7 6 59.43 9.53
2 -7 6 82.3 12.78
2 7 7 1.46 11.59
2 -7 7 14.2 8.46
2 -7 7 -12.95 5.79
-2 -7 -7 -9.35 9.09
-2 8 9 -7.63 17.48
2 -8 -9 -13.26 9.67
-2 8 8 51.13 11.74
-2 -8 8 28.01 7.4
2 -8 -8 45.72 9.62
-2 -8 8 8.5 7.01
-2 8 7 52.04 12.11
-2 -8 7 52.56 9.63
2 -8 -7 63.83 10.23
-2 8 6 68.69 12.35
2 -8 -6 76.68 11.1
-2 8 5 23.79 8.61
2 -8 -5 26.02 8.07
2 -8 -4 7.04 7.14
2 -8 -4 7.59 6.16
2 -8 -3 147.64 14.02
-2 -8 3 147.82 10.48
2 -8 -2 16.41 7.04
2 -8 -2 13.71 7.63
-2 -8 2 18.78 6.16
2 -8 -1 6.75 6.47
2 -8 -1 7.68 5.79
-2 -8 1 -0.64 5.16
2 8 0 0.67 5.66
-2 -8 0 -0.88 4.92
2 -8 0 -0.7 5.74
2 8 1 75.62 10.77
2 -8 1 76.83 10.96
-2 -8 -1 86.72 10.81
2 8 2 98.32 13.22
2 -8 2 91.75 11.13
-2 -8 -2 89.96 11.64
2 8 3 5.48 7.35
-2 -8 -3 2.97 8.61
2 -8 3 4.35 5.96
2 -8 3 1.77 7.46
-2 -8 -3 -3.81 6.23
2 8 4 253.9 24
2 -8 4 257.37 20.55
2 -8 4 248.76 18.4
-2 -8 -4 271.37 19.24
2 8 5 191.87 19.54
-2 -8 -5 209.05 18.08
2 -8 5 240.08 18.56
2 -8 5 201.36 16.86
2 8 6 40.65 10.48
2 -8 6 -3 6.97
-2 -8 -6 -12.58 9.24
2 8 7 18.5 12.65
2 -8 7 -6.66 6.47
2 -8 7 12.74 9.35
-2 9 8 21.56 10.72
2 -9 -8 28.38 8.59
-2 -9 8 17.37 7.61
-2 9 7 19.28 10.23
-2 -9 7 10.96 7.08
2 -9 -7 4.4 7.74
-2 9 6 73.43 14.18
2 -9 -6 62.95 10.79
2 -9 -5 65.37 11.32
2 -9 -4 11.4 7.05
-2 -9 4 -0.31 5.65
-2 -9 3 66.32 10.54
2 -9 -3 48.96 9.64
2 -9 -3 70.26 12.63
2 -9 -2 51.57 9.63
2 -9 -2 52 10.67
-2 -9 2 60.52 8.54
2 -9 -1 98.56 12.74
2 -9 -1 102.38 20.22
-2 -9 1 79.7 10.02
2 -9 0 5.35 5.72
-2 -9 0 2.58 6.12
2 -9 0 14.66 6.5
2 9 1 45.24 9.69
-2 -9 -1 35.13 9.98
2 -9 1 34.23 8.68
2 9 2 40.76 9.99
2 -9 2 43.28 8.68
-2 -9 -2 51.99 10.47
2 9 3 61.03 12.04
-2 -9 -3 53.1 12.2
2 -9 3 49.11 9.84
2 9 4 19.45 11.1
2 -9 4 27.6 8.42
2 -9 4 25.32 10.3
2 9 5 5.11 9.34
2 -9 5 16.68 8.4
2 -9 5 -12.5 6.08
2 9 6 -0.48 10.27
2 -9 6 3.74 7.53
2 -9 6 27.55 9.58
-2 10 7 15.09 10.6
-2 -10 7 -1.53 7.74
2 -10 -7 -1.49 8.79
-2 10 6 23.33 11.54
-2 -10 6 18.11 8.57
2 -10 -6 -12.02 12.8
2 -10 -5 3.97 9.87
2 -10 -4 28.97 9.47
-2 -10 4 20.29 6.22
-2 -10 3 73.78 9.87
2 -10 -3 97.83 13.25
-2 -10 2 -6.04 6.26
2 -10 -2 -2.52 8.33
2 -10 -2 12.31 7.09
2 -10 -1 36.61 10.86
2 -10 -1 41.68 9.75
-2 -10 1 52.78 9.56
-2 -10 0 -13.99 6.72
2 -10 0 -7.89 6.66
2 -10 0 -6.17 7.71
2 10 1 44.66 10.29
2 -10 1 20.95 8.83
2 -10 1 15.44 8.17
-2 -10 -1 36.12 12.47
2 10 2 43.98 11.27
2 -10 2 43.15 12.22
-2 -10 -2 39.35 10.22
2 10 3 21.27 10.51
2 -10 3 27.85 13.15
2 10 4 17.38 10.63
2 -10 4 -12.21 7.11
2 10 5 20.87 11.49
2 -10 5 6.04 7.45
2 -10 5 21.66 9.97
2 10 6 -10.24 11.11
2 -10 6 16.77 9.95
-2 -11 7 18.32 9.2
2 -11 -7 4.91 9.51
-2 -11 6 59.42 11.16
2 -11 -6 53.94 11.88
2 -11 -5 51.95 11.51
-2 -11 4 77.47 10.33
2 -11 -4 54.15 11.31
2 -11 -3 173.35 17.44
-2 -11 3 165.91 13.92
2 -11 -2 13.94 8.27
-2 -11 2 -0.44 7.79
2 -11 -1 4.98 7.91
-2 -11 1 7.3 8.22
-2 -11 0 138.97 20.29
2 -11 0 140.2 15.96
-2 -11 -1 105.96 14.46
2 -11 1 115.42 14.13
2 11 2 17.85 17.52
2 -11 2 19.05 9.26
2 11 3 13.18 11.01
2 -11 3 2.98 7.06
2 11 4 16.96 11.26
2 -11 4 1.84 7.83
2 11 5 7.06 11.15
2 -11 5 -18.06 9.3
2 -11 5 10.95 8.26
-2 -12 6 44.35 10.35
2 -12 -6 21.76 11.85
2 -12 -5 3.8 9.65
-2 -12 4 14.54 9.11
2 -12 -4 25.62 10.5
-2 -12 3 25.11 9.27
2 -12 -3 24.73 10.45
-2 -12 2 61.38 10.99
2 -12 -2 29.27 9.66
2 -12 -1 119.79 15.87
-2 -12 1 122.61 15.53
2 -12 0 12.11 8.58
-2 -12 0 7.43 10.11
2 -12 1 8.99 8.75
2 12 2 7.18 10.66
2 -12 2 29.12 9.67
2 12 3 42.44 12.93
2 -12 3 38.13 10.82
2 12 4 11.58 12.6
2 -12 4 11.71 9.47
2 -13 -4 -2.69 10.21
-2 -13 4 -7.97 9.12
-2 -13 3 37.12 15.15
2 -13 -3 10.35 11.21
-2 -13 2 25.92 12.14
2 -13 -2 19.96 10.49
2 -13 -1 38.99 12.3
-2 -13 1 65.73 13.76
2 -13 0 5.91 8.58
2 -13 1 5.04 9
2 -13 2 1.04 8.75
2 13 3 31.66 13.95
2 -13 3 3.29 8.83
2 -14 0 -8.58 19.04
-3 0 11 2.39 8.86
-3 0 10 49.62 10.14
3 0 -10 69.74 16.09
-3 0 9 3.95 6.33
3 0 -9 2.55 10.48
3 0 -8 82.62 12.3
-3 0 8 121.78 11.94
3 0 -7 2.49 4.91
-3 0 7 9.02 5.11
3 0 -6 174.11 14.43
-3 0 6 167.12 11.96
3 0 -5 0.71 3.28
-3 0 5 7.92 4.1
-3 0 4 4.69 2.56
3 0 -4 -2.88 2.8
3 0 -4 1.42 3.35
3 0 -3 4.36 3.06
-3 0 3 1.7 3.18
3 0 -3 2.98 3.35
3 0 -2 54.13 6.99
-3 0 2 56.89 6.94
3 0 -1 1.98 4.2
3 0 -1 7.74 5.05
-3 0 1 -0.71 4.02
3 0 0 796.69 34.85
-3 0 0 796.03 34.8
3 0 0 807.73 34.45
-3 0 0 823.94 34.59
3 0 1 2 3.98
-3 0 -1 -4.49 5.3
-3 0 -1 -0.43 3.27
3 0 1 -4.26 5
-3 0 -2 293.09 18.19
3 0 2 297.51 16.06
3 0 2 328.44 18.86
-3 0 -2 313.18 16.51
-3 0 -3 4.86 5.7
-3 0 -3 -3.92 3.5
3 0 3 -2 6.18
3 0 3 0.01 4.16
-3 0 -4 127.44 13.61
3 0 4 118.48 10.31
-3 0 -4 116.99 10.02
3 0 4 112.9 12.86
3 0 5 2.68 6.23
-3 0 -5 -6.69 8.56
-3 0 -5 -2.37 4.62
3 0 5 -3.12 7.25
3 0 6 73.33 21.58
3 0 6 62.6 8.56
-3 0 -6 43.69 7.51
3 0 7 5.41 9.41
3 0 8 150.32 17.02
-3 1 11 8.37 9.4
-3 -1 11 -3.18 8.43
3 1 -10 -3.22 9.04
-3 -1 10 0.06 7.84
-3 1 9 82.43 12.1
-3 -1 9 75.06 11.48
3 1 -8 220.92 16.64
-3 1 8 255 18.02
3 -1 -8 263.25 18.92
-3 -1 8 257.39 16.8
3 1 -7 311.23 17.66
-3 1 7 312.05 18.95
3 -1 -7 313.37 19.07
-3 -1 7 290.81 18.99
-3 1 6 14.05 9.1
3 1 -6 14.78 5.23
-3 -1 6 13.56 4.72
3 -1 -6 15.08 5.75
-3 1 5 84.82 8.72
3 1 -5 91.76 7.57
-3 -1 5 85.9 6.97
3 -1 -5 77.43 8.22
3 1 -4 132.38 8.52
-3 1 4 130.63 8.34
-3 1 4 138.13 9.83
3 1 -4 136.39 8.67
3 -1 -4 147.72 8.54
3 -1 -4 138.36 10.27
-3 -1 4 151.88 8.36
-3 1 3 62.52 5.99
3 1 -3 57.3 6.22
-3 -1 3 67.48 6.16
3 -1 -3 61.55 6.63
3 -1 -3 61.18 6.07
-3 1 2 1023.24 41.33
3 1 -2 959.88 41.07
3 -1 -2 1002.5 41.03
-3 -1 2 1002.29 41.11
3 1 -1 765.93 32.79
3 1 -1 766.99 33.37
-3 1 1 813.3 33.57
-3 -1 1 791.52 33.39
3 -1 -1 774.86 33.19
3 1 0 552.94 25.12
3 1 0 501.12 24.64
-3 1 0 591.35 25.15
3 -1 0 562.81 25.63
-3 -1 0 530.36 24.79
-3 -1 0 537.73 25.1
3 -1 0 541.64 24.46
3 1 1 51.63 8.44
3 1 1 57.65 7.88
-3 1 -1 61.71 6.86
-3 -1 -1 54.08 6.88
3 -1 1 54.75 8.71
3 -1 1 64.41 7.4
3 1 2 95.39 10.49
-3 1 -2 94.63 10.48
3 1 2 80.21 8.77
-3 1 -2 95.51 9.72
3 -1 2 92.05 8.44
3 -1 2 99.27 10.32
-3 -1 -2 107.54 14.11
-3 -1 -2 104.15 10.29
-3 1 -3 59.24 9.71
3 1 3 54.75 9.23
3 1 3 51.6 7.78
-3 1 -3 45 6.78
-3 -1 -3 47.25 8.55
3 -1 3 56.55 10.09
3 -1 3 51.63 7.4
-3 -1 -3 50.11 6.98
-3 1 -4 206.34 13.36
3 1 4 212.44 16.87
-3 1 -4 202.82 17.21
3 1 4 248.93 19.57
3 -1 4 209.12 13.76
-3 -1 -4 200.83 16.82
3 -1 4 200.35 16.52
-3 -1 -4 189.85 13.13
3 1 5 114.85 14.52
-3 1 -5 104.21 9.9
3 1 5 88.45 9.62
-3 1 -5 100.46 15.73
3 -1 5 94.76 10.64
-3 -1 -5 122.35 14.06
-3 -1 -5 91.6 9.77
3 -1 5 121.66 14.04
3 1 6 4.38 5.41
3 1 6 3.93 9.5
-3 -1 -6 -8.95 5.55
3 -1 6 2.66 5.06
3 1 7 -5.7 9
3 -1 7 -4.71 8.72
3 1 8 48.37 13.07
3 -1 8 24.46 11.87
3 2 -10 32.51 13.46
-3 2 10 52.24 11.26
-3 -2 10 39.71 9.57
-3 2 9 86.36 12.54
3 2 -9 73.91 11.66
3 -2 -9 79.56 13.77
-3 -2 9 87 10.82
3 2 -8 6.03 5.75
-3 2 8 16.12 7.85
-3 -2 8 13.53 6.11
3 -2 -8 6.04 8.92
-3 2 7 42.06 8.17
-3 -2 7 40.66 6.83
3 -2 -7 27.34 8.57
3 2 -6 1.16 3.7
-3 2 6 5.75 5.26
3 -2 -6 1.68 4.94
-3 -2 6 7.76 3.68
-3 2 5 1094.38 47.7
3 -2 -5 1080.45 47.26
-3 2 4 158.74 9.92
3 -2 -4 173.13 9.67
-3 -2 4 156.79 9.38
3 -2 -4 163.62 11.5
3 2 -3 1387 55.74
-3 2 3 1398.88 56
3 -2 -3 1375.41 55.56
-3 -2 3 1369.47 55.45
3 -2 -3 1365.1 56.86
3 2 -2 1941.04 77.9
-3 2 2 1983.32 78.1
-3 -2 2 1951.17 77.71
3 -2 -2 1953.91 77.69
-3 2 1 242.11 13.13
3 2 -1 224.86 12.19
3 2 -1 215.09 13.17
3 -2 -1 228.96 12.8
-3 -2 1 217.61 12.01
-3 -2 1 224.79 12.87
3 2 0 219.96 13.36
-3 2 0 235.28 13.39
3 2 0 206.91 13.13
-3 -2 0 238.5 13.28
3 -2 0 224 12.85
-3 -2 0 227.62 13.4
3 2 1 118.98 11.14
-3 2 -1 142.2 10.56
3 2 1 122.2 10.21
3 -2 1 126.74 9.94
-3 -2 -1 141.63 12.36
3 -2 1 132.49 11.68
-3 2 -2 4.49 4.15
3 2 2 12.79 6.66
3 2 2 14.96 5
3 -2 2 10.54 5.99
3 -2 2 13.19 4.42
-3 -2 -2 12.33 4.43
-3 -2 -2 15.27 5.34
3 2 3 234.23 16.16
-3 2 -3 221.42 16.66
3 2 3 233.45 17.39
-3 2 -3 247.24 14.34
-3 -2 -3 247.09 16.73
3 -2 3 236.3 13.86
3 -2 3 241.71 16.84
-3 -2 -3 252.99 14.3
3 2 4 2.76 4.62
3 2 4 -8.74 6.8
-3 2 -4 5.65 6.3
-3 2 -4 -0.91 3.94
-3 -2 -4 0.26 4.35
-3 -2 -4 -7.69 5.35
3 -2 4 -4.53 5.16
3 -2 4 -3.4 6.74
-3 2 -5 4.74 5.05
3 2 5 -3.93 7.6
-3 2 -5 -9.05 7.77
3 -2 5 3.06 4.27
-3 -2 -5 -13.23 6.94
3 -2 5 -3.21 6.18
-3 -2 -5 4.03 4.91
3 2 6 91.22 14.87
-3 2 -6 87.89 10.11
-3 -2 -6 81.3 10.17
3 -2 6 85.71 9.34
3 -2 6 98.88 22.2
3 2 7 -1.42 9.96
3 -2 7 14.82 9.84
-3 -2 -7 -6.63 6.22
3 2 8 74.73 15.64
3 3 -10 -12.22 10.85
-3 3 10 24.07 9.64
-3 -3 10 18.76 8.19
-3 3 9 -7.34 9.81
3 3 -9 -14.69 8.24
-3 -3 9 3.67 5.91
3 3 -8 -8.82 5.77
-3 3 8 5.18 7.59
3 -3 -8 10.62 9.03
-3 -3 8 4.91 9.43
3 3 -7 54.55 7.94
-3 3 7 58.21 10.74
-3 -3 7 50.62 7.26
3 -3 -7 45.88 10.09
-3 3 6 18.53 6.86
3 -3 -6 15.65 7.27
-3 3 5 15.27 5.9
-3 -3 5 13.14 3.61
3 -3 -5 21.33 5.93
3 -3 -5 12.6 3.67
-3 -3 4 310.64 15.7
3 -3 -4 318.16 17.71
3 -3 -4 321.01 16.02
-3 3 3 22.93 5.07
3 -3 -3 22.3 4.64
-3 -3 3 19.19 4.68
-3 3 2 73.98 7.49
3 3 -2 64.17 8.33
-3 -3 2 64.72 7.66
3 -3 -2 67.57 7.35
3 3 -1 5.37 4.96
-3 3 1 6.14 3.85
3 3 -1 5.74 4.06
3 -3 -1 3.34 3.95
-3 -3 1 3.65 3.91
-3 -3 1 1.63 3.62
-3 3 0 91.95 14.05
3 3 0 94.81 9.55
3 3 0 104.31 9.34
-3 -3 0 113.79 10.84
3 -3 0 103.37 8.91
-3 -3 0 100.62 9
-3 3 -1 88.04 8.23
3 3 1 85.33 9.46
3 3 1 81.02 9.62
3 -3 1 107.84 19.65
-3 -3 -1 99.65 9.9
3 -3 1 100.81 8.81
-3 -3 -1 92.3 8.47
3 3 2 286.58 18.38
-3 3 -2 284.85 16.62
3 -3 2 290.48 17.55
3 -3 2 300.93 18.47
-3 -3 -2 316.09 18.46
-3 -3 -2 320.21 16.62
3 3 3 27.85 6.16
-3 3 -3 23.09 5.26
3 3 3 22.47 8.01
-3 -3 -3 22.57 5.21
-3 -3 -3 17.6 6.72
3 -3 3 14.04 5.05
3 -3 3 21.95 7.68
-3 3 -4 6.72 4.59
3 3 4 16.44 8.82
-3 -3 -4 9.23 5.14
3 -3 4 14.38 7.47
3 -3 4 16.27 4.76
3 3 5 60.91 11.81
-3 3 -5 69.53 9.27
-3 -3 -5 52.13 16.14
3 -3 5 59.02 11.78
-3 -3 -5 53.89 8.32
3 -3 5 53.24 8.11
3 3 6 -1.57 9.01
-3 3 -6 7.1 6.49
3 -3 6 0.79 4.92
-3 -3 -6 5.39 6.11
3 3 7 0.08 8.86
-3 -3 -7 -10.74 7
3 -3 7 8.76 8.98
3 3 8 30 13.1
3 -3 8 42.77 11.88
-3 4 10 106.46 16.13
-3 -4 10 134.13 12.55
-3 4 9 4.77 9.54
-3 -4 9 17.56 6.7
-3 4 8 28.79 9.34
-3 -4 8 20.56 6.13
3 -4 -8 10.13 9.84
-3 4 7 34.99 9.27
3 -4 -7 24.02 13.17
-3 4 6 91.55 11.12
3 -4 -6 92.45 11.65
3 -4 -6 88.15 8.58
-3 4 5 588.51 30.12
3 -4 -5 604 30.03
3 -4 -5 616.61 27.05
-3 -4 5 554.71 26.21
3 -4 -4 102.54 9.5
3 -4 -4 103.2 8.78
-3 -4 4 94.4 7.99
3 -4 -3 37.85 7.45
3 -4 -3 35.05 6.2
-3 4 2 407.03 21.21
-3 -4 2 435.02 20.82
3 -4 -2 395.31 20.53
3 4 -1 49.8 6.79
-3 4 1 34.84 7.31
3 -4 -1 47.78 7.3
-3 -4 1 36.73 7.01
-3 -4 1 41.23 6.3
3 4 0 28.81 6.63
-3 4 0 30.91 6.22
-3 -4 0 27.51 5.98
3 -4 0 34.09 9.26
-3 -4 0 29.37 6.3
-3 4 -1 5.52 3.95
3 4 1 3.11 5.21
-3 -4 -1 3.62 3.45
-3 -4 -1 0.47 4.78
3 -4 1 5.54 3.93
3 4 2 153.4 13.52
-3 4 -2 145.1 11.56
3 -4 2 147.33 11.25
3 -4 2 142.9 13.63
-3 -4 -2 164.69 11.67
-3 -4 -2 139.76 12.43
-3 4 -3 153.71 12.33
3 4 3 178.13 15.37
-3 -4 -3 167.18 11.98
-3 -4 -3 158.34 14.36
3 -4 3 164.21 12.12
3 -4 3 158.65 14.94
3 4 4 105.91 14.01
-3 4 -4 110.03 10.75
3 -4 4 100.27 12.86
3 -4 4 102.59 10.32
-3 -4 -4 93.62 9.94
-3 -4 -4 106.91 13.52
-3 4 -5 271.17 18.32
3 4 5 321.28 23.3
3 -4 5 277.05 20.58
3 -4 5 278.25 16.98
-3 -4 -5 309.85 18.13
3 4 6 127.04 17.21
3 -4 6 99.36 10.46
3 -4 6 105.88 18.86
-3 -4 -6 97.46 12.01
3 4 7 48.55 12.71
-3 -4 -7 28.48 8.66
3 -4 7 32.73 6.68
3 -4 8 12.28 11.12
-3 5 10 131.66 17.04
-3 -5 10 101.91 11.34
-3 5 9 25.24 10.24
-3 -5 9 27.58 9.67
-3 5 7 41.94 10.47
3 -5 -7 36.19 10.78
3 -5 -7 23.78 5.67
-3 5 6 11.91 7.28
3 -5 -6 1.32 7.03
3 -5 -6 18.66 7.9
-3 -5 6 7.03 6.14
-3 5 5 4.53 6.19
3 -5 -5 -7.38 7.5
3 -5 -5 0.77 5.8
-3 -5 5 5.87 4.13
3 -5 -4 22.18 6.02
-3 -5 4 16.4 4.65
3 -5 -4 13.75 5.98
-3 -5 3 4.81 3.88
3 -5 -3 3.67 4.92
3 -5 -3 -0.18 3.58
-3 -5 2 263.66 15.59
3 -5 -2 262.33 16.4
3 -5 -2 281.13 15.82
3 5 -1 184.26 11.75
-3 5 1 202.56 13.95
-3 -5 1 199.05 12.86
3 -5 -1 207.14 13.42
-3 -5 1 183.97 11.63
-3 5 0 20.25 6.3
3 5 0 28.25 6.48
3 -5 0 23.32 6.25
-3 -5 0 27.55 6.35
-3 -5 0 35.37 6.27
3 5 1 0.94 5.93
-3 5 -1 3.67 5.05
-3 -5 -1 9.54 4.49
3 -5 1 3.32 4.75
-3 -5 -1 8.9 5.35
3 5 2 13.58 6.53
-3 5 -2 7.11 5.7
3 -5 2 20.58 8.29
-3 -5 -2 7.17 5.87
3 -5 2 7.22 5.11
3 5 3 367.99 23.45
-3 5 -3 370.54 21.53
-3 -5 -3 382.53 21
3 -5 3 370.67 22.65
3 -5 3 386.41 20.81
-3 -5 -3 336.29 22.57
3 5 4 -3.88 8.08
-3 5 -4 -1.93 6.58
3 -5 4 6.21 7.14
-3 -5 -4 13.38 8.44
-3 -5 -4 -3.52 5.49
3 -5 4 -0.2 5.55
3 5 5 36.5 13.26
3 -5 5 34.03 9.99
-3 -5 -5 35.36 8.21
3 -5 5 28.2 6.97
3 5 6 23.89 11.36
-3 -5 -6 14.06 8.26
3 -5 6 15.89 6.18
3 -5 6 19.51 10.73
3 5 7 25.55 12.58
3 -5 7 13.06 6.69
3 -5 7 18.57 9.7
-3 -5 -7 -3.02 9.67
-3 6 10 21.77 10.71
-3 6 9 1.29 8.68
-3 6 8 -0.9 8.96
-3 6 7 15.72 8.86
-3 -6 7 4.33 4.25
3 -6 -7 0.34 5.2
-3 6 6 54.49 10.68
3 -6 -6 39.59 9.52
-3 -6 6 31.82 5.6
3 -6 -6 38.51 7.45
3 -6 -5 7.55 4.92
3 -6 -5 5.66 6.73
-3 -6 5 2.92 4.25
-3 -6 4 112.12 9.97
3 -6 -4 119.1 10.9
3 -6 -4 114.88 12.24
-3 -6 3 21.98 5
3 -6 -3 22.25 6.5
3 -6 -3 13.76 5.16
-3 -6 2 116.81 8.88
3 -6 -2 140.47 11.33
-3 -6 2 132.2 11.24
3 -6 -2 132.66 11.59
3 6 -1 179.63 12.41
3 -6 -1 186.25 13.49
-3 -6 1 203.01 12.1
-3 -6 1 189.78 13.24
3 6 0 515.32 25.68
-3 -6 0 533.92 25.62
3 -6 0 501.45 26.29
-3 -6 0 517.03 26.22
3 6 1 36.57 8.14
-3 -6 -1 32.66 6.19
-3 -6 -1 42.99 7.79
3 -6 1 42.49 7.9
3 6 2 162.95 14.47
-3 -6 -2 155.8 14.32
-3 -6 -2 145.91 12.78
3 -6 2 158.29 13.21
3 -6 2 164.74 14.92
3 6 3 85.81 12.9
3 -6 3 75.44 13.28
-3 -6 -3 75.07 10.54
3 -6 3 84.1 10.24
-3 -6 -3 75.08 20.48
3 6 4 32.97 10.37
3 -6 4 25.23 7.62
3 -6 4 24.35 8.86
-3 -6 -4 12.08 13.95
3 6 5 10.65 9.17
3 -6 5 6.26 6.32
3 -6 5 5.01 9.05
3 6 6 11.37 11.33
3 -6 6 9.4 6.17
-3 -6 -6 -12.62 8.3
3 -6 6 5.03 9.04
3 6 7 32.34 12.21
3 -6 7 14.82 7.22
3 -6 7 33 12.24
-3 -6 -7 -3.34 10.4
-3 7 9 17.55 9.83
-3 7 8 20.2 9.67
3 -7 -8 4.87 6.09
-3 7 7 89.32 14.32
3 -7 -7 51.76 8.76
-3 7 6 50.48 11.5
-3 -7 6 37.81 7.68
3 -7 -6 40.66 7.95
3 -7 -5 205.63 14.67
-3 -7 5 164.6 13.39
3 -7 -5 203.28 16.25
-3 -7 4 1.25 5.34
3 -7 -4 -4.1 4.31
-3 -7 3 56.39 8.93
3 -7 -3 72.26 10.02
3 -7 -3 48.38 8.31
-3 -7 2 80.59 10.17
-3 -7 2 79.54 7.71
3 -7 -2 78.31 9.95
3 -7 -2 84.31 10.26
3 7 -1 54.61 8.19
3 -7 -1 46.46 8.27
-3 -7 1 81.63 12.81
-3 -7 1 43.67 6.94
3 7 0 554.38 27.82
3 -7 0 552.27 28.34
-3 -7 0 556.86 27.02
-3 -7 0 513.92 27.67
3 7 1 26.47 7.56
-3 -7 -1 35.75 8.24
-3 -7 -1 24.66 6.59
3 -7 1 27.32 7.73
3 7 2 17.76 8.16
-3 -7 -2 22.55 7.27
3 -7 2 23.19 6.77
-3 -7 -2 22.75 6.6
3 7 3 81.43 12.62
-3 -7 -3 64.41 14.21
-3 -7 -3 65.12 12.4
3 -7 3 72.16 10.24
3 -7 3 89.11 14.06
3 -7 4 3.74 6.33
3 -7 4 11.59 9.64
3 7 5 125.69 16.11
3 -7 5 124.2 13.42
-3 -7 -5 114.33 14.85
3 -7 5 121.92 29.74
-3 -7 -6 0.61 9.56
3 -7 6 -2.23 8.53
3 -7 6 -5.87 6.25
3 7 7 2.42 18.92
3 -7 7 1.5 6.43
3 -7 7 -1.49 8.97
-3 8 9 42.97 11.47
3 -8 -9 -3.18 8.05
-3 -8 8 4.7 6.29
-3 -8 8 1.35 5.96
3 -8 -8 0.22 7.3
-3 8 7 228.72 21.24
3 -8 -7 217.66 16.73
-3 -8 7 200.89 15.53
3 -8 -6 39.26 8.56
-3 -8 6 28.89 6.92
3 -8 -5 16.76 6.61
3 -8 -4 -1.19 7.61
3 -8 -4 4.99 6.22
3 -8 -3 366.87 23.49
3 -8 -3 386.46 22.34
3 -8 -2 283.12 18.47
-3 -8 2 267.93 18.12
3 -8 -2 256.77 23.53
-3 -8 2 277.52 15.37
3 8 -1 42.21 10.03
3 -8 -1 64.73 10.16
-3 -8 1 59.74 15.01
3 -8 -1 52.02 9.84
-3 -8 1 52.33 8.35
3 8 0 51.14 9.39
-3 -8 0 41.13 10.16
3 -8 0 44.67 8.94
-3 -8 0 45.07 8.26
3 8 1 11.04 7.5
-3 -8 -1 38.02 8.68
3 -8 1 24.52 7.96
-3 -8 -1 16.78 6.97
3 8 2 30.6 8.19
-3 -8 -2 40.85 8.79
-3 -8 -2 27.55 13.79
3 -8 2 23.8 7.61
3 8 3 19.71 10.14
-3 -8 -3 4.87 9.63
3 -8 3 9.68 9.65
-3 -8 -3 25.25 8.59
3 -8 3 30.45 8.05
3 8 4 132.09 17.49
-3 -8 -4 124.3 21.64
3 -8 4 115.13 13.41
3 -8 4 130.53 16.62
3 8 5 23.38 11.43
3 -8 5 32.82 11.39
3 -8 5 33.81 8.49
3 8 6 15.34 12.06
3 -8 6 14.75 9.85
3 -8 6 -1.8 7.01
-3 9 8 12.02 11.49
3 -9 -8 3.07 8.48
-3 -9 8 9.81 7.7
-3 -9 8 -3.93 11.12
3 -9 -7 48.16 9.98
-3 -9 7 49.31 9.84
3 -9 -6 18.55 7.78
-3 -9 6 5.96 7.37
3 -9 -5 237.92 18.84
3 -9 -4 20.53 7.33
3 -9 -3 19.62 8.55
3 -9 -3 11.89 6.8
3 -9 -2 45.87 9.45
-3 -9 2 56.58 8.62
3 -9 -2 41.06 10.18
3 -9 -1 28.09 7.93
3 -9 -1 49.26 9.42
-3 -9 1 38.24 7.77
-3 -9 1 27.07 8.36
3 9 0 133.26 13.05
-3 -9 0 126.53 14.01
3 -9 0 134.48 13.96
-3 -9 0 129.07 12.88
3 9 1 148.71 15.2
-3 -9 -1 160.73 20.12
3 -9 1 147.39 14.99
-3 -9 -1 148.39 14.92
3 9 2 36.35 9.58
-3 -9 -2 33.11 11.46
3 -9 2 58.61 11.19
3 -9 3 178.06 15.85
3 -9 3 167.1 17.96
3 9 4 44.06 12.48
3 -9 4 29.61 14.41
3 9 5 86.37 15.97
3 -9 5 51.59 11.07
3 9 6 2.9 12.81
3 -9 6 32.3 9.27
3 -9 6 4.19 7.95
-3 -10 8 16.11 8.09
3 -10 -8 -3.47 8.61
3 -10 -7 10.01 7.66
3 -10 -6 17.69 9.31
3 -10 -5 3.16 10.16
-3 -10 3 112.21 10.6
-3 -10 2 38.38 8.45
-3 -10 1 52.41 9
3 10 0 123.3 13.93
-3 -10 0 115.26 13.74
3 -10 0 134.59 17.47
3 10 1 62.17 11.72
-3 -10 -1 99.25 14.03
3 -10 1 66.98 11.62
3 10 2 -0.93 9.16
3 -10 2 -1.49 7.08
3 10 3 48.45 13.43
3 -10 3 31.18 8.58
3 -10 3 49.42 14.23
3 10 4 23.53 10.37
3 -10 4 15.62 11.7
3 10 5 15.65 11.61
3 -10 5 19.9 10.39
3 -10 5 9.49 8.47
3 -11 -7 69.89 12.91
-3 -11 7 67.77 12.41
3 -11 -6 27.35 10.23
3 -11 -5 7.14 7.83
3 -11 -4 34.53 9.73
3 -11 -3 8.79 8.4
-3 -11 3 25.44 6.96
-3 -11 2 7.88 8.37
3 -11 -2 7.96 7.16
3 -11 -1 14.12 7.87
-3 -11 1 14.26 8.31
-3 -11 0 65.29 13.14
3 -11 0 61.08 11.72
3 11 1 128.51 15.54
-3 -11 -1 134.21 19.09
3 -11 1 143.23 16.02
3 11 2 235.78 21.39
3 -11 2 271.31 21.03
3 11 3 20.66 11.83
3 -11 3 17.89 9.16
3 -11 3 -7.74 10.98
3 11 4 27.66 11.77
3 -11 4 -0.67 8.73
3 -12 -6 26.4 11.34
3 -12 -5 -1.64 9.47
3 -12 -4 17.29 9.71
3 -12 -3 -4.2 7.43
-3 -12 3 -1.01 7.9
3 -12 -2 14.79 8.11
-3 -12 2 28.84 9.22
3 -12 -1 45.03 11.17
-3 -12 1 31.81 11.93
3 -12 0 47.16 10.83
-3 -12 0 58.48 13.68
3 12 1 8.75 10.45
3 -12 1 -3.7 7.55
3 12 2 4.46 10.37
3 -12 2 -3.37 7.34
3 12 3 24.22 13.4
3 -12 3 16.67 9.09
3 -13 -4 22.12 11.66
3 -13 -3 20.04 10.53
-3 -13 3 11.63 9.86
3 -13 -2 10.42 9.16
-3 -13 2 30.18 15.14
-3 -13 1 60.18 12.54
3 -13 -1 112.14 16.96
3 -13 0 30.96 11.21
3 -13 1 -4.49 9.29
3 13 2 33.77 13.47
3 -13 2 23.32 10.67
-4 0 11 21.35 14.89
4 0 -10 332.09 22.55
-4 0 10 305.07 20.69
4 0 -9 9.36 8.15
-4 0 9 15.7 7.25
-4 0 8 145.78 12.3
4 0 -8 120.76 12.8
4 0 -7 1.91 5.05
4 0 -6 8.73 4.74
4 0 -5 -2.36 3.26
-4 0 5 2.13 2.82
4 0 -5 -1.13 3.73
4 0 -4 1174.43 47.88
4 0 -4 1156.69 48.02
-4 0 4 1171.47 48.01
4 0 -3 3.98 3.8
-4 0 3 7.23 3.44
-4 0 2 1005.91 40.8
4 0 -2 896.19 40.11
4 0 -1 1.45 4.43
-4 0 1 0.76 4.66
4 0 -1 -3.79 4.76
4 0 0 249.82 16.14
-4 0 0 284.39 15.51
4 0 0 275.02 15.38
-4 0 -1 8.19 3.56
4 0 1 1.37 6.11
-4 0 -1 10.81 5.87
4 0 1 1.27 5.72
4 0 2 17.11 4.67
-4 0 -2 11.17 4.65
-4 0 -2 13.21 7.24
4 0 2 17.61 7.29
4 0 3 4.11 4.38
-4 0 -3 -10.88 5.96
-4 0 -3 1.33 4.63
4 0 3 -3.48 6.31
4 0 4 2.4 5.6
4 0 4 -2.67 6.37
-4 0 -4 6.44 5.54
-4 0 -5 -13.74 6.11
4 0 5 -3.87 5.17
4 0 6 204.39 20.29
-4 0 -6 211.25 16.79
4 0 6 198.17 14.55
4 0 7 -1.88 10.77
4 0 7 2.85 6.01
4 1 -11 11.19 15.54
-4 1 11 13.37 8.74
-4 -1 11 16.62 8.03
-4 1 10 3.98 6.98
4 1 -10 -10.96 9.28
4 -1 -10 -2.46 10.36
-4 -1 10 16.65 7.07
-4 1 9 389.22 23.2
4 1 -9 399.75 22.63
-4 -1 9 362 21.32
4 -1 -9 350.89 27.26
4 1 -8 21.14 6.48
-4 1 8 28.93 7.16
4 -1 -8 22.18 8.76
-4 -1 8 25.92 5.99
4 1 -7 25.27 10.05
-4 1 7 28.84 7.02
-4 -1 7 22.72 5.43
4 -1 -7 21.23 6.92
4 1 -6 63.65 7.08
-4 1 6 70.44 8.37
4 -1 -6 57.49 8.46
-4 1 5 62.19 6.19
4 1 -5 52.28 6.53
4 1 -5 64.57 6.89
4 -1 -5 67.83 7.74
4 -1 -5 68.07 6.68
-4 -1 5 71.23 6.37
4 1 -4 81.33 8.5
4 1 -4 100.46 7.07
-4 1 4 90.68 8.06
-4 -1 4 95.85 8.34
4 -1 -4 112.22 8.56
4 -1 -4 90.55 8.31
4 1 -3 10.47 4.31
-4 1 3 4.96 3.13
4 -1 -3 10.49 4.21
-4 -1 3 4.7 3.28
4 1 -2 456.76 22.42
4 1 -2 469.86 21.69
-4 1 2 485.57 24.63
-4 -1 2 484.24 24.03
4 -1 -2 460.4 22.29
4 1 -1 153.9 11.43
-4 1 1 152.56 10.99
4 1 -1 150.49 11.04
-4 -1 1 151.62 11.18
4 -1 -1 147.23 11.07
4 1 0 12.43 5.37
4 1 0 9.36 5.74
-4 1 0 19.9 5.22
-4 -1 0 19.54 5.23
-4 -1 0 17.89 11.54
4 -1 0 19.66 7.32
4 -1 0 23.45 5.63
-4 1 -1 20.31 4.94
4 1 1 25.24 6.93
4 1 1 15.89 5.41
4 -1 1 20.49 5.99
-4 -1 -1 8.91 6
4 -1 1 14.72 7.09
-4 -1 -1 16.63 4.91
-4 1 -2 15.52 6.79
4 1 2 8.84 6.67
4 1 2 13.96 4.83
-4 1 -2 10.52 4.85
-4 -1 -2 16.11 5.48
4 -1 2 11.77 4.33
4 -1 2 2.81 6.4
-4 -1 -2 15.18 6.91
4 1 3 9.58 4.8
-4 1 -3 -6.29 7.03
4 1 3 0.35 6.77
-4 1 -3 1.68 4.56
-4 -1 -3 12.02 6.93
4 -1 3 2.44 4.42
4 -1 3 -0.25 6.42
-4 -1 -3 2.29 4.72
4 1 4 47.89 8.16
-4 1 -4 44.68 10.63
-4 1 -4 41.68 7.25
4 1 4 55.45 11.39
4 -1 4 60.31 11.35
-4 -1 -4 26.54 10.08
4 -1 4 43.04 8.07
-4 -1 -4 35.58 7.49
4 1 5 -1.82 12.01
4 1 5 17.26 6.34
-4 1 -5 7.38 7.06
-4 -1 -5 9.12 7.18
4 -1 5 14.08 6.33
-4 1 -6 31.77 9.77
4 1 6 40.68 12.45
4 1 6 61.62 9.23
4 -1 6 65.44 9.88
4 -1 6 72.41 13.51
-4 1 -7 -10.46 9.94
4 1 7 9 11.51
-4 -1 -7 -3.5 9.8
4 -1 7 2.53 5.73
4 -1 7 12.49 10.9
-4 2 11 14.43 9.44
4 2 -11 -9.62 13.1
-4 -2 11 10.48 8.07
4 2 -10 5.81 8.8
-4 -2 10 19.65 7.1
-4 2 9 126.37 13.73
4 2 -9 119.98 12.25
-4 -2 9 123.16 11.45
4 -2 -9 128.86 15.72
-4 2 8 17.99 7.13
4 2 -8 9.74 5.88
-4 -2 8 11.05 5.28
4 -2 -8 -1.58 8.22
-4 2 7 79.6 10.53
4 2 -7 68.39 7.77
-4 -2 7 77.26 7.81
4 -2 -7 69.14 10.39
-4 2 6 512.03 26.43
4 -2 -6 544.98 27
4 -2 -6 520.81 23.23
-4 2 5 2.48 3.14
4 2 -5 0.3 3.72
4 -2 -5 6.6 3.72
4 -2 -5 1.11 4.28
-4 -2 5 3.39 3.15
4 2 -4 156.82 10.96
-4 2 4 170.96 10.85
4 -2 -4 163.15 13.4
-4 -2 4 170.79 10.56
4 -2 -4 169.21 10.98
4 2 -3 239.53 14.06
4 -2 -3 226.46 13.67
-4 -2 3 255.86 14.24
-4 2 2 199.94 12.9
4 2 -2 212.67 11.78
4 2 -2 203.13 13.21
4 -2 -2 201.06 12.74
-4 -2 2 206.91 13.02
4 2 -1 1579.88 66.48
-4 2 1 1690.92 67.09
4 2 -1 1629.83 65.74
-4 -2 1 1664.51 65.71
4 -2 -1 1561.12 66.18
-4 -2 1 1606.96 66.4
4 2 0 92.43 9.87
-4 2 0 107.79 9.48
4 2 0 110.05 12.3
-4 -2 0 118.61 9.82
4 -2 0 97.46 13.88
4 -2 0 107.37 15
-4 2 -1 139.43 10.45
4 2 1 129.91 11.73
4 2 1 123.63 10.89
4 -2 1 132.18 10.37
-4 -2 -1 128.37 10.15
-4 -2 -1 131.83 11.72
4 -2 1 128.66 12.31
-4 2 -2 5.35 4.63
4 2 2 12.64 5.22
4 2 2 9.12 6.69
4 -2 2 3.09 4.55
-4 -2 -2 2.6 6.07
-4 -2 -2 15.35 4.89
4 -2 2 7.97 6.79
-4 2 -3 3.11 5.11
4 2 3 8.66 8.4
4 2 3 9.02 5.57
4 -2 3 17.06 7.94
4 -2 3 10.8 4.91
-4 -2 -3 6.96 5.28
-4 -2 -3 -12.5 7.02
4 2 4 86.8 10.69
-4 2 -4 91.12 14.34
4 2 4 95.06 13.62
-4 2 -4 91.32 11.05
-4 -2 -4 86.39 10.75
-4 -2 -4 84.45 13.06
4 -2 4 83.03 10.2
4 -2 4 79.34 12.01
4 2 5 27.99 7.8
-4 2 -5 19.09 8.52
4 2 5 30.04 10.9
4 -2 5 27.29 6.32
-4 -2 -5 23.64 7.78
4 2 6 24.2 11.15
4 -2 6 43.55 11.48
-4 -2 -6 6.89 9
4 -2 6 24.4 7.29
-4 2 -7 28.01 11.68
4 2 7 40.61 13.65
4 -2 7 36.71 7.27
-4 -2 -7 7.43 10.21
4 -2 7 51.98 12.72
-4 3 10 12.14 8.54
-4 -3 10 0.64 5.52
-4 3 9 88.12 12.78
4 3 -9 70.98 10.51
4 -3 -9 106.66 21.38
-4 3 8 14.74 6.72
4 -3 -8 -5.99 8.58
-4 3 7 20.45 7.69
4 -3 -7 20.66 7.82
-4 -3 6 36 5.08
4 -3 -6 38.03 6.05
4 -3 -6 37.89 8.63
4 -3 -5 224.54 14.55
-4 -3 5 210.44 12.03
4 -3 -5 205.19 12.7
-4 3 4 4.06 3.96
4 -3 -4 7.25 3.91
4 -3 -4 2.6 4.2
-4 -3 4 6.16 5.8
4 3 -3 50.96 7.76
-4 3 3 46.31 7.09
4 -3 -3 57.76 7.12
-4 -3 3 54.81 6.9
-4 3 2 6 4
4 3 -2 1.69 4.12
4 3 -2 7.61 3.86
-4 -3 2 8.27 4.35
4 -3 -2 9.79 5.08
4 3 -1 54.49 7.88
-4 3 1 49.41 7.42
4 3 -1 59.64 8.3
-4 -3 1 53.45 7.93
4 -3 -1 54.9 7.93
-4 -3 1 67.72 7.48
4 3 0 136.02 11.82
-4 3 0 153.74 11.43
4 3 0 134.28 11.33
-4 -3 0 142.19 13.3
-4 -3 0 136.36 10.88
4 -3 0 156.93 11.3
4 3 1 171.6 13.55
-4 3 -1 178.04 12.64
4 3 1 172.83 13.27
4 -3 1 177.1 14.43
4 -3 1 170.6 12.66
-4 -3 -1 184.55 12.41
-4 -3 -1 161.04 13.15
4 3 2 12.38 5.29
-4 3 -2 29.91 6.43
4 3 2 20.23 7.5
4 -3 2 27.51 8.36
4 -3 2 21.81 5.67
-4 -3 -2 23.77 5.98
-4 -3 -2 22.42 7.32
-4 3 -3 182.95 14.09
4 3 3 177.23 16.47
4 3 3 176.82 13.69
4 -3 3 161.78 15.74
-4 -3 -3 212.28 19.09
4 -3 3 182.13 13.01
-4 -3 -3 194.64 13.95
4 3 4 13.9 6.27
4 3 4 5.41 8.86
-4 3 -4 1.28 7.05
4 -3 4 8.84 5.69
-4 -3 -4 14.3 8.87
-4 -3 -4 7.84 6.23
4 -3 4 16.19 8.39
-4 3 -5 -1.69 6.78
4 3 5 3.33 8.93
4 -3 5 -3.94 11.26
-4 -3 -5 -1.37 6.91
4 -3 5 7.02 5.58
4 3 6 63.08 13.55
-4 3 -6 74.4 12.48
4 -3 6 77.01 13.5
-4 -3 -6 49.72 11.02
4 -3 6 87.47 10.51
4 3 7 16.9 10.81
-4 3 -7 4.64 11.17
-4 -3 -7 -1.1 14.75
4 -3 7 16.58 9.99
4 -3 7 8.86 7.01
-4 4 10 2.55 7.81
-4 4 9 -4.78 7.67
-4 4 8 82.33 12.37
4 -4 -8 80.58 12.14
-4 4 7 136.07 13.16
4 -4 -7 109.01 9.54
4 -4 -6 47.94 9.87
4 -4 -6 57.47 7.35
4 -4 -5 11.26 5.89
4 -4 -5 0.28 8.35
-4 -4 5 -1.12 3.68
-4 4 4 170.84 13.02
-4 -4 4 182.93 12.11
4 -4 -4 195.99 13.85
4 -4 -4 180.04 13.37
-4 4 3 47.38 7.54
4 -4 -3 51.79 7.35
4 -4 -3 51.8 7.63
-4 -4 3 47.64 6.95
-4 4 2 6.27 4.86
4 4 -2 1.72 3.86
4 -4 -2 -0.14 3.44
-4 -4 2 -0.35 3.85
4 4 -1 5.12 4.46
4 4 -1 -2.34 4.39
-4 4 1 -4.12 3.67
4 -4 -1 1.67 3.87
-4 -4 1 -3.51 3.8
-4 -4 1 5.23 4.63
4 4 0 5.23 5.09
4 4 0 12.17 5.76
-4 4 0 10.5 4.76
4 -4 0 7.54 4.89
-4 -4 0 11.58 5.25
-4 -4 0 6.31 4.28
-4 4 -1 706.15 33.58
4 4 1 702.94 34.08
4 4 1 669.85 33.58
4 -4 1 746.22 35.34
-4 -4 -1 704.33 33.83
-4 -4 -1 693.84 32.92
4 -4 1 707.39 33.01
4 4 2 20.89 6.77
-4 4 -2 30.05 7.38
4 4 2 35.16 8.84
4 -4 2 40.4 10.25
4 -4 2 39.3 7.33
-4 -4 -2 30.91 6.4
-4 -4 -2 27.96 8.08
4 4 3 -5.36 7.05
-4 4 -3 -0.44 6.14
4 -4 3 3.25 7.07
4 -4 3 -1.25 4.52
-4 -4 -3 2.77 7.46
-4 -4 -3 4.56 6.01
-4 4 -4 3.05 6.96
4 4 4 1.68 7.83
4 -4 4 2.33 8.47
4 -4 4 13.94 6.43
-4 -4 -4 5.23 6.84
4 4 5 27.67 11.34
-4 4 -5 36.31 9.75
4 -4 5 29.2 7.09
4 -4 5 30.32 11.64
-4 -4 -5 13.66 8.42
4 4 6 7.42 10.52
-4 4 -6 0 10.86
4 -4 6 2.9 5.99
4 -4 6 -0.63 8.4
-4 -4 -6 -9.15 9.39
4 4 7 22.87 12.06
4 -4 7 5 6.51
-4 -4 -7 -13.26 10.33
4 -4 7 22.64 10.92
-4 5 10 79.65 14.3
-4 5 9 14.05 9.15
-4 5 8 3.24 8.39
-4 5 7 80.12 12.24
4 -5 -7 57.02 10.88
-4 -5 7 62.37 7.3
4 -5 -7 58.69 8.29
4 -5 -6 15.76 5.13
-4 -5 6 13.26 4.85
4 -5 -6 2.74 9.98
4 -5 -5 13.29 6.76
-4 -5 5 13.87 5.07
4 -5 -5 5.02 4.37
-4 -5 4 656.48 30.32
4 -5 -4 626.97 32.45
4 -5 -4 666.63 30.79
-4 5 3 11.5 5.35
-4 -5 3 14.05 4.88
4 -5 -3 20.09 6.09
4 -5 -3 18.16 5.61
-4 5 2 463.37 24.92
-4 -5 2 476.37 23.98
4 -5 -2 461.67 24.03
4 5 -1 4.83 4.61
-4 5 1 2.37 4.65
-4 -5 1 5.41 4.5
4 -5 -1 1.03 4.33
-4 -5 1 6.67 4.52
-4 5 0 4.31 5.54
4 5 0 1 8.25
-4 -5 0 3.53 5.04
-4 -5 0 0.84 4.21
4 -5 0 1.09 4.63
-4 5 -1 0.55 5.5
4 5 1 4.75 6.02
-4 -5 -1 1.01 6
4 -5 1 7.36 5.17
-4 -5 -1 0.28 4.91
4 5 2 55.92 10.82
-4 5 -2 48.06 8.63
4 -5 2 68.42 9.48
-4 -5 -2 75.91 11.61
-4 -5 -2 49.33 8.64
4 -5 2 60.58 12.04
-4 5 -3 9.66 6.76
4 5 3 1.57 8.02
-4 -5 -3 3.06 5.93
-4 -5 -3 15.76 7.9
4 -5 3 -6.36 5.15
4 -5 3 -0.04 7.75
-4 5 -4 135.59 15.24
4 5 4 154.4 25.33
4 -5 4 143.21 12.78
4 -5 4 141.61 16.98
-4 5 -5 58.19 17.92
4 5 5 69.06 12.7
-4 -5 -5 52.06 10.99
4 -5 5 51.2 9.24
4 -5 5 61.84 13.83
4 5 6 2.6 11.01
4 -5 6 7.14 6.61
4 -5 6 -13.79 9.17
-4 -5 -7 -20.26 12.75
4 -5 7 23.7 11.29
4 -5 7 3.3 6.7
-4 6 10 78.6 14.51
-4 6 9 -7.36 7.85
-4 6 8 155.59 16.73
4 -6 -8 129.83 11.52
-4 -6 7 45.9 7.31
4 -6 -7 51.15 8.14
4 -6 -6 24.05 6.03
-4 -6 6 28.68 5.64
4 -6 -6 22.03 8.14
-4 -6 5 8.64 4.99
4 -6 -5 12.54 5.69
4 -6 -4 117.84 12.65
4 -6 -4 133.47 11.67
-4 -6 4 126.78 10.81
4 -6 -3 69.12 10.08
4 -6 -3 65.85 8.83
-4 -6 3 61.64 8.79
-4 6 2 110.55 11.88
4 6 -2 94.22 8.25
-4 -6 2 104.72 8.71
4 -6 -2 107.74 10.52
-4 -6 2 96.45 10.48
4 6 -1 13.18 5.39
-4 6 1 11.77 6.18
-4 -6 1 14.67 4.75
-4 -6 1 13.68 5.75
4 -6 -1 11.91 5.5
4 6 0 9.52 5.8
-4 6 0 0.3 5.48
-4 -6 0 6.29 5.79
4 -6 0 0.03 4.63
-4 -6 0 3.95 5.01
-4 6 -1 132.09 13.65
4 6 1 141.18 13.72
-4 -6 -1 154.11 13.39
4 -6 1 165.13 13.73
-4 -6 -1 146.12 12.42
-4 6 -2 69.56 11.36
4 6 2 81.22 12.87
-4 -6 -2 83.98 14.05
-4 -6 -2 90.62 12.1
4 -6 2 96.65 14.54
4 -6 2 86.68 10.98
4 6 3 -3.68 7.53
-4 6 -3 20.41 14.78
4 -6 3 -7.47 5.06
-4 -6 -3 3.89 9.31
-4 -6 -3 -5.1 6.45
4 -6 3 7.42 9.08
4 6 4 12.25 10
-4 -6 -4 11.88 7.37
4 -6 4 21.59 6.69
4 -6 4 8.35 14.8
4 6 5 10.41 11.33
4 -6 5 -2.49 8.8
4 -6 5 -0.44 5.88
-4 -6 -5 -5.56 8.22
4 6 6 0.87 10.53
4 -6 6 7.7 10.06
4 -6 6 -1.27 6.16
-4 7 9 4.77 9.02
4 -7 -8 10.55 6.3
-4 -7 8 7.39 5.74
4 -7 -7 63.12 9.38
-4 -7 7 55.13 8.83
-4 -7 6 42.8 7.66
4 -7 -6 32.37 7.75
4 -7 -5 113.65 13.24
4 -7 -5 103.76 11.37
-4 -7 5 104.39 10.86
4 -7 -4 154.46 14.35
4 -7 -4 145.81 13.13
-4 -7 4 153.43 12.61
4 -7 -3 10.87 10.79
4 -7 -3 3.85 5.92
-4 -7 3 9.67 6.01
4 7 -2 27.76 5.54
-4 -7 2 15.21 5.59
-4 -7 2 17.15 5.27
4 -7 -2 19.43 6.29
4 7 -1 -3.04 5.06
4 -7 -1 -2.02 4.64
-4 -7 1 -3.25 4.93
-4 -7 1 1 4.42
4 7 0 -0.87 5.9
-4 -7 0 -2.03 5.48
-4 -7 0 7.26 11.06
4 -7 0 1.76 5.19
4 7 1 161.31 15.04
-4 -7 -1 191.21 14.56
-4 -7 -1 175.62 15.3
4 -7 1 160.4 14.55
4 7 2 5.43 7.27
4 -7 2 1.07 6.03
4 -7 2 14.17 10.22
-4 -7 -2 2.64 6.97
-4 -7 -2 -3.9 6.84
4 7 3 4.99 9.59
4 -7 3 -2.19 6.1
-4 -7 -3 0.25 7.46
4 -7 3 10.59 11.08
4 7 4 132.57 17.06
4 -7 4 102.01 16.41
4 -7 4 101.94 12.52
4 7 5 29.74 11.62
4 -7 5 3.31 10.42
4 -7 5 0.61 6.68
4 7 6 83.7 15.69
4 -7 6 86.43 15.41
4 -7 6 79.92 16.87
4 -8 -8 12.88 6.94
-4 -8 8 -11.66 6.39
4 -8 -7 0.64 5.84
-4 -8 7 0.36 6.75
4 -8 -6 14.09 7.06
-4 -8 6 9.42 8.39
4 -8 -5 23.54 7.21
4 -8 -4 3.03 7.71
-4 -8 4 12.77 6.81
4 -8 -4 9.16 5.87
-4 -8 3 1.33 6.16
4 -8 -3 -2.47 6.26
4 -8 -3 -2.36 5.51
4 -8 -2 156.43 14.93
4 -8 -2 154.42 13.55
-4 -8 2 155.9 12.06
-4 -8 2 154.65 14.13
4 8 -1 28.42 8
4 -8 -1 26.92 7.4
-4 -8 1 41.09 8.96
-4 -8 1 39.61 7.82
4 8 0 23.27 7.43
-4 -8 0 25.42 8.57
4 -8 0 26.44 7.85
-4 -8 0 32.09 8.14
4 8 1 82.42 12.22
-4 -8 -1 80.55 11.98
4 -8 1 72.63 12.2
-4 -8 -1 52.7 10.56
4 8 2 93.36 13.45
-4 -8 -2 99.86 15.27
4 -8 2 99.62 16.43
4 -8 2 94.15 12.99
4 8 3 429.39 30.85
4 -8 3 351.3 23.95
4 -8 3 385.92 31.51
4 8 4 63.52 13.85
4 -8 4 64.16 15.12
4 -8 4 55.53 16.08
4 8 5 4.37 10.84
4 -8 5 3.2 10.85
4 -8 5 -9.54 7.56
4 -8 6 49.04 12.44
-4 -9 8 20.82 8.65
4 -9 -8 11.17 8.84
4 -9 -7 10.93 6.83
-4 -9 7 7.83 8.14
4 -9 -6 4.73 7.16
-4 -9 6 9.08 6.26
4 -9 -5 12.95 7.42
-4 -9 5 17.58 7.78
-4 -9 4 6.87 6.79
4 -9 -4 -2.07 5.42
-4 -9 3 -7.83 6.68
4 -9 -3 -0.62 6.2
-4 -9 2 23.61 6.68
4 -9 -2 16.94 7.52
4 9 -1 38.34 8.56
-4 -9 1 11.52 7.92
4 -9 -1 25.73 7.31
4 9 0 -2.32 7.35
-4 -9 0 10.28 7.43
4 -9 0 2 7.34
4 9 1 105.19 13.63
-4 -9 -1 97.69 14.04
4 9 2 76.98 13.77
4 -9 2 75.25 12.43
4 9 3 -11.87 9.83
4 -9 3 -13.59 7.16
4 9 4 39.01 12.76
4 -9 4 14.48 8.57
4 -9 4 18.91 12.53
4 9 5 11.47 12.31
4 -9 5 25.63 12.01
4 -9 5 -5.93 7.58
4 -10 -8 -0.85 9.17
4 -10 -7 -3.75 8.19
4 -10 -6 114.36 14.92
4 -10 -5 18.64 8.11
4 -10 -4 302.41 21.8
4 -10 -3 2.23 7.09
4 -10 -2 11.81 7.1
-4 -10 2 8.59 7.15
4 10 -1 1.4 7.24
-4 -10 1 -3.14 8.42
4 -10 -1 12 6.57
4 10 0 111.81 14.02
-4 -10 0 114.78 14.56
4 -10 0 125.12 14.36
4 10 1 67.13 11.73
4 -10 1 47.13 10.42
-4 -10 -1 61.09 12.67
4 10 2 14.11 10.75
4 -10 2 19.32 8.85
4 10 3 1.13 10.74
4 -10 3 -4.08 7.83
4 -10 3 0.52 12.28
4 10 4 7.92 10.22
4 -10 4 0.12 10.68
4 -10 4 8.74 9.46
4 -11 -7 -17.34 8.2
4 -11 -6 16.57 9.37
4 -11 -5 21.3 9.19
4 -11 -4 4.87 7.52
4 -11 -3 21.65 8.78
4 -11 -2 54.58 10.77
-4 -11 2 51.11 9.66
-4 -11 1 2.76 8.84
4 -11 -1 1.01 6.56
4 11 0 63.27 11.94
-4 -11 0 42.66 12.06
4 -11 0 36.49 9.44
4 11 1 2.43 11.68
4 -11 1 -5.58 6.94
4 11 2 1.48 9.84
4 -11 2 -10.17 7.94
4 11 3 1.51 11.11
4 -11 3 -12.38 10.28
4 -11 3 1.6 8.28
4 -12 -6 129.72 18.16
4 -12 -5 15.5 9.62
4 -12 -4 56.84 12.19
4 -12 -3 -3.15 8.28
-4 -12 2 -8.65 8.99
4 -12 -2 -4.51 7.73
-4 -12 1 31.35 11.57
4 -12 -1 23.01 9.59
4 -12 0 2.77 8.31
4 12 1 6.32 10.44
4 -12 1 21.63 9.88
4 12 2 17.83 10.94
4 -12 2 11.98 10.02
4 -13 -4 -0.89 9.37
4 -13 -3 22.06 12.94
-4 -13 3 8.99 9.35
4 -13 -2 -1.68 9.33
-4 -13 2 -29.74 18.27
-4 -13 1 -9.78 12.27
4 -13 -1 19.95 9.5
4 -13 0 60.02 13.42
5 0 -11 -8.58 12.89
-5 0 11 23.48 8.07
5 0 -10 283.47 23.29
-5 0 10 345.62 20.43
5 0 -9 -9.34 7.14
5 0 -8 633.75 31.06
5 0 -7 18.6 6.14
5 0 -6 138.11 10.77
-5 0 6 139.77 10.03
5 0 -6 157.92 10.48
5 0 -5 -2.95 3.61
5 0 -5 8.58 4.11
-5 0 5 2.87 3.84
-5 0 4 1597.37 64.49
5 0 -4 1538.05 64.13
5 0 -3 7.96 8.27
-5 0 3 11.35 4.93
5 0 -2 14.65 5.07
-5 0 2 21.58 5.43
5 0 -2 18.37 6.04
5 0 -1 8.73 6.94
-5 0 1 4.28 4.66
5 0 -1 6.64 4.59
5 0 0 123.14 11.91
-5 0 0 135.39 11.23
5 0 0 135.23 11.44
-5 0 -1 -1.28 6.23
-5 0 -1 0.43 4.59
5 0 1 -6.47 5.31
5 0 1 -2.46 4.64
-5 0 -2 1419.3 63.58
5 0 2 1377.97 62.55
-5 0 -2 1487.69 61.21
5 0 2 1404.02 60.3
5 0 3 2.67 7.29
-5 0 -3 -5.26 7.77
-5 0 -3 6.24 6.79
5 0 3 10.59 5.96
5 0 4 35.25 7.81
-5 0 -4 41.88 9.35
-5 0 -5 -10.87 13.98
5 0 5 7.3 6.47
5 0 5 12.37 9.45
5 0 6 15.03 7.19
5 0 6 14.61 12.03
-5 0 -6 3.15 9.86
5 0 7 26.4 8.05
-5 1 11 35.75 15.65
5 1 -11 -11.61 14.05
-5 -1 11 13.31 6.86
-5 1 10 18.19 7.63
5 1 -10 6.59 7.84
5 -1 -10 -3.58 9.75
-5 -1 10 8.44 6.45
5 1 -9 20.29 7.37
-5 1 9 20.09 7.42
5 -1 -9 4.4 7.83
5 1 -8 325.96 18.4
5 -1 -8 312.05 19.88
5 1 -7 38.99 6.53
5 -1 -7 23.36 7.24
-5 1 6 24.68 9.29
5 1 -6 9.82 4.76
5 -1 -6 8 4.99
-5 -1 6 2.15 3.99
5 -1 -6 8.18 4.15
5 1 -5 14.44 5.19
-5 1 5 11.09 4.5
5 -1 -5 27.03 6.44
5 -1 -5 12.4 4.46
-5 -1 5 22.47 5.16
5 1 -4 49.82 7.55
-5 1 4 51.05 7.49
5 -1 -4 50.79 8.23
-5 -1 4 53.27 7.6
5 1 -3 670.02 30.19
-5 1 3 701.1 31.82
5 1 -3 715.29 33.09
-5 -1 3 697.81 31.63
5 -1 -3 685.98 31.84
-5 1 2 8.28 4.85
5 1 -2 8.98 5.26
5 1 -2 14.95 5.37
5 -1 -2 8.27 4.78
-5 -1 2 8.65 4.75
-5 1 1 327.46 18.07
5 1 -1 301.06 17.73
5 1 -1 306.42 17.86
5 -1 -1 295.04 17.33
5 -1 -1 314.67 18.61
-5 -1 1 313.17 17.67
5 1 0 2.81 5.2
-5 1 0 3 4.4
5 1 0 13.57 5.28
-5 -1 0 4.82 6.15
5 -1 0 5.02 4.91
5 -1 0 8.06 6.53
-5 -1 0 -0.94 3.88
5 1 1 17.75 7.49
5 1 1 17.6 6.21
-5 1 -1 15.46 5.51
5 -1 1 24.16 7.62
-5 -1 -1 18.28 5.62
-5 -1 -1 18.36 7.81
5 -1 1 18.09 5.81
5 1 2 36.99 7.32
5 1 2 33.51 9.25
5 -1 2 16.73 7.61
-5 -1 -2 11.17 8.79
-5 1 -3 19.62 10.06
5 1 3 32.07 7.31
5 1 3 32.31 9.53
-5 1 -3 22.27 7.63
5 -1 3 32.49 6.92
5 -1 3 19.07 8.32
-5 -1 -3 37.59 8
-5 -1 -3 8.25 9.81
-5 1 -4 9.22 8.14
5 1 4 18.53 6.96
5 1 4 22.13 15.34
5 -1 4 14.28 6.33
-5 -1 -4 -2.82 8.04
5 -1 4 18.85 15.33
5 1 5 40.58 12.44
5 1 5 8.28 6.94
-5 1 -5 24.4 16.44
5 -1 5 26.44 8.09
-5 -1 -5 4.45 10.61
5 -1 5 49.8 12.74
5 1 6 -2.85 10.03
5 1 6 14.66 7.4
5 -1 6 6.75 9.23
5 -1 6 8.07 6.88
5 1 7 1.94 15.35
-5 2 11 47.88 11.72
-5 -2 11 5.8 7.04
5 2 -10 7.47 9.19
-5 2 10 15.75 7.32
5 2 -9 54.47 8.85
5 -2 -9 63.19 12.46
5 -2 -8 200.3 17.11
5 -2 -7 13.82 6.64
5 2 -6 339.02 18.28
-5 2 6 339.57 18.3
-5 -2 6 377.21 21.3
5 -2 -6 348.77 17.73
5 -2 -6 352.78 19.91
5 2 -5 53.83 7.4
-5 2 5 46.04 7.03
5 -2 -5 58.83 8.55
-5 -2 5 46.92 6.82
5 -2 -5 47.11 7.43
-5 2 4 247.44 15.24
5 2 -4 262.89 20.85
-5 -2 4 252.64 15.09
5 -2 -4 280.43 15.72
5 -2 -4 242.68 15.19
5 2 -3 16.03 5.3
-5 2 3 22.25 5.26
5 2 -3 18.26 4.8
5 -2 -3 17.22 5.3
-5 -2 3 15.23 5.11
5 2 -2 73.69 8.77
5 2 -2 60.02 7.79
-5 2 2 73.55 8.67
5 -2 -2 64.2 8.14
-5 -2 2 68.99 8.56
5 2 -1 12.77 5.93
5 2 -1 0.26 4.97
-5 2 1 5.83 4.41
-5 -2 1 10.93 5.11
-5 -2 1 13.78 5.08
5 -2 -1 2.01 4.21
5 2 0 29.18 7.16
-5 2 0 24.83 5.9
5 2 0 28.83 6.78
5 -2 0 36.37 8.59
-5 -2 0 30.07 6.49
-5 -2 0 24.6 7.26
5 -2 0 22.67 5.89
-5 2 -1 122.21 11.49
5 2 1 117.45 12.13
5 2 1 134.9 12.07
5 -2 1 121.6 13.62
5 -2 1 144.39 11.62
-5 -2 -1 111.63 12.64
5 2 2 9.61 8
5 2 2 -3.94 5.77
-5 2 -2 -3.72 4.85
5 -2 2 -1.72 4.93
-5 -2 -2 -13.98 6.8
5 -2 2 3.08 7.48
5 2 3 11.98 6.2
-5 2 -3 15.6 7.13
5 2 3 15.89 9.28
5 -2 3 24.48 6.67
-5 -2 -3 24.87 7.53
-5 -2 -3 22.2 9.55
5 -2 3 20.11 8.82
5 2 4 50.2 13.24
-5 2 -4 54.17 11.34
5 2 4 69.83 9.96
-5 -2 -4 62.53 16.5
5 -2 4 61.38 9.71
5 2 5 78.33 15.18
-5 2 -5 58.93 12.22
5 2 5 83.59 11.45
5 -2 5 82.54 10.98
-5 -2 -5 56.76 10.61
5 -2 5 63.15 14.15
5 2 6 23.81 12.31
5 -2 6 7.43 7.37
5 -2 6 -1.53 9.61
5 3 -11 -2.31 12.39
-5 3 11 50.42 11.71
-5 3 10 24.7 9.04
5 -3 -9 303.48 22.61
5 -3 -8 34.73 15.86
5 -3 -7 33.99 8.81
5 -3 -7 26.9 6.05
-5 3 6 235.04 14.36
5 -3 -6 197.7 15.57
-5 -3 6 205.18 12.87
5 -3 -6 237.08 18.67
-5 3 5 185.56 12.45
5 3 -5 194.06 14.46
5 -3 -5 169.53 13.49
-5 -3 5 182.47 11.88
5 -3 -5 185.16 12.33
5 3 -4 5.58 4.44
-5 3 4 -0.78 3.58
5 -3 -4 0.16 4.6
-5 -3 4 3.7 4.39
5 -3 -4 1.19 4.24
-5 3 3 136.01 11.03
5 3 -3 146.57 11.86
5 -3 -3 135.88 11.25
-5 -3 3 136.94 10.79
5 3 -2 15.03 5.46
-5 3 2 12.47 5.05
5 3 -2 19.73 6.45
5 -3 -2 14.57 5.65
-5 -3 2 23.29 5.66
-5 3 1 41.98 7.41
5 3 -1 55.74 8.06
5 3 -1 56.91 8.49
-5 -3 1 44.43 8.95
-5 -3 1 42.83 7.27
5 -3 -1 45.95 7.72
5 3 0 9.56 5.59
-5 3 0 -6.31 4.32
5 3 0 -0.47 5.65
5 -3 0 3.71 5.15
5 -3 0 12.4 8
-5 -3 0 -2.3 4.48
-5 -3 0 2.44 6.04
5 3 1 56.88 9.3
-5 3 -1 45.91 8.76
5 3 1 57.33 10.1
5 -3 1 42.65 7.72
5 -3 1 60.58 11.58
-5 -3 -1 61.81 9.06
-5 -3 -1 52.96 10.47
5 3 2 -3.84 5.31
5 3 2 4.51 7.46
-5 3 -2 10.57 5.81
5 -3 2 13.11 8.45
5 -3 2 8.42 5.26
-5 -3 -2 1.61 5.31
-5 -3 -2 -1.45 7.18
5 3 3 29.76 10.66
5 3 3 45.79 8.61
-5 3 -3 16.03 7.45
5 -3 3 20.61 9.81
-5 -3 -3 31.33 8.26
-5 -3 -3 23.07 11.12
5 -3 3 39.72 7.57
5 3 4 7.31 6.68
5 3 4 12.73 9.21
-5 3 -4 3.48 10.31
5 -3 4 -4.86 8.88
5 -3 4 5.17 6.63
-5 -3 -4 -9.1 7.47
-5 3 -5 -20.1 8.25
5 3 5 2.43 10.67
-5 -3 -5 -12.98 7.74
5 -3 5 5.45 5.81
5 -3 5 10.78 10.31
5 3 6 16.5 12.3
-5 3 -6 -22.32 10.66
5 -3 6 -1.38 10.44
5 -3 6 9.25 6.8
5 -4 -8 58.53 12.18
-5 -4 7 7.54 4.26
5 -4 -7 5.34 4.65
5 -4 -6 139.84 13.79
5 -4 -6 142.38 11.11
-5 -4 6 141.93 10.68
-5 4 5 -0.52 4.83
5 -4 -5 3.56 4.45
-5 -4 5 3.84 4.56
5 -4 -5 6.19 5.63
-5 4 4 -4.65 4.58
5 -4 -4 -0.63 4.65
-5 -4 4 -8.36 3.4
5 -4 -4 7.8 4.6
5 4 -3 6.92 5.6
-5 4 3 16.78 5.45
-5 -4 3 12.4 5.08
5 -4 -3 18.2 5.54
-5 4 2 1.64 4.37
5 4 -2 10.25 4.86
5 4 -2 7.74 6.12
-5 -4 2 11.09 4.88
5 -4 -2 11.93 5.3
-5 -4 2 14.78 5.1
5 4 -1 391.71 20.61
5 4 -1 376.04 21.7
-5 4 1 401.78 21.97
-5 -4 1 369.17 20.59
5 -4 -1 359.33 20.68
-5 -4 1 376.6 20.82
5 4 0 142.88 13.31
5 4 0 149.84 12.71
-5 4 0 155.36 13.09
-5 -4 0 166.1 13.25
5 -4 0 141.38 12.3
-5 -4 0 153.31 12.3
5 4 1 21.56 8.55
-5 4 -1 19.9 7.13
5 4 1 28.93 7.8
-5 -4 -1 24.21 7
5 -4 1 26.33 7.42
5 -4 1 27.59 9.79
-5 -4 -1 29.78 8.66
5 4 2 75.23 12.85
5 4 2 85.5 11.37
-5 4 -2 57.67 10.43
5 -4 2 68.68 10.27
-5 -4 -2 66.57 10.58
5 -4 2 78.67 13.62
-5 4 -3 77.89 15.8
5 4 3 75.82 11.81
5 4 3 97.58 14.24
-5 -4 -3 95.24 12.82
5 -4 3 85.16 10.78
-5 -4 -3 86.01 17.44
5 -4 3 82.56 15.62
5 4 4 129.36 16.36
5 -4 4 128.07 16.68
5 -4 4 152.31 12.82
-5 -4 -4 104.45 14.47
-5 4 -5 21.61 10.54
5 4 5 21.32 10.92
-5 -4 -5 -18.3 9.31
5 -4 5 23.57 7.06
5 -4 5 -0.97 9.4
5 4 6 27.13 13.05
-5 4 -6 3.12 16.24
5 -4 6 37.35 12.45
5 -4 6 14.3 8.21
5 -5 -8 8.98 5.36
5 -5 -7 10.57 8.16
5 -5 -7 7.75 5.28
-5 -5 7 -4.97 4.33
5 -5 -6 31.7 11.23
-5 -5 6 22.11 5.75
5 -5 -6 29.26 6.4
5 -5 -5 74.07 11.43
5 -5 -5 64.63 9.14
-5 -5 5 62.61 8.82
-5 5 4 17.54 7.28
5 -5 -4 8.49 5.86
-5 -5 4 14.34 5.14
5 -5 -4 12.11 5.64
-5 5 3 61.91 9.43
-5 -5 3 53.14 8.8
5 -5 -3 58.18 8.75
5 5 -2 147.47 10.96
-5 5 2 159.88 13.7
5 -5 -2 155.24 12.88
-5 -5 2 148.1 10.77
-5 -5 2 155.8 12.97
-5 5 1 22.94 6.94
5 5 -1 20.88 6.16
-5 -5 1 33.24 7.12
-5 -5 1 32.42 6.93
5 -5 -1 21.44 6.93
5 5 0 151.89 13.38
-5 5 0 149.37 13.65
-5 -5 0 147.5 13.09
-5 -5 0 148.93 13.2
5 -5 0 153.88 12.82
-5 5 -1 3.56 7.5
5 5 1 6.39 7.09
-5 -5 -1 13.07 7.21
5 -5 1 19.35 9.28
5 -5 1 0.88 5.48
5 5 2 17.04 8.77
-5 5 -2 13.81 7.82
-5 -5 -2 41.34 9.78
5 -5 2 32.54 10.85
5 -5 2 41.51 8.6
-5 -5 -2 16.33 7.43
5 5 3 48.6 12.24
-5 5 -3 41.79 10.7
5 -5 3 39.17 8.58
-5 -5 -3 34.65 9.09
5 -5 3 45.33 23.16
5 5 4 229.86 20.66
-5 5 -4 211.82 19.44
-5 -5 -4 219.05 23.11
5 -5 4 199.75 20.75
5 -5 4 213.86 16.37
5 5 5 3.43 10.35
5 -5 5 -0.19 10.17
5 -5 5 0.89 6.68
5 5 6 5.9 11.69
5 -5 6 -14.4 10.62
5 -5 6 10.52 12.76
-5 -6 8 72.14 8.83
5 -6 -8 90.37 10.61
5 -6 -7 83.91 10.67
-5 -6 7 78.82 9.88
5 -6 -6 -1.18 5.44
5 -6 -6 -0.55 6.47
-5 -6 6 3.37 6.18
5 -6 -5 42.63 9.97
5 -6 -5 31.34 7.34
-5 -6 5 24.53 7.23
5 -6 -4 9.7 5.7
-5 -6 4 11.34 6.11
-5 6 3 194.48 15.51
-5 -6 3 170.64 13.86
5 -6 -3 172.61 13.71
5 6 -2 33.83 6.51
-5 6 2 29.87 9.23
5 -6 -2 26.94 7
-5 -6 2 27.37 7.86
-5 -6 2 36.68 7.09
5 -6 -1 67.21 10.32
-5 -6 1 68.88 9.67
5 6 0 0.51 6.49
-5 6 0 15.35 7.25
-5 -6 0 -1.56 5.93
5 -6 0 -4.29 4.96
-5 -6 0 1.86 6.78
-5 6 -1 11.91 7.56
5 6 1 7.33 7.59
5 -6 1 17.03 9.91
-5 -6 -1 3.83 6.21
-5 -6 -1 0.98 8.13
5 -6 1 9.8 5.83
5 6 2 251.29 19.51
-5 6 -2 238.95 19.36
5 -6 2 248.65 17.7
-5 -6 -2 242.29 19.16
-5 -6 -2 238.3 17.63
5 -6 2 207.44 20.85
5 6 3 118.15 23.28
-5 6 -3 85.75 14.68
5 -6 3 90.5 16.35
5 -6 3 79.68 11.43
5 6 4 -12.72 10.15
5 -6 4 7.96 6.41
5 -6 4 7.32 11.4
5 6 5 10.31 11.47
5 -6 5 5.87 7.41
5 -6 5 15.21 10.96
5 6 6 -5.94 15.52
5 -6 6 -18.22 11.23
5 -7 -9 3.79 6.93
-5 -7 8 29.64 6.7
5 -7 -8 4.26 6.63
5 -7 -7 23.78 7.78
-5 -7 7 34.55 7.93
5 -7 -6 11.85 6.54
-5 -7 6 13.82 7.36
5 -7 -5 0.1 5.48
-5 -7 5 -3.03 6.07
5 -7 -5 -2.35 8.08
5 -7 -4 11.01 7.12
5 -7 -3 191.99 14.75
5 -7 -3 175.17 15.51
-5 -7 3 191.46 15.15
-5 7 2 34.54 9.42
5 7 -2 27.89 6.33
-5 -7 2 26.19 8.1
5 -7 -2 13.88 6.54
-5 -7 2 20.67 6.45
-5 7 1 14.73 8.63
-5 -7 1 29.57 8.3
-5 -7 1 11.21 5.97
5 -7 -1 11.32 6.08
-5 7 0 34.8 10.29
5 7 0 18.69 7.47
-5 -7 0 19.07 8.36
-5 -7 0 33.15 8.34
5 -7 0 15 7.06
5 7 1 227.84 17.77
-5 7 -1 190.73 18.79
-5 -7 -1 154.93 20.88
-5 -7 -1 171.2 24.41
5 -7 1 205.75 16.87
5 7 2 37.42 11.02
5 -7 2 23.3 8.71
5 -7 2 18.24 12.49
-5 -7 -2 24 9.97
5 7 3 22.95 10.63
5 -7 3 3.14 11.05
5 7 4 14.25 11.01
5 -7 4 7.21 7.55
5 -7 4 -1.85 11.63
5 7 5 -15.23 11.34
5 -7 5 -8.08 7.88
5 -7 5 9.77 11.9
-5 -8 9 -11.41 6.95
5 -8 -9 -11.45 7.16
5 -8 -8 10.98 6.52
-5 -8 8 6.54 10.46
5 -8 -7 -8.21 5.94
-5 -8 7 5.07 6.97
-5 -8 6 52.39 9.59
5 -8 -6 50.07 9.49
5 -8 -5 101.86 12.38
-5 -8 5 97.81 12.22
5 -8 -4 14.59 6.85
-5 -8 4 18.8 7.39
5 -8 -3 200.82 15.93
-5 -8 3 201.13 16.58
5 8 -2 4.47 5.62
-5 -8 2 -1.45 7.63
5 -8 -2 1.07 5.09
-5 -8 2 3.89 6.36
5 8 -1 121.59 11.93
-5 -8 1 98.23 12.03
5 -8 -1 90.74 12.26
5 8 0 27.58 9.25
-5 -8 0 33.92 9.17
5 -8 0 10.28 6.85
5 8 1 25.6 9.32
-5 -8 -1 28.85 9.99
5 -8 1 9.56 10.25
5 8 2 -4.7 9.58
5 -8 2 -0.28 6.46
5 -8 2 -10.13 10.41
5 8 3 12.38 11.25
5 -8 3 -11.2 7.45
5 -8 3 -11.45 11.56
5 8 4 13.37 11.78
5 -8 4 -9.45 7.45
5 -8 4 -0.94 12.12
5 8 5 -3.03 13.32
5 -8 5 -6.05 8.02
5 -8 5 12.13 12.5
5 -9 -8 4.57 11.68
-5 -9 8 -15.8 8.96
5 -9 -7 27.64 12.06
5 -9 -6 14.23 10.64
5 -9 -5 130.65 18.61
5 -9 -4 18.17 9.51
5 -9 -3 50.15 10.74
5 9 -2 11.85 10.72
5 -9 -2 12.78 7.21
-5 -9 2 6.15 7.78
5 9 -1 41.89 9.34
5 -9 -1 28.92 8.56
-5 -9 1 44.74 10.32
5 9 0 -12.19 7.55
-5 -9 0 10.08 8.44
5 -9 0 -5.65 6.88
5 9 1 11.47 9.02
5 -9 1 -6.45 7.14
-5 -9 -1 8.84 10.64
5 9 2 -11.22 9.7
5 -9 2 13.77 12.4
5 -9 2 -14.37 6.86
5 9 3 -6.15 10.41
5 -9 3 -13.65 7.62
5 -9 3 -8.26 11.02
5 9 4 3.58 12.35
5 -9 4 -1.78 12.66
5 -9 4 0.08 8.82
5 -10 -7 113.09 15.07
5 -10 -6 27.82 9.4
5 -10 -5 14.05 8.86
5 -10 -4 37.9 9.73
5 -10 -3 33.4 9.22
5 -10 -2 5.2 6.97
5 10 -1 14.62 8.09
5 -10 -1 11.32 8.28
-5 -10 1 24.07 9.71
5 10 0 31.44 9.28
5 -10 0 24.35 9.12
-5 -10 0 27.43 10.23
5 10 1 13.58 10.25
5 -10 1 6.84 7.92
5 10 2 11.51 10.34
5 -10 2 30.24 10.44
5 -10 2 3.18 13.6
5 10 3 2.32 11.69
5 -10 3 -16.78 7.63
5 -10 3 -1.44 12.28
5 -11 -6 39.1 10.79
5 -11 -5 0.18 8.84
5 -11 -4 3.78 8.48
5 -11 -3 13.66 9.02
-5 -11 2 68.54 11.96
5 -11 -2 62.28 12.26
5 11 -1 7.37 8.81
5 -11 -1 14.36 8.13
-5 -11 1 2.33 11.76
5 11 0 6.04 9.53
-5 -11 0 39.9 12.16
5 -11 0 20.82 9.12
5 11 1 -6.52 10.24
5 -11 1 -2.45 7.38
5 11 2 6.97 11.23
5 -11 2 -3.92 8.76
5 -11 2 -13.78 12.97
5 -12 -5 17.84 10.56
5 -12 -4 33.91 11.26
5 -12 -3 12.3 9.54
5 -12 -2 9.23 8.43
-5 -12 2 -18.77 9.34
5 -12 -1 -9.37 7.64
-5 -12 1 -16.78 10.75
5 -12 0 4.28 8.58
5 12 1 -6.32 11.13
5 -12 1 -3.27 8.56
-5 -13 2 -18.2 19.78
6 0 -11 13.9 11.44
6 0 -10 12.7 9.42
6 0 -9 -4.29 7.3
6 0 -8 459.72 24.07
6 0 -7 -1.37 5.23
-6 0 7 -3.48 4.58
-6 0 6 -1.93 4.76
6 0 -6 4.67 4.98
6 0 -6 19.26 7.07
-6 0 5 0.65 3.93
6 0 -5 2.89 8.26
6 0 -5 2.07 4.61
6 0 -4 172.19 12.49
-6 0 4 152.06 12.3
-6 0 3 -0.97 5.16
6 0 -3 -1.92 4.28
6 0 -2 31.88 6.77
6 0 -2 47.78 8.59
-6 0 2 30.17 7.54
6 0 -1 -6.09 6.33
6 0 -1 -0.53 4.68
-6 0 1 -3.81 4.7
-6 0 0 51.1 8.74
6 0 0 42.68 9.27
6 0 0 40.59 8.07
6 0 1 6.42 5.4
6 0 1 -0.58 6.61
-6 0 -1 14.48 6.48
6 0 2 10.7 8.69
-6 0 -2 4.82 7.69
6 0 2 10.28 6.78
6 0 3 5.1 9.18
6 0 3 11.45 7.47
-6 0 -4 250.29 21.56
6 0 4 267.26 18.99
6 0 4 274.3 22.91
6 0 5 -2.81 10.15
6 0 5 4.91 6.93
6 0 6 -1.24 7.95
6 1 -11 -18.96 11.83
6 1 -10 5.23 8.27
6 -1 -10 -10.57 9.62
6 1 -9 9.33 7.05
6 -1 -9 10.9 8.47
6 1 -8 24.91 9.89
6 -1 -8 10.18 7.17
6 1 -7 37.55 6.56
-6 1 7 25.34 6.05
6 1 -7 37.9 11.56
6 -1 -7 28.73 6.51
6 -1 -7 29.04 7.67
-6 -1 7 18 5.9
-6 1 6 -3.45 4.23
6 1 -6 4.52 4.56
6 1 -6 2.26 4.87
6 -1 -6 5.98 5.02
6 -1 -6 1.3 4.66
-6 -1 6 -2.09 4.43
-6 1 5 11.74 5.11
6 1 -5 13.89 4.42
6 1 -5 13.29 5.73
-6 -1 5 7.84 4.94
6 -1 -5 21.49 5.75
6 -1 -5 26.8 6
-6 1 4 7.94 5.33
6 1 -4 8.72 5.53
-6 -1 4 9.51 5.3
6 -1 -4 9.85 5.17
6 1 -3 19.92 6.01
6 1 -3 21.91 6.49
-6 1 3 14.63 5.94
-6 -1 3 13.15 5.72
6 -1 -3 13.46 5.37
-6 1 2 92.72 10.75
6 1 -2 121.84 11.27
-6 -1 2 105.91 11.06
6 -1 -2 108.88 10.69
6 -1 -2 126.18 11.98
6 1 -1 0.95 5.24
-6 1 1 2.54 5.05
6 1 -1 3.87 6.24
6 -1 -1 10.79 6.91
6 -1 -1 10.93 5.7
-6 -1 1 -3.01 4.45
6 1 0 141.75 12.81
6 1 0 141.39 13.47
-6 1 0 134.89 12.8
6 -1 0 143.61 12.71
-6 -1 0 154.21 12.86
6 -1 0 138.85 14.2
6 1 1 6.17 7.75
6 1 1 4.4 6.24
-6 1 -1 10.59 5.82
-6 -1 -1 6.32 6.38
6 -1 1 5.13 5.85
-6 -1 -1 0.61 7.97
6 -1 1 -3.69 7.6
6 1 2 4.49 8.96
6 1 2 9.28 7.04
-6 1 -2 4.09 7.1
6 -1 2 10.61 8.13
-6 -1 -2 -1.74 6.86
-6 -1 -2 21.79 10.79
6 -1 2 9.9 6.32
6 1 3 15.35 9.93
-6 1 -3 0.35 9.58
6 1 3 6.96 6.89
-6 -1 -3 -12.14 8.71
6 -1 3 14.2 7.01
6 -1 3 27.61 10.43
6 1 4 20.99 7.91
-6 1 -4 -0.64 9.42
6 1 4 25.44 11.2
6 -1 4 31.38 12.19
-6 -1 -4 -4.91 10.02
6 -1 4 21.41 7.86
6 1 5 7.65 8.54
6 1 5 25.07 11.57
6 -1 5 6.72 7.22
6 -1 5 8.99 11.47
6 1 6 35.7 9.47
6 1 6 16.46 18.5
6 -1 6 29.01 8.97
6 -2 -10 48.06 13.88
6 -2 -9 18.09 11.13
-6 2 8 3.03 6.02
-6 2 7 129.07 10.87
6 2 -7 129.28 11.07
6 -2 -7 130.76 10.34
-6 -2 7 93.92 9.99
6 -2 -7 127.51 12.98
-6 2 6 7.13 5.05
6 2 -6 3.45 5.14
-6 -2 6 6.42 4.52
6 -2 -6 9.44 5.51
6 -2 -6 10.93 5.16
6 2 -5 256.82 16.15
-6 2 5 247.39 16.05
-6 -2 5 256.43 15.64
6 -2 -5 254.34 16.13
6 -2 -5 243.46 15.35
6 2 -4 24.51 6.16
-6 2 4 31.08 7.3
6 2 -4 21.57 6.74
6 -2 -4 31.85 6.38
-6 -2 4 21.3 5.97
6 2 -3 3.3 5.32
-6 2 3 -2.26 4.56
6 2 -3 0.65 5.41
-6 -2 3 2.92 4.76
6 -2 -3 1.09 4.33
6 2 -2 241.14 15.45
6 2 -2 235.69 16.02
-6 2 2 246.2 16.47
-6 -2 2 226 15.78
6 -2 -2 223.87 15.38
6 2 -1 5.09 5.15
-6 2 1 5.1 5.34
6 2 -1 8.28 6.08
6 -2 -1 1.04 6.9
6 -2 -1 5.78 6.1
-6 -2 1 5.48 5.36
-6 2 0 25.43 7.25
6 2 0 35.01 8.68
6 2 0 19.43 6.53
-6 -2 0 27.47 7.24
6 -2 0 33.41 7.47
6 -2 0 23.57 10.02
-6 -2 0 23.33 7.94
6 2 1 11.21 6.59
6 2 1 6.24 8.3
6 -2 1 22.13 7.06
-6 -2 -1 15.08 9.11
6 -2 1 16.68 9.12
6 2 2 8.49 9.3
6 2 2 -0.32 6.42
-6 2 -2 -5.77 6.58
6 -2 2 -8.65 8.18
6 -2 2 -0.69 5.62
-6 -2 -2 -2.31 6.97
-6 -2 -2 -5.29 9.61
6 2 3 102.52 12.57
-6 2 -3 98.51 14.61
6 2 3 126.44 15.3
-6 -2 -3 70.29 12.7
6 -2 3 107.29 12.37
6 -2 3 97.51 14.81
6 2 4 0.69 6.93
6 2 4 17.42 11.21
6 -2 4 18.61 7.82
6 -2 4 9.91 10.01
6 2 5 235.29 24.51
6 2 5 218.18 22.13
6 -2 5 154.97 20.04
6 -2 5 242.98 25
6 2 6 43.67 16.21
6 -2 6 31.87 17.61
6 -3 -9 74.05 13.32
6 -3 -8 1.31 9.85
6 -3 -8 -4.65 4.55
-6 3 7 27.21 7.19
-6 -3 7 23.19 5.93
6 -3 -7 34.02 9.06
6 -3 -7 33.37 6.22
-6 3 6 136.81 11.9
6 3 -6 137.62 11.45
-6 -3 6 99.73 10.09
6 -3 -6 117.09 10.46
6 -3 -6 127.6 12.75
-6 3 5 185.77 14.46
6 3 -5 208.61 14.62
-6 -3 5 196.96 14.03
6 -3 -5 213.11 13.97
6 -3 -5 196.35 15.32
-6 3 4 11.2 5.73
6 3 -4 12.45 6
-6 -3 4 12.61 5.93
6 -3 -4 16.37 5.48
-6 3 3 406.9 23.38
6 3 -3 403.21 20.19
6 3 -3 404.75 22.6
-6 -3 3 409.62 22.5
6 -3 -3 415.36 22.06
6 3 -2 48.73 9.06
6 3 -2 57.34 8.58
-6 3 2 36 8.01
-6 -3 2 33.09 7.08
6 -3 -2 41.54 7.8
6 3 -1 62.34 9.98
-6 3 1 47.16 8.91
6 3 -1 76.19 10.67
6 -3 -1 79.37 12.87
6 -3 -1 68.92 10.06
-6 -3 1 82.48 10
-6 -3 1 59.93 9.75
-6 3 0 164.13 16.26
6 3 0 125.47 12.96
6 3 0 111.85 12.6
-6 -3 0 147.71 18.06
6 -3 0 127.48 12.06
-6 -3 0 110.67 13.37
6 -3 0 98.28 13.55
6 3 1 6.33 7.77
6 3 1 -1.81 5.94
-6 3 -1 -0.26 6.19
-6 -3 -1 -1.93 5.8
6 -3 1 6.12 8.02
6 -3 1 10.06 6.01
6 3 2 86.35 12.49
6 3 2 128.23 14.97
-6 3 -2 70.75 12.55
-6 -3 -2 52.93 14.23
6 -3 2 101.62 11.56
6 -3 2 91.85 14.2
-6 -3 -2 79.76 11.63
6 3 3 21.32 10.3
6 3 3 54.38 9.15
-6 3 -3 25.84 9.7
6 -3 3 39.2 8.85
-6 -3 -3 35.95 10.9
6 -3 3 31.18 11.79
6 3 4 5.48 8.63
6 3 4 4.99 10.28
6 -3 4 -2.32 6.57
6 -3 4 -0.66 9.73
6 3 5 34.64 11.82
6 3 5 -6.25 7.87
6 -3 5 -3.54 10.25
6 -3 5 9.6 7.98
6 -4 -8 96.81 15.23
-6 -4 8 68.99 8.68
6 -4 -7 440.56 27.16
6 -4 -7 461.94 23.21
-6 -4 7 435.9 22.53
-6 4 6 19.46 7.42
-6 -4 6 11.2 5.57
6 -4 -6 23.36 6.16
6 -4 -6 17.9 8.5
-6 4 5 20.47 7.47
6 -4 -5 29.66 6.46
-6 -4 5 32.79 7.38
6 -4 -5 33.92 9.26
-6 4 4 10.71 5.94
6 4 -4 1.94 6.06
-6 -4 4 -5.58 4.82
6 -4 -4 9.96 5.55
6 4 -3 12.37 4.59
-6 4 3 3.09 5.69
6 4 -3 8.73 5.93
6 -4 -3 11.06 5.69
-6 -4 3 9.87 6.33
6 4 -2 607.39 29.66
-6 4 2 645.94 32.67
6 4 -2 642.57 32.06
-6 -4 2 631.41 31.66
6 -4 -2 633.91 31.46
6 4 -1 18.5 7.69
6 4 -1 19.57 7.11
-6 4 1 18.07 12.35
6 -4 -1 23.93 6.87
-6 -4 1 30.37 7.55
6 4 0 34.6 9.88
-6 4 0 55.56 9.35
6 4 0 46.81 9.07
-6 -4 0 55.98 9.81
6 -4 0 58.56 12.41
-6 -4 0 54.06 11.31
6 -4 0 52.74 9.41
6 4 1 -1.57 6.86
-6 4 -1 -7.25 7.06
6 4 1 16.42 7.61
-6 -4 -1 0.95 6.91
6 -4 1 28.52 10.99
6 -4 1 10.21 6.19
6 4 2 223.95 18.68
6 4 2 245.66 20.29
-6 4 -2 201.09 18.85
-6 -4 -2 173.5 21.29
-6 -4 -2 223.6 18.2
6 -4 2 224.2 16.64
6 4 3 155.46 16.18
6 4 3 187.36 19.46
6 -4 3 175.08 15.13
6 -4 3 169.89 19.68
6 4 4 -1.34 9.97
6 -4 4 -0.17 11.78
6 -4 4 4.15 10.17
6 4 5 22.79 11.12
6 -4 5 -12.93 7.39
6 -4 5 1.97 11.01
6 -5 -9 38.34 7.55
-6 -5 8 -7.44 5.56
6 -5 -8 6.55 5.34
6 -5 -7 147.15 15.6
6 -5 -7 135.29 12.62
-6 -5 7 103.4 14.12
-6 5 6 36.97 9.39
-6 -5 6 17.69 6.46
6 -5 -6 12.83 5.78
6 -5 -6 37.33 9.46
-6 5 5 161.23 14.67
6 -5 -5 170.4 13.44
6 -5 -5 153.25 15.98
-6 -5 5 148.97 13.6
-6 5 4 17.45 7.3
6 -5 -4 27.91 7.08
-6 -5 4 22.68 5.98
-6 -5 3 36.24 8.88
6 -5 -3 34.99 7.38
6 5 -2 90.37 9.65
6 5 -2 67.32 10.32
-6 5 2 58.63 10.42
-6 -5 2 85.93 12.15
-6 -5 2 80.87 10.26
6 -5 -2 92.35 10.86
6 5 -1 16.15 7.09
6 5 -1 5.17 7.17
6 -5 -1 12.72 5.8
-6 -5 1 16.74 7.44
-6 -5 1 4.97 6.07
-6 5 0 45.65 9.6
6 5 0 79.27 11.63
6 5 0 49.88 10.2
-6 -5 0 35.97 10.42
6 -5 0 53 8.98
6 -5 0 63.07 12.86
-6 -5 0 59.61 9.88
-6 5 -1 -11.4 7.36
6 5 1 8.45 8.46
6 5 1 -3.1 7.05
6 -5 1 -7.35 8.25
-6 -5 -1 -2.21 6.79
-6 -5 -1 -5 9.14
6 -5 1 3.37 6.5
6 5 2 53.43 12.01
6 -5 2 46.63 12.79
6 -5 2 42.86 8.89
6 5 3 20.04 10.38
6 -5 3 26.02 12.33
6 -5 3 37.67 13.76
6 5 4 4.89 11.32
6 -5 4 12.68 7.27
6 -5 4 -5.27 10.6
6 5 5 -1.88 12.74
6 -5 5 19.9 9.06
6 -5 5 13.65 10.42
6 -6 -9 12.16 7.35
6 -6 -8 96.65 11.61
-6 -6 8 98.92 10.99
-6 -6 7 6.66 6.71
6 -6 -7 -2.27 5.46
6 -6 -6 170.17 14.03
-6 -6 6 168.66 14.81
-6 6 5 62.83 11.17
6 -6 -5 58.01 11.2
-6 -6 5 48.28 15.49
6 -6 -5 53.83 9.01
-6 6 4 483.47 27.5
-6 -6 4 465.6 25.85
6 -6 -4 466.43 25.51
6 -6 -4 440.74 26.79
-6 6 3 40.35 9.64
6 -6 -3 40.89 8.18
-6 -6 3 30.44 7.6
6 6 -2 11.51 5.61
-6 6 2 13.56 8.62
6 -6 -2 5.32 6.61
-6 -6 2 5.96 6.89
-6 -6 2 2.09 6.55
-6 6 1 13.31 8.48
6 6 -1 27.45 7.94
6 -6 -1 7.43 5.73
-6 -6 1 24.27 7.72
-6 -6 1 10.19 6.94
6 6 0 -1.6 7.51
-6 -6 0 -13.24 8.03
6 -6 0 3.55 5.98
6 6 1 3.69 8.82
-6 -6 -1 4.18 9.52
6 -6 1 10.15 7
6 6 2 19.58 20.35
6 -6 2 5.86 7.56
6 -6 2 18.18 11.86
6 6 3 0.46 10.95
6 -6 3 3.72 7.46
6 -6 3 -2.98 10.82
6 6 4 67.61 15.26
6 -6 4 51.41 10.15
6 -6 4 74.5 15.75
6 -6 5 4.06 12.75
6 -7 -9 7.24 7.73
-6 -7 9 -11.36 6.24
-6 -7 8 -8.71 9.81
6 -7 -8 -1.76 6.14
6 -7 -7 30.07 7.7
-6 -7 7 32.2 8.04
-6 -7 6 61.72 10.16
6 -7 -6 57.06 9.57
-6 -7 5 109.36 12.94
6 -7 -5 107.97 12.25
-6 -7 4 6.75 7.23
6 -7 -4 8.57 6.19
-6 7 3 -25.88 12.25
-6 -7 3 -10.51 7.45
6 7 -2 12.31 10.3
6 -7 -2 11.97 7.21
-6 -7 2 6.86 6.79
6 7 -1 -4.8 6.6
-6 -7 1 -16.87 8.51
6 -7 -1 -2.39 5.72
6 7 0 20.66 8.99
6 -7 0 9.1 8.78
-6 -7 0 5.63 9.01
6 7 1 6.21 9.13
6 -7 1 7.03 10.08
-6 -7 -1 4.07 9.77
6 -7 1 10.64 7.26
6 7 2 0.4 10.84
6 -7 2 -1.72 6.15
6 -7 2 2.92 11.73
6 7 3 48.27 14.23
6 -7 3 69.27 11.48
6 -7 3 82.19 16.28
6 7 4 13.94 12.86
6 -7 4 30.36 13.4
6 -7 4 12.14 8.64
6 -8 -9 -2.94 7.73
-6 -8 8 14.02 7.66
6 -8 -8 -8.53 6.61
6 -8 -7 14.82 10.77
-6 -8 7 13.57 10.85
6 -8 -6 -6.44 12.4
6 -8 -4 12.69 9.76
6 -8 -3 3.1 6.32
6 8 -2 46.59 9.03
-6 -8 2 41.16 9.66
6 -8 -2 48.07 10.04
6 8 -1 27.47 8.68
6 -8 -1 21.85 8.03
-6 -8 1 20.02 9.9
6 8 0 0.54 8.56
6 -8 0 -8.56 7.66
-6 -8 0 -31.86 14.31
6 8 1 13.57 9.37
6 -8 1 2.22 7.18
6 -8 1 -0.18 12.19
6 8 2 14.44 10.69
6 -8 2 -1.22 7.64
6 -8 2 -6.2 11.66
6 8 3 33.45 14.21
6 -8 3 4.39 8.48
6 -8 3 1.96 11.59
6 8 4 16.88 13.47
6 -8 4 33.11 15.37
6 -9 -8 0.99 8.05
6 -9 -7 -2.81 7.35
6 -9 -6 -13.71 6.62
6 -9 -4 7.45 7.82
6 -9 -3 142.05 14.44
6 9 -2 115.48 11.78
-6 -9 2 113.31 12.53
6 -9 -2 91.61 13.7
6 9 -1 32.13 9.16
-6 -9 1 27.42 10.85
6 -9 -1 24.65 8.97
6 9 0 21.25 9.12
6 -9 0 21.94 8.92
-6 -9 0 10.4 11.26
6 -9 1 14.28 12.67
6 -9 1 10.47 8.77
6 9 2 -2.25 10.94
6 -9 2 19.04 13.05
6 -9 2 -2.08 7.99
6 9 3 14.22 13.87
6 -9 3 26.13 10.91
6 -9 3 -2.78 12.88
6 -10 -7 9.9 7.82
6 -10 -6 -3.39 8.18
6 -10 -5 1.62 7.73
6 -10 -4 56.04 10.76
6 -10 -3 28.28 9.15
6 10 -2 7.04 7.25
-6 -10 2 -16.56 8.9
6 -10 -2 3.44 7.63
6 10 -1 13.22 9.19
-6 -10 1 9.14 11.88
6 -10 -1 20.41 8.77
6 10 0 0.19 9.04
-6 -10 0 -6.77 11.3
6 -10 0 18.75 9.06
6 10 1 -13.01 10.34
6 -10 1 8.12 9.08
6 -10 1 -10.91 13.3
6 10 2 10.98 11.38
6 -10 2 -12.46 8.91
6 -10 2 -10.77 13.02
6 -11 -6 10.68 9.28
6 -11 -5 42.84 11.08
6 -11 -4 60.07 11.97
6 -11 -3 -6.6 7.99
6 -11 -2 1.51 8.08
6 11 -1 10.98 10.18
6 -11 -1 9.94 8.13
6 11 0 57.86 21.58
6 -11 0 40.38 11.18
6 11 1 -9.51 10.38
6 -11 1 -1.85 9.14
6 -12 -4 13.84 12.53
6 -12 -3 25.18 13.87
6 -12 -2 24.55 21
-6 -12 2 -14.5 11.42
6 12 -1 59.93 12.53
-6 -12 1 37.74 14.89
6 -12 -1 59.2 17.14
7 0 -10 23.94 10.69
7 0 -9 11.48 7.47
7 0 -8 53.63 8.62
-7 0 8 30.08 6.74
7 0 -8 50.08 7.44
7 0 -7 -9.11 5.4
7 0 -7 7.15 5.49
-7 0 7 -6.72 6.36
-7 0 6 68.24 10.09
7 0 -6 73.35 9.18
7 0 -6 79.63 9.89
7 0 -5 6.27 5.13
-7 0 5 -0.39 5.86
7 0 -4 710.41 34.21
-7 0 4 739.78 35.38
7 0 -3 -4.03 6.73
-7 0 3 -4.93 5.51
7 0 -3 1.96 5.51
7 0 -2 77.4 10.34
7 0 -2 66.9 10.74
7 0 -1 22.9 8.24
-7 0 1 15.57 7.43
7 0 -1 12.37 6.6
-7 0 0 229.93 17.95
7 0 0 235.28 16.63
7 0 0 224.98 18.17
7 0 1 -7.63 6.29
7 0 1 -5.65 7.8
-7 0 -1 -3.49 7.48
7 0 2 100.27 13.83
7 0 2 110.77 15.58
7 0 3 14.46 10.19
7 0 3 22.75 8.65
7 0 4 -3.63 7.76
7 0 4 2.35 11.4
7 0 5 -0.45 8.38
7 0 5 14.45 18.43
7 -1 -10 66.86 19.67
7 -1 -9 -0.08 8.62
7 1 -8 8.65 5.82
-7 1 8 -6.39 5.94
7 -1 -8 14.16 5.82
-7 -1 8 -4.66 5.35
7 -1 -8 13.55 8.3
-7 1 7 83.81 11.9
7 1 -7 126.37 11.29
7 -1 -7 105.28 10.34
7 -1 -7 119.24 12.03
-7 -1 7 78.78 11.11
-7 1 6 15.82 5.98
7 1 -6 21.86 5.95
7 1 -6 26.71 6.69
7 -1 -6 14.27 5.91
7 -1 -6 20.74 7.17
-7 -1 6 12.68 6.45
7 1 -5 65.81 9.89
-7 1 5 69.68 10.31
-7 -1 5 74.23 11.01
7 -1 -5 80.02 9.85
-7 1 4 24.13 6.93
7 1 -4 29.6 9.36
-7 -1 4 27.85 7.45
7 -1 -4 19.31 6.06
7 1 -3 26.63 8.68
7 1 -3 37.66 7.44
-7 1 3 32.66 8.54
7 -1 -3 39.36 9.69
-7 -1 3 35.52 8.7
7 -1 -3 34.03 7.62
-7 1 2 4.45 7.35
7 1 -2 6.35 6
7 1 -2 3.42 7.39
7 -1 -2 -0.6 5.55
-7 -1 2 -3.05 8.47
7 -1 -2 -5.23 6.77
7 1 -1 248.61 17.73
-7 1 1 275.77 18.93
7 1 -1 263.7 18.72
7 -1 -1 285.81 19.76
7 -1 -1 270.41 18.04
-7 -1 1 252.36 18.49
7 1 0 25.3 9.44
7 1 0 34.65 8.06
-7 1 0 21.97 8.9
-7 -1 0 26.17 8.6
7 -1 0 45.84 10.55
7 -1 0 40.09 8.06
-7 1 -1 3.3 8.35
7 1 1 -2.56 6.59
7 1 1 9.46 8.52
7 -1 1 1.87 6.6
7 -1 1 -4.51 8.13
-7 -1 -1 -7.65 9.2
7 1 2 15.76 9.42
7 1 2 11.66 9.56
7 -1 2 7.05 7.61
7 -1 2 7.39 8.46
7 1 3 125.96 16.06
7 1 3 108.07 14.04
7 -1 3 105.83 13.56
7 -1 3 120.74 16.53
7 1 4 13.76 9.18
7 1 4 15.33 11.44
7 -1 4 10.71 11.35
7 -1 4 -3.21 8.25
7 1 5 -11.13 15.09
7 1 5 3.46 8.68
7 -1 5 23.65 14.4
7 -1 5 15.83 8.48
7 -2 -10 33.31 12.34
7 -2 -9 0.75 11.44
-7 2 8 136.5 13.37
-7 -2 8 118.64 12.4
7 -2 -8 162.3 12.02
7 -2 -8 134.6 14.47
7 2 -7 52.39 8.02
-7 2 7 32.37 8.94
7 -2 -7 50.15 8.29
7 -2 -7 51.72 9.34
-7 -2 7 31.53 8.5
-7 2 6 7.19 6.45
7 2 -6 21.78 6.42
7 -2 -6 20.35 7.74
7 -2 -6 13.97 5.63
-7 -2 6 2.68 5.53
7 2 -5 36.14 7.18
7 2 -5 44.81 8.6
-7 2 5 31.39 7.85
-7 -2 5 45.67 8.33
7 -2 -5 44.31 7.94
7 2 -4 59.05 8.88
7 2 -4 71.32 10.61
-7 2 4 48.98 9.12
7 -2 -4 65.58 9.87
-7 -2 4 41.39 8.54
7 2 -3 10.93 6.07
7 2 -3 -3.95 7.07
-7 -2 3 1.14 10.67
7 -2 -3 13.6 6
7 2 -2 11.26 6.22
-7 2 2 -0.24 6.34
7 2 -2 3.82 6.98
-7 -2 2 -0.78 5.82
7 -2 -2 17.01 8.58
7 -2 -2 13.74 6.5
7 2 -1 163.74 14.7
-7 2 1 182.42 15.7
7 2 -1 188.42 15.23
7 -2 -1 182.65 16.18
-7 -2 1 152.9 14.75
7 -2 -1 150.51 13.69
-7 2 0 21.58 8.59
7 2 0 20.01 7.71
7 2 0 5.03 7.17
7 -2 0 21.64 6.79
7 -2 0 15.29 9.2
-7 -2 0 -0.98 6.65
7 2 1 9.03 9.65
7 2 1 5.72 7.29
7 -2 1 -7.08 9.69
-7 -2 -1 -13.72 10.28
7 -2 1 11.87 7.17
7 2 2 42.04 12.81
7 2 2 16.1 15.39
7 -2 2 40.02 11.89
7 2 3 20.59 9.48
7 2 3 40.74 11.56
7 -2 3 26.28 11.37
7 -2 3 9.91 8.13
7 2 4 56.94 11.49
7 2 4 63.32 15.38
7 -2 4 47.38 13.28
7 -2 4 66.45 11.27
7 -3 -9 32.28 11.62
-7 3 8 51.42 10.11
-7 -3 8 42.09 8.18
7 -3 -8 27.27 9.78
7 -3 -8 39.67 7.14
7 3 -7 159.47 14.23
-7 3 7 163.1 14.31
7 -3 -7 155.6 13.4
-7 -3 7 150.83 12.86
7 -3 -7 152.3 18.11
-7 3 6 17.99 7.3
7 3 -6 24.4 6.74
7 -3 -6 13.92 7.1
7 -3 -6 12.85 5.98
-7 -3 6 9.75 7.02
7 3 -5 46.13 8.88
-7 3 5 30.37 9.2
7 -3 -5 41.03 7.91
7 -3 -5 54.57 9.56
-7 -3 5 31.36 7.89
7 3 -4 38.09 8.91
7 3 -4 39.31 6.68
-7 -3 4 41.06 12.54
7 -3 -4 33.82 7.78
7 3 -3 182.59 14.48
7 3 -3 189.52 15.42
-7 3 3 181.53 16.12
-7 -3 3 200.83 15.84
7 -3 -3 194.73 15.13
7 3 -2 8.62 6.19
-7 3 2 1 5.84
7 3 -2 10.95 7.26
-7 -3 2 0.55 6.78
7 -3 -2 13.33 6.07
-7 3 1 15.03 8.08
7 3 -1 17.32 7.94
7 3 -1 7.64 7.47
7 -3 -1 -3.08 7.89
7 -3 -1 19.71 6.77
-7 -3 1 8.37 7.11
7 3 0 -2.41 6.92
7 3 0 16.28 9.25
-7 3 0 -3.93 7.55
-7 -3 0 22.73 21.93
7 -3 0 6.58 8.97
7 -3 0 5.96 6.6
-7 -3 0 6.32 8.9
7 3 1 25.64 10.13
7 3 1 4.7 6.95
-7 -3 -1 -3.65 10.88
7 -3 1 38.59 8.79
7 -3 1 19.53 11.15
7 3 2 6.18 10.45
7 3 2 -0.67 7.24
7 -3 2 -12.45 10.05
7 -3 2 -9.65 6.71
7 3 3 15.89 8.42
7 3 3 -8.87 10.21
7 -3 3 16.35 8.33
7 -3 3 22.03 11.15
7 3 4 14.96 9.76
7 3 4 20.17 13.02
7 -3 4 17.12 11.73
7 -3 4 20.78 8.75
7 -4 -9 10.4 6.16
-7 -4 9 -13.11 6.31
7 -4 -8 6.21 12.64
-7 -4 8 8.57 6.32
7 -4 -8 8.83 6.1
-7 4 7 94.86 12.81
-7 -4 7 76.24 10.43
7 -4 -7 90.93 13.75
7 -4 -7 103.34 11.29
-7 -4 6 199.17 15.82
7 -4 -6 207.67 15.26
7 -4 -6 190.85 17.5
7 4 -5 -0.03 6.21
-7 4 5 -2.87 6.85
7 -4 -5 12.63 8.9
-7 -4 5 -7.2 10.4
7 -4 -5 5.33 5.63
7 4 -4 164.48 14.67
-7 4 4 159.96 15.39
-7 -4 4 145.97 13.93
7 -4 -4 140.7 13.08
7 4 -3 26.15 6.8
7 4 -3 16.32 7.54
-7 4 3 15.03 8.68
7 -4 -3 19.71 7.02
-7 -4 3 15.16 8.02
7 4 -2 6.78 6.73
7 4 -2 -4.56 5.75
-7 4 2 -7.71 6.1
-7 -4 2 -0.68 6.16
7 -4 -2 7.01 5.86
-7 4 1 27.36 11.2
7 4 -1 23.83 8.3
7 4 -1 20.15 7.96
-7 -4 1 37.42 10.12
7 -4 -1 34.65 8.19
7 -4 -1 45.72 11.69
-7 -4 1 29.15 9.76
7 4 0 16.99 8.29
7 4 0 36.38 10.91
-7 -4 0 23.48 14.2
7 -4 0 19.06 7.47
7 -4 0 26.24 11.72
7 4 1 -15.69 9.04
7 4 1 14.98 8.58
7 -4 1 3.81 7.54
-7 -4 -1 -11.15 15.81
7 -4 1 -5.71 10.55
7 4 2 26.14 9.47
7 4 2 -19.6 9.46
7 -4 2 1.15 7.27
7 -4 2 18.16 11.6
7 4 3 13.49 10.92
7 4 3 6.56 8.03
7 -4 3 -3.79 7.71
7 -4 3 14.73 10.67
7 4 4 11.94 12.33
7 -4 4 -9.94 7.06
7 -4 4 6.12 10.84
7 -5 -9 -9.89 5.61
-7 -5 9 -12.96 6.03
-7 -5 8 6.65 7.12
7 -5 -8 21.91 7.07
-7 5 7 -9.85 8.5
7 -5 -7 3.38 5.36
-7 5 6 22.21 9.37
-7 -5 6 5.25 7.16
7 -5 -6 7.98 6.98
7 -5 -6 25.17 10.97
-7 5 5 -6.38 7.03
-7 -5 5 3.48 6.67
7 -5 -5 -4.62 7.91
7 -5 -5 5.87 6.06
7 5 -4 7.79 6.93
-7 5 4 -7.46 7.48
-7 -5 4 -6 6.76
7 -5 -4 9.12 6.19
-7 5 3 1.15 7.55
7 5 -3 14.4 6.4
7 5 -3 3.82 7.06
7 -5 -3 14.33 6.54
-7 -5 3 -1.67 7.05
7 5 -2 53.57 10.33
7 5 -2 67.61 10.63
7 -5 -2 49.22 9.62
7 5 -1 232.08 17.51
7 5 -1 221.66 20.02
-7 -5 1 222.82 17.54
7 -5 -1 208.88 18.52
7 5 0 -1.12 7.66
7 5 0 12.98 8.91
7 -5 0 -0.69 11.18
-7 -5 0 1.67 11.2
7 -5 0 8.18 7.29
7 5 1 65.87 13.75
7 5 1 55.54 10.91
7 -5 1 86.07 15.55
7 -5 1 45.11 9.74
7 5 2 22.99 12.63
7 5 2 15.96 8.54
7 -5 2 18.31 8.14
7 -5 2 20.8 11.53
7 5 3 2.13 11.24
7 -5 3 3.78 7.37
7 -5 3 4.51 12.2
7 5 4 60.36 16.45
7 -5 4 40.26 15.89
7 -5 4 51.04 10.76
7 -6 -9 5.22 6.91
-7 -6 8 26.85 8.89
7 -6 -8 54.74 9.22
-7 -6 7 -2.47 7.25
7 -6 -7 13.36 6.9
-7 6 6 50.64 12.46
7 -6 -6 52.33 9.62
-7 -6 6 32.1 8.76
-7 -6 5 20.27 8.06
7 -6 -5 17.3 7.46
7 -6 -4 62.6 10.37
7 6 -3 33.41 6.97
7 -6 -3 34.71 9.79
7 6 -2 355.08 20.66
7 -6 -2 380.12 28.75
-7 -6 2 318.56 20.39
7 6 -1 57.53 11.25
-7 -6 1 57.74 12.88
7 -6 -1 58.15 9.4
7 6 0 52.65 11.19
7 -6 0 35.49 9.61
-7 -6 0 16.98 12.5
7 -6 0 44.74 12.63
7 6 1 117.03 20.33
7 -6 1 119.99 18.44
7 -6 1 122.75 14.66
7 6 2 -3.51 10.69
7 -6 2 3.96 11.26
7 -6 2 -5.73 7.44
7 6 3 0.12 12.07
7 -6 3 16.72 12.77
7 -6 3 -3.68 8
7 -7 -9 -2.2 7.59
-7 -7 8 -4.12 8.08
7 -7 -8 -5.74 7.32
7 -7 -6 152.14 22.7
7 -7 -5 17.63 8.08
7 -7 -4 3.47 6.65
7 -7 -3 134.86 13.94
7 7 -2 4.71 7.5
7 -7 -2 12.1 7.38
-7 -7 2 20.43 8.33
7 7 -1 23.13 8.86
7 -7 -1 11.04 7.01
-7 -7 1 7.61 10.44
7 7 0 46.43 11.53
7 -7 0 33.74 13.74
-7 -7 0 19.45 13.3
7 -7 0 29.42 8.93
7 7 1 32.19 11.74
7 -7 1 8.62 12.01
7 -7 1 28.77 9.61
7 7 2 -9.88 11.27
7 -7 2 4.34 12.02
7 -7 2 7.86 8.79
7 7 3 5.16 12.41
7 -7 3 -4.03 12.24
7 -7 3 -1.19 9.27
7 -8 -8 -13.97 7.27
7 -8 -7 1.58 7.31
7 -8 -6 11.4 8.24
7 -8 -5 16.53 8.29
7 -8 -4 48.17 9.78
7 -8 -3 58.45 10.38
7 8 -2 25.9 7.76
-7 -8 2 -8.64 9.87
7 -8 -2 -5.92 7.06
7 8 -1 35.5 9.3
7 -8 -1 12.61 8.37
-7 -8 1 -2.13 11.2
7 -8 0 19.65 9.06
7 -8 0 9.5 12.62
-7 -8 0 2.11 13.3
7 8 1 34.85 12.28
7 -8 1 11.79 9.15
7 -8 1 -3.66 11.99
7 8 2 28.33 13.17
7 -8 2 17.02 14.01
7 -8 2 9.23 9.42
7 -9 -7 8.2 9.11
7 -9 -6 -7.31 7.61
7 -9 -5 40.79 9.82
7 -9 -4 72.55 11.85
7 -9 -3 22.06 8.41
7 9 -2 0.52 7.85
7 -9 -2 -5.7 7.3
7 9 -1 -13.78 7.53
-7 -9 1 -7.5 13.12
7 -9 -1 -5.36 7.3
7 9 0 8.35 10.29
7 -9 0 19.02 9.74
7 9 1 -5.58 11.12
7 -9 1 22.78 9.91
7 -9 1 -18.86 12.02
7 9 2 0.38 11.66
7 -10 -6 -2.05 9.14
7 -10 -5 11.39 8.6
7 -10 -4 -3.87 7.82
7 -10 -3 1.64 8.62
7 10 -2 6.53 8.54
7 -10 -2 -2.06 7.77
7 10 -1 -0.83 8.73
7 -10 -1 -6.9 7.76
7 10 0 20.58 11.77
7 -10 0 4.82 9.8
7 -11 -4 -0.18 9.62
7 -11 -3 -8.8 8.13
7 11 -2 -11.9 9.41
7 -11 -2 0.9 12.51
7 11 -1 1.01 9.9
7 -11 -1 -18.61 9.13
8 0 -10 47.56 11.73
8 0 -9 5.72 8.05
8 0 -9 -6.77 5.95
8 0 -8 5.96 5.83
8 0 -8 10.86 6.88
-8 0 8 22.16 8.02
8 0 -7 17.5 6.24
8 0 -7 13.84 7.39
-8 0 6 121.1 14.57
8 0 -6 118.29 13.09
8 0 -6 123.27 11.79
8 0 -5 4.72 5.7
-8 0 5 -10.55 6.83
8 0 -4 53.8 9.29
8 0 -4 81.85 12.09
-8 0 4 64.62 11.48
8 0 -3 5.53 6.12
8 0 -3 5.34 7.68
-8 0 3 -8.4 6.76
8 0 -2 6.83 6.97
8 0 -2 16.19 9.5
8 0 -1 -6.47 8.52
8 0 -1 7.81 12.37
8 0 0 -0.89 6.75
8 0 0 18.35 10.82
8 0 1 2.56 9.39
8 0 1 15.63 8.42
8 0 2 -10.88 7.3
8 0 2 7.9 9.52
8 0 3 1.82 10.75
8 0 3 -9.65 7.82
8 -1 -10 20.03 21.29
8 1 -9 -6.9 6.11
8 -1 -9 18.43 9.33
8 -1 -9 -4.61 5.73
-8 -1 9 -9.64 7.42
8 1 -8 -7.39 5.41
8 -1 -8 -8.94 5.14
8 -1 -8 3.78 8.07
-8 -1 8 -10.59 7.06
-8 1 7 122.3 20.07
8 1 -7 114.32 12.69
8 1 -7 125.39 10.94
8 -1 -7 110.98 13.07
8 -1 -7 122.01 12.03
-8 1 6 218.29 17.71
8 1 -6 206.53 13.9
8 1 -6 224.46 17.11
8 -1 -6 222.59 16.48
-8 -1 6 219.49 17.56
8 -1 -6 204.73 16.3
-8 1 5 6.37 8.17
8 1 -5 10.54 7.87
8 1 -5 10.8 6.39
8 -1 -5 10.87 6.36
-8 -1 5 7.4 7.71
-8 1 4 13.36 8.2
8 1 -4 13.54 8.2
8 1 -4 8.6 6.57
8 -1 -4 10.05 6.41
8 -1 -4 19.62 8.1
-8 -1 4 0.46 7.57
8 1 -3 7.24 6.58
-8 1 3 -15.47 7.1
8 1 -3 9.39 7.92
-8 -1 3 4.54 7.81
8 -1 -3 -4.25 8.12
8 -1 -3 1.83 6.61
8 1 -2 13.02 9.26
8 1 -2 2.33 7.16
8 -1 -2 5.27 7.63
8 -1 -2 1.02 8.93
8 1 -1 54.11 11.28
8 -1 -1 69.38 13.38
8 1 0 10.2 8.06
8 1 0 7.9 9.16
8 -1 0 19.47 15.88
8 -1 0 13.53 7.63
8 1 1 10.75 8.2
8 1 1 16.1 9.69
8 -1 1 4.08 7.66
8 -1 1 9.06 9.84
8 1 2 2.5 10.51
8 1 2 17.87 9.07
8 -1 2 14.35 8.53
8 -1 2 17.64 10.62
8 1 3 2.04 10.96
8 1 3 -0.91 8.41
8 -1 3 -10.61 8.22
8 -1 3 -5.98 9.69
8 -2 -10 64.51 15.51
-8 2 9 16.84 9.11
8 -2 -9 26.38 7.13
8 -2 -9 22.92 9.75
-8 2 8 -4.93 14.08
8 2 -8 12.99 6.94
8 -2 -8 -2.14 5.67
-8 -2 8 -8.86 7.1
8 -2 -8 25.65 14.04
-8 2 7 58 11.4
8 2 -7 73.62 11.29
8 -2 -7 79.27 12.69
8 -2 -7 77.7 10.75
-8 -2 7 52.67 11.34
-8 2 6 27.5 8.76
8 2 -6 14.9 8.38
8 -2 -6 36.99 9.05
-8 -2 6 7.02 7.92
8 -2 -6 14.41 7.44
-8 2 5 18.84 8.67
8 2 -5 7.32 7.55
8 2 -5 -4.01 5.89
8 -2 -5 10.98 6.56
-8 -2 5 -12.27 6.58
8 2 -4 51.41 9.2
-8 2 4 41.17 10.29
8 2 -4 51.5 9.18
-8 -2 4 40.52 10.1
8 -2 -4 49.26 8.99
8 2 -3 207.85 16.99
8 2 -3 221.42 16.3
-8 -2 3 162.06 26.36
8 -2 -3 210.07 16.39
8 -2 -3 241.97 18.66
8 2 -2 10.93 7.96
8 2 -2 5.45 7.42
8 -2 -2 13.78 9.85
8 -2 -2 7.27 7.42
8 2 -1 144.2 16.76
8 2 -1 141.4 15.93
8 -2 -1 146.54 17.18
8 -2 -1 127.06 16.06
8 2 0 318.32 23.35
8 2 0 300.99 22.67
8 -2 0 328.38 24.01
8 -2 0 297.37 21.19
8 2 1 20.94 9.46
8 2 1 -3.39 10.13
8 -2 1 -2.32 8.28
8 -2 1 2.13 10.4
8 2 2 5.15 8.51
8 2 2 28.65 12.35
8 -2 2 13.09 11.24
8 -2 2 9.75 8.49
8 2 3 -2.82 8.7
8 2 3 17.55 13.85
8 -2 3 -8.55 7.84
8 -2 3 15.3 11.53
-8 3 9 -4.97 13.32
8 -3 -9 1.7 6.02
-8 -3 9 -6.95 7.29
-8 3 8 -3.25 7.89
-8 -3 8 16.7 13.26
8 -3 -8 -4.99 5.8
8 -3 -8 4.14 8.7
-8 3 7 -17.29 8.37
8 3 -7 18.65 7.31
-8 -3 7 -0.92 7.97
8 -3 -7 15.69 7.08
8 -3 -7 -6.41 8.37
-8 3 6 42.57 10.46
8 3 -6 42.22 9.51
8 -3 -6 56.81 9.56
8 -3 -6 44.86 10.73
-8 -3 6 44.89 9.2
8 3 -5 19.03 8.38
-8 3 5 6.76 8.95
8 -3 -5 24.04 7.17
-8 -3 5 16.68 7.75
8 3 -4 26.85 8.24
8 3 -4 44.27 11.46
8 -3 -4 28.72 7.76
-8 -3 4 23.49 12.15
8 3 -3 8.01 7.4
8 3 -3 7.19 7.94
8 -3 -3 20.07 6.49
8 3 -2 161.32 14.76
8 -3 -2 129.17 16.63
8 -3 -2 95.62 20.26
8 3 -1 119.52 14.21
8 3 -1 94.54 13.67
8 -3 -1 93.03 13.31
8 3 0 0.54 8.38
8 3 0 28.46 10.62
8 -3 0 10.52 10.3
8 -3 0 21.99 8.7
8 3 1 58.15 12.14
8 3 1 78.83 15.4
8 -3 1 62.89 11.37
8 -3 1 74.85 14.62
8 3 2 19.99 12.46
8 3 2 8.69 8.02
8 -3 2 3.03 8.54
8 -3 2 17.16 12.36
8 3 3 60.68 15.99
8 3 3 40.29 10.93
8 -3 3 56.01 14.38
8 -3 3 42.6 10.27
8 -4 -10 -7.23 6.49
8 -4 -9 -1.93 6.46
-8 4 8 13.77 10.43
8 -4 -8 -11.42 5.32
-8 -4 8 -8.64 7.04
-8 4 7 -4.97 7.31
8 -4 -7 6.25 6.56
-8 -4 7 9.11 7.39
-8 4 6 31.66 13.46
8 4 -6 35.33 9.16
8 -4 -6 54.42 11.79
8 -4 -6 49.5 8.68
-8 -4 6 19.09 8.31
8 4 -5 20.83 8.73
8 -4 -5 17.6 7.34
8 4 -4 14.11 8
8 4 -4 15.93 7.09
8 -4 -4 20.63 8.01
8 4 -3 188.92 14.98
8 -4 -3 169.42 19.85
8 4 -2 162.67 15.26
8 4 -2 119.76 15.1
8 -4 -2 105.69 13.77
8 4 -1 10.59 9.04
8 4 -1 20.75 9.7
8 -4 -1 14.22 7.42
8 4 0 1.42 10.08
8 4 0 4.19 8.05
8 -4 0 10.31 7.81
8 -4 0 -1.43 9.07
8 4 1 9.52 12.08
8 4 1 35.6 10.01
8 -4 1 13.29 8.31
8 -4 1 21.57 10.73
8 4 2 0.88 9.27
8 4 2 -11.71 12.16
8 -4 2 16.11 9.18
8 -4 2 23.63 13.22
8 4 3 3.69 13.89
8 4 3 3.79 10.12
8 -4 3 -7.48 8.84
8 -4 3 -9.21 15.5
8 -5 -9 15.51 7.22
8 -5 -8 13.16 6.52
-8 -5 8 1.71 8.54
8 -5 -7 25.82 8.46
8 -5 -6 -2.15 10.04
8 5 -5 1.94 14.45
8 -5 -5 0.74 8.05
8 5 -4 15.29 8.53
8 -5 -4 23.63 8.25
8 5 -3 19.32 8.04
8 5 -3 16.46 7.61
8 -5 -3 14.64 7.55
8 5 -2 8.34 7.55
8 5 -2 15.81 9.14
8 -5 -2 5.54 7.52
8 5 -1 5.87 8.67
8 5 -1 -1.12 9.53
8 -5 -1 11.52 8.31
8 -5 -1 17.68 11.33
8 5 0 -13.3 9
8 5 0 -2 8.16
8 -5 0 14.59 11.63
8 -5 0 4.58 8.27
8 5 1 -0.96 8.91
8 5 1 3.85 11.91
8 -5 1 26.76 8.75
8 -5 1 13.59 11.82
8 5 2 10.86 13.06
8 5 2 -0.36 9.52
8 -5 2 28.03 13.39
8 -5 2 0.19 9.12
8 5 3 42.57 15.07
8 -5 3 33.43 14.18
-8 -6 9 -21.76 11.47
8 -6 -8 17.99 8.19
8 -6 -7 2.71 7.19
8 -6 -6 19.04 8.18
8 -6 -5 13.62 7.71
8 -6 -4 1.52 6.33
8 6 -3 3.04 6.98
8 -6 -3 3.11 6.88
8 6 -2 2.66 7.69
8 -6 -2 3.31 8.14
8 6 -1 10.52 8.74
-8 -6 1 -2.05 11.68
8 -6 -1 11.57 11.3
8 -6 -1 3.19 7.44
8 6 0 4.51 13.55
8 -6 0 3.98 11.68
8 -6 0 -4.78 7.68
8 6 1 2.66 10.33
8 -6 1 2.04 9.01
8 -6 1 4.77 12.61
8 6 2 45.18 15.38
8 -6 2 55.16 15.44
8 -7 -8 -4.33 7.44
8 -7 -7 2.4 8.37
8 -7 -6 57.02 10.5
8 -7 -5 4.51 7.94
8 -7 -4 53.39 10.51
8 7 -3 22.18 8.28
8 -7 -3 31.19 8.98
8 7 -2 7.67 8.61
8 -7 -2 14.22 8.81
8 7 -1 -5.04 8.69
8 -7 -1 10.84 8.22
-8 -7 1 -26.39 12.05
8 7 0 32.43 13.3
8 -7 0 40.38 10.13
8 -7 0 44.21 14.5
8 7 1 39.26 13.61
8 -7 1 5.92 9.8
8 -7 1 9.35 11.73
8 -8 -7 -3.33 8.27
8 -8 -6 55.55 11.18
8 -8 -5 125.97 15.26
8 -8 -4 20.39 8.95
8 -8 -3 28.17 9.53
8 8 -2 9.3 8.95
8 -8 -2 12.28 8.38
8 8 -1 22.36 10.07
8 -8 -1 -2.54 7.17
8 8 0 17.32 12.15
8 -8 0 14.47 10.2
8 -8 0 -24.72 10.6
8 8 1 8.81 13.19
8 -8 1 13.49 9.86
8 -8 1 -6.88 26.6
8 -9 -6 12.35 8.98
8 -9 -5 12.66 9.64
8 -9 -4 27.37 9.97
8 -9 -3 18.67 9.48
8 9 -2 6.19 9.01
-8 -9 2 -19.3 12.13
8 -9 -2 4.81 9.41
8 9 -1 12.27 11.51
8 -9 -1 3.27 9.62
8 9 0 -13.55 11.22
8 -10 -4 -1.15 10.62
8 -10 -3 -3.9 16.57
8 10 -2 1.99 10.25
8 -10 -2 -2.89 10.28
9 0 -10 1.2 7.77
9 0 -10 -20.61 11.12
9 0 -9 8.32 9.64
9 0 -9 -7.43 6.9
9 0 -8 1.71 6.09
9 0 -8 14.91 8.12
-9 0 8 6.86 8.9
9 0 -7 3.83 7.63
9 0 -7 2.3 6.67
9 0 -6 -5.23 8.8
9 0 -6 11.24 9.06
9 0 -5 0.44 9.31
9 0 -5 14.79 8.54
9 0 -4 -13.19 8.5
9 0 -4 5.91 7.34
9 0 -3 14.23 9.73
9 0 -3 -0.52 7.07
9 0 -2 259.78 21.3
9 0 -2 237.76 19.45
9 0 -1 24.73 12.29
9 0 -1 26.6 8.45
9 0 0 76.3 13.59
9 0 0 75.76 15.13
9 0 1 19.15 9.92
9 0 1 10.31 12.09
9 0 2 50.65 13.12
9 0 2 35.8 13.9
9 -1 -10 -17.03 12.78
-9 1 9 6.2 10.29
9 1 -9 16.27 7.41
-9 -1 9 -6.51 9.54
9 -1 -9 14.49 7.53
9 -1 -9 36.07 14.53
9 1 -8 -8.75 6.01
-9 1 8 -15.36 10.31
-9 -1 8 1.39 8.7
9 -1 -8 2.11 8.78
9 -1 -8 10.23 6.8
9 1 -7 18.99 7.62
9 1 -7 4.82 8.11
9 1 -7 18.46 7.17
9 -1 -7 0.42 6.32
9 -1 -7 13.12 9.32
9 1 -6 37.91 9.5
9 1 -6 34.72 12
9 1 -5 -1.81 7.48
9 1 -5 2.89 8.53
9 -1 -5 -1.77 9.64
9 -1 -5 8.66 7.23
9 1 -4 4.64 8.47
9 1 -4 7.29 7.57
9 -1 -4 -2.56 6.75
9 -1 -4 -16.47 8.84
9 1 -3 7.2 9.25
9 1 -3 13.09 8.38
9 -1 -3 9.25 7.34
9 -1 -3 7.33 10.17
9 1 -2 34.91 11.65
9 1 -2 7.13 8.67
9 -1 -2 19.96 13.71
9 -1 -2 16.41 8.45
9 1 -1 91.45 13.95
9 1 -1 95.28 17.61
9 -1 -1 62.16 11.4
9 -1 -1 64.09 14.92
9 1 0 53.38 13.34
9 1 0 54.09 12.11
9 -1 0 38.37 10.35
9 -1 0 39.63 12.52
9 1 1 60.64 12.41
9 1 1 47.77 13.65
9 -1 1 84.18 15.19
9 -1 1 47.66 11.56
9 1 2 -4.17 11.84
9 1 2 15.33 10.34
9 -1 2 -8.14 10.93
9 -1 2 29.31 11.05
-9 2 9 -7.31 10.37
9 2 -9 24.14 7.95
-9 -2 9 -2.03 9.59
9 -2 -9 11.54 11.18
9 -2 -9 37.89 9.07
9 2 -8 -4.07 6.18
9 -2 -8 -1.53 5.9
9 -2 -8 3.31 9.58
9 2 -7 -4.29 7.52
9 -2 -7 2.96 9.33
9 -2 -7 -2.43 9.64
9 2 -6 45.37 10.43
9 -2 -6 28.89 11.4
9 -2 -6 59.31 11.25
9 2 -5 56.87 10.07
9 2 -5 58.25 9.96
9 -2 -5 48.19 9.71
9 2 -4 -4.76 8.08
9 2 -4 11.83 7.98
9 -2 -4 16.17 10.73
9 -2 -4 7.72 7.88
9 2 -3 33.77 9.33
9 2 -3 25.92 9.43
9 -2 -3 -6.85 11.33
9 -2 -3 21.29 7.9
9 2 -2 -3.68 8.12
9 2 -2 6.43 9.17
9 -2 -2 -15.77 9.06
9 -2 -2 0.12 8.24
9 2 -1 72.44 12.61
9 -2 -1 73.14 15.15
9 -2 -1 53.07 11.43
9 2 0 195.69 19.39
9 2 0 193.14 19.46
9 -2 0 165.45 19.56
9 -2 0 145.85 17.48
9 2 1 18.96 13.31
9 2 1 17.85 10.11
9 -2 1 29.57 12.75
9 -2 1 1.8 7.83
9 2 2 15.66 10.58
9 2 2 20.74 13.84
9 -2 2 2.89 9.34
9 -2 2 28.36 14.82
9 -3 -9 5.26 6.97
-9 -3 9 -22.2 11.3
9 3 -8 5.19 7.26
9 -3 -8 -13.53 12
9 -3 -7 23.61 9.54
9 3 -6 2.72 7.55
9 -3 -6 36.21 12.57
9 -3 -6 -1.36 7.03
9 3 -5 25.41 9.02
9 3 -5 36.02 8.94
9 -3 -5 34.9 9.05
9 3 -4 20.53 7.98
9 3 -4 35.31 9.15
9 -3 -4 17.96 7.56
9 3 -3 24.23 9.13
9 3 -3 26.5 9.31
9 -3 -3 36.76 9.37
9 -3 -3 18.05 12.36
9 3 -2 14.75 9.47
9 3 -2 10.5 9.95
9 -3 -2 -13.88 9.89
9 -3 -2 21.38 8.46
9 3 -1 13.12 12.55
9 3 -1 21.57 9.91
9 -3 -1 12.41 9.4
9 -3 -1 19.74 13.32
9 3 0 29.54 12.68
9 3 0 -1.63 9.57
9 -3 0 15.07 12
9 -3 0 1.1 8.59
9 3 1 14.95 9.93
9 3 1 33.16 14
9 -3 1 2.69 8.79
9 -3 1 21.79 13.03
9 3 2 9.03 9.84
9 -3 2 19.24 16.54
9 -3 2 16.04 9.71
9 -4 -9 2.87 9.44
9 -4 -8 12.16 7.74
9 4 -7 6.66 8.71
9 -4 -7 29.78 9.03
9 4 -6 17.03 8.73
9 -4 -6 19.14 8.27
9 4 -5 161.5 16.86
9 -4 -5 168.01 16.05
9 4 -4 -0.4 7.54
9 4 -4 5.84 7.81
9 -4 -4 15.03 6.76
9 4 -3 15.54 8.88
9 4 -3 20.75 9.92
9 -4 -3 14.33 7.98
9 -4 -3 -1.17 10.66
9 4 -2 9.15 9.95
9 4 -2 2.48 8.42
9 -4 -2 1.08 7.61
9 -4 -2 -6.1 10.46
9 4 -1 -3.06 8.49
9 4 -1 36.6 14.5
9 -4 -1 -17.7 10.59
9 -4 -1 -1.35 7.23
9 4 0 5 8.89
9 4 0 8.04 11.28
9 -4 0 2.37 8.7
9 -4 0 -2.66 11.33
9 4 1 -19.07 8.65
9 4 1 12.56 12.87
9 -4 1 -5.87 9.61
9 -4 1 10.86 11.32
9 -5 -8 -0.19 7.53
9 -5 -7 11.67 7.67
9 -5 -6 13.58 8.04
9 5 -5 66.42 12.84
9 -5 -5 89.87 13.45
9 5 -4 3.9 7.49
9 5 -4 3.78 8.49
9 -5 -4 7.65 6.73
9 5 -3 90.25 12.2
9 5 -3 100.22 15.35
9 -5 -3 86.2 13.03
9 5 -2 30.76 10.86
9 5 -2 56.9 12.21
9 -5 -2 39.22 10.36
9 -5 -2 35.21 13.22
9 5 -1 -24.58 10.92
9 5 -1 -6.15 9.91
9 -5 -1 2.43 8.2
9 -5 -1 7.5 12.71
9 5 0 34.1 14.29
9 5 0 37.82 12.71
9 -5 0 44.53 15.02
9 -5 0 42.28 10.4
9 5 1 11.62 11.06
9 -5 1 -24.44 18.83
9 -6 -8 -10.62 7.7
9 -6 -7 9.31 8.45
9 -6 -6 21.95 9.04
9 -6 -5 10.37 8.38
9 -6 -4 0.62 8.07
9 6 -3 55.56 11.8
9 6 -3 32.46 9.34
9 -6 -3 10.2 8.14
9 6 -2 -3.86 8.99
9 6 -2 18.78 9.79
9 -6 -2 4.95 12.31
9 -6 -2 8.67 8.36
9 6 -1 23.84 10.67
9 6 -1 -15.47 16.44
9 -6 -1 -15.81 7.18
9 -6 -1 -12.49 11.7
9 6 0 14.72 11.02
9 6 0 -5.3 11.4
9 -6 0 -18.11 8.12
9 -6 0 24.5 12.51
9 -7 -7 5.76 9.14
9 -7 -6 11.51 9.05
9 -7 -5 0.59 7.75
9 -7 -4 5.09 8.11
9 7 -3 -3.9 8.57
9 -7 -3 -0.42 7.8
9 7 -2 29.49 11.31
9 -7 -2 14.38 13.61
9 -7 -2 19.32 9.37
9 7 -1 -13.78 12.63
9 -7 -1 -21.44 10.75
9 -7 -1 -19.12 7.88
9 7 0 -7.09 12.39
9 -7 0 14.89 19.06
9 -8 -5 -2.07 8.62
9 -8 -4 4.49 8.13
9 8 -3 1.8 9.19
9 -8 -3 9.92 8.53
9 8 -2 46.89 12.47
9 -8 -2 44.57 15.58
10 0 -9 -15.86 7.74
10 0 -8 6.83 8.24
10 0 -8 -3.34 9.42
10 0 -7 -5.24 7.29
10 0 -7 2.79 9.54
10 0 -6 53.68 11.62
10 0 -6 89.99 14.69
10 0 -5 4.67 7.69
10 0 -5 -1.84 10.41
10 0 -4 6.06 9.62
10 0 -4 9.75 7.59
10 0 -3 -15.14 11.69
10 0 -3 0.63 7.1
10 0 -2 50.54 13.58
10 0 -2 42.54 11.51
10 0 -1 11.24 9.35
10 0 -1 -2.01 11.41
10 0 0 -1.03 10.92
10 0 0 6.61 12.97
10 1 -9 -3.63 8.29
10 -1 -9 -2.73 7.57
10 -1 -9 -24.64 11.18
10 1 -8 -0.83 8.19
10 1 -8 -9.5 8.48
10 -1 -8 -19.69 9.98
10 -1 -8 0.06 7.97
10 1 -7 13.91 8.22
10 1 -7 -2.02 9.92
10 1 -7 16.72 9.03
10 -1 -7 0.77 7.57
10 -1 -7 1.61 10.69
10 1 -6 3.15 8.37
10 1 -6 -8.49 10.13
10 -1 -6 -7.65 7.74
10 -1 -6 2.71 11.18
10 1 -5 26.01 9.86
10 1 -5 19.1 11.19
10 -1 -5 22.39 8.03
10 -1 -5 -3.72 10.8
10 1 -4 -15.65 9.37
10 1 -4 -1.96 7.41
10 -1 -4 5.37 7.66
10 1 -3 22.82 11.6
10 1 -3 10.31 8.25
10 -1 -3 13.43 7.48
10 -1 -3 7.42 12.13
10 1 -2 25.78 9.94
10 1 -2 33.12 12.25
10 -1 -2 0.49 12.42
10 -1 -2 27.05 9.76
10 1 -1 0.12 11.49
10 1 -1 11.07 9.75
10 -1 -1 9.98 9.57
10 -1 -1 -0.07 12.49
10 1 0 23.39 12.6
10 1 0 20.28 11.42
10 -1 0 -10.57 10.2
10 -1 0 21.61 12.97
10 2 -8 -1.09 7.96
10 -2 -8 -3.54 7.32
10 2 -7 -18.25 7.37
10 -2 -7 4.53 7.88
10 2 -6 -8.31 9.25
10 2 -6 12.14 9.27
10 -2 -6 21.25 9.3
10 2 -5 11.13 9.83
10 2 -5 4.71 9.47
10 -2 -5 13.54 14.86
10 -2 -5 -1.83 8.1
10 2 -4 13.32 8.86
10 2 -4 28.36 10.74
10 -2 -4 13.32 13.17
10 -2 -4 20.47 8.51
10 2 -3 12.53 9.17
10 2 -3 -7.34 9.3
10 -2 -3 16.4 8.37
10 -2 -3 -16.03 11.14
10 2 -2 4.17 11.07
10 2 -2 14.23 10.04
10 -2 -2 25.51 9.87
10 -2 -2 7.52 11.66
10 2 -1 17.06 12.4
10 2 -1 -14.2 8.28
10 -2 -1 -2.21 8.88
10 -2 -1 16.77 12.96
10 2 0 10.89 13.11
10 2 0 7.89 11.46
10 -2 0 -6.68 9.62
10 -2 0 39.5 13.7
10 3 -8 5.5 8.12
10 -3 -8 0.73 7.97
10 3 -7 16.45 8.8
10 -3 -7 -1.02 7.84
10 3 -6 -7.09 7.73
10 -3 -6 19.18 9.25
10 3 -5 -1.59 8.46
10 3 -5 -7.26 8.27
10 -3 -5 -12.55 7.47
10 3 -4 -0.01 8.52
10 3 -4 16.9 10.3
10 -3 -4 -10.05 12.35
10 -3 -4 -2.73 8.25
10 3 -3 3.42 10.57
10 3 -3 -2.19 10.64
10 -3 -3 1.5 9.21
10 -3 -3 9.12 13.72
10 3 -2 9.66 10.75
10 3 -2 -8.15 10.1
10 -3 -2 9.7 9.32
10 -3 -2 5.88 12.58
10 3 -1 43.12 11.83
10 3 -1 52.54 14.13
10 -3 -1 51.51 11.86
10 -3 -1 57.39 15.77
10 3 0 24.29 14
10 -3 0 24.84 14.22
10 -3 0 8.13 12.44
10 -4 -8 9.5 8.73
10 4 -7 -9.05 8.3
10 -4 -7 -3.82 8.09
10 4 -6 26.31 10.68
10 -4 -6 8.95 9.04
10 4 -5 2.05 9.17
10 4 -5 37.14 10.91
10 -4 -5 7.36 9.12
10 4 -4 23.25 10.03
10 4 -4 22.88 10.62
10 -4 -4 24.21 13.76
10 -4 -4 28.14 10.59
10 4 -3 18.29 10.21
10 4 -3 17.38 10.53
10 -4 -3 -12.49 7.61
10 -4 -3 -4.79 12.76
10 4 -2 12 11.16
10 4 -2 4.73 14.75
10 -4 -2 23.01 11.13
10 -4 -2 14.89 14.07
10 4 -1 19.07 13.92
10 4 -1 -9.57 9.1
10 -4 -1 -6.33 12.8
10 -4 -1 14.26 10.33
10 -5 -7 2.83 9.54
10 5 -6 45.11 12.11
10 -5 -6 28.75 10.01
10 5 -5 6.63 10.66
10 -5 -5 4.07 9.04
10 5 -4 15.05 9.09
10 5 -4 0.63 9.86
10 -5 -4 4.92 8.53
10 5 -3 3.33 10.56
10 5 -3 -9.9 8.81
10 -5 -3 -2.21 8.68
10 5 -2 -4.95 9.82
10 5 -2 -24.1 16.69
10 -5 -2 -1.58 9.23
10 -5 -2 6.12 13.12
10 5 -1 -13.7 12.95
10 5 -1 25.71 18.49
10 -5 -1 24.1 21.75
10 -5 -1 -15.29 13.97
10 -6 -6 5.82 8.16
10 -6 -5 25.73 9.88
10 6 -4 4.87 9.86
10 6 -4 26.88 11.57
10 -6 -4 44.92 13.69
10 6 -3 22.26 10.96
10 6 -3 -20.43 10.08
10 -6 -3 -5.37 13.62
10 -6 -3 5.52 10.93
10 6 -2 12.75 14.02
10 -6 -2 0.45 20.38
10 -6 -2 -8.22 11.62
11 0 -7 -16.98 11.91
11 0 -7 -1.81 9.21
11 0 -6 8.92 12.69
11 0 -6 28.26 10.11
11 0 -5 6 10.03
11 0 -5 9.64 12.48
11 0 -4 -5.87 12.3
11 0 -4 32.56 11.9
11 0 -3 2 10.31
11 0 -2 29.91 14.75
11 1 -7 3.93 9.61
11 1 -7 -2.33 11.44
11 1 -7 -21.81 19.14
11 -1 -7 18.21 9.63
11 1 -6 27.63 10.14
11 -1 -6 -11.81 12.13
11 -1 -6 -7.22 8.68
11 1 -5 -1.16 11.16
11 1 -5 20.1 10.5
11 -1 -5 46.54 18.3
11 -1 -5 -8.46 9.05
11 1 -4 7.05 9.82
11 1 -4 10.15 11.67
11 -1 -4 31.57 14.64
11 -1 -4 6.82 10.42
11 1 -3 -0.51 11.03
11 1 -3 -6.77 11.34
11 -1 -3 -16.21 12.49
11 -1 -3 9.89 13.85
11 1 -2 3.43 13.21
11 -1 -2 -2.5 12.8
11 2 -6 -12.84 9.98
11 2 -6 0.04 9.23
11 -2 -6 -4.26 7.99
11 2 -5 23.39 11.87
11 2 -5 34.46 11.23
11 -2 -5 36.63 10.73
11 -2 -5 6.94 14.35
11 2 -4 7.91 18.69
11 2 -4 1.8 10.71
11 -2 -4 -5.14 13.29
11 -2 -4 -13.88 8.82
11 2 -3 9.56 12.1
11 -2 -3 25.85 14.94
11 3 -6 5.38 9.77
11 3 -6 -14.4 10.61
11 -3 -6 -13.18 12.77
11 -3 -6 8.15 9.29
11 3 -5 4.36 9.16
11 3 -5 -22.63 10.82
11 -3 -5 17.25 10.87
11 -3 -5 -10.8 14.31
11 3 -4 12.93 13.21
11 3 -4 8.35 11.88
11 -3 -4 15.64 14.64
11 -3 -4 2.56 13.81
11 3 -3 7.08 12.37
11 -3 -3 -10.7 13.79
