#------------------------------------------------------------------------------
#$Date: 2022-07-23 01:20:15 +0300 (Sat, 23 Jul 2022) $
#$Revision: 276794 $
#$URL: file:///home/coder/svn-repositories/cod/cif/7/13/03/7130372.cif $
#------------------------------------------------------------------------------
#
# This file is available in the Crystallography Open Database (COD),
# http://www.crystallography.net/
#
# All data on this site have been placed in the public domain by the
# contributors.
#
data_7130372
loop_
_publ_author_name
'Calabrese, Miriam'
'Pizzi, Andrea'
'Daolio, Andrea'
'Frontera, Antonio'
'Resnati, Giuseppe'
_publ_section_title
;
 Periodate anion as halogen bond donor: Formation of
 anion&#x00B7;&#x00B7;&#x00B7;anion dimers and other adducts
;
_journal_name_full               'Chemical Communications'
_journal_paper_doi               10.1039/D2CC03191D
_journal_year                    2022
_chemical_formula_moiety         'I O4, C5 H5 N2 O2'
_chemical_formula_sum            'C5 H5 I N2 O6'
_chemical_formula_weight         316.01
_chemical_name_systematic        '3-nitropyridinium periodate'
_space_group_crystal_system      monoclinic
_space_group_IT_number           14
_space_group_name_Hall           '-P 2yn'
_space_group_name_H-M_alt        'P 1 21/n 1'
_atom_sites_solution_hydrogens   difmap
_audit_creation_date             2022-04-22
_audit_creation_method
;
Olex2 1.3
(compiled 2020.11.12 svn.r5f609507 for OlexSys, GUI svn.r6403)
;
_audit_update_record
;
2022-04-22 deposited with the CCDC.	2022-07-19 downloaded from the CCDC.
;
_cell_angle_alpha                90
_cell_angle_beta                 99.643(2)
_cell_angle_gamma                90
_cell_formula_units_Z            4
_cell_length_a                   5.6795(4)
_cell_length_b                   19.8304(14)
_cell_length_c                   8.0659(6)
_cell_measurement_reflns_used    9627
_cell_measurement_temperature    296(2)
_cell_measurement_theta_max      29.67
_cell_measurement_theta_min      2.66
_cell_volume                     895.60(11)
_computing_cell_refinement       'Bruker SAINT'
_computing_data_collection       'Bruker APEX2'
_computing_data_reduction        'Bruker SAINT'
_computing_molecular_graphics    'Olex2 1.3 (Dolomanov et al., 2009)'
_computing_publication_material  'Olex2 1.3 (Dolomanov et al., 2009)'
_computing_structure_refinement  'SHELXL-2018/3(Sheldrick, 2018)'
_computing_structure_solution    'SHELXS-97 (Sheldrick, 2008)'
_diffrn_ambient_temperature      296(2)
_diffrn_measured_fraction_theta_full 0.999
_diffrn_measured_fraction_theta_max 0.999
_diffrn_measurement_device_type  'Bruker APEX-II CCD'
_diffrn_measurement_method       '\f and \w scans'
_diffrn_radiation_type           MoK\a
_diffrn_radiation_wavelength     0.71073
_diffrn_reflns_av_R_equivalents  0.0245
_diffrn_reflns_av_unetI/netI     0.0203
_diffrn_reflns_Laue_measured_fraction_full 0.999
_diffrn_reflns_Laue_measured_fraction_max 0.999
_diffrn_reflns_limit_h_max       7
_diffrn_reflns_limit_h_min       -7
_diffrn_reflns_limit_k_max       27
_diffrn_reflns_limit_k_min       -24
_diffrn_reflns_limit_l_max       10
_diffrn_reflns_limit_l_min       -11
_diffrn_reflns_number            9764
_diffrn_reflns_point_group_measured_fraction_full 0.999
_diffrn_reflns_point_group_measured_fraction_max 0.999
_diffrn_reflns_theta_full        25.242
_diffrn_reflns_theta_max         29.617
_diffrn_reflns_theta_min         3.284
_diffrn_source                   'sealed tube'
_exptl_absorpt_coefficient_mu    3.584
_exptl_absorpt_correction_T_max  0.7459
_exptl_absorpt_correction_T_min  0.4948
_exptl_absorpt_correction_type   multi-scan
_exptl_absorpt_process_details
'Bruker (2001). SADABS. Bruker AXS Inc., Madison, Wisconsin, USA.'
_exptl_crystal_colour            colourless
_exptl_crystal_colour_primary    colourless
_exptl_crystal_density_diffrn    2.344
_exptl_crystal_description       block
_exptl_crystal_F_000             600
_exptl_crystal_size_max          0.08
_exptl_crystal_size_mid          0.07
_exptl_crystal_size_min          0.06
_exptl_transmission_factor_max   0.7459
_exptl_transmission_factor_min   0.6088
_refine_diff_density_max         0.432
_refine_diff_density_min         -0.560
_refine_diff_density_rms         0.069
_refine_ls_extinction_method     none
_refine_ls_goodness_of_fit_ref   1.076
_refine_ls_hydrogen_treatment    refall
_refine_ls_matrix_type           full
_refine_ls_number_parameters     147
_refine_ls_number_reflns         2519
_refine_ls_number_restraints     0
_refine_ls_restrained_S_all      1.076
_refine_ls_R_factor_all          0.0241
_refine_ls_R_factor_gt           0.0208
_refine_ls_shift/su_max          0.002
_refine_ls_shift/su_mean         0.000
_refine_ls_structure_factor_coef Fsqd
_refine_ls_weighting_details
'w=1/[\s^2^(Fo^2^)+(0.0175P)^2^+0.5343P] where P=(Fo^2^+2Fc^2^)/3'
_refine_ls_weighting_scheme      calc
_refine_ls_wR_factor_gt          0.0467
_refine_ls_wR_factor_ref         0.0479
_reflns_Friedel_coverage         0.000
_reflns_number_gt                2293
_reflns_number_total             2519
_reflns_threshold_expression     'I > 2\s(I)'
_cod_data_source_file            d2cc03191d2.cif
_cod_data_source_block           T1_CCDC2
_cod_database_code               7130372
_shelx_shelxl_version_number     2018/3
_shelx_space_group_comment
;
The symmetry employed for this shelxl refinement is uniquely defined
by the following loop, which should always be used as a source of
symmetry information in preference to the above space-group names.
They are only intended as comments.
;
_exptl_absorpt_special_details
'Bruker (2001). SADABS. Bruker AXS Inc., Madison, Wisconsin, USA.'
_olex2_refinement_description
;
;
_shelx_res_file
;
TITL T1 in P2(1)/n
    T1.res
    created by SHELXL-2018/3 at 17:54:42 on 20-Jul-2021
CELL 0.71073   5.6795  19.8304   8.0659  90.000  99.643  90.000
ZERR    4.00   0.0004   0.0014   0.0006   0.000   0.002   0.000
LATT 1
SYMM 0.5-X, 0.5+Y, 0.5-Z
SFAC C  H  N  O  I
UNIT 20 20 8 24 4
LIST 4
L.S. 4
BOND
ACTA
OMIT 0   2   0
FMAP 2
PLAN 20
TEMP 23.000
WGHT    0.017500    0.534300
FVAR       0.14727
MOLE 1
I1    5    0.571745    0.418184    0.828130    11.00000    0.03831    0.03390 =
         0.02900    0.00122    0.00870    0.00195
N1    3    0.140314    0.394426    0.225791    11.00000    0.04550    0.03994 =
         0.03414    0.00671    0.01374   -0.00498
H2    2    0.179879    0.412186    0.137683    11.00000    0.07055
C3    1    0.188782    0.312071    0.432569    11.00000    0.03275    0.03058 =
         0.02890    0.00048    0.00515   -0.00275
C2    1    0.256626    0.339773    0.292331    11.00000    0.03648    0.03901 =
         0.03315   -0.00192    0.01103   -0.00319
C5    1   -0.107277    0.396319    0.429340    11.00000    0.04129    0.04896 =
         0.04129    0.00331    0.01575    0.00788
C4    1    0.004286    0.339762    0.503232    11.00000    0.04196    0.04549 =
         0.03092    0.00628    0.01414   -0.00078
N2    3    0.316829    0.252449    0.506761    11.00000    0.04299    0.03152 =
         0.03934   -0.00060    0.00149   -0.00270
O5    4    0.447912    0.421082    1.013684    11.00000    0.06792    0.07562 =
         0.05857    0.00646    0.04139    0.00329
O4    4    0.417637    0.469841    0.670050    11.00000    0.10124    0.06754 =
         0.05067    0.01840    0.00273    0.03220
O2    4    0.232616    0.221515    0.613822    11.00000    0.06121    0.04358 =
         0.05010    0.01410    0.00767   -0.00475
O1    4    0.502122    0.237402    0.457996    11.00000    0.04967    0.05140 =
         0.06406    0.00062    0.00989    0.01417
O3    4    0.566455    0.335518    0.749678    11.00000    0.08899    0.04150 =
         0.05385   -0.01247   -0.01177    0.00857
O6    4    0.870234    0.444287    0.878891    11.00000    0.04764    0.07512 =
         0.06808    0.00063    0.01595   -0.01940
C6    1   -0.036162    0.423623    0.289279    11.00000    0.04522    0.03767 =
         0.03558    0.00576    0.00515    0.00134
H5    2   -0.040151    0.319809    0.591157    11.00000    0.04851
H1    2    0.371842    0.322280    0.233549    11.00000    0.05870
H4    2   -0.226727    0.417289    0.471647    11.00000    0.06039
H3    2   -0.096714    0.460036    0.244514    11.00000    0.06756
HKLF 4




REM  T1 in P2(1)/n
REM wR2 = 0.0479, GooF = S = 1.076, Restrained GooF = 1.076 for all data
REM R1 = 0.0208 for 2293 Fo > 4sig(Fo) and 0.0241 for all 2519 data
REM 147 parameters refined using 0 restraints

END

WGHT      0.0175      0.5343

REM Highest difference peak  0.432,  deepest hole -0.560,  1-sigma level  0.069
Q1    1   0.4508  0.3286  0.8028  11.00000  0.05    0.43
Q2    1   0.3872  0.4409  0.9375  11.00000  0.05    0.43
Q3    1   0.4904  0.4147  0.8783  11.00000  0.05    0.40
Q4    1   0.2434  0.3328  0.3853  11.00000  0.05    0.34
Q5    1   0.1061  0.3251  0.4604  11.00000  0.05    0.33
Q6    1   0.5282  0.3594  0.6811  11.00000  0.05    0.31
Q7    1   0.3636  0.3931  0.9464  11.00000  0.05    0.30
Q8    1   0.6518  0.3448  0.7994  11.00000  0.05    0.28
Q9    1  -0.0594  0.4027  0.3566  11.00000  0.05    0.28
Q10   1   0.2362  0.2832  0.4608  11.00000  0.05    0.27
Q11   1   0.7868  0.4495  0.7969  11.00000  0.05    0.27
Q12   1   0.8848  0.4145  0.8810  11.00000  0.05    0.26
Q13   1   0.5139  0.4375  0.7447  11.00000  0.05    0.24
Q14   1   0.7257  0.4951  0.6133  11.00000  0.05    0.23
Q15   1   0.6959  0.2491  0.4691  11.00000  0.05    0.23
Q16   1   0.6039  0.3264  0.7314  11.00000  0.05    0.22
Q17   1   0.4251  0.4326  1.0509  11.00000  0.05    0.22
Q18   1  -0.0469  0.3685  0.4531  11.00000  0.05    0.21
Q19   1   0.3833  0.4792  0.6316  11.00000  0.05    0.21
Q20   1  -0.1673  0.4115  0.1366  11.00000  0.05    0.20
;
_shelx_res_checksum              73204
_shelx_hkl_file
;
   1   0   0   -0.41    0.04
   1   0   0   -0.47    0.03
   1   0   0   -0.39    0.04
  -1   0   0   -0.49    0.03
  -1   0   0   -0.40    0.04
  -1   0   0   -0.34    0.05
  -1   0   0   -0.47    0.05
   1   0   0   -0.21    0.06
  -2   0   0  352.56   10.91
   2   0   0  355.54   10.90
  -2   0   0  346.78   10.14
   2   0   0  338.15   10.05
   3   0   0   -0.06    0.09
  -3   0   0   -0.02    0.10
   3   0   0    0.11    0.11
   4   0   0    2.62    0.25
   4   0   0    3.00    0.27
  -4   0   0    2.98    0.28
  -5   0   0   -0.10    0.16
   5   0   0   -0.03    0.15
   5   0   0    0.02    0.14
  -6   0   0   28.75    1.15
   6   0   0   29.35    1.18
   7   0   0    0.49    0.23
  -7   0   0    0.26    0.23
   1  -1   0  378.48   11.31
   1  -1   0  370.07   11.29
  -1  -1   0  376.25   11.38
  -1  -1   0  368.39   10.48
   1  -1   0  365.14   10.49
  -1   1   0  359.77   10.46
  -1   1   0  369.07   10.52
   1   1   0  304.13   11.26
   1   1   0  345.63   11.31
  -1   1   0  374.13   11.32
   1   1   0  358.08   10.48
   2  -1   0   62.48    1.98
  -2  -1   0   60.37    1.98
  -2  -1   0   61.17    1.85
   2  -1   0   59.33    1.96
   2  -1   0   60.36    1.83
  -2   1   0   61.05    1.98
  -2   1   0   61.99    1.84
   2   1   0   58.47    1.84
   2   1   0   64.24    1.98
  -3  -1   0   40.84    1.33
   3  -1   0   44.74    1.42
   3  -1   0   42.09    1.32
  -3   1   0   41.86    1.33
   3   1   0   39.57    1.41
   3   1   0   39.58    1.32
   4  -1   0   33.36    1.19
   4  -1   0   32.61    1.12
  -4  -1   0   32.00    1.14
  -4   1   0   33.66    1.13
   4   1   0   32.32    1.13
   4   1   0   32.61    1.20
  -5  -1   0   28.87    1.09
   5  -1   0   29.39    1.07
   5  -1   0   26.67    1.10
  -5   1   0   28.22    1.08
   5   1   0   30.31    1.08
   5   1   0   31.11    1.14
   6  -1   0    2.44    0.31
  -6  -1   0    2.87    0.36
  -6   1   0    2.60    0.34
   6   1   0    2.62    0.34
   6   1   0    2.49    0.33
  -7  -1   0   19.75    0.91
   7  -1   0   18.94    0.89
   7   1   0   18.53    0.90
  -7   1   0   18.42    0.89
   0  -2   0   -0.26    0.00
   0  -2   0   -0.25    0.01
   0   2   0   -0.26    0.01
   0   2   0   -0.26    0.01
   0   2   0   -0.25    0.00
  -1  -2   0   63.37    2.04
   1  -2   0   62.67    1.88
   1  -2   0   64.43    2.02
  -1  -2   0   63.26    1.90
   1   2   0   61.76    1.90
   1   2   0   63.58    1.90
  -1   2   0   63.38    1.88
  -1   2   0   67.20    2.03
   1   2   0   69.11    2.04
  -1   2   0   65.37    1.89
  -2  -2   0  137.17    4.13
   2  -2   0  145.51    4.11
   2  -2   0  141.32    4.42
  -2  -2   0  138.52    4.44
   2  -2   0  139.02    4.42
  -2   2   0  140.59    4.12
  -2   2   0  141.97    4.11
   2   2   0  142.06    4.13
  -3  -2   0  293.95    8.70
   3  -2   0  294.63    9.32
   3  -2   0  305.18    8.67
   3   2   0  301.29    9.35
  -3   2   0  301.01    8.69
   3   2   0  295.95    8.69
   4  -2   0   30.83    1.11
  -4  -2   0   29.17    1.07
   4  -2   0   31.40    1.05
   4   2   0   30.69    1.07
  -4   2   0   30.72    1.06
   4   2   0   29.41    1.13
   5  -2   0   41.38    1.49
   5  -2   0   40.75    1.40
  -5  -2   0   40.21    1.44
   5   2   0   41.82    1.52
   5   2   0   42.18    1.44
  -5   2   0   42.12    1.44
   6  -2   0   12.72    0.66
  -6  -2   0   13.47    0.69
   6   2   0   14.32    0.70
   6   2   0   12.65    0.68
  -6   2   0   14.27    0.69
   7  -2   0    0.08    0.20
  -7  -2   0    0.33    0.25
   7   2   0    0.29    0.22
  -7   2   0   -0.17    0.23
   0   3   0   -0.97    0.04
   1  -3   0   18.59    0.61
  -1  -3   0   17.81    0.64
   1  -3   0   18.72    0.61
  -1  -3   0   18.57    0.60
   1   3   0   19.48    0.60
  -1   3   0   18.63    0.58
   1   3   0   18.18    0.60
  -1   3   0   18.58    0.58
   2  -3   0  148.76    4.59
  -2  -3   0  148.21    4.30
   2  -3   0  146.92    4.59
   2  -3   0  144.80    4.27
  -2  -3   0  150.99    4.63
   2   3   0  146.05    4.30
   2   3   0  146.01    4.62
  -2   3   0  142.94    4.27
  -2   3   0  143.93    4.28
   3  -3   0    1.33    0.16
   3  -3   0    0.81    0.14
  -3  -3   0    0.59    0.14
   3  -3   0    0.68    0.13
   3   3   0    0.79    0.15
  -3   3   0    0.87    0.14
   3   3   0    0.74    0.15
   4  -3   0  104.20    3.06
  -4  -3   0  101.72    3.10
   4  -3   0   97.66    3.27
   4   3   0  103.08    3.09
  -4   3   0   99.81    3.08
   4   3   0   98.97    3.31
   5  -3   0    0.48    0.18
   5  -3   0    0.44    0.16
  -5  -3   0    0.93    0.22
  -5   3   0    0.42    0.19
   5   3   0    0.46    0.19
   5   3   0    0.48    0.19
  -6  -3   0    5.76    0.45
   6  -3   0    5.97    0.42
   6   3   0    5.75    0.44
   6   3   0    6.70    0.47
  -6   3   0    5.40    0.43
  -7  -3   0   -0.14    0.22
   7  -3   0    0.05    0.17
  -7   3   0    0.55    0.25
   7   3   0    0.16    0.21
   0  -4   0  169.08    4.93
   0   4   0  168.23    4.99
   0   4   0  170.94    5.35
   0   4   0  174.68    4.96
  -1  -4   0  140.14    4.44
   1  -4   0  141.72    4.42
   1  -4   0  139.29    4.43
  -1  -4   0  144.23    4.13
   1   4   0  137.34    4.13
  -1   4   0  146.12    4.11
  -1   4   0  138.69    4.11
   1   4   0  149.81    4.14
  -2  -4   0   70.17    2.12
  -2  -4   0   67.06    2.27
   2  -4   0   69.53    2.23
   2  -4   0   71.29    2.08
  -2   4   0   72.27    2.09
   2   4   0   69.50    2.27
  -2   4   0   71.49    2.09
   2   4   0   69.50    2.12
   3  -4   0  172.74    4.93
  -3  -4   0  164.18    4.97
   3  -4   0  169.08    5.30
   3  -4   0  172.65    5.29
  -3   4   0  175.24    4.95
   3   4   0  157.67    5.33
   3   4   0  164.83    4.96
   4  -4   0    7.74    0.39
   4  -4   0    7.70    0.38
  -4  -4   0    7.33    0.41
   4  -4   0    7.21    0.40
  -4   4   0    7.31    0.40
   4   4   0    7.19    0.41
   4   4   0    7.73    0.43
  -5  -4   0   29.78    1.15
   5  -4   0   30.91    1.17
   5  -4   0   33.72    1.13
  -5   4   0   30.50    1.14
   5   4   0   33.14    1.17
   5   4   0   31.00    1.22
   6  -4   0    9.61    0.54
  -6  -4   0   10.11    0.59
   6   4   0   10.40    0.60
   6   4   0    9.80    0.59
  -6   4   0   10.99    0.59
  -7  -4   0   -0.43    0.21
   7  -4   0    0.01    0.16
  -7   4   0    0.06    0.23
   7   4   0   -0.09    0.20
  -1  -5   0  224.36    6.29
   1  -5   0  214.73    6.27
  -1  -5   0  219.77    6.77
  -1   5   0  220.65    6.29
   1   5   0  212.39    6.29
   1   5   0  214.46    6.33
  -1   5   0  215.86    6.30
   2  -5   0    0.35    0.08
   2  -5   0    0.30    0.07
   2  -5   0    0.31    0.07
  -2  -5   0    0.50    0.11
   2   5   0    0.33    0.10
   2   5   0    0.30    0.10
  -2   5   0    0.18    0.08
  -2   5   0    0.43    0.08
   3  -5   0   29.93    1.01
  -3  -5   0   28.75    1.00
   3   5   0   29.14    1.00
  -3   5   0   28.10    0.96
   3   5   0   30.20    1.06
   4  -5   0   33.41    1.19
   4  -5   0   33.10    1.17
  -4  -5   0   34.85    1.18
  -4   5   0   32.70    1.14
   4   5   0   33.75    1.17
   4   5   0   32.25    1.24
   5  -5   0   10.50    0.52
  -5  -5   0   11.02    0.57
   5   5   0   10.83    0.56
   5   5   0   11.04    0.58
  -5   5   0    9.84    0.54
   6  -5   0    1.33    0.23
  -6  -5   0    1.74    0.30
  -6   5   0    1.52    0.28
   6   5   0    1.67    0.30
   6   5   0    1.59    0.31
  -7  -5   0   12.09    0.72
   7  -5   0   12.69    0.64
   7   5   0   11.33    0.71
  -7   5   0   12.94    0.71
   0   6   0  987.00   28.71
   0   6   0 1000.00   28.77
   1  -6   0   13.23    0.41
  -1  -6   0   12.42    0.44
  -1   6   0   12.57    0.42
   1   6   0   12.51    0.45
  -1   6   0   12.66    0.42
   1   6   0   13.21    0.45
   2  -6   0  182.72    5.66
  -2  -6   0  180.75    5.32
   2  -6   0  184.49    5.66
  -2   6   0  176.56    5.28
  -2   6   0  182.29    5.29
   2   6   0  184.83    5.33
  -3  -6   0    0.37    0.13
   3  -6   0    0.61    0.11
   3  -6   0    0.46    0.09
   3  -6   0    0.77    0.12
   3   6   0    0.39    0.13
  -3   6   0    0.34    0.11
   3   6   0    0.44    0.13
   4  -6   0   13.13    0.57
   4  -6   0   14.07    0.56
  -4  -6   0   13.99    0.61
   4   6   0   13.63    0.61
   4   6   0   13.87    0.65
  -4   6   0   15.03    0.59
   5  -6   0   -0.16    0.11
  -5  -6   0    0.03    0.18
   5   6   0   -0.06    0.17
   5   6   0   -0.21    0.15
  -5   6   0   -0.08    0.16
  -6  -6   0   25.27    1.03
   6  -6   0   23.49    0.96
   6   6   0   25.65    1.04
   6   6   0   23.59    1.07
  -6   6   0   23.66    0.99
  -7  -6   0    0.38    0.26
   7  -6   0    0.20    0.18
   7   6   0    0.02    0.22
  -7   6   0   -0.04    0.23
  -1  -7   0  199.68    5.76
  -1   7   0  192.45    5.74
  -1   7   0  202.85    5.73
   1   7   0  193.22    5.77
   1   7   0  204.64    5.77
   2  -7   0   44.52    1.35
   2  -7   0   44.97    1.41
  -2  -7   0   43.79    1.40
  -2   7   0   45.05    1.36
  -2   7   0   45.17    1.37
   2   7   0   44.12    1.40
  -3  -7   0    9.60    0.45
   3  -7   0   10.05    0.40
   3  -7   0   10.71    0.41
   3  -7   0    9.51    0.39
   3   7   0   10.01    0.49
  -3   7   0   10.16    0.42
  -3   7   0   10.76    0.43
   3   7   0    9.44    0.45
   4  -7   0   27.78    1.01
   4  -7   0   28.78    1.00
  -4  -7   0   28.12    1.03
   4  -7   0   28.59    0.97
   4   7   0   28.87    1.11
  -4   7   0   27.86    0.99
   4   7   0   27.95    1.03
   5  -7   0   18.51    0.75
  -5  -7   0   18.97    0.82
   5   7   0   19.86    0.87
  -5   7   0   19.12    0.78
   5   7   0   18.26    0.81
  -6  -7   0    0.13    0.22
   6  -7   0    0.54    0.17
  -6   7   0    0.00    0.20
   6   7   0    0.23    0.22
   6   7   0    0.27    0.21
   7  -7   0   13.06    0.62
  -7  -7   0   12.17    0.72
   7   7   0   11.41    0.72
   7   7   0   12.82    0.73
  -7   7   0   11.75    0.68
   0  -8   0  237.15    7.04
   0   8   0  243.82    6.97
   0   8   0  242.95    6.98
  -1  -8   0  107.35    3.10
   1   8   0  109.68    3.12
   1   8   0   98.02    3.10
  -1   8   0  106.80    3.07
  -1   8   0  105.10    3.08
  -2  -8   0   52.06    1.61
   2  -8   0   52.84    1.55
   2   8   0   51.26    1.62
  -2   8   0   51.32    1.57
   3  -8   0   92.57    2.98
   3  -8   0   92.34    2.98
  -3  -8   0   90.49    2.87
   3   8   0   96.60    2.89
  -3   8   0   94.31    2.83
   3   8   0   99.01    3.11
  -3   8   0   96.15    2.84
  -4  -8   0    4.06    0.33
   4  -8   0    3.70    0.24
   4  -8   0    3.87    0.26
  -4   8   0    3.85    0.30
   4   8   0    4.17    0.33
   4   8   0    3.91    0.34
   5  -8   0   44.73    1.52
  -5  -8   0   44.89    1.55
  -5   8   0   42.63    1.50
   5   8   0   44.29    1.55
   5   8   0   44.19    1.65
  -6  -8   0   10.83    0.63
   6  -8   0   10.57    0.52
   6   8   0   10.35    0.62
   6   8   0   10.82    0.64
  -6   8   0   10.82    0.59
  -7  -8   0   -0.01    0.24
   7  -8   0    0.32    0.16
   7   8   0    0.17    0.22
   7   8   0    0.04    0.24
  -7   8   0   -0.04    0.23
   0  -9   0    0.05    0.05
   0   9   0    0.16    0.10
   0   9   0   -0.07    0.07
  -1  -9   0   16.71    0.55
   1   9   0   16.08    0.57
  -1   9   0   16.67    0.53
  -1   9   0   15.90    0.54
   1   9   0   14.81    0.57
  -2  -9   0  217.37    6.44
  -2   9   0  222.44    6.40
   2   9   0  222.05    6.46
   3  -9   0    0.27    0.10
  -3  -9   0    0.20    0.12
   3   9   0    0.27    0.14
  -3   9   0    0.19    0.10
   3   9   0    0.14    0.12
  -3   9   0    0.15    0.11
   4  -9   0   60.70    1.97
  -4  -9   0   61.38    1.98
   4  -9   0   61.19    1.97
   4   9   0   57.55    1.97
   4   9   0   61.17    2.12
  -4   9   0   62.64    1.93
   5  -9   0    2.45    0.22
  -5  -9   0    2.79    0.33
  -5   9   0    2.01    0.27
   5   9   0    2.35    0.33
   5   9   0    2.83    0.34
  -6  -9   0    4.84    0.47
   6  -9   0    4.63    0.31
   6   9   0    5.03    0.45
  -6   9   0    5.01    0.41
   6   9   0    5.11    0.45
   7  -9   0   -0.10    0.12
   7   9   0    0.33    0.24
   7   9   0   -0.01    0.24
  -7   9   0    0.00    0.22
   0 -10   0   14.12    0.44
   0  10   0   14.03    0.49
   0  10   0   13.69    0.51
  -1  10   0   29.21    0.92
  -1  10   0   28.55    0.90
   1  10   0   29.78    0.94
   1  10   0   28.46    0.95
  -2 -10   0    9.53    0.41
  -2  10   0    9.75    0.38
   2  10   0    9.53    0.43
  -2  10   0    9.94    0.38
  -3 -10   0  220.91    6.37
  -3  10   0  211.93    6.32
   3  10   0  206.95    6.85
  -3  10   0  217.57    6.31
   3  10   0  222.95    6.39
  -4 -10   0    4.06    0.34
  -4  10   0    3.76    0.30
   4  10   0    3.81    0.35
   4  10   0    4.04    0.34
   5 -10   0   23.34    0.83
  -5 -10   0   23.53    0.97
   5  10   0   23.36    0.98
   5  10   0   23.67    1.04
  -5  10   0   25.34    0.94
   6 -10   0    4.92    0.28
  -6 -10   0    5.42    0.50
   6  10   0    5.48    0.51
   6  10   0    4.45    0.49
  -6  10   0    4.37    0.40
   7  10   0   -0.24    0.22
  -7  10   0   -0.12    0.22
   7  10   0   -0.25    0.23
   0  11   0    0.22    0.10
   0  11   0    0.20    0.08
   1  11   0  170.49    4.91
  -1  11   0  161.71    4.88
   1  11   0  165.20    4.92
  -1  11   0  172.62    4.88
  -2 -11   0   33.15    1.08
  -2  11   0   32.11    1.03
  -2  11   0   32.39    1.03
   2  11   0   32.75    1.10
  -3 -11   0   21.33    0.79
   3  11   0   19.98    0.85
  -3  11   0   20.93    0.74
   3  11   0   20.52    0.80
  -4 -11   0   47.58    1.66
   4  11   0   50.46    1.68
   4  11   0   48.94    1.79
  -4  11   0   50.82    1.61
  -5 -11   0   13.08    0.66
   5  11   0   12.86    0.70
  -5  11   0   12.14    0.60
   5  11   0   13.40    0.66
   6  11   0    0.35    0.24
   6  11   0    0.48    0.25
  -6  11   0    0.09    0.21
  -7  11   0    5.22    0.46
   7  11   0    5.25    0.57
   7  11   0    6.21    0.55
   0  12   0  492.21   14.35
   0  12   0  503.30   14.41
   1  12   0   19.24    0.68
  -1  12   0   18.34    0.65
  -1  12   0   19.10    0.64
   1  12   0   19.74    0.68
  -2 -12   0  132.83    4.06
   2  12   0  142.64    4.10
  -2  12   0  133.56    4.02
  -2  12   0  139.02    4.02
  -3 -12   0    3.56    0.30
   3  12   0    2.98    0.29
   3  12   0    3.56    0.31
  -3  12   0    3.65    0.25
  -4 -12   0    0.04    0.16
   4  12   0   -0.07    0.15
   4  12   0    0.26    0.18
  -4  12   0    0.46    0.16
  -5 -12   0   -0.13    0.18
   5  12   0    0.31    0.22
  -5  12   0    0.03    0.16
   5  12   0    0.10    0.20
   6  12   0   16.23    0.81
   6  12   0   16.40    0.85
  -6  12   0   14.51    0.73
  -7  12   0   -0.12    0.21
   7  12   0    0.04    0.25
  -1 -13   0  148.58    4.34
   1  13   0  147.64    4.38
  -1  13   0  152.21    4.35
   1  13   0  142.40    4.38
  -1  13   0  150.22    4.36
  -2 -13   0   19.73    0.71
   2  13   0   18.30    0.74
  -2  13   0   19.54    0.67
  -2  13   0   20.46    0.68
  -3 -13   0    0.96    0.19
  -3  13   0    0.66    0.15
   3  13   0    0.99    0.20
  -4 -13   0   13.63    0.64
  -4  13   0   13.76    0.58
   4  13   0   12.87    0.68
   4  13   0   13.58    0.65
   5  13   0   15.65    0.80
  -5  13   0   15.69    0.69
   5  13   0   14.96    0.75
   6  13   0    0.54    0.27
   6  13   0    0.11    0.23
  -6  13   0    0.45    0.22
   0  14   0   32.48    1.07
   0  14   0   33.10    1.07
  -1 -14   0   20.97    0.70
   1  14   0   19.61    0.75
   1  14   0   20.38    0.75
  -1  14   0   21.82    0.73
  -1  14   0   21.68    0.72
  -2 -14   0   23.14    0.83
  -2  14   0   24.54    0.81
   2  14   0   24.12    0.88
  -3  14   0   61.37    1.89
   3  14   0   60.14    1.98
  -4  14   0    0.32    0.15
   4  14   0    0.00    0.18
   4  14   0    0.12    0.18
   5  14   0   14.62    0.73
  -5  14   0   14.68    0.66
   5  14   0   13.79    0.76
   6  14   0    8.49    0.62
  -6  14   0    9.11    0.55
   6  14   0    8.57    0.60
   0  15   0   -0.13    0.10
   0  15   0   -0.01    0.09
  -1  15   0    2.91    0.24
  -1  15   0    3.77    0.24
   1  15   0    3.19    0.26
  -2  15   0   85.42    2.47
   2  15   0   77.41    2.53
   3  15   0    0.46    0.19
  -3  15   0    0.76    0.15
   4  15   0   35.03    1.36
  -4  15   0   38.71    1.28
   4  15   0   39.60    1.49
  -5  15   0    0.44    0.19
   5  15   0    0.48    0.24
   5  15   0    0.08    0.21
   6  15   0    1.13    0.32
   6  15   0    1.42    0.32
  -6  15   0    1.65    0.29
   0  16   0   34.01    1.13
   1  16   0   20.37    0.75
  -1  16   0   19.61    0.72
   2  16   0    8.33    0.45
  -2  16   0    8.58    0.39
   3  16   0   53.00    1.78
  -3  16   0   52.85    1.68
   4  16   0    0.27    0.19
  -4  16   0    0.22    0.15
  -5  16   0   12.90    0.62
   5  16   0   12.76    0.69
   6  16   0    3.94    0.49
   6  16   0    3.08    0.43
  -6  16   0    3.44    0.38
   0  17   0    1.42    0.19
  -1  17   0   77.80    2.41
   1  17   0   80.06    2.45
   2  17   0   14.24    0.64
  -2  17   0   14.84    0.57
   3  17   0    2.88    0.31
  -3  17   0    2.15    0.23
   4  17   0   12.05    0.64
  -4  17   0   11.58    0.54
   5  17   0    4.88    0.44
  -5  17   0    4.83    0.38
   6  17   0    0.64    0.28
  -6  17   0    0.13    0.21
   0  18   0   82.37    2.53
   1  18   0    0.62    0.17
  -1  18   0    0.70    0.16
   2  18   0   33.48    1.18
  -2  18   0   32.51    1.11
   3  18   0    1.39    0.26
  -3  18   0    1.47    0.20
   4  18   0    1.22    0.26
  -4  18   0    1.46    0.23
   5  18   0    0.48    0.25
  -5  18   0    0.38    0.19
   0  19   0    0.34    0.15
   1  19   0   61.31    1.92
  -1  19   0   58.02    1.88
   2  19   0    1.69    0.25
  -2  19   0    1.89    0.22
  -3  19   0    0.84    0.17
   3  19   0    0.26    0.19
   4  19   0    4.29    0.44
  -4  19   0    4.69    0.34
  -5  19   0    9.20    0.52
   5  19   0    9.70    0.61
   0  20   0   26.15    0.94
   1  20   0    3.19    0.31
  -1  20   0    3.81    0.30
   2  20   0   13.13    0.63
  -2  20   0   13.96    0.58
   3  20   0   15.73    0.73
  -3  20   0   15.99    0.65
  -4  20   0   -0.06    0.16
   4  20   0   -0.31    0.16
   5  20   0    5.63    0.49
  -5  20   0    5.62    0.41
   0  21   0    0.36    0.16
  -1  21   0    5.18    0.33
   1  21   0    4.63    0.35
   2  21   0   24.82    0.97
  -2  21   0   24.78    0.91
   3  21   0    0.24    0.19
  -3  21   0   -0.05    0.15
   4  21   0   11.46    0.67
  -4  21   0   13.43    0.60
  -5  21   0    0.39    0.21
   5  21   0    0.58    0.25
   0  22   0    0.68    0.19
  -1  22   0   10.57    0.50
   1  22   0   10.79    0.54
  -2  22   0    0.51    0.17
   2  22   0    0.50    0.20
  -3  22   0   18.39    0.74
   3  22   0   17.81    0.82
  -4  22   0    0.13    0.17
   4  22   0    0.30    0.22
   0  23   0   -0.03    0.15
   1  23   0   20.78    0.84
  -1  23   0   20.65    0.80
  -2  23   0    5.72    0.37
   2  23   0    5.55    0.41
   3  23   0    0.72    0.24
  -3  23   0    0.77    0.21
   4  23   0    8.10    0.58
  -4  23   0    9.22    0.50
   0  24   0   27.11    1.01
   1  24   0    0.59    0.19
  -1  24   0    0.57    0.18
   2  24   0    9.97    0.56
  -2  24   0   10.54    0.51
   3  24   0    1.76    0.30
  -3  24   0    2.07    0.27
   0  25   0    0.31    0.18
   1  25   0   17.34    0.75
  -1  25   0   15.85    0.68
   2  25   0    0.29    0.20
  -2  25   0    0.36    0.17
  -3  25   0    0.06    0.17
   3  25   0   -0.30    0.17
   0  26   0   10.90    0.55
  -1  26   0    1.32    0.22
   1  26   0    1.60    0.26
   2  26   0    3.22    0.36
  -2  26   0    3.11    0.30
   0  27   0    0.01    0.16
  -1  27   0    0.32    0.17
   1  27   0    0.16    0.19
   7   0  -1    4.54    0.42
  -7   0   1    4.25    0.46
   6   0  -1    0.25    0.18
   6   0  -1    0.37    0.21
  -6   0   1    0.28    0.21
   5   0  -1   75.81    2.38
   5   0  -1   74.31    2.55
  -5   0   1   74.24    2.39
   4   0  -1    0.27    0.14
   4   0  -1    0.07    0.13
  -4   0   1    0.19    0.14
   3   0  -1  160.54    4.59
   3   0  -1  146.15    4.93
  -3   0   1  160.11    4.60
   2   0  -1   -0.03    0.06
  -2   0   1   -0.06    0.06
   2   0  -1   -0.06    0.07
  -1   0   1    2.05    0.14
   1   0  -1    2.86    0.15
   1   0  -1    3.03    0.15
   1   0  -1    2.70    0.15
  -1   0   1    2.82    0.15
  -1   0   1    2.68    0.15
   0   0  -1   -0.17    0.02
   0   0  -1   -0.19    0.02
   0   0  -1   -0.14    0.03
   0   0   1   -0.20    0.01
   0   0   1   -0.17    0.03
   0   0   1   -0.20    0.01
  -1   0  -1  702.39   21.11
   1   0   1  697.00   22.70
  -1   0  -1  754.11   22.76
   1   0   1  747.91   22.71
   1   0   1  741.50   21.11
  -1   0  -1  724.23   21.07
   2   0   1   -0.18    0.08
   2   0   1   -0.10    0.08
  -2   0  -1    0.06    0.09
  -2   0  -1   -0.16    0.08
   2   0   1   -0.19    0.07
  -3   0  -1  332.24   10.12
  -3   0  -1  314.23    9.40
   3   0   1  323.96   10.10
   3   0   1  322.72    9.39
  -4   0  -1    0.20    0.14
   4   0   1    0.22    0.13
  -4   0  -1    0.13    0.14
   4   0   1    0.05    0.12
   5   0   1    6.75    0.42
   5   0   1    7.00    0.42
  -5   0  -1    6.65    0.45
  -6   0  -1    0.00    0.20
   6   0   1   -0.20    0.15
  -7   0  -1    5.79    0.50
   7   0   1    5.76    0.46
  -7  -1   1    2.64    0.40
   7  -1  -1    2.55    0.35
   7   1  -1    1.64    0.32
  -7   1   1    2.73    0.38
   6  -1  -1   32.21    1.26
  -6  -1   1   30.27    1.21
   6  -1  -1   31.85    1.19
   6   1  -1   33.39    1.21
  -6   1   1   31.79    1.22
   6   1  -1   30.68    1.26
  -5  -1   1    3.24    0.33
   5  -1  -1    3.11    0.31
   5  -1  -1    3.15    0.32
   5   1  -1    3.28    0.33
  -5   1   1    3.05    0.32
   5   1  -1    2.86    0.32
  -4  -1   1  183.58    5.44
   4  -1  -1  187.12    5.42
   4  -1  -1  183.09    5.83
  -4   1   1  183.00    5.44
   4   1  -1  178.20    5.83
   4   1  -1  183.64    5.43
  -3  -1   1    2.68    0.23
   3  -1  -1    2.66    0.22
   3  -1  -1    2.18    0.20
   3   1  -1    2.50    0.23
  -3   1   1    2.43    0.22
   2  -1  -1   17.54    0.68
  -2  -1   1   18.79    0.65
   2  -1  -1   19.01    0.64
  -2   1   1   20.19    0.65
   2   1  -1   20.05    0.69
   2   1  -1   19.11    0.64
   1  -1  -1  629.34   20.52
  -1  -1   1  652.22   20.52
  -1  -1   1  662.05   19.06
   1  -1  -1  738.10   19.12
  -1   1   1  641.37   19.09
  -1   1   1  618.81   19.03
   1   1  -1  684.47   20.54
   1   1  -1  658.82   19.09
   1   1  -1  631.54   19.06
  -1  -1  -1   25.19    0.79
   1  -1   1   24.55    0.76
  -1  -1  -1   25.06    0.84
   1  -1   1   25.57    0.81
  -1  -1  -1   24.10    0.77
  -1   1  -1   24.86    0.76
  -1   1  -1   24.66    0.83
   1   1   1   25.59    0.84
   1   1   1   26.09    0.78
  -1   1  -1   23.54    0.77
   2  -1   1  238.07    7.47
  -2  -1  -1  239.65    6.96
   2  -1   1  244.52    6.93
   2  -1   1  236.71    7.45
  -2  -1  -1  250.55    7.49
  -2   1  -1  238.17    7.47
  -2   1  -1  234.86    6.95
   2   1   1  230.95    6.94
   2   1   1  239.74    7.47
  -3  -1  -1    0.73    0.15
  -3  -1  -1    0.74    0.15
   3  -1   1    0.78    0.14
   3  -1   1    0.69    0.13
  -3   1  -1    0.43    0.13
   3   1   1    0.58    0.13
   3   1   1    0.60    0.14
  -3   1  -1    0.48    0.14
  -4  -1  -1   76.58    2.64
  -4  -1  -1   77.10    2.46
   4  -1   1   78.73    2.60
   4  -1   1   79.38    2.44
  -4   1  -1   80.49    2.64
  -4   1  -1   80.52    2.46
   4   1   1   78.83    2.45
   4   1   1   77.45    2.61
   5  -1   1   17.53    0.76
  -5  -1  -1   17.79    0.76
   5  -1   1   17.16    0.73
   5   1   1   16.95    0.76
  -5   1  -1   17.16    0.75
   5   1   1   18.32    0.75
   6  -1   1    0.23    0.18
  -6  -1  -1    0.21    0.23
  -6   1  -1    0.16    0.20
   6   1   1   -0.07    0.18
   7  -1   1    4.17    0.43
  -7  -1  -1    4.19    0.47
  -7   1  -1    3.28    0.42
   7   1   1    3.87    0.43
  -7  -2   1    0.65    0.29
   7  -2  -1    0.77    0.24
   7   2  -1    0.74    0.25
  -7   2   1    0.37    0.26
   6  -2  -1   15.09    0.73
  -6  -2   1   14.36    0.72
   6   2  -1   16.09    0.74
  -6   2   1   15.33    0.74
   6   2  -1   15.23    0.75
   5  -2  -1   11.86    0.56
  -5  -2   1   11.72    0.58
   5  -2  -1   12.63    0.59
  -5   2   1   11.21    0.57
   5   2  -1   11.99    0.57
   5   2  -1   11.18    0.59
  -4  -2   1    5.26    0.34
   4  -2  -1    5.26    0.31
   4  -2  -1    3.98    0.30
   4   2  -1    4.41    0.32
   4   2  -1    4.26    0.31
  -4   2   1    5.01    0.32
  -3  -2   1    5.56    0.31
   3  -2  -1    5.54    0.29
   3  -2  -1    5.84    0.31
   3   2  -1    5.26    0.31
   3   2  -1    5.38    0.32
  -3   2   1    5.80    0.31
  -2  -2   1  440.47   12.71
   2  -2  -1  440.19   13.82
   2   2  -1  444.43   13.76
  -2   2   1  443.79   12.71
   2   2  -1  435.44   12.88
   1  -2  -1   12.83    0.43
   1  -2  -1   12.14    0.40
  -1  -2   1   11.90    0.40
  -1  -2   1   12.53    0.42
   1   2  -1   11.40    0.40
  -1   2   1   10.93    0.40
   1   2  -1   11.24    0.40
   1   2  -1   12.91    0.43
  -1   2   1   11.53    0.40
   0  -2  -1  277.52    8.32
   0  -2  -1  257.15    7.70
   0   2   1  268.35    7.66
   0   2  -1  255.39    7.68
  -1  -2  -1  172.82    4.97
   1  -2   1  172.67    5.33
  -1  -2  -1  170.58    5.35
   1  -2   1  168.99    5.32
   1   2   1  172.76    4.97
  -1   2  -1  173.86    4.97
  -1   2  -1  169.57    4.94
  -1   2  -1  167.92    5.34
   2  -2   1   62.18    1.87
  -2  -2  -1   62.39    1.90
   2  -2   1   63.27    2.01
  -2  -2  -1   58.55    2.04
   2  -2   1   61.71    2.00
  -2   2  -1   63.53    1.88
  -2   2  -1   65.82    1.88
  -2   2  -1   62.95    2.02
   2   2   1   61.11    1.89
   2   2   1   62.43    2.03
  -3  -2  -1   68.92    2.15
  -3  -2  -1   69.72    2.31
   3  -2   1   70.19    2.26
   3  -2   1   72.11    2.12
   3  -2   1   74.03    2.28
  -3   2  -1   68.44    2.13
   3   2   1   67.67    2.14
   3   2   1   63.24    2.28
  -3   2  -1   70.27    2.29
   4  -2   1   63.37    1.94
  -4  -2  -1   59.25    2.12
  -4  -2  -1   62.35    1.98
   4  -2   1   63.19    2.07
  -4   2  -1   59.85    1.96
   4   2   1   63.07    1.97
  -4   2  -1   61.94    2.11
   4   2   1   58.87    2.09
  -5  -2  -1    2.58    0.32
   5  -2   1    2.40    0.27
   5  -2   1    2.20    0.27
  -5   2  -1    2.35    0.30
   5   2   1    2.57    0.30
   5   2   1    2.09    0.28
  -6  -2  -1   21.77    0.96
   6  -2   1   22.58    0.93
  -6   2  -1   22.28    0.94
   6   2   1   22.16    0.97
  -7  -2  -1    1.32    0.33
   7  -2   1    1.49    0.27
  -7   2  -1    1.90    0.34
   7   2   1    1.01    0.28
   7  -3  -1   17.97    0.83
  -7  -3   1   17.17    0.87
  -7   3   1   16.68    0.84
   7   3  -1   16.55    0.87
  -6  -3   1   -0.02    0.19
   6  -3  -1    0.15    0.17
   6   3  -1    0.12    0.19
  -6   3   1    0.03    0.19
   6   3  -1   -0.14    0.17
   5  -3  -1    6.01    0.39
   5  -3  -1    5.40    0.38
  -5  -3   1    6.36    0.42
  -5   3   1    5.67    0.40
   5   3  -1    6.00    0.41
   5   3  -1    5.60    0.41
   4  -3  -1    1.37    0.19
  -4  -3   1    1.34    0.20
   4  -3  -1    1.11    0.18
  -4   3   1    1.27    0.19
   4   3  -1    1.30    0.20
   4   3  -1    1.46    0.21
  -3  -3   1  160.79    4.70
   3  -3  -1  150.37    5.03
   3   3  -1  158.56    4.70
  -3   3   1  163.16    4.70
   3   3  -1  163.03    5.06
  -2  -3   1    9.67    0.38
   2  -3  -1    9.61    0.39
   2  -3  -1    9.86    0.37
   2   3  -1   10.22    0.41
  -2   3   1    9.11    0.37
   2   3  -1    9.46    0.38
   1  -3  -1  605.86   19.37
  -1  -3   1  603.60   19.30
  -1  -3   1  639.47   18.01
   1  -3  -1  620.14   17.98
   1   3  -1  639.51   19.33
   1   3  -1  594.38   17.98
  -1   3   1  627.04   17.96
  -1   3   1  617.11   17.94
   1   3  -1  622.15   17.99
   0  -3  -1   27.05    0.85
   0  -3  -1   26.33    0.91
   0   3   1   29.01    0.86
  -1  -3  -1  760.92   23.71
   1  -3   1  689.57   21.81
  -1  -3  -1  763.92   22.06
   1   3   1  765.73   22.05
  -1   3  -1  751.27   21.89
  -1   3  -1  789.08   21.87
  -1   3  -1  783.14   23.57
  -2  -3  -1    5.43    0.29
   2  -3   1    5.25    0.24
   2  -3   1    4.91    0.24
  -2  -3  -1    5.30    0.30
   2   3   1    5.71    0.29
  -2   3  -1    5.32    0.27
  -2   3  -1    4.82    0.25
  -2   3  -1    5.14    0.25
   2   3   1    4.85    0.27
   3  -3   1   20.42    0.71
   3  -3   1   20.86    0.75
   3  -3   1   21.70    0.77
  -3  -3  -1   20.22    0.75
  -3  -3  -1   20.83    0.81
  -3   3  -1   20.63    0.73
   3   3   1   20.58    0.79
   3   3   1   19.44    0.74
  -3   3  -1   20.08    0.78
   4  -3   1    1.83    0.21
  -4  -3  -1    1.74    0.24
   4  -3   1    2.03    0.22
   4  -3   1    1.89    0.21
  -4  -3  -1    1.93    0.26
  -4   3  -1    1.88    0.24
   4   3   1    2.08    0.24
   4   3   1    1.61    0.23
  -4   3  -1    1.79    0.23
  -5  -3  -1   56.13    1.90
   5  -3   1   58.52    1.95
  -5   3  -1   55.38    1.88
   5   3   1   55.47    1.88
   5   3   1   57.82    2.01
   6  -3   1    0.51    0.19
  -6  -3  -1    0.19    0.23
   6   3   1    0.18    0.20
  -6   3  -1    0.28    0.22
   6   3   1    0.30    0.24
  -7  -3  -1    9.26    0.61
   7  -3   1    9.00    0.53
  -7   3  -1    8.66    0.58
   7   3   1    8.15    0.57
  -7  -4   1    0.64    0.27
   7  -4  -1   -0.08    0.17
   7   4  -1    0.41    0.24
  -7   4   1    0.57    0.26
   6  -4  -1   12.63    0.64
  -6  -4   1   13.33    0.68
   6   4  -1   13.40    0.68
  -6   4   1   13.63    0.67
   6   4  -1   11.41    0.67
   5  -4  -1   15.54    0.68
  -5  -4   1   15.44    0.69
  -5   4   1   14.71    0.68
   5   4  -1   14.44    0.71
   5   4  -1   15.94    0.70
   4  -4  -1    5.26    0.32
  -4  -4   1    4.95    0.34
   4   4  -1    4.77    0.35
  -4   4   1    5.43    0.34
   4   4  -1    4.71    0.34
   3  -4  -1   22.09    0.76
  -3  -4   1   22.12    0.78
   3  -4  -1   20.54    0.80
   3   4  -1   21.86    0.78
   3   4  -1   22.82    0.84
  -3   4   1   22.77    0.78
   2  -4  -1  126.34    3.84
   2  -4  -1  124.66    3.57
  -2  -4   1  124.77    3.58
   2   4  -1  113.51    3.85
   2   4  -1  118.68    3.58
  -2   4   1  121.30    3.58
   1  -4  -1   16.47    0.53
   1  -4  -1   16.24    0.56
  -1  -4   1   14.95    0.51
  -1   4   1   15.92    0.52
  -1   4   1   14.64    0.52
   1   4  -1   16.65    0.52
   1   4  -1   15.94    0.55
   1   4  -1   15.88    0.52
   0  -4  -1  461.75   13.20
   0  -4  -1  483.12   14.31
   0   4   1  414.26   13.12
   0   4   1  462.53   13.21
  -1  -4  -1  606.32   18.86
  -1  -4  -1  587.67   17.41
  -1   4  -1  612.15   17.29
   1   4   1  598.70   17.38
  -1   4  -1  592.96   17.31
  -1   4  -1  595.85   18.60
   2  -4   1    3.41    0.19
  -2  -4  -1    3.51    0.25
   2  -4   1    3.49    0.18
  -2  -4  -1    4.10    0.25
  -2   4  -1    3.40    0.20
   2   4   1    3.25    0.23
  -2   4  -1    3.71    0.21
  -2   4  -1    3.64    0.20
  -3  -4  -1   76.45    2.35
  -3  -4  -1   74.82    2.53
   3  -4   1   75.78    2.45
   3  -4   1   78.17    2.30
  -3   4  -1   75.79    2.49
   3   4   1   78.84    2.35
   3   4   1   74.40    2.52
  -3   4  -1   75.46    2.32
   4  -4   1   43.74    1.48
  -4  -4  -1   42.57    1.55
   4  -4   1   41.94    1.46
   4  -4   1   42.37    1.38
  -4  -4  -1   43.02    1.44
  -4   4  -1   41.33    1.40
   4   4   1   42.29    1.43
   4   4   1   41.89    1.52
  -4   4  -1   43.03    1.51
  -5  -4  -1    8.12    0.50
   5  -4   1    7.45    0.43
   5   4   1    7.91    0.48
   5   4   1    8.15    0.50
  -5   4  -1    8.62    0.48
   6  -4   1   31.21    1.21
  -6  -4  -1   33.08    1.26
   6   4   1   30.91    1.29
  -6   4  -1   31.04    1.21
   6   4   1   33.53    1.25
   7  -4   1    0.51    0.19
  -7  -4  -1    0.66    0.29
   7   4   1    0.30    0.23
  -7   4  -1    0.16    0.24
   7  -5  -1    6.43    0.45
  -7  -5   1    6.52    0.53
   7   5  -1    6.35    0.54
   7   5  -1    6.19    0.51
  -7   5   1    6.43    0.50
  -6  -5   1   21.97    0.94
   6  -5  -1   21.64    0.91
   6   5  -1   22.52    0.95
  -6   5   1   22.10    0.92
   6   5  -1   20.70    0.96
  -5  -5   1    4.29    0.39
   5  -5  -1    4.26    0.34
   5  -5  -1    4.18    0.32
   5   5  -1    4.41    0.40
  -5   5   1    3.40    0.34
   5   5  -1    3.73    0.38
   4  -5  -1  123.06    3.85
   4  -5  -1  134.61    4.13
  -4  -5   1  129.01    3.88
   4   5  -1  129.49    4.18
   4   5  -1  126.70    3.89
  -4   5   1  128.27    3.87
   3  -5  -1   44.35    1.48
   3  -5  -1   44.01    1.48
   3  -5  -1   42.85    1.38
  -3  -5   1   44.57    1.41
  -3   5   1   42.48    1.39
   3   5  -1   43.77    1.51
   3   5  -1   44.72    1.41
   2  -5  -1   27.37    0.86
   2  -5  -1   27.99    0.92
  -2  -5   1   27.28    0.87
  -2   5   1   26.05    0.86
   2   5  -1   25.73    0.93
  -2   5   1   27.26    0.87
   2   5  -1   25.92    0.87
   1  -5  -1  257.26    7.68
   1  -5  -1  243.69    7.10
  -1  -5   1  252.72    7.11
  -1   5   1  238.78    7.10
   1   5  -1  237.93    7.17
   1   5  -1  246.48    7.12
  -1   5   1  242.64    7.10
   0  -5  -1  145.46    4.26
   0  -5  -1  149.34    4.58
   0   5   1  145.07    4.27
   0   5   1  144.56    4.26
  -1  -5  -1    1.87    0.16
  -1  -5  -1    1.98    0.16
   1   5   1    2.19    0.17
  -1   5  -1    2.21    0.10
  -1   5  -1    1.85    0.10
   2  -5   1  285.53    8.92
  -2  -5  -1  295.24    9.01
   2  -5   1  287.97    8.96
  -2  -5  -1  287.88    8.37
   2   5   1  284.20    8.37
  -2   5  -1  293.18    8.31
  -2   5  -1  284.88    8.94
  -2   5  -1  283.18    8.31
   3  -5   1    1.60    0.16
   3  -5   1    1.61    0.15
  -3  -5  -1    1.82    0.22
   3  -5   1    1.66    0.16
  -3  -5  -1    1.60    0.20
  -3   5  -1    2.02    0.18
   3   5   1    1.62    0.21
  -3   5  -1    1.56    0.18
  -3   5  -1    2.03    0.19
   3   5   1    1.81    0.21
  -4  -5  -1   59.30    2.11
   4  -5   1   60.32    2.00
  -4  -5  -1   61.03    1.97
   4  -5   1   58.99    1.88
   4   5   1   60.56    2.10
  -4   5  -1   62.67    1.93
   4   5   1   61.80    1.96
  -5  -5  -1    9.23    0.55
   5  -5   1    9.91    0.48
   5   5   1   10.86    0.56
  -5   5  -1   10.18    0.53
   5   5   1   10.01    0.56
  -6  -5  -1    0.75    0.26
   6  -5   1    0.40    0.17
  -6   5  -1    0.55    0.24
   6   5   1    0.64    0.25
   6   5   1    0.54    0.23
   7  -5   1    3.48    0.33
  -7  -5  -1    3.47    0.45
   7   5   1    2.86    0.39
  -7   5  -1    3.25    0.41
  -7  -6   1    6.03    0.51
   7  -6  -1    5.96    0.43
   7   6  -1    6.80    0.53
  -7   6   1    5.13    0.47
   7   6  -1    5.60    0.50
   6  -6  -1    0.04    0.15
  -6  -6   1    0.35    0.22
   6   6  -1    0.05    0.19
  -6   6   1    0.40    0.21
   6   6  -1    0.24    0.21
  -5  -6   1   83.71    2.68
   5  -6  -1   84.72    2.81
   5   6  -1   84.60    2.69
  -5   6   1   85.12    2.67
   5   6  -1   84.04    2.87
   4  -6  -1    2.80    0.25
  -4  -6   1    2.96    0.29
   4  -6  -1    2.69    0.25
   4  -6  -1    3.25    0.28
   4   6  -1    3.09    0.30
   4   6  -1    2.64    0.28
  -4   6   1    2.65    0.27
   3  -6  -1  164.75    5.11
   3  -6  -1  159.95    4.76
   3  -6  -1  163.10    5.11
  -3  -6   1  157.99    4.78
   3   6  -1  161.22    4.79
   3   6  -1  159.05    5.15
  -3   6   1  165.75    4.77
   2  -6  -1    0.05    0.08
  -2  -6   1    0.04    0.08
   2  -6  -1    0.39    0.09
  -2   6   1    0.01    0.09
   2   6  -1   -0.03    0.08
   2   6  -1   -0.09    0.08
   1  -6  -1    3.67    0.20
   1  -6  -1    3.03    0.19
   1   6  -1    2.82    0.17
   1   6  -1    3.19    0.17
  -1   6   1    3.05    0.18
  -1   6   1    3.29    0.18
   0  -6  -1   31.48    1.02
   0  -6  -1   31.04    0.96
   0   6   1   30.20    0.96
   0   6   1   28.97    0.97
  -1  -6  -1  159.37    4.58
  -1  -6  -1  155.23    4.93
   1   6   1  151.42    4.59
  -1   6  -1  160.30    4.51
   2  -6   1   12.24    0.40
  -2  -6  -1   12.13    0.52
  -2  -6  -1   11.92    0.49
   2   6   1   12.11    0.49
  -2   6  -1   12.10    0.43
  -2   6  -1   11.85    0.43
  -2   6  -1   11.68    0.46
   3  -6   1  247.00    7.85
   3  -6   1  253.93    7.86
  -3  -6  -1  256.57    7.96
  -3  -6  -1  252.33    7.40
   3   6   1  247.32    7.39
  -3   6  -1  249.08    7.34
  -3   6  -1  257.73    7.90
   3   6   1  257.27    7.96
  -3   6  -1  247.22    7.34
  -4  -6  -1    6.92    0.42
   4  -6   1    6.68    0.33
  -4  -6  -1    6.97    0.45
   4  -6   1    6.63    0.36
   4   6   1    6.49    0.42
  -4   6  -1    6.33    0.37
   4   6   1    7.35    0.42
  -5  -6  -1    0.13    0.18
   5  -6   1   -0.10    0.11
  -5   6  -1    0.06    0.17
   5   6   1    0.03    0.15
   5   6   1    0.07    0.18
   6  -6   1    0.17    0.15
  -6  -6  -1    0.24    0.23
   6   6   1    0.34    0.20
  -6   6  -1    0.09    0.19
   6   6   1    0.52    0.24
   7  -6   1    4.61    0.36
  -7  -6  -1    5.79    0.52
  -7   6  -1    5.43    0.47
   7   6   1    4.79    0.46
   7  -7  -1    0.99    0.24
  -7  -7   1    0.52    0.28
  -7   7   1    0.92    0.29
   7   7  -1    0.67    0.27
   7   7  -1    0.73    0.27
  -6  -7   1   22.47    0.96
   6  -7  -1   22.66    0.91
   6   7  -1   23.09    1.02
   6   7  -1   22.86    0.97
  -6   7   1   20.52    0.92
  -5  -7   1    1.03    0.22
   5  -7  -1    0.98    0.19
   5   7  -1    0.84    0.23
  -5   7   1    1.23    0.24
   5   7  -1    1.10    0.24
  -4  -7   1  102.77    3.16
   4  -7  -1  106.37    3.33
   4  -7  -1  101.04    3.12
  -4   7   1  103.31    3.14
   4   7  -1  104.52    3.40
   4   7  -1   99.22    3.16
   3  -7  -1    0.42    0.11
   3  -7  -1    0.36    0.10
   3  -7  -1   -0.01    0.03
  -3  -7   1    0.08    0.11
  -3   7   1    0.00    0.10
   3   7  -1    0.05    0.11
   3   7  -1    0.11    0.11
   2  -7  -1    7.37    0.31
   2  -7  -1    7.56    0.33
  -2  -7   1    7.43    0.33
   2   7  -1    7.36    0.35
  -2   7   1    7.47    0.33
   2   7  -1    6.59    0.33
  -2   7   1    7.07    0.32
   1  -7  -1   30.95    1.01
   1  -7  -1   30.07    0.95
  -1   7   1   29.39    0.95
  -1   7   1   30.72    0.95
   1   7  -1   30.18    0.93
   1   7  -1   28.52    0.93
   0  -7  -1  330.79    9.40
   0  -7  -1  314.11   10.24
   0   7   1  323.46    9.41
   0   7   1  333.72    9.43
  -1  -7  -1   43.16    1.42
  -1  -7  -1   43.24    1.32
   1   7   1   40.99    1.33
  -2  -7  -1  267.27    7.88
  -2  -7  -1  257.42    8.47
  -2   7  -1  276.10    7.80
  -2   7  -1  272.31    8.39
   2   7   1  271.42    7.88
  -2   7  -1  275.91    7.81
  -3  -7  -1    1.40    0.21
   3  -7   1    1.99    0.14
  -3  -7  -1    1.66    0.21
   3  -7   1    1.80    0.15
   3   7   1    1.56    0.21
  -3   7  -1    1.37    0.17
   3   7   1    1.68    0.22
  -3   7  -1    1.75    0.19
  -3   7  -1    1.61    0.17
   4  -7   1   85.52    2.66
  -4  -7  -1   80.76    2.82
  -4  -7  -1   85.65    2.63
   4  -7   1   79.61    2.68
   4   7   1   86.24    2.63
  -4   7  -1   82.87    2.56
   4   7   1   81.72    2.80
   5  -7   1   11.15    0.49
  -5  -7  -1   12.00    0.61
   5   7   1   11.20    0.59
   5   7   1   10.65    0.60
  -5   7  -1   11.34    0.56
   6  -7   1   -0.20    0.11
  -6  -7  -1   -0.01    0.21
   6   7   1    0.10    0.20
  -6   7  -1    0.01    0.18
   6   7   1    0.51    0.24
   7  -7   1    1.67    0.23
  -7  -7  -1    0.83    0.31
  -7   7  -1    1.04    0.29
   7   7   1    1.20    0.31
   7  -8  -1    0.60    0.20
   7   8  -1    0.43    0.25
  -7   8   1    0.84    0.28
   7   8  -1    0.68    0.28
   6  -8  -1   10.71    0.55
  -6  -8   1   10.32    0.61
   6   8  -1   11.19    0.66
   6   8  -1   10.72    0.62
  -6   8   1   10.85    0.60
  -5  -8   1    6.67    0.45
   5  -8  -1    6.98    0.40
   5   8  -1    7.17    0.46
  -5   8   1    6.70    0.43
   5   8  -1    6.22    0.45
   4  -8  -1    9.20    0.43
  -4  -8   1    8.82    0.46
   4  -8  -1    8.96    0.42
  -4   8   1    9.07    0.45
   4   8  -1    7.93    0.46
   4   8  -1    9.06    0.49
   3  -8  -1   33.18    1.06
   3  -8  -1   33.06    1.11
  -3  -8   1   31.79    1.08
   3  -8  -1   33.02    1.11
  -3   8   1   31.20    1.06
   3   8  -1   32.33    1.09
   3   8  -1   30.80    1.16
  -2  -8   1  157.25    4.72
   2  -8  -1  166.16    5.06
   2  -8  -1  165.98    5.04
   2  -8  -1  155.39    4.71
  -2   8   1  155.99    4.72
  -2   8   1  159.06    4.72
   2   8  -1  162.64    4.74
   2   8  -1  167.29    5.09
  -1  -8   1    6.84    0.28
   1  -8  -1    8.19    0.32
   1   8  -1    8.08    0.31
   1   8  -1    8.10    0.31
  -1   8   1    7.89    0.33
  -1   8   1    7.83    0.34
   0  -8  -1   46.30    1.42
   0  -8  -1   46.21    1.51
   0   8  -1   46.96    1.37
   0   8  -1   44.63    1.36
   0   8   1   47.62    1.45
   0   8   1   47.40    1.44
  -1  -8  -1  244.83    7.06
  -1  -8  -1  235.78    7.58
   1   8   1  247.27    7.07
  -2  -8  -1    0.06    0.10
  -2  -8  -1    0.11    0.11
  -2   8  -1    0.09    0.07
  -2   8  -1    0.23    0.07
  -2   8  -1    0.04    0.07
   2   8   1    0.00    0.11
  -3  -8  -1   70.50    2.19
   3  -8   1   70.33    2.07
  -3  -8  -1   66.06    2.34
   3   8   1   67.97    2.34
  -3   8  -1   70.22    2.27
  -3   8  -1   71.66    2.11
  -3   8  -1   69.08    2.11
   3   8   1   68.98    2.19
  -4  -8  -1   13.91    0.64
   4  -8   1   13.71    0.52
  -4   8  -1   13.53    0.58
   4   8   1   14.21    0.68
   4   8   1   14.46    0.64
  -5  -8  -1   11.25    0.60
   5  -8   1   10.77    0.45
  -5   8  -1   10.66    0.54
   5   8   1   10.65    0.58
   5   8   1    9.98    0.60
   6  -8   1   18.46    0.69
  -6  -8  -1   16.82    0.83
  -6   8  -1   15.74    0.76
   6   8   1   15.94    0.85
   6   8   1   17.62    0.84
   7  -8   1    1.52    0.20
  -7  -8  -1    2.16    0.38
  -7   8  -1    1.00    0.29
   7   8   1    2.01    0.36
   7  -9  -1   11.33    0.56
  -7   9   1   10.37    0.64
   7   9  -1   11.97    0.70
   7   9  -1   10.47    0.69
   6  -9  -1    1.41    0.22
  -6  -9   1    1.98    0.33
   6   9  -1    1.37    0.30
  -6   9   1    1.20    0.28
   6   9  -1    1.37    0.29
  -5  -9   1    1.53    0.28
   5  -9  -1    1.55    0.21
  -5   9   1    1.26    0.24
   5   9  -1    1.21    0.27
   5   9  -1    1.12    0.25
   4  -9  -1   13.97    0.59
  -4  -9   1   15.02    0.63
   4   9  -1   14.74    0.68
  -4   9   1   14.99    0.62
   4   9  -1   14.41    0.64
  -3  -9   1   61.68    1.92
   3  -9  -1   61.70    1.99
   3  -9  -1   62.02    1.99
   3  -9  -1   61.66    1.88
  -3   9   1   58.83    1.90
   3   9  -1   61.96    2.07
   3   9  -1   60.65    1.93
   2  -9  -1    5.05    0.25
  -2  -9   1    4.70    0.26
   2  -9  -1    5.18    0.23
  -2   9   1    4.85    0.26
  -2   9   1    4.79    0.26
   2   9  -1    4.87    0.27
   1  -9  -1  298.09    9.34
  -1  -9   1  299.27    8.66
   1   9  -1  289.19    8.59
  -1   9   1  309.57    8.62
   1   9  -1  292.34    8.63
  -1   9   1  293.82    8.61
   0  -9  -1    4.76    0.25
   0  -9  -1    4.44    0.23
   0   9  -1    4.47    0.20
   0   9  -1    4.59    0.18
   0   9   1    4.74    0.28
   0   9   1    5.09    0.27
  -1  -9  -1  198.87    6.06
  -1  -9  -1  192.29    5.64
   1   9   1  187.26    5.65
  -2  -9  -1    7.02    0.37
  -2  -9  -1    7.29    0.37
  -2   9  -1    6.85    0.29
  -2   9  -1    6.91    0.28
  -2   9  -1    6.85    0.28
   2   9   1    6.96    0.37
  -3  -9  -1    5.68    0.36
  -3  -9  -1    4.84    0.33
  -3   9  -1    4.60    0.28
   3   9   1    4.93    0.34
  -3   9  -1    4.81    0.28
  -4  -9  -1    2.46    0.29
   4   9   1    2.08    0.29
   4   9   1    2.47    0.30
  -4   9  -1    2.57    0.25
  -5  -9  -1   35.52    1.29
  -5   9  -1   32.67    1.20
   5   9   1   33.31    1.36
   5   9   1   34.47    1.28
  -6  -9  -1   -0.27    0.21
   6   9   1   -0.05    0.20
  -6   9  -1   -0.09    0.19
   6   9   1   -0.06    0.22
  -7  -9  -1    7.65    0.60
   7   9   1    8.61    0.63
  -7   9  -1    8.86    0.57
   7 -10  -1    2.16    0.26
   7  10  -1    1.91    0.37
  -7  10   1    2.14    0.35
   7  10  -1    2.19    0.39
   6 -10  -1   10.47    0.51
  -6  10   1   10.87    0.60
   6  10  -1   11.36    0.67
   6  10  -1   10.06    0.63
   5 -10  -1    5.08    0.32
  -5 -10   1    5.26    0.41
  -5  10   1    4.82    0.38
   5  10  -1    5.13    0.42
   5  10  -1    4.23    0.39
   4 -10  -1    2.87    0.22
  -4 -10   1    2.75    0.30
   4  10  -1    2.16    0.30
   4  10  -1    2.96    0.31
  -4  10   1    3.08    0.28
   3 -10  -1   39.39    1.33
  -3 -10   1   40.46    1.32
   3 -10  -1   40.89    1.32
  -3  10   1   38.53    1.29
   3  10  -1   42.33    1.34
   3  10  -1   38.97    1.42
   2 -10  -1   97.43    2.85
   2 -10  -1   96.77    3.00
  -2 -10   1   93.68    2.85
   2  10  -1   97.48    2.88
  -2  10   1   94.66    2.86
  -2  10   1   93.99    2.86
  -1 -10   1   21.72    0.70
   1 -10  -1   23.00    0.73
   1 -10  -1   22.01    0.73
  -1  10   1   20.97    0.76
   1  10  -1   21.88    0.73
   1  10  -1   23.26    0.74
  -1  10   1   22.69    0.75
   0 -10  -1  185.78    6.61
   0  10  -1  213.71    6.10
   0  10   1  225.98    6.17
   0  10  -1  215.28    6.09
   0  10   1  214.36    6.18
  -1 -10  -1   72.18    2.24
  -1 -10  -1   74.06    2.40
   1  10   1   75.78    2.27
  -2 -10  -1   14.43    0.58
  -2 -10  -1   15.37    0.62
  -2  10  -1   14.80    0.53
   2  10   1   14.11    0.59
  -2  10  -1   14.63    0.50
  -2  10  -1   14.26    0.49
  -3 -10  -1    9.90    0.50
  -3 -10  -1   10.47    0.53
   3  10   1   10.06    0.50
  -3  10  -1   10.95    0.43
  -4 -10  -1   44.02    1.52
   4  10   1   42.10    1.62
  -4  10  -1   44.78    1.44
   4  10   1   44.98    1.53
  -5 -10  -1    1.06    0.26
   5  10   1    0.84    0.25
  -5  10  -1    0.83    0.21
   5  10   1    1.11    0.25
  -6 -10  -1   19.13    0.90
  -6  10  -1   17.76    0.82
   6  10   1   19.06    0.94
   6  10   1   18.98    0.90
   7  10   1    0.13    0.26
   7  10   1    0.22    0.24
  -7  10  -1    0.23    0.24
   7  11  -1    5.59    0.56
   7  11  -1    5.22    0.51
  -7  11   1    5.58    0.48
   6 -11  -1   14.49    0.61
   6  11  -1   15.17    0.78
  -6  11   1   15.56    0.73
   6  11  -1   13.49    0.77
  -5 -11   1    2.97    0.35
   5 -11  -1    3.04    0.23
   5  11  -1    2.59    0.34
   5  11  -1    2.58    0.34
  -5  11   1    2.36    0.29
  -4 -11   1   74.92    2.37
   4 -11  -1   72.95    2.40
   4 -11  -1   75.77    2.41
  -4  11   1   78.01    2.35
   4  11  -1   72.87    2.55
   4  11  -1   74.55    2.39
   3 -11  -1   37.35    1.21
  -3 -11   1   38.64    1.25
   3 -11  -1   37.67    1.20
  -3  11   1   35.40    1.22
   3  11  -1   37.03    1.27
   3  11  -1   38.36    1.36
  -2 -11   1   25.39    0.85
   2 -11  -1   24.40    0.84
  -2  11   1   26.05    0.86
  -2  11   1   25.80    0.86
   2  11  -1   25.92    0.88
  -1 -11   1  107.26    3.17
   1 -11  -1  107.48    3.20
  -1  11   1  108.35    3.23
  -1  11   1  102.96    3.24
   1  11  -1  116.86    3.21
   1  11  -1  109.11    3.21
   0 -11  -1    9.03    0.34
   0  11   1    7.79    0.39
   0  11   1    8.13    0.38
   0  11  -1    8.63    0.32
   0  11  -1    8.31    0.31
  -1 -11  -1   14.74    0.58
  -1 -11  -1   16.60    0.61
   1  11   1   14.94    0.60
  -1  11  -1   16.07    0.50
  -2 -11  -1  178.80    5.77
  -2 -11  -1  183.06    5.38
  -2  11  -1  184.78    5.28
  -2  11  -1  177.90    5.28
   2  11   1  185.17    5.40
  -3 -11  -1    0.28    0.15
  -3 -11  -1    0.51    0.17
   3  11   1    0.23    0.16
  -3  11  -1    0.47    0.12
  -4 -11  -1   33.19    1.21
   4  11   1   31.85    1.29
  -4  11  -1   33.49    1.12
   4  11   1   32.38    1.21
  -5 -11  -1    7.52    0.50
   5  11   1    6.36    0.49
   5  11   1    5.77    0.46
  -5  11  -1    6.76    0.42
  -6 -11  -1   -0.07    0.22
   6  11   1    0.15    0.22
  -6  11  -1   -0.08    0.19
   6  11   1    0.00    0.22
   7  12  -1    1.07    0.32
  -7  12   1    0.86    0.29
   7  12  -1    0.71    0.30
   6  12  -1    0.26    0.25
  -6  12   1    0.43    0.22
   6  12  -1    0.48    0.26
   5  12  -1   57.91    2.13
   5  12  -1   57.40    1.99
  -5  12   1   60.02    1.94
  -4 -12   1    9.14    0.50
   4  12  -1    9.38    0.52
  -4  12   1   10.30    0.49
   4  12  -1   10.19    0.56
  -3 -12   1   53.51    1.76
   3  12  -1   56.31    1.80
  -3  12   1   55.96    1.76
   3  12  -1   56.93    1.93
  -2 -12   1    0.23    0.09
  -2  12   1    0.38    0.12
  -2  12   1    0.42    0.11
   2  12  -1    0.20    0.11
   1 -12  -1    0.06    0.07
  -1  12   1    0.17    0.11
   1  12  -1    0.09    0.08
   1  12  -1    0.07    0.08
  -1  12   1    0.10    0.10
   0 -12  -1    6.55    0.27
   0  12  -1    6.52    0.26
   0  12  -1    6.50    0.27
   0  12   1    6.02    0.33
   0  12   1    6.13    0.34
  -1 -12  -1  244.57    7.38
  -1 -12  -1  258.78    7.93
  -1  12  -1  256.11    7.31
   1  12   1  252.26    7.42
  -1  12  -1  255.46    7.32
  -2 -12  -1    1.54    0.20
  -2 -12  -1    1.63    0.21
   2  12   1    1.25    0.21
  -2  12  -1    1.84    0.16
  -3 -12  -1  133.49    4.07
   3  12   1  131.96    4.09
  -3  12  -1  137.74    3.98
  -4 -12  -1    1.21    0.25
  -4  12  -1    1.63    0.21
   4  12   1    1.59    0.27
   4  12   1    1.70    0.28
  -5 -12  -1    5.89    0.47
   5  12   1    5.48    0.45
   5  12   1    5.40    0.45
  -5  12  -1    5.72    0.39
   6  12   1    0.08    0.23
   6  12   1    0.43    0.26
  -6  12  -1    0.06    0.19
   6  13  -1   13.62    0.74
  -6  13   1   13.28    0.68
   6  13  -1   13.08    0.78
   5  13  -1    1.48    0.28
   5  13  -1    0.70    0.25
  -5  13   1    1.10    0.23
   4  13  -1   66.26    2.26
  -4  13   1   65.11    2.05
   4  13  -1   61.42    2.09
  -3 -13   1    2.35    0.24
   3  13  -1    2.39    0.27
  -3  13   1    2.17    0.23
   3  13  -1    2.47    0.28
   2  13  -1   43.82    1.43
  -2  13   1   44.72    1.42
  -1  13   1   64.21    2.01
   1  13  -1   62.92    1.98
   1  13  -1   68.28    1.98
  -1  13   1   64.55    2.01
   0 -13  -1   97.87    2.83
   0  13   1   94.60    2.88
   0  13  -1   97.04    2.80
   0  13  -1   97.32    2.81
   0  13   1   88.23    2.88
  -1 -13  -1   39.78    1.31
  -1 -13  -1   41.08    1.37
   1  13   1   42.96    1.36
  -1  13  -1   40.33    1.24
  -1  13  -1   40.16    1.23
  -2 -13  -1  190.57    5.61
  -2  13  -1  190.06    5.51
   2  13   1  188.24    5.64
  -3 -13  -1    0.64    0.18
   3  13   1    0.61    0.20
  -3  13  -1    0.79    0.14
  -4 -13  -1   34.02    1.27
  -4  13  -1   35.25    1.17
   4  13   1   31.35    1.26
   4  13   1   36.32    1.38
   5  13   1    4.84    0.43
  -5  13  -1    5.28    0.37
   5  13   1    4.86    0.44
   6  13   1    0.40    0.25
  -6  13  -1    0.01    0.20
   6  13   1   -0.04    0.21
   6  14  -1    2.99    0.43
  -6  14   1    3.11    0.38
   6  14  -1    2.95    0.41
   5  14  -1    7.94    0.53
   5  14  -1    9.69    0.60
  -5  14   1    8.37    0.49
  -4  14   1    0.92    0.20
   4  14  -1    0.99    0.23
   4  14  -1    1.32    0.25
  -3  14   1   24.10    0.87
   3  14  -1   24.57    0.98
   3  14  -1   24.19    0.91
   2  14  -1  145.71    4.46
  -2  14   1  154.46    4.45
  -1  14   1    8.21    0.40
  -1  14   1    8.69    0.41
   1  14  -1    8.19    0.37
   1  14  -1    7.88    0.37
   0 -14  -1   83.34    2.56
   0  14  -1   90.46    2.56
   0  14   1   88.33    2.64
   0  14   1   82.60    2.63
   0  14  -1   85.69    2.55
  -1 -14  -1   45.99    1.51
   1  14   1   49.39    1.57
  -1  14  -1   47.09    1.45
  -1  14  -1   49.22    1.46
  -2 -14  -1    6.62    0.38
   2  14   1    6.40    0.40
  -2  14  -1    6.28    0.29
  -3 -14  -1   38.95    1.35
  -3  14  -1   39.03    1.24
   3  14   1   38.88    1.38
   4  14   1   11.94    0.61
  -4  14  -1   10.71    0.50
   4  14   1   10.50    0.62
   5  14   1    2.57    0.38
  -5  14  -1    2.41    0.29
   5  14   1    2.60    0.37
   6  14   1    7.98    0.59
   6  14   1    9.11    0.65
  -6  14  -1    8.12    0.51
  -6  15   1    0.44    0.22
   6  15  -1    0.63    0.26
   6  15  -1    0.25    0.24
  -5  15   1    0.28    0.18
   5  15  -1    0.24    0.21
  -4  15   1    2.62    0.28
   4  15  -1    2.28    0.30
  -3  15   1   46.46    1.53
   3  15  -1   48.28    1.59
   2  15  -1    0.39    0.15
  -2  15   1    0.57    0.16
  -1  15   1  142.93    4.38
   1  15  -1  151.05    4.35
   0 -15  -1    3.14    0.21
   0  15  -1    3.01    0.21
   0  15  -1    3.35    0.21
   0  15   1    2.61    0.26
   1  15   1   79.63    2.53
  -1  15  -1   82.30    2.42
  -1  15  -1   81.68    2.42
   2  15   1    4.93    0.35
  -2  15  -1    4.34    0.24
   3  15   1    1.21    0.24
  -3  15  -1    1.37    0.17
   4  15   1    0.27    0.20
  -4  15  -1   -0.04    0.13
   4  15   1    0.04    0.18
   5  15   1   29.84    1.21
   5  15   1   30.26    1.30
  -5  15  -1   28.64    1.08
  -6  15  -1    0.24    0.22
   6  15   1    0.76    0.29
   6  15   1    0.59    0.28
   6  16  -1    5.72    0.50
  -6  16   1    5.48    0.45
   5  16  -1    4.19    0.43
  -5  16   1    4.02    0.36
  -4  16   1    1.33    0.22
   4  16  -1    1.54    0.27
   3  16  -1    3.89    0.32
  -3  16   1    3.79    0.30
   2  16  -1   47.76    1.55
  -2  16   1   47.19    1.54
   1  16  -1    3.03    0.24
  -1  16   1    2.89    0.27
   0  16  -1   84.70    2.57
   0  16   1   87.02    2.66
  -1  16  -1   15.27    0.56
  -1  16  -1   15.94    0.56
   1  16   1   15.57    0.66
  -2  16  -1    1.16    0.14
   2  16   1    0.65    0.19
   3  16   1    9.31    0.53
  -3  16  -1    9.62    0.41
   4  16   1   18.35    0.84
  -4  16  -1   18.67    0.72
   4  16   1   18.28    0.90
   5  16   1    1.83    0.36
   5  16   1    1.62    0.31
  -5  16  -1    1.98    0.27
   6  16   1   10.56    0.69
  -6  16  -1   11.27    0.60
   6  16   1   10.20    0.72
   6  17  -1    5.86    0.56
  -6  17   1    5.10    0.44
   5  17  -1    0.61    0.24
  -5  17   1    0.73    0.22
   4  17  -1   21.42    0.89
  -4  17   1   20.31    0.82
  -3  17   1   13.87    0.59
   3  17  -1   13.41    0.62
   2  17  -1   14.96    0.61
  -2  17   1   13.80    0.60
   1  17  -1   42.11    1.37
  -1  17   1   42.41    1.41
   0  17   1    9.99    0.49
   0  17  -1   10.17    0.42
   1  17   1    8.94    0.46
  -1  17  -1    7.62    0.35
   2  17   1   38.95    1.36
  -2  17  -1   38.10    1.21
  -3  17  -1    1.59    0.18
   3  17   1    1.54    0.27
   4  17   1   10.43    0.61
  -4  17  -1   10.58    0.49
  -5  17  -1    1.70    0.26
   5  17   1    1.49    0.32
  -5  18   1   20.40    0.84
   5  18  -1   18.11    0.89
  -4  18   1   -0.06    0.14
   4  18  -1    0.13    0.18
   3  18  -1   20.16    0.82
  -3  18   1   19.51    0.78
   2  18  -1    0.31    0.15
  -2  18   1    0.15    0.15
   1  18  -1    0.88    0.17
  -1  18   1    0.99    0.20
   0  18   1    3.14    0.30
   0  18  -1    2.70    0.22
   1  18   1   30.92    1.22
  -1  18  -1   38.73    1.14
  -2  18  -1    0.04    0.11
   2  18   1    0.43    0.19
  -3  18  -1   32.46    1.07
   3  18   1   31.98    1.23
  -4  18  -1    0.37    0.16
   4  18   1    1.21    0.27
   5  18   1    1.85    0.35
  -5  18  -1    1.44    0.25
  -5  19   1    0.46    0.21
   5  19  -1    0.47    0.24
  -4  19   1   18.60    0.77
   4  19  -1   17.33    0.81
  -3  19   1    1.25    0.22
   3  19  -1    1.00    0.22
   2  19  -1    3.32    0.31
  -2  19   1    2.77    0.29
   1  19  -1    7.51    0.40
  -1  19   1    8.20    0.44
   0  19  -1   17.68    0.66
   0  19   1   18.60    0.75
  -1  19  -1    2.32    0.20
   1  19   1    1.72    0.25
  -2  19  -1   71.11    2.13
   2  19   1   68.26    2.28
  -3  19  -1    0.61    0.15
   3  19   1    0.49    0.22
   4  19   1   16.46    0.81
  -4  19  -1   16.45    0.67
  -5  19  -1    0.40    0.20
   5  19   1    0.13    0.23
  -5  20   1    3.95    0.39
   5  20  -1    3.83    0.44
  -4  20   1    3.03    0.33
   4  20  -1    2.10    0.32
   3  20  -1   12.23    0.61
  -3  20   1   12.86    0.59
   2  20  -1   16.41    0.70
  -2  20   1   17.25    0.72
  -1  20   1    2.37    0.27
   1  20  -1    1.70    0.22
   0  20   1   30.02    1.10
   0  20  -1   30.71    1.02
   1  20   1   12.97    0.62
  -1  20  -1   12.99    0.51
  -2  20  -1    0.45    0.14
   2  20   1    0.68    0.22
   3  20   1    9.72    0.58
  -3  20  -1    9.83    0.44
  -4  20  -1    5.59    0.35
   4  20   1    5.59    0.47
  -5  20  -1    1.30    0.25
   5  20   1    0.68    0.28
  -5  21   1    0.46    0.22
   5  21  -1    0.37    0.24
  -4  21   1    1.57    0.27
   4  21  -1    1.40    0.27
   3  21  -1   16.62    0.75
  -3  21   1   16.61    0.72
   2  21  -1    4.40    0.35
  -2  21   1    4.74    0.36
  -1  21   1   50.08    1.65
   1  21  -1   48.96    1.61
   0  21  -1    1.05    0.17
   0  21   1    0.88    0.21
   1  21   1   15.82    0.69
  -1  21  -1   14.28    0.57
  -2  21  -1    1.00    0.17
   2  21   1    0.70    0.23
  -3  21  -1    1.18    0.19
   3  21   1    1.12    0.27
  -4  21  -1   -0.14    0.14
   4  21   1   -0.17    0.19
   4  22  -1   -0.19    0.17
  -4  22   1    0.42    0.19
   3  22  -1    4.28    0.40
  -3  22   1    4.17    0.36
  -2  22   1   26.27    0.98
   2  22  -1   24.91    0.97
  -1  22   1    0.75    0.20
   1  22  -1    0.62    0.17
   0  22  -1   31.62    1.08
   0  22   1   31.62    1.15
   1  22   1    1.01    0.23
  -1  22  -1    1.11    0.17
   2  22   1    0.67    0.23
  -2  22  -1    0.81    0.17
   3  22   1    0.89    0.25
  -3  22  -1    1.32    0.20
   4  22   1    8.28    0.58
  -4  22  -1    7.83    0.44
  -4  23   1    7.02    0.47
   4  23  -1    6.55    0.49
  -3  23   1    5.88    0.42
   3  23  -1    5.17    0.41
   2  23  -1    4.90    0.37
  -2  23   1    5.18    0.39
   1  23  -1   20.91    0.80
  -1  23   1   19.61    0.82
   0  23  -1    7.24    0.38
   0  23   1    6.45    0.44
  -1  23  -1    7.86    0.39
   1  23   1    7.65    0.48
  -2  23  -1   11.50    0.49
   2  23   1   11.50    0.63
  -3  23  -1    0.28    0.16
   3  23   1    0.38    0.22
   4  23   1    4.23    0.47
  -4  23  -1    4.41    0.34
   3  24  -1    3.58    0.37
  -3  24   1    4.04    0.38
  -2  24   1    1.47    0.25
   2  24  -1    1.16    0.23
   1  24  -1    0.13    0.15
  -1  24   1    0.09    0.17
   0  24   1    0.64    0.21
   0  24  -1    1.02    0.18
   1  24   1   14.82    0.71
  -1  24  -1   15.56    0.60
  -2  24  -1    0.14    0.13
   2  24   1   -0.10    0.19
   3  24   1   19.59    0.91
  -3  24  -1   19.17    0.75
   3  25  -1    1.19    0.27
  -3  25   1    1.04    0.25
  -2  25   1    3.23    0.33
   2  25  -1    3.18    0.34
   1  25  -1    1.53    0.23
  -1  25   1    1.37    0.25
   0  25  -1    3.40    0.29
   0  25   1    3.24    0.35
   1  25   1    0.18    0.19
  -1  25  -1    0.40    0.15
   2  25   1   19.21    0.89
  -2  25  -1   19.57    0.73
   3  25   1    0.09    0.22
  -3  25  -1    0.01    0.14
  -2  26   1    6.65    0.44
   2  26  -1    6.56    0.44
   1  26  -1    0.27    0.16
  -1  26   1    0.10    0.17
   0  26  -1   10.77    0.51
   0  26   1   10.68    0.58
  -1  26  -1    6.68    0.37
   1  26   1    7.37    0.48
   2  26   1    0.65    0.24
  -2  26  -1    0.62    0.16
   1  27  -1   11.56    0.55
  -1  27   1    9.95    0.55
   0  27  -1    0.17    0.15
   0  27   1    0.26    0.19
  -1  27  -1    3.88    0.29
   1  27   1    3.39    0.38
  -7   0   2    0.45    0.27
   7   0  -2    0.29    0.21
   6   0  -2    2.20    0.32
  -6   0   2    2.41    0.34
   6   0  -2    2.72    0.34
   5   0  -2    0.12    0.15
   5   0  -2    0.02    0.15
  -5   0   2   -0.10    0.16
   4   0  -2   60.72    1.91
   4   0  -2   58.96    2.04
  -4   0   2   60.47    1.92
   3   0  -2    0.23    0.11
   3   0  -2    0.01    0.10
  -3   0   2    0.27    0.12
  -2   0   2  276.65    8.20
   2   0  -2  288.57    8.82
   1   0  -2    0.52    0.09
  -1   0   2   -0.25    0.06
   1   0  -2   -0.15    0.06
  -1   0   2    0.00    0.07
   0   0  -2  139.30    3.93
   0   0  -2  132.72    4.20
   0   0   2  119.68    4.19
   0   0  -2  144.21    3.92
   0   0   2  135.84    3.92
   1   0   2   -0.09    0.07
  -1   0  -2    0.10    0.08
  -1   0  -2   -0.02    0.07
   1   0   2   -0.17    0.05
  -2   0  -2   24.65    0.89
   2   0   2   23.69    0.88
   2   0   2   23.64    0.86
  -2   0  -2   25.29    0.83
   2   0   2   24.18    0.81
   3   0   2    0.09    0.10
  -3   0  -2    0.19    0.12
   3   0   2    0.14    0.12
  -3   0  -2    0.34    0.14
   4   0   2  143.48    4.67
   4   0   2  148.01    4.37
  -4   0  -2  144.33    4.73
  -4   0  -2  146.98    4.40
   5   0   2   -0.01    0.14
  -5   0  -2    0.07    0.18
   5   0   2   -0.02    0.16
  -5   0  -2    0.66    0.22
  -6   0  -2   38.49    1.48
   6   0   2   41.36    1.52
   7   0   2   -0.13    0.16
  -7   0  -2   -0.19    0.21
  -7  -1   2    6.07    0.51
   7  -1  -2    6.20    0.48
   7   1  -2    6.74    0.51
   6  -1  -2    7.92    0.49
  -6  -1   2    6.79    0.48
   6   1  -2    7.39    0.49
  -6   1   2    7.20    0.49
   6   1  -2    6.35    0.47
   5  -1  -2    4.21    0.36
   5  -1  -2    4.55    0.36
  -5  -1   2    4.44    0.37
   5   1  -2    3.95    0.34
  -5   1   2    3.89    0.35
   5   1  -2    4.38    0.36
   4  -1  -2   30.44    1.17
  -4  -1   2   29.94    1.10
   4  -1  -2   33.24    1.11
   4   1  -2   31.46    1.18
   4   1  -2   32.53    1.10
  -4   1   2   32.78    1.12
  -3  -1   2  365.39   10.63
   3  -1  -2  363.64   10.63
   3  -1  -2  363.51   11.43
   3   1  -2  375.45   11.44
   3   1  -2  374.28   10.63
  -3   1   2  355.49   10.63
   2  -1  -2    1.08    0.13
  -2  -1   2    1.00    0.13
   2  -1  -2    1.13    0.14
   2   1  -2    0.94    0.13
  -2   1   2    0.62    0.12
   2   1  -2    0.72    0.12
   1  -1  -2  523.61   16.17
   1  -1  -2  518.56   14.98
  -1  -1   2  516.62   16.12
  -1  -1   2  520.53   14.96
   1   1  -2  521.86   14.95
  -1   1   2  518.34   14.99
   1   1  -2  487.69   15.00
   1   1  -2  513.62   16.12
   0  -1  -2  163.69    5.21
   0  -1   2  166.71    4.83
   0  -1  -2  169.42    4.85
   0  -1  -2  165.68    4.86
   0   1   2  164.49    4.85
   0   1  -2  169.74    5.24
   0   1  -2  160.57    4.82
   0   1   2  173.85    5.21
   0   1  -2  164.64    4.84
   1  -1   2    0.62    0.09
  -1  -1  -2    0.49    0.11
  -1  -1  -2    0.78    0.12
  -1   1  -2    0.70    0.09
  -1   1  -2    0.78    0.12
  -1   1  -2    0.68    0.11
   1   1   2    0.61    0.10
   1   1   2    0.61    0.12
  -2  -1  -2  216.61    6.54
   2  -1   2  222.25    7.02
  -2  -1  -2  225.10    7.04
   2  -1   2  232.10    6.51
   2  -1   2  228.91    6.99
  -2   1  -2  217.81    6.53
  -2   1  -2  221.99    7.03
   2   1   2  216.98    7.01
   2   1   2  234.38    6.53
  -3  -1  -2  162.97    5.33
   3  -1   2  161.91    4.91
   3  -1   2  168.60    5.30
   3  -1   2  165.71    5.28
  -3  -1  -2  166.45    4.95
   3   1   2  174.65    5.30
  -3   1  -2  166.43    5.32
   3   1   2  171.02    4.94
  -3   1  -2  164.56    4.94
   4  -1   2    4.29    0.30
  -4  -1  -2    3.91    0.34
   4  -1   2    3.72    0.30
  -4  -1  -2    4.11    0.35
   4   1   2    3.43    0.30
  -4   1  -2    3.84    0.32
  -4   1  -2    3.90    0.34
   4   1   2    3.91    0.31
   5  -1   2   45.59    1.60
  -5  -1  -2   43.78    1.56
  -5  -1  -2   44.32    1.69
  -5   1  -2   45.19    1.56
   5   1   2   42.49    1.61
   5   1   2   47.61    1.55
  -5   1  -2   44.78    1.68
  -6  -1  -2    1.94    0.33
   6  -1   2    2.39    0.31
   6   1   2    2.01    0.30
  -6   1  -2    2.00    0.33
  -7  -1  -2    2.86    0.41
   7  -1   2    2.55    0.33
   7   1   2    2.52    0.36
  -7   1  -2    2.43    0.38
   7  -2  -2   16.10    0.81
  -7  -2   2   17.36    0.84
   7   2  -2   15.81    0.84
  -7   2   2   16.39    0.82
   6  -2  -2    1.07    0.25
  -6  -2   2    1.43    0.29
   6   2  -2    1.02    0.26
  -6   2   2    0.98    0.26
   6   2  -2    1.28    0.27
   5  -2  -2   78.38    2.74
  -5  -2   2   81.38    2.59
  -5   2   2   84.43    2.59
   5   2  -2   80.72    2.57
   5   2  -2   81.20    2.76
   4  -2  -2   40.62    1.45
  -4  -2   2   40.97    1.37
  -4   2   2   39.34    1.37
   4   2  -2   42.69    1.38
   4   2  -2   40.45    1.46
   3  -2  -2   46.12    1.46
  -3  -2   2   46.50    1.46
   3  -2  -2   46.38    1.56
   3   2  -2   45.34    1.46
   3   2  -2   45.32    1.56
  -3   2   2   44.27    1.46
  -2  -2   2  108.63    3.23
   2  -2  -2  109.87    3.24
   2  -2  -2  109.02    3.48
   2   2  -2  110.94    3.48
  -2   2   2  112.74    3.25
   2   2  -2  104.76    3.23
  -1  -2   2   69.72    2.10
   1  -2  -2   65.99    1.98
  -1  -2   2   65.80    1.96
   1  -2  -2   59.66    2.11
   1   2  -2   66.12    1.96
   1   2  -2   64.75    1.95
   1   2  -2   70.21    2.10
  -1   2   2   65.77    1.97
   0  -2  -2  227.24    6.51
   0  -2  -2  222.42    6.99
   0  -2   2  231.69    7.01
   0   2  -2  218.59    7.03
   0   2   2  215.55    6.50
   0   2  -2  227.49    6.57
   0   2  -2  225.20    6.47
   1  -2   2  169.12    5.28
   1  -2   2  194.17    5.69
   1  -2   2  184.15    5.67
  -1  -2  -2  186.07    5.75
  -1  -2  -2  185.83    5.35
  -1   2  -2  180.46    5.29
  -1   2  -2  181.51    5.71
  -1   2  -2  179.88    5.31
   1   2   2  183.55    5.33
  -2  -2  -2    1.72    0.20
  -2  -2  -2    1.84    0.19
   2  -2   2    1.33    0.13
   2  -2   2    1.55    0.14
   2   2   2    1.44    0.16
   2   2   2    1.13    0.16
  -2   2  -2    1.33    0.15
  -2   2  -2    1.33    0.14
  -2   2  -2    1.40    0.16
   3  -2   2  156.26    4.82
  -3  -2  -2  161.84    4.88
   3  -2   2  152.15    4.78
   3  -2   2  149.65    4.46
  -3  -2  -2  143.37    4.51
  -3   2  -2  145.92    4.49
  -3   2  -2  149.43    4.83
   3   2   2  147.30    4.82
   3   2   2  156.66    4.51
  -4  -2  -2   27.74    1.03
   4  -2   2   29.35    0.99
  -4  -2  -2   27.58    1.11
   4  -2   2   27.37    1.02
   4   2   2   29.18    1.02
   4   2   2   27.77    1.07
  -4   2  -2   27.01    1.00
  -4   2  -2   28.11    1.09
  -5  -2  -2    0.17    0.19
  -5  -2  -2    0.45    0.21
   5  -2   2    0.10    0.14
   5   2   2    0.15    0.16
  -5   2  -2    0.02    0.18
   5   2   2    0.22    0.18
  -5   2  -2    1.28    0.26
   6  -2   2    2.31    0.29
  -6  -2  -2    2.50    0.37
   6   2   2    2.52    0.34
  -6   2  -2    2.46    0.35
   7  -2   2    3.24    0.36
  -7  -2  -2    3.00    0.42
   7   2   2    4.03    0.43
  -7   2  -2    3.62    0.45
  -7  -3   2   -0.18    0.22
   7  -3  -2    0.19    0.19
   7   3  -2    0.12    0.22
  -7   3   2    0.20    0.24
   7   3  -2    0.15    0.24
  -6  -3   2   46.26    1.63
   6  -3  -2   44.81    1.68
  -6   3   2   44.95    1.63
   6   3  -2   44.05    1.72
   6   3  -2   49.27    1.64
   5  -3  -2    0.52    0.18
   5  -3  -2    0.55    0.19
  -5  -3   2    0.40    0.18
   5   3  -2    0.66    0.20
  -5   3   2    0.54    0.20
   5   3  -2    0.61    0.20
  -4  -3   2  132.89    4.06
   4  -3  -2  133.87    4.05
   4  -3  -2  134.65    4.34
  -4   3   2  137.97    4.07
   4   3  -2  136.64    4.06
   4   3  -2  132.31    4.35
   3  -3  -2    4.23    0.28
   3  -3  -2    4.32    0.27
  -3  -3   2    4.36    0.28
   3   3  -2    4.08    0.27
   3   3  -2    4.04    0.27
  -3   3   2    4.51    0.28
   2  -3  -2   15.73    0.55
  -2  -3   2   14.85    0.54
   2  -3  -2   14.69    0.57
   2   3  -2   13.88    0.57
  -2   3   2   15.25    0.55
   2   3  -2   15.30    0.54
   1  -3  -2    0.43    0.09
  -1  -3   2    0.87    0.09
   1  -3  -2    0.54    0.09
  -1   3   2    0.47    0.09
   1   3  -2    0.43    0.08
   1   3  -2    0.37    0.07
   1   3  -2    0.85    0.09
   0  -3  -2  586.55   17.57
   0  -3  -2  589.48   19.01
   0  -3   2  610.93   17.41
   0   3  -2  605.16   17.49
   0   3   2  614.89   17.51
   0   3  -2  597.66   17.49
   0   3  -2  610.17   18.76
  -1  -3  -2  119.21    3.75
   1  -3   2  114.86    3.66
  -1  -3  -2  116.04    3.49
  -1   3  -2  117.73    3.70
  -1   3  -2  120.65    3.43
   1   3   2  120.11    3.48
  -1   3  -2  113.71    3.44
   2  -3   2  308.58    9.55
   2  -3   2  311.02    8.85
  -2  -3  -2  295.83    8.91
  -2  -3  -2  308.55    9.59
   2  -3   2  301.76    9.53
  -2   3  -2  313.29    9.55
  -2   3  -2  305.74    8.86
   2   3   2  309.37    8.90
  -2   3  -2  301.86    8.87
   3  -3   2    1.42    0.16
  -3  -3  -2    1.57    0.21
   3  -3   2    2.10    0.18
  -3  -3  -2    1.66    0.23
   3   3   2    1.62    0.21
  -3   3  -2    1.61    0.19
  -3   3  -2    1.64    0.20
   3   3   2    1.58    0.20
   4  -3   2   17.26    0.66
   4  -3   2   17.31    0.68
  -4  -3  -2   17.23    0.72
  -4  -3  -2   16.46    0.77
  -4   3  -2   16.77    0.69
  -4   3  -2   17.02    0.74
   4   3   2   17.26    0.74
   4   3   2   16.24    0.70
   5  -3   2    1.72    0.23
  -5  -3  -2    1.64    0.29
  -5  -3  -2    1.54    0.28
  -5   3  -2    1.68    0.28
  -5   3  -2    1.55    0.26
   5   3   2    1.91    0.28
   5   3   2    1.92    0.28
   6  -3   2   12.76    0.63
  -6  -3  -2   13.78    0.72
   6   3   2   13.60    0.71
  -6   3  -2   13.67    0.70
  -7  -3  -2    0.27    0.26
   7  -3   2    0.08    0.17
  -7   3  -2    0.37    0.24
   7   3   2    0.05    0.20
   7  -4  -2   11.07    0.66
  -7  -4   2   13.80    0.73
   7   4  -2   13.14    0.71
   7   4  -2   12.21    0.72
  -7   4   2   12.12    0.70
  -6  -4   2    0.21    0.20
   6  -4  -2    0.38    0.19
   6   4  -2    0.24    0.19
  -6   4   2    0.18    0.20
   6   4  -2    0.46    0.23
   5  -4  -2   70.85    2.25
   5  -4  -2   71.76    2.39
  -5  -4   2   68.96    2.26
   5   4  -2   71.68    2.26
  -5   4   2   70.81    2.26
   5   4  -2   63.91    2.40
   4  -4  -2   14.61    0.65
  -4  -4   2   15.61    0.65
   4  -4  -2   15.34    0.63
   4   4  -2   17.60    0.70
  -4   4   2   14.57    0.63
   4   4  -2   14.65    0.64
   3  -4  -2   26.63    0.98
  -3  -4   2   27.04    0.93
   3  -4  -2   26.32    0.92
   3   4  -2   27.49    0.94
  -3   4   2   28.46    0.94
   3   4  -2   27.15    0.99
  -2  -4   2   26.55    0.94
  -2  -4   2   26.63    0.89
   2  -4  -2   27.32    0.90
   2  -4  -2   26.48    0.96
  -2   4   2   27.20    0.90
   2   4  -2   29.57    0.96
   2   4  -2   26.67    0.89
   1  -4  -2   53.70    1.77
   1  -4  -2   55.35    1.65
  -1  -4   2   54.08    1.62
   1   4  -2   54.95    1.62
   1   4  -2   52.09    1.73
   1   4  -2   54.58    1.62
  -1   4   2   55.00    1.65
   0  -4  -2  158.60    5.09
   0  -4  -2  161.04    4.73
   0   4  -2  158.64    4.67
   0   4  -2  166.04    4.72
   0   4  -2  159.05    5.05
   0   4   2  164.94    4.74
  -1  -4  -2  207.19    6.35
  -1  -4  -2  197.24    5.90
   1  -4   2  203.01    5.80
  -1   4  -2  205.96    5.82
  -1   4  -2  201.18    5.84
   1   4   2  205.49    5.89
  -1   4  -2  191.98    6.29
  -2  -4  -2    5.26    0.32
   2  -4   2    5.09    0.21
  -2  -4  -2    5.24    0.30
   2  -4   2    4.59    0.23
  -2   4  -2    4.78    0.27
   2   4   2    4.61    0.29
  -2   4  -2    5.05    0.25
  -2   4  -2    4.46    0.25
   3  -4   2   68.70    2.21
  -3  -4  -2   66.95    2.15
   3  -4   2   67.95    2.24
  -3  -4  -2   69.57    2.33
   3  -4   2   70.46    2.08
   3   4   2   66.59    2.14
  -3   4  -2   69.45    2.27
   3   4   2   69.74    2.30
  -3   4  -2   66.97    2.11
   4  -4   2   12.00    0.53
  -4  -4  -2   13.09    0.65
  -4  -4  -2   13.36    0.61
   4  -4   2   12.88    0.53
   4   4   2   12.44    0.58
  -4   4  -2   13.23    0.61
  -4   4  -2   13.10    0.57
   4   4   2   12.98    0.61
  -5  -4  -2    2.22    0.31
   5  -4   2    2.21    0.25
  -5  -4  -2    2.52    0.36
  -5   4  -2    1.90    0.28
   5   4   2    1.69    0.28
   5   4   2    1.83    0.28
  -6  -4  -2    4.21    0.45
   6  -4   2    3.83    0.32
   6   4   2    3.36    0.39
  -6   4  -2    3.76    0.39
   7  -4   2    7.91    0.47
  -7  -4  -2    7.84    0.59
   7   4   2    7.58    0.55
  -7   4  -2    7.85    0.56
   7  -5  -2    5.53    0.44
  -7  -5   2    5.67    0.50
   7   5  -2    6.64    0.51
   7   5  -2    5.38    0.49
  -7   5   2    6.69    0.52
  -6  -5   2   11.19    0.61
   6  -5  -2    9.94    0.57
   6   5  -2   10.68    0.60
  -6   5   2    9.70    0.58
   6   5  -2   10.16    0.61
  -5  -5   2    3.11    0.33
   5  -5  -2    2.42    0.29
   5  -5  -2    3.04    0.31
  -5   5   2    2.70    0.31
   5   5  -2    3.55    0.35
   5   5  -2    2.94    0.32
   4  -5  -2   20.33    0.77
   4  -5  -2   21.13    0.82
  -4  -5   2   20.27    0.79
   4   5  -2   21.23    0.84
  -4   5   2   20.41    0.79
   4   5  -2   18.36    0.78
   3  -5  -2  136.92    4.02
  -3  -5   2  129.46    4.01
   3  -5  -2  134.99    4.31
   3   5  -2  139.14    4.33
  -3   5   2  138.40    4.03
   3   5  -2  131.80    4.02
   2  -5  -2   18.59    0.70
   2  -5  -2   18.66    0.66
  -2  -5   2   19.07    0.64
  -2  -5   2   19.46    0.68
   2   5  -2   17.90    0.65
  -2   5   2   18.37    0.66
   2   5  -2   18.72    0.69
   1  -5  -2  209.83    5.97
   1  -5  -2  201.19    6.41
   1   5  -2  204.10    5.93
   1   5  -2  195.51    5.96
  -1   5   2  208.79    5.97
   1   5  -2  209.25    6.37
   0  -5  -2   87.38    2.88
   0  -5  -2   87.33    2.68
   0   5   2   91.07    2.69
   0   5  -2   92.01    2.60
  -1  -5  -2  101.70    3.30
  -1  -5  -2  102.36    3.06
   1   5   2  100.68    3.06
  -1   5  -2  105.99    2.97
  -1   5  -2  100.97    2.99
  -1   5  -2  102.39    3.19
  -2  -5  -2  143.29    4.50
   2  -5   2  140.25    4.08
  -2  -5  -2  138.56    4.18
  -2   5  -2  138.29    4.11
  -2   5  -2  140.02    4.42
  -2   5  -2  140.09    4.10
   2   5   2  142.27    4.18
   3  -5   2   69.58    2.28
   3  -5   2   70.05    2.26
  -3  -5  -2   73.94    2.24
  -3  -5  -2   70.29    2.40
   3   5   2   69.69    2.22
   3   5   2   69.93    2.37
  -3   5  -2   71.24    2.17
  -3   5  -2   70.34    2.17
  -3   5  -2   72.43    2.34
  -4  -5  -2    0.42    0.18
   4  -5   2    0.36    0.12
  -4  -5  -2    0.60    0.20
   4   5   2    0.11    0.16
  -4   5  -2    0.25    0.15
  -4   5  -2    0.35    0.17
   4   5   2    0.51    0.18
  -5  -5  -2   52.74    1.92
   5  -5   2   51.67    1.74
  -5  -5  -2   52.23    1.78
  -5   5  -2   50.94    1.72
   5   5   2   47.72    1.84
   5   5   2   51.00    1.75
  -6  -5  -2    0.51    0.26
   6  -5   2    0.71    0.17
   6   5   2    0.71    0.25
  -6   5  -2    0.85    0.25
  -7  -5  -2    3.01    0.43
   7  -5   2    2.12    0.27
   7   5   2    2.42    0.37
  -7   5  -2    2.13    0.36
   7  -6  -2    0.13    0.18
  -7  -6   2   -0.05    0.22
  -7   6   2    0.20    0.23
   7   6  -2    0.31    0.24
   7   6  -2    0.20    0.22
  -6  -6   2   -0.07    0.20
   6  -6  -2   -0.23    0.14
  -6   6   2   -0.10    0.19
   6   6  -2   -0.19    0.18
   6   6  -2   -0.15    0.17
   5  -6  -2    0.53    0.18
  -5  -6   2    0.85    0.22
   5  -6  -2    0.41    0.17
  -5   6   2    0.38    0.19
   5   6  -2    0.25    0.18
   5   6  -2    0.18    0.17
   4  -6  -2   62.46    1.97
   4  -6  -2   66.10    2.11
  -4  -6   2   58.25    1.98
  -4   6   2   61.51    1.98
   4   6  -2   63.23    2.00
   4   6  -2   61.17    2.13
   3  -6  -2    1.42    0.18
   3  -6  -2    1.50    0.18
  -3  -6   2    1.24    0.17
   3   6  -2    1.10    0.18
  -3   6   2    1.36    0.18
   3   6  -2    1.42    0.18
  -2  -6   2  219.93    6.39
   2  -6  -2  211.01    6.89
   2  -6  -2  216.87    6.41
   2   6  -2  234.67    6.89
   2   6  -2  217.94    6.40
  -2   6   2  217.19    6.41
   1  -6  -2   33.00    1.09
   1  -6  -2   34.86    1.18
   1   6  -2   31.90    1.05
   1   6  -2   35.51    1.05
  -1   6   2   32.64    1.09
   1   6  -2   37.09    1.12
   0  -6  -2   17.50    0.68
   0  -6  -2   19.84    0.65
   0   6   2   16.58    0.64
  -1  -6  -2    0.54    0.14
  -1  -6  -2    0.57    0.14
  -1   6  -2    1.02    0.09
  -1   6  -2    0.83    0.08
   1   6   2    0.62    0.14
  -2  -6  -2    7.49    0.41
  -2  -6  -2    7.44    0.38
  -2   6  -2    8.12    0.32
   2   6   2    7.45    0.38
  -2   6  -2    7.29    0.33
  -2   6  -2    7.58    0.32
   3  -6   2    2.82    0.17
   3  -6   2    3.34    0.20
  -3  -6  -2    2.92    0.30
  -3  -6  -2    3.29    0.29
  -3   6  -2    2.67    0.22
  -3   6  -2    3.03    0.24
   3   6   2    2.93    0.29
  -3   6  -2    2.80    0.24
   3   6   2    2.63    0.26
  -4  -6  -2  100.29    3.23
   4  -6   2  100.72    3.29
  -4  -6  -2  103.03    3.48
   4  -6   2  102.67    3.33
   4   6   2  110.52    3.24
  -4   6  -2  104.18    3.41
   4   6   2  102.72    3.45
  -4   6  -2  106.93    3.17
  -5  -6  -2    1.29    0.29
   5  -6   2    0.88    0.16
  -5  -6  -2    0.84    0.25
   5   6   2    1.31    0.27
  -5   6  -2    1.04    0.23
   5   6   2    1.21    0.25
  -6  -6  -2   14.84    0.77
   6  -6   2   13.78    0.61
  -6   6  -2   14.93    0.72
   6   6   2   13.49    0.76
   6   6   2   15.74    0.77
   7  -6   2    0.03    0.13
  -7  -6  -2    0.65    0.29
  -7   6  -2   -0.06    0.23
   7   6   2    0.31    0.23
   7  -7  -2    5.34    0.42
  -7   7   2    4.50    0.47
   7   7  -2    5.25    0.48
   7   7  -2    4.69    0.49
  -6  -7   2    8.48    0.55
   6  -7  -2    8.74    0.51
  -6   7   2    8.91    0.55
   6   7  -2    8.35    0.56
   6   7  -2    9.37    0.57
   5  -7  -2    3.80    0.33
  -5  -7   2    4.33    0.40
   5   7  -2    4.91    0.38
   5   7  -2    4.05    0.37
  -5   7   2    4.18    0.36
  -4  -7   2    4.35    0.34
   4  -7  -2    5.54    0.34
   4  -7  -2    4.93    0.33
   4   7  -2    4.82    0.35
   4   7  -2    5.01    0.36
  -4   7   2    4.81    0.34
  -3  -7   2  183.24    5.33
   3  -7  -2  183.07    5.33
   3  -7  -2  183.01    5.72
   3   7  -2  179.03    5.34
   3   7  -2  180.39    5.74
  -3   7   2  176.33    5.34
   2  -7  -2    0.08    0.09
  -2  -7   2    0.21    0.09
   2  -7  -2    0.15    0.10
   2   7  -2    0.01    0.09
  -2   7   2    0.59    0.12
   2   7  -2    0.15    0.09
  -1  -7   2  105.73    3.15
   1  -7  -2  111.35    3.47
   1  -7  -2  107.05    3.22
   1   7  -2  110.19    3.40
   1   7  -2  105.57    3.17
  -1   7   2  110.56    3.22
   1   7  -2  107.24    3.16
   0  -7  -2   51.13    1.79
   0  -7  -2   53.35    1.67
   0   7   2   56.93    1.69
  -1  -7  -2    4.52    0.30
  -1  -7  -2    4.19    0.30
   1   7   2    5.33    0.31
  -2  -7  -2  215.34    6.46
  -2  -7  -2  214.13    6.95
  -2   7  -2  220.27    6.36
  -2   7  -2  221.11    6.84
  -2   7  -2  220.42    6.37
   2   7   2  225.80    6.46
  -3  -7  -2  127.69    4.22
  -3  -7  -2  132.36    3.93
   3   7   2  126.02    3.91
  -3   7  -2  133.46    3.84
  -3   7  -2  131.41    4.13
  -3   7  -2  124.96    3.83
  -4  -7  -2    0.12    0.17
  -4  -7  -2    0.10    0.17
   4  -7   2    0.06    0.08
  -4   7  -2   -0.02    0.13
   4   7   2    0.31    0.19
   4   7   2    0.06    0.16
  -5  -7  -2   40.40    1.59
  -5  -7  -2   41.84    1.49
   5  -7   2   39.96    1.35
   5   7   2   38.19    1.55
  -5   7  -2   41.10    1.41
   5   7   2   41.84    1.47
  -6  -7  -2    1.55    0.33
   6  -7   2    1.68    0.19
   6   7   2    1.82    0.33
  -6   7  -2    1.79    0.30
   6   7   2    1.40    0.30
  -7  -7  -2    1.63    0.37
   7   7   2    2.31    0.38
  -7   7  -2    1.65    0.33
   7  -8  -2    6.86    0.47
   7   8  -2    7.63    0.57
  -7   8   2    6.57    0.53
   7   8  -2    6.79    0.55
   6  -8  -2    0.33    0.18
  -6  -8   2    0.05    0.22
  -6   8   2    0.02    0.20
   6   8  -2    0.00    0.21
   6   8  -2   -0.19    0.20
   5  -8  -2   71.58    2.37
  -5  -8   2   71.09    2.27
   5   8  -2   67.96    2.27
  -5   8   2   67.10    2.25
   5   8  -2   69.09    2.43
  -4  -8   2   17.65    0.75
   4  -8  -2   20.55    0.78
   4  -8  -2   19.42    0.74
   4   8  -2   18.56    0.77
   4   8  -2   18.55    0.81
  -4   8   2   19.89    0.76
   3  -8  -2   15.44    0.61
  -3  -8   2   16.55    0.61
   3  -8  -2   15.54    0.64
   3   8  -2   15.88    0.62
  -3   8   2   15.87    0.62
   3   8  -2   15.28    0.65
   2  -8  -2  115.11    3.72
   2  -8  -2  118.17    3.47
  -2  -8   2  115.55    3.44
   2   8  -2  115.50    3.45
  -2   8   2  115.21    3.47
   2   8  -2  120.79    3.71
   2   8  -2  114.56    3.45
   1  -8  -2   68.46    2.16
  -1  -8   2   70.62    2.08
   1  -8  -2   72.49    2.33
  -1   8   2   69.59    2.16
   1   8  -2   68.01    2.10
   1   8  -2   72.12    2.26
   1   8  -2   75.80    2.11
   0  -8  -2   73.50    2.30
   0  -8  -2   67.55    2.14
   0   8   2   69.24    2.16
  -1  -8  -2  223.64    6.43
  -1  -8  -2  213.95    6.91
   1   8   2  220.47    6.44
  -2  -8  -2    4.78    0.33
  -2  -8  -2    4.86    0.32
  -2   8  -2    4.86    0.24
  -2   8  -2    4.48    0.23
  -2   8  -2    4.87    0.23
   2   8   2    4.64    0.31
  -3  -8  -2   35.70    1.38
  -3  -8  -2   36.80    1.29
  -3   8  -2   37.83    1.19
   3   8   2   37.74    1.29
  -3   8  -2   37.23    1.19
  -3   8  -2   37.18    1.28
  -4  -8  -2   15.08    0.76
  -4  -8  -2   16.03    0.72
   4   8   2   15.32    0.70
   4   8   2   16.44    0.75
  -4   8  -2   15.75    0.64
  -5  -8  -2    0.13    0.20
  -5  -8  -2   -0.12    0.18
   5   8   2    0.16    0.20
   5   8   2    0.12    0.20
  -5   8  -2   -0.15    0.15
  -6  -8  -2    5.01    0.51
   6   8   2    4.96    0.46
   6   8   2    5.40    0.48
  -6   8  -2    5.82    0.43
  -7  -8  -2    4.25    0.50
  -7   8  -2    3.38    0.41
   7   8   2    4.14    0.48
   7  -9  -2    0.11    0.16
   7   9  -2    0.33    0.25
   7   9  -2    0.10    0.23
  -7   9   2    0.44    0.25
   6  -9  -2   28.86    1.11
   6   9  -2   26.73    1.20
  -6   9   2   27.26    1.11
   6   9  -2   29.45    1.15
  -5  -9   2    0.53    0.21
   5  -9  -2    0.43    0.16
  -5   9   2    0.52    0.20
   5   9  -2    0.21    0.20
   5   9  -2    0.12    0.18
  -4  -9   2  106.32    3.38
   4  -9  -2  112.50    3.37
   4  -9  -2  113.71    3.59
   4   9  -2  107.27    3.40
  -4   9   2  111.27    3.38
   4   9  -2  112.61    3.65
  -3  -9   2    0.67    0.14
   3  -9  -2    0.44    0.12
   3  -9  -2    0.64    0.14
   3   9  -2    0.65    0.15
  -3   9   2    0.63    0.15
   3   9  -2    0.33    0.13
  -2  -9   2    1.77    0.16
   2  -9  -2    2.01    0.20
   2  -9  -2    1.88    0.19
   2   9  -2    1.97    0.19
  -2   9   2    1.57    0.18
   2   9  -2    1.61    0.16
   2   9  -2    1.76    0.18
   1  -9  -2   24.34    0.84
   1  -9  -2   25.42    0.88
   1   9  -2   23.36    0.77
   1   9  -2   23.65    0.77
  -1   9   2   23.75    0.83
   0  -9  -2  343.83   10.18
   0  -9  -2  364.94   10.94
   0   9   2  342.76   10.19
  -1  -9  -2    0.17    0.12
  -1  -9  -2    0.36    0.13
   1   9   2    0.35    0.14
  -2  -9  -2  196.37    6.28
  -2  -9  -2  222.39    6.77
  -2   9  -2  214.51    6.17
   2   9   2  212.03    6.29
  -2   9  -2  219.16    6.17
  -3  -9  -2    2.58    0.29
  -3  -9  -2    2.76    0.31
  -3   9  -2    3.04    0.23
   3   9   2    2.92    0.30
  -4  -9  -2   16.87    0.81
  -4  -9  -2   16.18    0.75
   4   9   2   16.70    0.75
   4   9   2   17.23    0.79
  -4   9  -2   17.37    0.67
  -5  -9  -2    0.28    0.21
   5   9   2    0.21    0.21
  -5   9  -2    0.31    0.18
   5   9   2    0.35    0.21
  -6  -9  -2    8.75    0.59
   6   9   2    7.81    0.57
   6   9   2    7.28    0.55
  -6   9  -2    7.36    0.49
   7 -10  -2   10.27    0.56
   7  10  -2   10.70    0.70
   7  10  -2   10.68    0.67
  -7  10   2   10.27    0.64
   6 -10  -2    1.35    0.23
   6  10  -2    1.83    0.33
   6  10  -2    2.02    0.33
  -6  10   2    1.37    0.29
   5 -10  -2   49.51    1.79
  -5 -10   2   53.03    1.77
  -5  10   2   51.20    1.74
   5  10  -2   50.63    1.77
   5  10  -2   54.07    1.90
  -4 -10   2    7.76    0.43
   4 -10  -2    6.95    0.39
   4  10  -2    7.07    0.43
  -4  10   2    7.39    0.42
   4  10  -2    7.23    0.46
  -3 -10   2   47.96    1.54
   3 -10  -2   46.69    1.54
   3 -10  -2   45.68    1.63
   3  10  -2   47.45    1.56
  -3  10   2   46.01    1.55
   3  10  -2   55.04    1.69
   2 -10  -2   60.09    1.93
   2 -10  -2   64.17    2.06
   2  10  -2   60.79    1.91
  -2  10   2   60.05    1.93
   2  10  -2   66.51    2.06
   2  10  -2   62.09    1.91
   1 -10  -2   49.63    1.56
   1 -10  -2   49.57    1.65
   1  10  -2   50.28    1.50
  -1  10   2   49.48    1.57
   1  10  -2   47.84    1.49
   0 -10  -2   26.53    0.94
   0 -10  -2   23.97    0.88
   0  10   2   26.50    0.92
  -1 -10  -2  312.76    9.61
  -1 -10  -2  304.48    8.94
   1  10   2  302.02    8.96
  -2 -10  -2    0.34    0.14
  -2 -10  -2    0.72    0.17
  -2  10  -2    0.45    0.09
  -2  10  -2    0.44    0.08
   2  10   2    0.58    0.17
  -3 -10  -2  108.05    3.20
  -3 -10  -2  102.86    3.42
   3  10   2   99.48    3.18
  -3  10  -2  100.67    3.06
  -4 -10  -2    7.61    0.50
  -4 -10  -2    7.58    0.48
  -4  10  -2    7.77    0.40
   4  10   2    7.61    0.48
   4  10   2    7.58    0.49
  -5 -10  -2   -0.11    0.20
   5  10   2   -0.14    0.18
  -5  10  -2    0.12    0.16
   5  10   2   -0.05    0.18
  -6 -10  -2    0.58    0.27
   6  10   2    1.20    0.31
   6  10   2    0.65    0.27
  -6  10  -2    0.67    0.23
   7 -11  -2    4.50    0.35
   7  11  -2    5.22    0.53
   7  11  -2    5.25    0.49
  -7  11   2    4.49    0.48
   6 -11  -2   12.24    0.59
   6  11  -2   12.11    0.68
   6  11  -2   11.63    0.71
  -6  11   2   13.29    0.67
   5 -11  -2    7.28    0.41
   5  11  -2    7.06    0.48
   5  11  -2    7.16    0.51
  -5  11   2    7.72    0.46
  -4 -11   2   14.57    0.63
   4 -11  -2   14.40    0.60
   4  11  -2   13.21    0.67
  -4  11   2   14.66    0.63
   4  11  -2   14.04    0.64
   3 -11  -2   55.04    1.83
   3 -11  -2   52.92    1.75
   3 -11  -2   56.96    1.86
  -3 -11   2   53.60    1.74
   3  11  -2   57.19    1.90
  -3  11   2   55.97    1.77
   3  11  -2   56.45    1.78
  -2 -11   2   -0.02    0.04
   2 -11  -2    0.10    0.09
   2 -11  -2    1.01    0.16
   2  11  -2   -0.09    0.09
   2  11  -2   -0.12    0.08
   2  11  -2    0.17    0.10
  -2  11   2    0.06    0.11
   1 -11  -2  103.23    3.26
   1 -11  -2   98.79    3.05
   1  11  -2  100.81    2.99
   1  11  -2  101.32    2.99
  -1  11   2  103.79    3.08
   0 -11  -2  139.21    4.25
   0 -11  -2  130.52    3.96
   0  11   2  129.72    3.99
  -1 -11  -2    0.90    0.16
  -1 -11  -2    0.21    0.12
   1  11   2    0.06    0.13
  -2 -11  -2   76.91    2.48
  -2 -11  -2   81.79    2.68
   2  11   2   80.84    2.51
  -2  11  -2   80.21    2.35
  -2  11  -2   79.05    2.35
  -3 -11  -2   45.06    1.48
  -3 -11  -2   41.35    1.55
   3  11   2   41.97    1.47
  -3  11  -2   40.49    1.33
  -4 -11  -2    2.56    0.33
  -4 -11  -2    3.67    0.39
  -4  11  -2    3.61    0.28
   4  11   2    3.27    0.36
   4  11   2    2.91    0.36
  -5 -11  -2   30.88    1.21
  -5  11  -2   30.02    1.09
   5  11   2   29.28    1.27
   5  11   2   29.31    1.19
  -6 -11  -2    2.06    0.37
  -6  11  -2    1.73    0.29
   6  11   2    1.92    0.36
   6  11   2    2.28    0.36
   7 -12  -2    0.24    0.15
   7  12  -2    0.58    0.27
   7  12  -2   -0.05    0.24
  -7  12   2    0.44    0.26
   6 -12  -2    3.03    0.27
   6  12  -2    3.37    0.41
   6  12  -2    3.16    0.42
  -6  12   2    2.83    0.36
   5 -12  -2    0.59    0.15
  -5  12   2    0.31    0.19
   5  12  -2    0.44    0.21
   5  12  -2    0.38    0.21
   4 -12  -2   33.72    1.21
   4  12  -2   36.48    1.33
  -4  12   2   35.73    1.21
   4  12  -2   32.10    1.23
   3 -12  -2    7.77    0.38
   3 -12  -2    7.64    0.36
  -3 -12   2    7.61    0.40
   3  12  -2    7.53    0.43
  -3  12   2    8.19    0.42
   3  12  -2    8.08    0.42
   2 -12  -2  160.33    5.02
   2 -12  -2  183.17    5.36
  -2 -12   2  168.91    4.96
   2  12  -2  166.82    5.01
   2  12  -2  162.92    5.00
  -2  12   2  174.83    5.04
   2  12  -2  172.45    5.38
   1 -12  -2    0.37    0.12
   1 -12  -2    0.53    0.12
   1  12  -2    0.45    0.09
  -1  12   2    0.49    0.15
   1  12  -2    0.49    0.10
   0 -12  -2   54.65    1.81
   0 -12  -2   51.38    1.70
   0  12   2   56.76    1.75
  -1 -12  -2    3.77    0.29
  -1 -12  -2    4.20    0.29
   1  12   2    3.25    0.29
  -2 -12  -2   20.71    0.81
  -2 -12  -2   18.00    0.75
  -2  12  -2   18.59    0.61
  -2  12  -2   18.63    0.62
   2  12   2   19.77    0.78
  -3 -12  -2    4.52    0.38
  -3 -12  -2    4.15    0.36
  -3  12  -2    4.12    0.26
   3  12   2    3.41    0.36
  -4 -12  -2   47.81    1.77
  -4 -12  -2   48.24    1.66
   4  12   2   45.93    1.76
   4  12   2   46.65    1.66
  -4  12  -2   45.99    1.52
  -5 -12  -2    0.95    0.28
  -5  12  -2    0.36    0.18
   5  12   2    0.30    0.23
   5  12   2    0.17    0.21
  -6  12  -2   16.12    0.74
   6  12   2   15.98    0.84
   6  12   2   14.69    0.86
   6 -13  -2    2.93    0.24
   6  13  -2    3.20    0.43
   6  13  -2    2.78    0.39
  -6  13   2    3.18    0.37
   5 -13  -2    3.79    0.27
   5  13  -2    4.46    0.42
   5  13  -2    4.54    0.40
  -5  13   2    3.87    0.37
   4 -13  -2    1.57    0.18
  -4  13   2    1.67    0.25
   4  13  -2    1.51    0.25
   4  13  -2    1.20    0.24
   3 -13  -2  103.42    3.45
   3 -13  -2  107.24    3.43
  -3  13   2  112.82    3.31
   3  13  -2  107.49    3.31
   3  13  -2  112.24    3.56
   2 -13  -2    3.98    0.24
  -2 -13   2    3.86    0.24
  -2  13   2    4.78    0.31
   2  13  -2    3.94    0.27
   2  13  -2    4.57    0.30
   1 -13  -2   93.94    3.03
   1 -13  -2  105.44    3.22
   1  13  -2  103.15    2.99
   1  13  -2   97.59    2.98
  -1  13   2  103.99    3.08
   0 -13  -2   27.33    0.95
   0 -13  -2   26.83    0.92
   0  13   2   25.73    0.95
   0  13  -2   25.83    0.81
  -1 -13  -2   12.26    0.53
  -1 -13  -2   11.92    0.54
   1  13   2   12.00    0.56
  -2 -13  -2   28.97    1.09
  -2 -13  -2   28.96    1.03
   2  13   2   28.29    1.05
  -2  13  -2   27.74    0.87
  -2  13  -2   26.61    0.87
  -3 -13  -2   36.33    1.25
  -3 -13  -2   32.54    1.30
  -3  13  -2   32.89    1.08
   3  13   2   33.30    1.24
  -4 -13  -2    3.67    0.38
  -4 -13  -2    2.81    0.36
   4  13   2    3.06    0.38
  -4  13  -2    3.94    0.28
   4  13   2    3.02    0.39
   5  13   2   24.59    1.04
  -5  13  -2   23.59    0.91
   5  13   2   21.83    1.08
   6  13   2    0.92    0.30
  -6  13  -2    0.56    0.23
   6  13   2    0.91    0.32
  -6  14   2    0.24    0.22
   6  14  -2    0.63    0.27
  -5  14   2   21.73    0.90
   5  14  -2   22.35    0.95
   4  14  -2   14.02    0.65
  -4  14   2   13.31    0.62
  -3  14   2   26.68    0.96
   3  14  -2   25.54    0.95
  -2  14   2   40.34    1.35
   2  14  -2   40.15    1.31
   1 -14  -2   29.89    0.99
  -1  14   2   26.68    1.02
   1  14  -2   29.11    0.94
   1  14  -2   30.47    0.95
   0 -14  -2   22.83    0.81
   0 -14  -2   23.05    0.82
   0  14  -2   22.63    0.70
   0  14   2   20.45    0.83
   0  14  -2   21.57    0.70
  -1 -14  -2   79.22    2.59
  -1 -14  -2   76.71    2.44
   1  14   2   79.77    2.49
  -2 -14  -2    3.66    0.32
  -2 -14  -2    3.95    0.34
  -2  14  -2    3.86    0.19
  -2  14  -2    3.79    0.20
   2  14   2    4.08    0.35
  -3 -14  -2   27.44    1.09
  -3 -14  -2   29.87    1.17
  -3  14  -2   29.53    0.95
   3  14   2   28.62    1.12
   4  14   2   12.25    0.67
   4  14   2   12.31    0.71
  -4  14  -2   13.71    0.56
   5  14   2    0.12    0.23
   5  14   2    0.09    0.24
  -5  14  -2    0.07    0.18
   6  14   2    0.53    0.30
  -6  14  -2    0.57    0.23
   6  14   2    1.29    0.33
   6  15  -2   19.82    0.92
  -6  15   2   17.98    0.86
  -5  15   2    0.27    0.19
   5  15  -2   -0.12    0.18
   4  15  -2   35.68    1.26
  -4  15   2   32.79    1.22
   3  15  -2    2.02    0.25
  -3  15   2    2.17    0.26
   2  15  -2    4.32    0.30
  -2  15   2    4.32    0.33
   1 -15  -2    1.49    0.14
   1  15  -2    1.46    0.16
  -1  15   2    2.03    0.25
   0 -15  -2   68.24    2.08
   0 -15  -2   65.28    2.17
   0  15  -2   66.93    1.98
   0  15   2   66.88    2.14
   0  15  -2   66.84    1.98
  -1 -15  -2    6.13    0.35
  -1 -15  -2    5.92    0.37
   1  15   2    6.08    0.41
  -2 -15  -2   91.08    3.07
  -2 -15  -2   90.10    2.89
   2  15   2   97.01    2.94
  -3 -15  -2    3.60    0.37
  -3  15  -2    3.96    0.25
   3  15   2    4.01    0.40
  -4  15  -2    7.23    0.38
   4  15   2    6.21    0.51
   4  15   2    7.33    0.51
   5  15   2    0.95    0.32
   5  15   2    0.75    0.28
  -5  15  -2    1.26    0.24
  -6  15  -2    3.12    0.37
   6  15   2    2.76    0.46
   6  15   2    3.40    0.46
   6  16  -2    0.32    0.24
  -6  16   2    0.35    0.23
   5  16  -2   23.03    1.00
  -5  16   2   23.90    0.96
  -4  16   2    4.76    0.37
   4  16  -2    4.84    0.38
  -3  16   2   16.45    0.70
   3  16  -2   17.11    0.70
  -2  16   2    4.93    0.36
   2  16  -2    5.73    0.33
  -1  16   2   24.65    0.90
   1  16  -2   22.61    0.79
   0 -16  -2   21.30    0.76
   0  16  -2   21.71    0.69
   0  16   2   21.85    0.85
   0  16  -2   20.18    0.69
  -1 -16  -2  118.23    3.72
   1  16   2  112.53    3.56
  -2 -16  -2    3.26    0.30
   2  16   2    3.07    0.34
   3  16   2   27.23    1.08
  -3  16  -2   26.07    0.88
   4  16   2    7.66    0.54
  -4  16  -2    8.40    0.41
   4  16   2    6.66    0.54
   5  16   2    0.43    0.27
   5  16   2    0.37    0.27
  -5  16  -2    0.31    0.18
  -6  17   2    4.74    0.47
   6  17  -2    4.94    0.50
  -5  17   2    1.30    0.27
   5  17  -2    2.03    0.32
   4  17  -2    4.49    0.38
  -4  17   2    5.61    0.40
  -3  17   2   26.89    0.99
   3  17  -2   24.76    0.96
   2  17  -2    0.57    0.17
  -2  17   2    0.96    0.21
   1  17  -2   35.99    1.16
  -1  17   2   35.87    1.26
   0 -17  -2   39.61    1.34
   0  17  -2   41.42    1.26
   0  17   2   41.65    1.42
  -1 -17  -2    0.09    0.11
   1  17   2    0.29    0.18
  -2 -17  -2   14.15    0.63
   2  17   2   13.39    0.67
  -3  17  -2   18.38    0.65
   3  17   2   18.65    0.85
   4  17   2    0.38    0.26
  -4  17  -2    0.47    0.16
   4  17   2    0.76    0.27
  -5  17  -2   13.41    0.62
   5  17   2   12.94    0.80
   5  17   2   13.26    0.77
   5  18  -2    1.58    0.30
  -5  18   2    1.54    0.27
   4  18  -2   14.20    0.70
  -4  18   2   15.56    0.69
  -3  18   2    0.84    0.21
   3  18  -2    0.72    0.19
  -2  18   2  112.97    3.45
   2  18  -2  110.30    3.38
   1  18  -2    0.87    0.16
  -1  18   2    1.06    0.22
   0  18  -2   12.46    0.47
   0  18   2   13.41    0.62
   1  18   2    4.99    0.39
   2  18   2    6.74    0.46
  -3  18  -2    0.05    0.10
   3  18   2    0.21    0.21
  -4  18  -2   19.29    0.71
   4  18   2   16.33    0.86
  -5  18  -2    0.67    0.21
   5  18   2    0.15    0.26
  -5  19   2    3.51    0.39
   5  19  -2    3.44    0.41
   4  19  -2    0.41    0.20
  -4  19   2    0.27    0.20
   3  19  -2   20.92    0.88
  -3  19   2   24.23    0.92
   2  19  -2    0.04    0.14
  -2  19   2    0.45    0.19
  -1  19   2   33.38    1.25
   1  19  -2   36.96    1.17
   0  19   2    7.51    0.45
   0  19  -2    6.97    0.32
   1  19   2    0.69    0.22
   2  19   2    3.67    0.40
  -3  19  -2   19.74    0.69
   3  19   2   19.05    0.89
  -4  19  -2    0.58    0.16
   4  19   2    0.51    0.26
   5  19   2   14.22    0.82
  -5  19  -2   14.07    0.64
  -5  20   2    9.70    0.57
   5  20  -2    8.86    0.58
   4  20  -2    5.40    0.42
  -4  20   2    5.38    0.42
  -3  20   2    0.47    0.20
   3  20  -2    0.73    0.19
   2  20  -2   28.73    1.01
  -2  20   2   27.38    1.07
  -1  20   2    2.76    0.31
   1  20  -2    2.59    0.24
   0  20   2   12.80    0.62
   0  20  -2   12.89    0.49
   1  20   2   34.09    1.27
   2  20   2    1.99    0.31
   3  20   2    7.81    0.54
  -3  20  -2    6.98    0.34
   4  20   2    8.15    0.59
  -4  20  -2    7.65    0.40
   5  21  -2    0.18    0.22
  -5  21   2    0.51    0.23
  -4  21   2   11.70    0.63
   4  21  -2   12.53    0.65
   3  21  -2    1.18    0.23
  -3  21   2    1.08    0.25
   2  21  -2    3.86    0.31
  -2  21   2    4.14    0.37
  -1  21   2    1.57    0.26
   1  21  -2    1.15    0.18
   0  21   2   25.73    1.03
   0  21  -2   27.74    0.89
   1  21   2    0.10    0.17
   2  21   2   25.05    1.04
  -3  21  -2    1.41    0.17
   3  21   2    1.18    0.29
   4  21   2    3.87    0.47
  -4  21  -2    3.60    0.29
   4  22  -2    0.66    0.23
  -4  22   2    1.06    0.27
   3  22  -2    7.12    0.45
  -3  22   2    6.71    0.48
  -2  22   2    3.95    0.38
   2  22  -2    3.25    0.30
  -1  22   2    9.96    0.53
   1  22  -2    8.91    0.44
   0  22   2    0.76    0.22
   0  22  -2    0.65    0.13
   1  22   2   31.72    1.22
   2  22   2    0.45    0.22
   3  22   2   11.81    0.69
  -4  22  -2    1.06    0.19
   4  22   2    0.63    0.28
  -4  23   2    1.15    0.28
   4  23  -2    1.30    0.28
   3  23  -2    7.04    0.45
  -3  23   2    6.71    0.49
  -2  23   2   -0.19    0.17
   2  23  -2   -0.01    0.15
  -1  23   2    9.86    0.54
   1  23  -2    9.21    0.45
   0  23   2    8.53    0.52
   0  23  -2    8.93    0.39
   1  23   2    0.59    0.23
   2  23   2    9.29    0.58
   3  23   2    4.58    0.49
   3  24  -2    1.18    0.24
  -3  24   2    1.08    0.27
  -2  24   2   22.97    0.93
   2  24  -2   21.64    0.87
  -1  24   2   -0.06    0.17
   1  24  -2    0.12    0.13
   0  24   2    7.43    0.49
   0  24  -2    7.84    0.37
   1  24   2    1.05    0.27
   2  24   2    2.16    0.35
   3  24   2   -0.03    0.23
   3  25  -2   10.51    0.57
  -3  25   2   10.64    0.61
   2  25  -2    0.25    0.16
  -2  25   2   -0.13    0.18
  -1  25   2   16.20    0.74
   1  25  -2   15.41    0.64
   0  25   2    0.67    0.23
   0  25  -2    1.31    0.17
   1  25   2    0.70    0.26
   2  25   2    2.04    0.36
  -2  26   2    5.98    0.44
   2  26  -2    6.04    0.40
   1  26  -2    1.94    0.23
  -1  26   2    1.39    0.27
   0  26  -2    3.17    0.25
   0  26   2    3.18    0.37
   1  26   2    9.07    0.57
   0  27  -2   10.37    0.45
   0  27   2    9.46    0.59
  -7   0   3   15.02    0.80
   7   0  -3   15.74    0.82
   6   0  -3    0.22    0.19
  -6   0   3    0.51    0.22
  -5   0   3   37.29    1.33
   5   0  -3   37.21    1.41
  -4   0   3   -0.05    0.13
   4   0  -3    0.11    0.13
  -3   0   3    9.08    0.42
   3   0  -3    8.95    0.44
   3   0  -3    8.23    0.41
   2   0  -3    0.08    0.08
   2   0  -3   -0.04    0.09
  -2   0   3    0.00    0.09
  -1   0   3   94.01    2.87
   1   0  -3   98.64    3.07
   1   0  -3   96.42    2.87
   0   0   3   -0.11    0.09
   0   0  -3   -0.22    0.06
   0   0   3    0.36    0.10
   0   0  -3    0.03    0.09
   1   0   3  356.93   10.13
  -1   0  -3  359.74   10.94
   1   0   3  348.10   10.91
  -1   0  -3  336.13   10.16
   2   0   3   -0.07    0.08
   2   0   3    0.10    0.11
  -2   0  -3   -0.04    0.10
   2   0   3    0.11    0.09
  -2   0  -3    0.14    0.11
   3   0   3   19.86    0.74
  -3   0  -3   18.79    0.74
   3   0   3   18.86    0.70
  -3   0  -3   17.96    0.78
   4   0   3    0.08    0.13
  -4   0  -3    0.27    0.17
   4   0   3    0.19    0.15
  -4   0  -3    0.19    0.17
  -5   0  -3    7.51    0.52
   5   0   3    7.09    0.44
  -5   0  -3    6.97    0.48
  -6   0  -3   -0.12    0.22
   6   0   3    0.10    0.18
   7   0   3   14.47    0.74
  -7   0  -3   14.39    0.81
   7  -1  -3    0.44    0.23
  -7  -1   3    0.76    0.27
   7   1  -3    0.29    0.22
  -7   1   3    0.19    0.25
   6  -1  -3   30.95    1.18
  -6  -1   3   31.41    1.19
   6  -1  -3   28.83    1.22
  -6   1   3   29.80    1.18
   6   1  -3   30.04    1.25
   5  -1  -3   21.81    0.88
  -5  -1   3   22.52    0.90
   5  -1  -3   22.85    0.94
   5   1  -3   21.62    0.88
  -5   1   3   21.74    0.89
   5   1  -3   20.90    0.93
   4  -1  -3   23.64    0.94
   4  -1  -3   23.71    0.89
  -4  -1   3   25.77    0.91
   4   1  -3   22.39    0.94
  -4   1   3   23.35    0.90
   4   1  -3   24.09    0.89
   3  -1  -3  103.88    3.35
   3  -1  -3  102.04    3.12
  -3  -1   3  104.36    3.12
   3   1  -3  102.83    3.35
  -3   1   3  103.37    3.13
   2  -1  -3   32.17    1.16
  -2  -1   3   33.34    1.08
   2  -1  -3   33.09    1.09
   2   1  -3   33.53    1.15
   2   1  -3   33.10    1.08
  -2   1   3   35.00    1.10
   1  -1  -3  136.37    4.14
  -1  -1   3  141.18    4.42
   1  -1  -3  143.80    4.45
  -1  -1   3  137.43    4.13
   1   1  -3  141.41    4.43
   1   1  -3  142.32    4.13
  -1   1   3  142.79    4.15
   0  -1   3  295.77    8.66
   0  -1  -3  287.07    8.67
   0  -1   3  281.42    9.38
   0  -1  -3  315.79    9.39
   0   1   3  296.98    8.68
   0   1  -3  311.96    8.67
   0   1  -3  305.98    9.30
   0   1  -3  296.51    8.65
  -1  -1  -3    0.82    0.15
   1  -1   3    0.51    0.10
   1  -1   3    0.73    0.12
  -1  -1  -3    0.36    0.13
   1   1   3    0.34    0.11
  -1   1  -3    0.55    0.13
  -1   1  -3    0.35    0.10
  -1   1  -3    0.58    0.13
   2  -1   3   87.55    2.77
  -2  -1  -3   88.41    2.81
  -2  -1  -3   83.07    2.60
   2  -1   3   81.58    2.55
   2  -1   3   85.66    2.73
   2   1   3   88.20    2.58
  -2   1  -3   83.82    2.78
  -2   1  -3   81.61    2.58
   3  -1   3   19.06    0.72
  -3  -1  -3   17.64    0.78
  -3  -1  -3   17.61    0.73
   3  -1   3   18.89    0.77
   3  -1   3   18.46    0.68
  -3   1  -3   17.63    0.71
   3   1   3   18.72    0.71
   3   1   3   19.45    0.75
  -3   1  -3   19.37    0.78
  -4  -1  -3    3.60    0.37
  -4  -1  -3    3.48    0.35
   4  -1   3    3.37    0.28
   4  -1   3    3.08    0.29
   4   1   3    3.21    0.29
  -4   1  -3    3.11    0.32
   4   1   3    3.72    0.31
  -4   1  -3    2.98    0.33
  -5  -1  -3   13.03    0.73
   5  -1   3   13.71    0.64
  -5  -1  -3   14.49    0.70
  -5   1  -3   14.61    0.69
  -5   1  -3   13.36    0.73
   5   1   3   15.17    0.68
   6  -1   3    7.09    0.47
  -6  -1  -3    7.35    0.55
  -6  -1  -3    8.64    0.61
   6   1   3    8.29    0.51
  -6   1  -3    7.97    0.55
   7  -1   3    0.26    0.19
  -7  -1  -3    0.72    0.29
  -7   1  -3    0.03    0.25
   7   1   3    0.52    0.23
   7  -2  -3    6.22    0.49
  -7  -2   3    7.78    0.55
   7   2  -3    7.23    0.53
  -7   2   3    5.60    0.51
  -6  -2   3    5.55    0.46
   6  -2  -3    6.22    0.45
   6  -2  -3    5.49    0.45
  -6   2   3    5.97    0.46
   6   2  -3    6.40    0.48
   6   2  -3    5.85    0.46
   5  -2  -3    7.93    0.47
  -5  -2   3    7.51    0.48
   5  -2  -3    8.66    0.49
   5   2  -3    8.10    0.48
  -5   2   3    8.63    0.49
   5   2  -3    7.88    0.49
  -4  -2   3  134.75    4.05
   4  -2  -3  133.14    4.05
   4  -2  -3  136.93    4.34
   4   2  -3  135.50    4.04
   4   2  -3  130.42    4.34
  -4   2   3  133.49    4.05
   3  -2  -3    5.92    0.36
   3  -2  -3    6.82    0.36
  -3  -2   3    6.40    0.35
   3   2  -3    6.39    0.35
  -3   2   3    6.40    0.36
   3   2  -3    6.29    0.36
  -2  -2   3  299.21    8.52
   2  -2  -3  292.69    9.17
   2  -2  -3  294.41    8.54
   2   2  -3  274.67    9.16
   2   2  -3  301.12    8.53
  -2   2   3  299.08    8.54
   1  -2  -3   45.06    1.43
   1  -2  -3   45.21    1.53
  -1  -2   3   43.63    1.41
  -1  -2   3   45.29    1.49
   1   2  -3   45.93    1.41
  -1   2   3   44.31    1.43
   1   2  -3   46.14    1.41
   1   2  -3   50.35    1.51
   0  -2   3    5.57    0.26
   0  -2  -3    6.08    0.31
   0  -2  -3    6.05    0.30
   0   2  -3    5.37    0.26
   0   2  -3    5.89    0.28
   0   2   3    5.94    0.31
   0   2  -3    5.70    0.26
  -1  -2  -3    2.79    0.24
  -1  -2  -3    2.34    0.23
   1  -2   3    2.61    0.18
   1  -2   3    2.24    0.17
  -1   2  -3    3.29    0.21
   1   2   3    2.80    0.22
  -1   2  -3    2.60    0.22
  -1   2  -3    2.20    0.20
  -2  -2  -3  143.01    4.30
   2  -2   3  146.44    4.22
   2  -2   3  144.70    4.53
  -2  -2  -3  144.89    4.62
  -2   2  -3  147.09    4.59
  -2   2  -3  137.15    4.26
   2   2   3  144.01    4.27
   3  -2   3    8.08    0.44
  -3  -2  -3    9.27    0.48
   3  -2   3    9.69    0.42
   3  -2   3   10.17    0.44
  -3  -2  -3    9.83    0.52
  -3   2  -3    9.51    0.49
  -3   2  -3    9.18    0.45
   3   2   3    9.08    0.45
   3   2   3    9.60    0.47
   4  -2   3   83.90    2.72
   4  -2   3   83.81    2.56
  -4  -2  -3   82.86    2.84
  -4  -2  -3   80.57    2.63
   4   2   3   81.55    2.59
  -4   2  -3   80.25    2.60
   4   2   3   83.91    2.78
  -4   2  -3   84.64    2.81
  -5  -2  -3    9.10    0.54
  -5  -2  -3    8.21    0.56
   5  -2   3    8.27    0.45
  -5   2  -3    8.02    0.54
  -5   2  -3    8.38    0.51
   5   2   3    8.77    0.52
  -6  -2  -3    7.16    0.54
   6  -2   3    6.79    0.44
  -6  -2  -3    7.18    0.58
  -6   2  -3    7.11    0.52
   6   2   3    6.93    0.49
   7  -2   3    2.60    0.32
  -7  -2  -3    2.73    0.41
   7   2   3    2.05    0.34
  -7   2  -3    2.69    0.40
  -7  -3   3    0.25    0.25
   7  -3  -3    0.20    0.20
   7   3  -3    0.29    0.23
   7   3  -3   -0.04    0.24
  -7   3   3   -0.07    0.22
  -6  -3   3   -0.23    0.18
   6  -3  -3    0.14    0.17
   6  -3  -3    0.31    0.20
   6   3  -3    0.10    0.18
   6   3  -3   -0.30    0.17
  -6   3   3    0.14    0.20
  -5  -3   3   40.00    1.44
   5  -3  -3   41.52    1.52
   5  -3  -3   41.71    1.43
   5   3  -3   41.86    1.54
  -5   3   3   40.64    1.44
   5   3  -3   40.31    1.43
   4  -3  -3    0.44    0.18
  -4  -3   3    0.82    0.19
   4  -3  -3    0.82    0.18
   4   3  -3    0.66    0.18
  -4   3   3    0.83    0.19
   4   3  -3    0.67    0.18
   3  -3  -3  289.34    8.80
   3  -3  -3  271.93    8.18
  -3  -3   3  283.49    8.18
  -3   3   3  273.18    8.18
   3   3  -3  276.88    8.79
   3   3  -3  284.79    8.17
   2  -3  -3    1.87    0.19
  -2  -3   3    2.49    0.21
   2  -3  -3    2.32    0.21
   2   3  -3    2.26    0.19
  -2   3   3    2.07    0.20
   2   3  -3    1.96    0.19
   1  -3  -3  252.47    7.91
   1  -3  -3  261.03    7.36
  -1  -3   3  256.28    7.32
   1   3  -3  241.36    7.31
   1   3  -3  248.64    7.86
   1   3  -3  258.89    7.32
  -1   3   3  248.97    7.36
   0  -3  -3   10.99    0.48
   0  -3   3   11.47    0.41
   0  -3  -3   11.59    0.51
   0   3  -3   12.25    0.44
   0   3   3   11.25    0.49
   0   3  -3   11.61    0.42
   0   3  -3   11.50    0.44
  -1  -3  -3   72.03    2.23
  -1  -3  -3   70.97    2.39
   1  -3   3   71.71    2.27
   1  -3   3   74.10    2.27
  -1   3  -3   70.87    2.18
  -1   3  -3   71.84    2.16
   1   3   3   71.15    2.21
  -1   3  -3   73.45    2.33
   2  -3   3    7.98    0.32
   2  -3   3    7.46    0.32
   2  -3   3    7.51    0.34
  -2  -3  -3    8.25    0.41
  -2  -3  -3    7.82    0.43
  -2   3  -3    7.78    0.35
   2   3   3    7.25    0.38
  -2   3  -3    7.77    0.39
  -2   3  -3    7.33    0.36
  -3  -3  -3  229.81    7.28
   3  -3   3  225.85    7.19
   3  -3   3  234.70    6.68
  -3  -3  -3  222.64    6.76
   3  -3   3  236.06    7.16
   3   3   3  221.22    7.23
  -3   3  -3  231.94    6.72
  -3   3  -3  224.60    7.23
   3   3   3  230.67    6.74
  -4  -3  -3    0.21    0.18
  -4  -3  -3    0.09    0.18
   4  -3   3    0.22    0.12
  -4   3  -3    0.02    0.16
   4   3   3    0.17    0.16
   4   3   3    0.08    0.15
  -4   3  -3    0.24    0.16
  -5  -3  -3   30.04    1.26
   5  -3   3   29.19    1.10
  -5  -3  -3   30.07    1.17
  -5   3  -3   29.51    1.13
   5   3   3   29.73    1.19
   5   3   3   29.75    1.13
   6  -3   3    1.25    0.22
  -6  -3  -3    0.93    0.29
  -6  -3  -3    1.82    0.36
  -6   3  -3    1.20    0.29
   6   3   3    1.56    0.29
   7  -3   3   -0.10    0.15
  -7  -3  -3    0.20    0.27
   7   3   3    0.06    0.21
  -7   3  -3    0.04    0.24
  -7  -4   3    3.36    0.43
   7  -4  -3    3.49    0.41
  -7   4   3    4.22    0.46
   7   4  -3    4.13    0.46
   7   4  -3    3.70    0.46
  -6  -4   3    3.58    0.39
   6  -4  -3    2.98    0.36
  -6   4   3    3.79    0.41
   6   4  -3    3.86    0.41
   6   4  -3    3.64    0.39
   5  -4  -3   11.51    0.62
  -5  -4   3   13.14    0.63
   5  -4  -3   13.66    0.62
  -5   4   3   13.26    0.63
   5   4  -3   12.32    0.64
   5   4  -3   12.18    0.61
   4  -4  -3  181.31    5.76
   4  -4  -3  178.78    5.36
  -4  -4   3  177.25    5.36
   4   4  -3  182.21    5.76
   4   4  -3  179.67    5.36
  -4   4   3  179.99    5.37
   3  -4  -3    1.30    0.18
  -3  -4   3    1.33    0.18
   3  -4  -3    1.14    0.18
  -3   4   3    1.25    0.19
   3   4  -3    1.12    0.17
   3   4  -3    1.49    0.18
   2  -4  -3  268.88    8.30
   2  -4  -3  270.48    7.72
  -2  -4   3  240.77    8.25
  -2  -4   3  267.22    7.69
   2   4  -3  263.39    8.27
  -2   4   3  273.51    7.72
   2   4  -3  267.85    7.69
   1  -4  -3    7.34    0.37
  -1  -4   3    8.17    0.33
  -1  -4   3    7.46    0.31
   1  -4  -3    7.75    0.36
  -1   4   3    8.47    0.38
   1   4  -3    7.75    0.32
   1   4  -3    7.30    0.33
   1   4  -3    7.97    0.33
   0  -4   3   18.51    0.61
   0  -4  -3   19.67    0.75
   0   4   3   19.00    0.71
   0   4  -3   20.68    0.67
   0   4  -3   19.19    0.63
   0   4  -3   18.90    0.65
  -1  -4  -3   56.07    1.92
  -1  -4  -3   57.37    1.80
   1  -4   3   57.68    1.67
  -1   4  -3   53.82    1.84
  -1   4  -3   58.15    1.71
  -1   4  -3   56.12    1.73
   1   4   3   57.01    1.78
   2  -4   3  120.05    3.74
  -2  -4  -3  124.30    3.90
  -2  -4  -3  120.82    3.62
   2  -4   3  120.03    3.75
  -2   4  -3  121.16    3.83
  -2   4  -3  117.37    3.55
  -2   4  -3  118.72    3.54
   2   4   3  115.86    3.59
  -3  -4  -3   17.71    0.72
   3  -4   3   17.53    0.62
   3  -4   3   17.75    0.63
  -3  -4  -3   16.06    0.75
   3  -4   3   16.85    0.66
  -3   4  -3   17.36    0.71
   3   4   3   16.68    0.73
  -3   4  -3   16.46    0.66
   3   4   3   17.26    0.70
  -4  -4  -3   83.28    2.69
   4  -4   3   84.41    2.72
  -4  -4  -3   85.04    2.89
   4   4   3   84.26    2.66
   4   4   3   82.32    2.83
  -4   4  -3   85.02    2.83
  -4   4  -3   83.53    2.63
   5  -4   3    9.35    0.46
  -5  -4  -3    8.88    0.56
  -5  -4  -3    9.24    0.61
   5   4   3    9.69    0.54
  -5   4  -3    9.04    0.53
   5   4   3    9.36    0.56
   6  -4   3    5.95    0.38
  -6  -4  -3    6.13    0.55
  -6  -4  -3    6.38    0.51
  -6   4  -3    6.86    0.49
   6   4   3    5.57    0.47
  -7  -4  -3    4.05    0.49
   7  -4   3    3.18    0.30
   7   4   3    3.15    0.41
  -7   4  -3    3.04    0.42
   7  -5  -3    0.00    0.17
  -7  -5   3    0.16    0.25
   7   5  -3    0.57    0.25
  -7   5   3    0.29    0.25
   7   5  -3    0.12    0.23
  -6  -5   3   29.51    1.17
   6  -5  -3   28.98    1.20
  -6   5   3   30.57    1.17
   6   5  -3   29.58    1.16
   6   5  -3   28.97    1.23
   5  -5  -3   16.15    0.71
   5  -5  -3   17.25    0.75
  -5  -5   3   16.42    0.72
   5   5  -3   15.24    0.71
  -5   5   3   14.58    0.71
   5   5  -3   16.06    0.75
   4  -5  -3   28.01    1.07
   4  -5  -3   28.68    1.02
  -4  -5   3   28.90    1.02
   4   5  -3   26.46    1.07
   4   5  -3   27.86    1.02
  -4   5   3   27.50    1.02
  -3  -5   3  121.05    3.60
   3  -5  -3  123.20    3.62
   3  -5  -3  116.46    3.88
   3   5  -3  119.08    3.60
  -3   5   3  119.62    3.62
   3   5  -3  121.12    3.87
   2  -5  -3  143.19    4.71
  -2  -5   3  145.75    4.66
   2  -5  -3  149.04    4.39
  -2  -5   3  149.42    4.36
  -2   5   3  147.33    4.39
   2   5  -3  151.86    4.68
   2   5  -3  150.10    4.36
   1  -5  -3   81.97    2.45
   1  -5  -3   83.02    2.63
  -1  -5   3   81.14    2.53
  -1   5   3   77.48    2.45
   1   5  -3   81.07    2.56
   1   5  -3   78.36    2.39
   0  -5  -3  271.91    8.84
   0  -5   3  288.18    8.12
   0  -5  -3  279.24    8.23
   0   5  -3  275.48    8.78
   0   5  -3  287.25    8.15
   0   5  -3  288.41    8.24
   0   5   3  282.62    8.23
  -1  -5  -3    7.15    0.39
  -1  -5  -3    7.51    0.41
  -1   5  -3    6.87    0.31
   1   5   3    7.31    0.38
  -1   5  -3    7.14    0.29
  -1   5  -3    6.74    0.31
  -2  -5  -3   37.12    1.25
  -2  -5  -3   34.65    1.33
   2  -5   3   38.13    1.12
  -2   5  -3   35.03    1.26
  -2   5  -3   37.43    1.17
   2   5   3   37.24    1.23
  -2   5  -3   36.10    1.15
   3  -5   3   72.77    2.37
  -3  -5  -3   70.75    2.36
  -3  -5  -3   77.29    2.55
   3  -5   3   76.17    2.35
  -3   5  -3   77.33    2.30
   3   5   3   73.84    2.34
   3   5   3   70.42    2.50
  -3   5  -3   75.12    2.46
  -4  -5  -3    0.93    0.24
   4  -5   3    1.20    0.15
  -4  -5  -3    1.30    0.27
   4   5   3    1.09    0.23
   4   5   3    1.95    0.28
  -4   5  -3    1.20    0.21
   5  -5   3    6.19    0.34
  -5  -5  -3    6.14    0.50
  -5  -5  -3    6.16    0.48
   5   5   3    6.29    0.46
   5   5   3    5.79    0.45
  -5   5  -3    5.61    0.42
  -6  -5  -3   12.10    0.75
   6  -5   3   10.81    0.51
  -6  -5  -3   11.56    0.69
  -6   5  -3   11.08    0.63
   6   5   3   11.85    0.68
   7  -5   3    0.04    0.13
  -7  -5  -3    0.08    0.27
  -7   5  -3    0.30    0.26
   7  -6  -3   16.90    0.85
   7   6  -3   18.37    0.88
   7   6  -3   17.78    0.92
  -7   6   3   18.68    0.89
   6  -6  -3    0.64    0.21
  -6  -6   3    0.82    0.25
  -6   6   3    0.45    0.23
   6   6  -3    0.52    0.23
   6   6  -3    0.47    0.22
   5  -6  -3   10.31    0.55
  -5  -6   3    9.67    0.54
   5  -6  -3   10.69    0.55
   5   6  -3   10.03    0.57
  -5   6   3   10.67    0.56
   5   6  -3   10.06    0.55
   4  -6  -3    5.75    0.37
  -4  -6   3    5.00    0.36
   4  -6  -3    5.11    0.35
  -4   6   3    5.63    0.37
   4   6  -3    6.21    0.39
   4   6  -3    5.12    0.36
   3  -6  -3   14.73    0.61
   3  -6  -3   13.60    0.57
  -3  -6   3   12.86    0.55
   3   6  -3   13.29    0.58
   3   6  -3   14.33    0.57
  -3   6   3   13.92    0.58
  -2  -6   3    4.17    0.24
   2  -6  -3    4.70    0.29
   2  -6  -3    4.11    0.28
  -2   6   3    4.57    0.29
   2   6  -3    4.14    0.25
   2   6  -3    3.96    0.25
   1  -6  -3  352.72   10.77
  -1  -6   3  332.81    9.96
   1  -6  -3  353.07   10.01
   1   6  -3  350.98   10.69
   1   6  -3  344.31   10.02
  -1   6   3  334.20   10.01
   1   6  -3  343.28   10.01
   0  -6  -3    0.94    0.17
   0  -6  -3    0.76    0.16
   0   6  -3    0.85    0.10
   0   6  -3    0.54    0.10
   0   6   3    0.62    0.16
   0   6  -3    0.78    0.09
  -1  -6  -3  412.03   11.99
  -1  -6  -3  424.47   12.90
  -1   6  -3  411.86   12.89
   1   6   3  405.22   11.98
  -1   6  -3  401.79   11.93
  -1   6  -3  419.82   11.96
  -2  -6  -3   16.78    0.69
  -2  -6  -3   14.78    0.64
  -2   6  -3   14.25    0.59
   2   6   3   14.72    0.62
  -2   6  -3   15.48    0.54
  -2   6  -3   15.82    0.56
   3  -6   3   13.38    0.50
  -3  -6  -3   15.47    0.65
  -3  -6  -3   14.50    0.69
  -3   6  -3   14.47    0.60
   3   6   3   14.14    0.62
  -3   6  -3   13.01    0.56
  -4  -6  -3    0.26    0.18
   4  -6   3    0.03    0.08
  -4  -6  -3   -0.09    0.17
  -4   6  -3   -0.04    0.13
   4   6   3   -0.21    0.15
   4   6   3    0.03    0.16
  -5  -6  -3    9.70    0.60
   5  -6   3    9.87    0.42
  -5  -6  -3    9.73    0.63
   5   6   3   10.13    0.59
  -5   6  -3   10.39    0.54
   5   6   3   10.31    0.61
  -6  -6  -3    0.01    0.24
   6  -6   3    0.12    0.11
  -6  -6  -3   -0.03    0.24
   6   6   3    0.13    0.21
  -6   6  -3    0.02    0.20
   7  -7  -3   -0.04    0.18
   7   7  -3   -0.19    0.20
  -7   7   3    0.48    0.25
   7   7  -3   -0.11    0.22
  -6  -7   3   38.12    1.39
   6  -7  -3   36.66    1.43
   6   7  -3   36.85    1.39
  -6   7   3   34.86    1.37
   6   7  -3   38.18    1.49
  -5  -7   3   23.79    0.94
   5  -7  -3   24.20    0.93
   5  -7  -3   24.05    0.98
  -5   7   3   22.39    0.94
   5   7  -3   25.38    1.01
   5   7  -3   20.66    0.92
  -4  -7   3   13.77    0.61
   4  -7  -3   14.21    0.64
   4  -7  -3   14.72    0.62
   4   7  -3   13.16    0.64
   4   7  -3   13.85    0.62
  -4   7   3   14.74    0.63
   3  -7  -3   36.17    1.17
   3  -7  -3   33.12    1.23
  -3  -7   3   33.48    1.14
  -3   7   3   34.53    1.17
   3   7  -3   33.31    1.22
   3   7  -3   34.72    1.15
   2  -7  -3    6.37    0.34
   2  -7  -3    6.46    0.35
  -2  -7   3    6.20    0.30
   2   7  -3    6.15    0.31
   2   7  -3    6.52    0.32
  -2   7   3    6.93    0.36
   1  -7  -3    0.90    0.17
   1  -7  -3    0.79    0.16
  -1  -7   3    1.26    0.12
  -1   7   3    1.06    0.17
   1   7  -3    1.05    0.12
   1   7  -3    1.17    0.12
   1   7  -3    1.12    0.12
   0  -7  -3  287.76    9.00
   0  -7  -3  278.93    8.37
   0   7  -3  289.66    8.35
   0   7  -3  307.48    8.94
   0   7   3  273.01    8.37
   0   7  -3  281.09    8.28
  -1  -7  -3    0.07    0.12
  -1  -7  -3    0.20    0.13
  -1   7  -3    0.33    0.07
   1   7   3   -0.07    0.12
  -1   7  -3    0.22    0.08
  -2  -7  -3   41.02    1.49
  -2  -7  -3   40.92    1.39
   2   7   3   38.24    1.36
  -2   7  -3   41.72    1.28
  -2   7  -3   42.51    1.38
  -2   7  -3   40.52    1.26
  -3  -7  -3   24.95    1.03
  -3  -7  -3   24.56    0.96
  -3   7  -3   25.84    0.87
   3   7   3   23.47    0.94
  -4  -7  -3    4.12    0.41
  -4  -7  -3    5.05    0.41
   4   7   3    3.68    0.37
  -4   7  -3    5.33    0.34
   4   7   3    5.02    0.39
  -5  -7  -3    2.91    0.39
  -5  -7  -3    3.49    0.43
   5   7   3    4.22    0.42
  -5   7  -3    3.36    0.34
   5   7   3    3.44    0.39
  -6  -7  -3   14.62    0.79
  -6  -7  -3   14.14    0.83
  -6   7  -3   13.48    0.70
   6   7   3   13.16    0.75
   7  -8  -3    3.79    0.41
   7   8  -3    3.22    0.42
   7   8  -3    4.06    0.48
  -7   8   3    3.75    0.45
   6  -8  -3    1.12    0.25
   6   8  -3    1.67    0.31
  -6   8   3    1.18    0.28
   6   8  -3    1.30    0.30
   5  -8  -3   23.21    0.95
  -5  -8   3   22.88    0.92
   5   8  -3   21.36    0.96
   5   8  -3   23.02    0.93
  -5   8   3   23.08    0.93
  -4  -8   3   92.03    2.83
   4  -8  -3   94.50    3.04
   4  -8  -3   92.43    2.84
   4   8  -3   88.98    2.84
  -4   8   3   88.34    2.84
   4   8  -3   92.01    3.05
  -3  -8   3    7.80    0.39
   3  -8  -3    8.36    0.42
   3  -8  -3    8.33    0.43
   3   8  -3    7.30    0.39
   3   8  -3    7.90    0.41
  -3   8   3    7.42    0.41
   2  -8  -3   72.53    2.20
   2  -8  -3   71.99    2.36
  -2  -8   3   70.76    2.14
   2   8  -3   74.13    2.16
   2   8  -3   69.21    2.31
  -2   8   3   71.78    2.21
   2   8  -3   66.50    2.15
   1  -8  -3   85.35    2.83
   1  -8  -3   84.55    2.64
   1   8  -3   88.52    2.55
   1   8  -3   85.20    2.55
  -1   8   3   86.08    2.64
   1   8  -3   86.95    2.73
   0  -8  -3    4.36    0.29
   0  -8  -3    2.71    0.26
   0   8  -3    3.10    0.15
   0   8   3    3.11    0.28
   0   8  -3    2.71    0.16
  -1  -8  -3   14.12    0.61
  -1  -8  -3   13.78    0.64
  -1   8  -3   14.41    0.49
   1   8   3   13.58    0.60
  -1   8  -3   14.94    0.47
  -2  -8  -3  132.21    4.35
  -2  -8  -3  129.92    4.04
   2   8   3  132.95    4.04
  -2   8  -3  135.31    4.22
  -2   8  -3  135.52    3.92
  -2   8  -3  135.15    3.91
  -3  -8  -3    4.95    0.40
  -3  -8  -3    4.76    0.39
  -3   8  -3    5.37    0.30
   3   8   3    4.91    0.37
  -4  -8  -3   42.40    1.62
  -4  -8  -3   42.99    1.52
  -4   8  -3   41.82    1.40
   4   8   3   41.70    1.59
   4   8   3   40.57    1.49
  -5  -8  -3    5.76    0.48
  -5  -8  -3    5.22    0.48
  -5   8  -3    4.76    0.37
   5   8   3    5.39    0.45
   5   8   3    4.69    0.43
  -6  -8  -3    5.61    0.55
   6   8   3    5.89    0.50
  -6   8  -3    5.35    0.43
   7  -9  -3    0.03    0.17
  -7   9   3    0.20    0.24
   7   9  -3    0.07    0.23
   7   9  -3    0.21    0.24
   6  -9  -3    0.73    0.21
   6   9  -3    0.79    0.25
   6   9  -3    0.54    0.24
  -6   9   3    0.91    0.26
   5  -9  -3   24.96    1.00
  -5  -9   3   26.05    0.99
   5   9  -3   24.36    1.04
   5   9  -3   24.92    0.99
  -5   9   3   23.25    0.97
   4  -9  -3    0.68    0.19
  -4  -9   3    1.06    0.20
   4  -9  -3    0.83    0.19
   4   9  -3    0.62    0.19
  -4   9   3    0.78    0.21
   4   9  -3    0.94    0.21
   3  -9  -3  195.85    6.07
   3  -9  -3  194.17    5.66
  -3  -9   3  194.90    5.62
  -3   9   3  187.65    5.66
   3   9  -3  179.87    5.63
   3   9  -3  192.22    6.06
   2  -9  -3    0.41    0.14
   2  -9  -3    0.50    0.14
  -2   9   3    0.53    0.15
   2   9  -3    0.76    0.12
   2   9  -3    0.94    0.14
   2   9  -3    0.48    0.11
   1  -9  -3   73.59    2.41
   1  -9  -3   76.95    2.26
   1   9  -3   68.58    2.15
   1   9  -3   67.94    2.15
   1   9  -3   74.79    2.31
  -1   9   3   71.98    2.25
   0  -9  -3    0.48    0.14
   0  -9  -3    0.42    0.15
   0   9   3    0.59    0.17
   0   9  -3    0.59    0.07
  -1  -9  -3   38.86    1.38
  -1  -9  -3   38.97    1.29
   1   9   3   35.30    1.29
  -2  -9  -3   36.57    1.43
  -2  -9  -3   40.79    1.35
  -2   9  -3   38.90    1.20
  -2   9  -3   39.56    1.20
   2   9   3   38.17    1.34
  -3  -9  -3   89.84    2.88
  -3  -9  -3   88.36    3.09
   3   9   3   91.84    2.88
  -3   9  -3   93.50    2.75
  -4  -9  -3   -0.05    0.18
  -4  -9  -3    0.13    0.20
   4   9   3    0.10    0.19
   4   9   3    0.16    0.20
  -4   9  -3    0.13    0.15
  -5  -9  -3   24.07    1.05
  -5  -9  -3   23.88    1.12
   5   9   3   23.19    1.07
   5   9   3   24.66    1.04
  -5   9  -3   23.85    0.93
  -6  -9  -3    0.09    0.25
  -6   9  -3    0.24    0.20
   6   9   3    0.14    0.23
   7 -10  -3    0.95    0.24
   7  10  -3    0.64    0.29
   7  10  -3    1.18    0.32
  -7  10   3    1.07    0.30
   6 -10  -3    7.60    0.48
   6  10  -3    6.91    0.51
  -6  10   3    7.16    0.51
   6  10  -3    7.56    0.54
   5 -10  -3    2.41    0.30
  -5  10   3    2.16    0.31
   5  10  -3    2.53    0.32
   5  10  -3    2.87    0.34
   4 -10  -3   73.81    2.53
  -4 -10   3   74.14    2.37
   4  10  -3   77.65    2.40
   4  10  -3   75.50    2.56
  -4  10   3   75.12    2.40
  -3 -10   3    0.39    0.12
   3 -10  -3    0.10    0.13
   3 -10  -3    0.24    0.14
   3  10  -3    0.09    0.13
   3  10  -3    0.09    0.12
  -3  10   3    0.16    0.15
   2 -10  -3  161.32    5.18
  -2 -10   3  167.66    4.75
   2 -10  -3  168.54    4.84
   2  10  -3  157.04    5.13
   2  10  -3  159.36    4.78
  -2  10   3  163.74    4.84
   2  10  -3  158.56    4.78
   1 -10  -3   22.62    0.85
   1 -10  -3   23.97    0.91
   1  10  -3   23.36    0.76
   1  10  -3   23.20    0.76
   1  10  -3   24.55    0.81
  -1  10   3   22.99    0.86
   0 -10  -3    2.11    0.25
   0 -10  -3    2.92    0.27
   0  10   3    2.78    0.28
   0  10  -3    2.65    0.14
  -1 -10  -3   36.34    1.29
  -1 -10  -3   35.51    1.20
   1  10   3   31.25    1.20
  -2 -10  -3   49.02    1.66
  -2 -10  -3   50.09    1.79
   2  10   3   49.33    1.67
  -2  10  -3   51.08    1.51
  -2  10  -3   49.22    1.51
  -3 -10  -3   10.34    0.59
  -3 -10  -3   10.68    0.56
   3  10   3    9.43    0.54
  -3  10  -3    9.89    0.43
  -4 -10  -3   55.37    1.92
  -4 -10  -3   56.09    2.06
   4  10   3   54.92    2.03
  -4  10  -3   55.03    1.78
   4  10   3   56.11    1.91
  -5 -10  -3    5.42    0.49
  -5 -10  -3    5.42    0.48
   5  10   3    5.32    0.47
   5  10   3    5.29    0.47
  -5  10  -3    5.15    0.39
  -6 -10  -3    2.49    0.42
   6  10   3    2.91    0.42
  -6  10  -3    2.28    0.33
   6  10   3    2.18    0.38
   7 -11  -3    0.38    0.20
   7  11  -3    0.42    0.27
  -7  11   3    0.11    0.24
   7  11  -3    0.35    0.26
   6 -11  -3   17.03    0.78
   6  11  -3   17.82    0.89
   6  11  -3   18.53    0.85
  -6  11   3   17.44    0.83
   5 -11  -3    7.87    0.46
   5  11  -3    8.11    0.53
   5  11  -3    9.05    0.52
  -5  11   3    7.71    0.49
   4 -11  -3    6.37    0.39
   4  11  -3    5.58    0.40
   4  11  -3    7.24    0.44
  -4  11   3    6.21    0.42
  -3 -11   3   61.39    1.95
   3 -11  -3   64.61    2.13
   3 -11  -3   61.42    2.00
   3  11  -3   62.04    1.98
   3  11  -3   63.69    2.12
  -3  11   3   61.97    2.01
   2 -11  -3   57.77    2.01
  -2 -11   3   59.08    1.80
   2 -11  -3   61.36    1.90
   2  11  -3   58.10    1.84
   2  11  -3   59.01    1.97
  -2  11   3   58.91    1.90
   2  11  -3   61.14    1.84
   1 -11  -3   57.55    1.77
   1 -11  -3   53.08    1.87
   1  11  -3   55.16    1.66
   1  11  -3   54.51    1.77
  -1  11   3   53.92    1.78
   1  11  -3   54.26    1.65
   0 -11  -3  145.50    4.36
   0 -11  -3  141.94    4.67
   0  11   3  147.94    4.38
  -1 -11  -3    0.18    0.14
  -1 -11  -3    0.33    0.15
   1  11   3    0.84    0.20
  -2 -11  -3   48.95    1.80
  -2 -11  -3   49.26    1.68
   2  11   3   51.51    1.70
  -2  11  -3   50.12    1.51
  -2  11  -3   50.29    1.51
  -3 -11  -3   17.23    0.80
  -3 -11  -3   18.71    0.86
  -3  11  -3   18.17    0.66
   3  11   3   18.83    0.81
  -4 -11  -3    0.91    0.25
  -4 -11  -3    1.89    0.32
   4  11   3    0.90    0.25
  -4  11  -3    0.84    0.19
   4  11   3    0.61    0.24
  -5 -11  -3    7.58    0.56
  -5 -11  -3    6.85    0.56
   5  11   3    6.35    0.54
   5  11   3    7.65    0.55
  -5  11  -3    7.64    0.45
  -6 -11  -3    3.89    0.49
   6  11   3    3.66    0.47
  -6  11  -3    3.58    0.38
   6  11   3    4.24    0.52
   7 -12  -3    9.09    0.52
   7  12  -3    8.86    0.67
   7  12  -3   10.23    0.66
  -7  12   3    9.07    0.61
   6 -12  -3    0.06    0.15
   6  12  -3   -0.12    0.20
   6  12  -3   -0.10    0.19
  -6  12   3    0.12    0.22
   5 -12  -3   20.46    0.85
   5  12  -3   20.04    0.89
   5  12  -3   21.39    0.95
  -5  12   3   21.59    0.89
   4 -12  -3    1.50    0.22
   4  12  -3    1.52    0.24
  -4  12   3    1.37    0.24
   4  12  -3    1.58    0.26
   3 -12  -3    0.15    0.14
   3 -12  -3    0.26    0.14
   3  12  -3    0.24    0.14
  -3  12   3    0.46    0.17
   3  12  -3    0.08    0.13
   2 -12  -3    0.40    0.14
   2  12  -3    0.51    0.13
  -2  12   3    0.77    0.18
   2  12  -3    0.43    0.12
   1 -12  -3  142.69    4.71
   1 -12  -3  155.46    4.41
   1  12  -3  155.21    4.30
  -1  12   3  141.53    4.43
   1  12  -3  149.63    4.30
   1  12  -3  137.50    4.61
   0 -12  -3    2.73    0.27
   0 -12  -3    1.94    0.24
   0  12   3    2.19    0.26
  -1 -12  -3  192.45    5.56
  -1 -12  -3  184.34    5.95
   1  12   3  180.96    5.57
  -2 -12  -3    0.77    0.21
  -2 -12  -3    0.78    0.20
   2  12   3    0.62    0.21
  -2  12  -3    0.89    0.11
  -2  12  -3    0.84    0.10
  -3 -12  -3    5.47    0.43
  -3 -12  -3    5.76    0.43
  -3  12  -3    5.38    0.29
   3  12   3    5.39    0.43
  -4 -12  -3    0.77    0.26
  -4 -12  -3    0.70    0.25
  -4  12  -3    0.82    0.18
   4  12   3    0.90    0.26
   4  12   3    0.99    0.25
  -5 -12  -3    7.30    0.56
  -5 -12  -3    7.10    0.57
  -5  12  -3    7.22    0.44
   5  12   3    7.30    0.57
   5  12   3    7.04    0.55
   6  12   3    0.38    0.28
   6  12   3   -0.10    0.24
  -6  12  -3    0.05    0.19
   6 -13  -3   14.27    0.66
   6  13  -3   13.82    0.75
  -6  13   3   15.38    0.75
   5 -13  -3    7.03    0.42
  -5  13   3    7.51    0.49
   5  13  -3    8.12    0.50
   4 -13  -3   11.43    0.56
  -4  13   3   12.44    0.59
   4  13  -3   12.08    0.59
   3 -13  -3   29.92    1.09
  -3  13   3   28.31    1.07
   3  13  -3   29.42    1.04
   2 -13  -3   21.73    0.80
   2 -13  -3   19.54    0.78
   2  13  -3   19.04    0.72
  -2  13   3   20.02    0.79
   1 -13  -3    4.24    0.33
   1 -13  -3    4.03    0.30
   1  13  -3    3.93    0.23
   1  13  -3    4.39    0.23
  -1  13   3    4.46    0.34
   0 -13  -3  118.74    3.76
   0 -13  -3  127.71    4.03
   0  13   3  125.96    3.80
  -1 -13  -3    0.36    0.17
  -1 -13  -3    0.05    0.14
   1  13   3    0.22    0.17
  -2 -13  -3   52.48    1.89
  -2 -13  -3   54.26    1.79
   2  13   3   51.52    1.79
  -3 -13  -3    6.86    0.49
  -3 -13  -3    7.25    0.48
   3  13   3    7.41    0.49
  -3  13  -3    6.56    0.33
  -4 -13  -3    0.08    0.21
  -4 -13  -3    0.39    0.22
  -4  13  -3    0.37    0.15
   4  13   3    0.38    0.22
   4  13   3    0.15    0.22
  -5 -13  -3    5.25    0.51
   5  13   3    5.71    0.50
  -5  13  -3    5.46    0.39
   5  13   3    6.23    0.52
  -6  13  -3    8.64    0.51
   6  13   3    7.69    0.64
   6  13   3    8.26    0.62
   6 -14  -3    1.14    0.20
   6  14  -3    0.74    0.26
  -6  14   3    1.16    0.30
   5 -14  -3    9.66    0.48
  -5  14   3    9.30    0.55
   5  14  -3    9.23    0.56
   4 -14  -3   29.37    1.10
  -4  14   3   29.38    1.12
   4  14  -3   30.65    1.12
   3 -14  -3    5.46    0.34
  -3  14   3    5.37    0.39
   3  14  -3    5.98    0.37
   2 -14  -3   74.69    2.50
  -2  14   3   75.47    2.41
   2  14  -3   77.53    2.33
   1 -14  -3   43.07    1.52
   1 -14  -3   43.53    1.46
  -1  14   3   44.42    1.50
   1  14  -3   44.45    1.36
   0 -14  -3    1.96    0.25
   0 -14  -3    1.79    0.23
   0  14   3    2.36    0.28
  -1 -14  -3   42.44    1.56
  -1 -14  -3   42.33    1.47
   1  14   3   44.61    1.51
  -2 -14  -3   36.69    1.30
  -2 -14  -3   33.98    1.36
   2  14   3   36.07    1.31
  -3 -14  -3    0.09    0.19
  -3 -14  -3    0.69    0.22
   3  14   3    0.25    0.22
  -3  14  -3    0.23    0.11
  -4 -14  -3   37.35    1.40
  -4 -14  -3   32.93    1.45
   4  14   3   35.66    1.39
  -4  14  -3   37.28    1.21
   5  14   3    3.89    0.49
   5  14   3    5.19    0.52
  -5  14  -3    3.54    0.34
   6  14   3    2.97    0.46
  -6  14  -3    2.58    0.34
   6  14   3    3.02    0.45
   6  15  -3    0.39    0.24
  -6  15   3    0.50    0.25
   5 -15  -3   19.99    0.76
   5  15  -3   18.92    0.87
  -5  15   3   19.47    0.86
   4 -15  -3    0.26    0.13
   4  15  -3    0.23    0.17
  -4  15   3    0.28    0.20
   3 -15  -3   68.93    2.24
  -3  15   3   67.60    2.21
   3  15  -3   67.35    2.16
   2 -15  -3    0.29    0.13
   2  15  -3    0.12    0.12
  -2  15   3    0.35    0.18
   1 -15  -3   60.71    2.06
  -1  15   3   61.36    2.02
   1  15  -3   62.35    1.87
   0 -15  -3    2.71    0.29
   0 -15  -3    2.47    0.26
   0  15   3    2.26    0.28
  -1 -15  -3   18.33    0.80
  -1 -15  -3   18.81    0.78
   1  15   3   18.51    0.81
  -2 -15  -3    1.17    0.23
  -2 -15  -3    1.05    0.24
   2  15   3    1.48    0.28
  -3 -15  -3   45.94    1.71
   3  15   3   42.70    1.61
  -3  15  -3   45.19    1.39
  -4 -15  -3    0.27    0.22
  -4  15  -3    1.08    0.19
   4  15   3    0.60    0.27
  -5  15  -3   10.98    0.54
   5  15   3   10.54    0.68
   6  16  -3    2.60    0.38
  -6  16   3    2.59    0.38
  -5  16   3    3.11    0.37
   5  16  -3    3.42    0.39
   4  16  -3   42.38    1.48
  -4  16   3   41.70    1.49
   3 -16  -3    0.26    0.11
   3  16  -3    0.35    0.16
  -3  16   3    0.32    0.20
   2 -16  -3   53.64    1.84
  -2  16   3   52.51    1.84
   2  16  -3   60.62    1.77
   1 -16  -3    0.53    0.14
   1  16  -3    0.27    0.11
  -1  16   3    0.44    0.19
   0 -16  -3    1.45    0.21
   0  16   3    1.15    0.24
  -1 -16  -3   17.29    0.75
   1  16   3   16.78    0.76
  -2 -16  -3   40.26    1.50
   2  16   3   38.98    1.45
  -3 -16  -3    0.73    0.23
   3  16   3    1.00    0.28
  -3  16  -3    0.58    0.13
  -4 -16  -3   27.06    1.24
  -4  16  -3   29.37    1.00
   4  16   3   29.06    1.21
   5  16   3    0.24    0.27
   5  16   3    0.53    0.29
  -5  16  -3    0.44    0.20
   6  17  -3    6.05    0.51
  -6  17   3    6.33    0.50
  -5  17   3    2.94    0.36
   5  17  -3    3.00    0.36
   4  17  -3    1.20    0.24
  -4  17   3    0.97    0.25
   3  17  -3   44.89    1.54
  -3  17   3   46.64    1.59
   2 -17  -3   18.73    0.69
  -2  17   3   19.68    0.83
   2  17  -3   19.46    0.73
   1 -17  -3    2.56    0.22
  -1  17   3    1.97    0.28
   1  17  -3    2.48    0.20
   0 -17  -3   40.61    1.45
   0  17   3   42.34    1.47
  -1 -17  -3    1.24    0.21
   1  17   3    1.03    0.25
  -2 -17  -3   17.60    0.79
   2  17   3   16.35    0.80
  -3 -17  -3   14.42    0.74
   3  17   3   13.17    0.73
  -3  17  -3   14.39    0.52
  -4  17  -3    0.07    0.14
   4  17   3    0.30    0.24
   5  17   3    5.01    0.55
   5  17   3    5.05    0.57
  -5  17  -3    4.53    0.36
   5  18  -3    5.42    0.45
  -5  18   3    5.59    0.45
   4  18  -3    1.09    0.23
  -4  18   3    0.87    0.25
   3  18  -3    0.06    0.15
  -3  18   3    0.21    0.19
   2  18  -3    0.14    0.14
  -2  18   3    0.11    0.18
   1 -18  -3   83.72    2.79
   1  18  -3   90.10    2.62
  -1  18   3   87.41    2.78
   0 -18  -3    0.08    0.11
   0  18   3    0.10    0.18
  -1 -18  -3   40.84    1.50
   1  18   3   43.10    1.52
  -2 -18  -3    3.69    0.34
   2  18   3    3.54    0.40
  -3 -18  -3    2.62    0.35
   3  18   3    2.50    0.38
  -4  18  -3    1.09    0.19
   4  18   3    1.00    0.30
   5  18   3    2.52    0.46
  -5  18  -3    3.20    0.33
   5  18   3    3.08    0.45
  -5  19   3    0.98    0.26
   5  19  -3    0.66    0.25
  -4  19   3    1.98    0.31
   4  19  -3    2.09    0.30
   3  19  -3    7.44    0.43
  -3  19   3    7.03    0.48
   2  19  -3    2.41    0.25
  -2  19   3    2.45    0.32
   1  19  -3    0.14    0.11
  -1  19   3    0.24    0.18
   0 -19  -3   37.19    1.30
   0  19   3   38.10    1.37
  -1 -19  -3    0.55    0.16
   1  19   3    0.69    0.24
  -2 -19  -3   11.07    0.59
   2  19   3   11.24    0.65
   3  19   3    4.42    0.48
   4  19   3    0.82    0.30
  -4  19  -3    0.84    0.17
  -5  20   3    2.94    0.40
   5  20  -3    3.88    0.42
  -4  20   3   12.54    0.66
   4  20  -3   11.43    0.62
  -3  20   3    1.42    0.28
   3  20  -3    1.51    0.25
  -2  20   3   12.40    0.64
   2  20  -3   11.75    0.53
   1  20  -3   18.97    0.67
  -1  20   3   17.82    0.81
   0 -20  -3    0.29    0.10
   0  20   3   -0.06    0.17
  -1 -20  -3   16.04    0.67
   1  20   3   16.15    0.77
   2  20   3   15.54    0.79
   3  20   3    0.36    0.26
   4  20   3   10.02    0.69
  -4  20  -3   11.04    0.48
  -4  21   3    0.56    0.25
   4  21  -3    0.61    0.22
   3  21  -3   28.89    1.08
  -3  21   3   29.22    1.16
   2  21  -3    0.57    0.17
  -2  21   3    0.79    0.24
   1  21  -3   16.03    0.59
  -1  21   3   15.09    0.73
   0  21   3    0.65    0.22
   1  21   3    6.45    0.48
   2  21   3    1.06    0.29
   3  21   3   14.12    0.79
   4  21   3    0.29    0.27
  -4  21  -3    0.23    0.14
   4  22  -3   14.33    0.71
  -4  22   3   15.02    0.76
  -3  22   3    0.79    0.26
   3  22  -3    0.72    0.21
   2  22  -3   22.52    0.86
  -2  22   3   23.32    0.98
   1  22  -3    5.95    0.32
  -1  22   3    6.02    0.44
   0  22   3    0.97    0.26
   1  22   3    1.67    0.31
   2  22   3   12.74    0.71
   3  22   3    1.47    0.34
  -4  23   3    0.48    0.25
   4  23  -3    0.41    0.22
   3  23  -3    9.70    0.52
  -3  23   3    8.67    0.57
   2  23  -3    3.75    0.30
  -2  23   3    3.02    0.37
  -1  23   3    4.80    0.42
   1  23  -3    5.31    0.31
   0  23   3   14.84    0.74
   1  23   3    0.53    0.24
   2  23   3    7.54    0.55
   3  23   3    5.66    0.56
   3  24  -3    0.16    0.16
  -3  24   3    0.02    0.22
   2  24  -3    1.49    0.22
  -2  24   3    1.43    0.29
   1  24  -3   15.65    0.60
  -1  24   3   15.16    0.75
   0  24   3    0.69    0.24
   1  24   3   19.52    0.91
   2  24   3    1.34    0.32
  -2  25   3    3.39    0.39
   2  25  -3    3.24    0.29
  -1  25   3    0.68    0.24
   1  25  -3    0.34    0.14
   0  25   3   12.57    0.68
   1  25   3   -0.07    0.20
   2  25   3    8.33    0.60
   1  26  -3    5.39    0.33
  -1  26   3    6.53    0.48
   0  26   3   -0.01    0.20
   1  26   3    4.18    0.45
  -7   0   4    0.25    0.25
   7   0  -4   -0.15    0.18
   6   0  -4   21.45    0.92
   6   0  -4   19.98    0.94
  -6   0   4   21.32    0.93
  -5   0   4    0.12    0.18
   5   0  -4    0.26    0.18
   5   0  -4    0.29    0.18
  -4   0   4  212.84    6.28
   4   0  -4  204.75    6.73
   4   0  -4  216.01    6.28
   3   0  -4    0.17    0.12
  -3   0   4    0.18    0.13
   3   0  -4    0.06    0.11
   2   0  -4  183.77    5.29
  -2   0   4  178.81    5.29
   2   0  -4  175.21    5.67
   1   0  -4   -0.05    0.09
   1   0  -4   -0.04    0.10
  -1   0   4    0.22    0.13
   0   0  -4    1.43    0.18
   0   0   4    2.00    0.19
   0   0  -4    1.97    0.20
   0   0   4    1.72    0.20
   1   0   4    0.05    0.09
   1   0   4    0.43    0.12
  -1   0  -4    0.06    0.11
  -1   0  -4    0.11    0.12
   2   0   4  121.65    3.60
   2   0   4  121.60    3.89
   2   0   4  120.48    3.85
  -2   0  -4  118.85    3.64
  -2   0  -4  118.05    3.92
  -3   0  -4    0.76    0.20
  -3   0  -4   -0.04    0.15
   3   0   4    0.21    0.13
   3   0   4    0.22    0.14
  -4   0  -4   51.20    1.86
  -4   0  -4   50.48    1.73
   4   0   4   50.03    1.76
  -5   0  -4    0.02    0.20
  -5   0  -4    0.06    0.20
   5   0   4   -0.08    0.15
  -6   0  -4    1.17    0.31
   6   0   4    0.91    0.24
   7  -1  -4    2.19    0.36
  -7  -1   4    2.62    0.39
   7   1  -4    2.46    0.38
  -7   1   4    2.60    0.39
   7   1  -4    2.68    0.39
   6  -1  -4    3.92    0.42
  -6  -1   4    4.72    0.43
   6  -1  -4    4.75    0.42
   6   1  -4    4.50    0.41
   6   1  -4    4.40    0.41
  -6   1   4    4.64    0.42
   5  -1  -4   41.38    1.60
  -5  -1   4   43.87    1.52
   5  -1  -4   45.14    1.52
   5   1  -4   43.63    1.52
  -5   1   4   44.05    1.53
   5   1  -4   42.40    1.61
  -4  -1   4    1.15    0.22
   4  -1  -4    1.15    0.21
   4  -1  -4    1.17    0.22
   4   1  -4    1.30    0.22
   4   1  -4    0.95    0.20
  -4   1   4    1.46    0.23
   3  -1  -4  119.48    3.75
  -3  -1   4  124.91    3.75
   3  -1  -4  125.33    4.03
   3   1  -4  121.81    4.02
   3   1  -4  130.87    3.75
  -3   1   4  124.18    3.75
   2  -1  -4   39.55    1.32
   2  -1  -4   37.15    1.23
  -2  -1   4   36.40    1.23
   2   1  -4   36.37    1.22
  -2   1   4   37.09    1.24
   2   1  -4   37.63    1.30
  -1  -1   4    8.37    0.38
   1  -1  -4    7.93    0.39
  -1  -1   4    9.27    0.41
   1  -1  -4    8.50    0.41
   1   1  -4    8.33    0.38
  -1   1   4    9.11    0.42
   1   1  -4    9.11    0.40
   0  -1   4   44.91    1.44
   0  -1  -4   45.59    1.47
   0  -1   4   45.41    1.51
   0  -1  -4   45.47    1.56
   0   1  -4   47.28    1.54
   0   1   4   44.08    1.46
   0   1  -4   47.00    1.45
   1  -1   4  135.89    3.91
   1  -1   4  128.60    4.20
  -1  -1  -4  131.65    4.27
  -1  -1  -4  130.51    3.97
  -1   1  -4  134.62    3.96
  -1   1  -4  128.44    4.24
   1   1   4  136.19    3.94
   2  -1   4    1.73    0.19
  -2  -1  -4    1.54    0.22
   2  -1   4    1.65    0.19
  -2  -1  -4    1.82    0.24
   2  -1   4    1.49    0.17
  -2   1  -4    2.21    0.25
  -2   1  -4    1.62    0.22
   2   1   4    1.81    0.20
  -3  -1  -4  123.34    3.83
   3  -1   4  127.33    3.76
   3  -1   4  121.28    4.02
  -3  -1  -4  128.08    4.13
   3   1   4  127.94    3.79
  -3   1  -4  123.53    4.11
   3   1   4  127.07    4.05
  -3   1  -4  124.03    3.81
  -4  -1  -4    0.46    0.21
   4  -1   4    0.42    0.15
  -4  -1  -4    0.39    0.20
  -4   1  -4    0.45    0.20
   4   1   4    0.78    0.20
  -4   1  -4    0.22    0.19
   4   1   4    0.35    0.17
   5  -1   4    8.63    0.48
  -5  -1  -4    9.07    0.60
  -5  -1  -4    8.26    0.54
  -5   1  -4    7.70    0.52
   5   1   4    8.88    0.51
  -6  -1  -4    8.64    0.60
   6  -1   4    8.95    0.50
   6   1   4    8.17    0.52
  -6   1  -4    8.49    0.57
   7  -2  -4   15.11    0.82
  -7  -2   4   15.12    0.80
   7   2  -4   15.27    0.80
  -7   2   4   14.76    0.80
   7   2  -4   15.32    0.83
   6  -2  -4    3.46    0.39
   6  -2  -4    3.18    0.38
  -6  -2   4    3.28    0.39
   6   2  -4    3.17    0.37
  -6   2   4    3.19    0.39
   6   2  -4    3.32    0.40
   5  -2  -4    7.04    0.46
   5  -2  -4    8.19    0.49
  -5  -2   4    6.98    0.47
  -5   2   4    7.53    0.48
   5   2  -4    7.27    0.49
   5   2  -4    7.46    0.47
   4  -2  -4   42.80    1.46
   4  -2  -4   45.28    1.57
  -4  -2   4   44.64    1.46
   4   2  -4   42.01    1.54
  -4   2   4   41.68    1.45
   4   2  -4   39.86    1.44
  -3  -2   4   37.85    1.26
   3  -2  -4   34.40    1.26
   3  -2  -4   39.53    1.36
  -3   2   4   38.32    1.27
   3   2  -4   36.65    1.26
   3   2  -4   38.63    1.35
  -2  -2   4   23.78    0.88
   2  -2  -4   26.32    0.90
   2  -2  -4   25.10    0.95
   2   2  -4   27.68    0.94
   2   2  -4   25.61    0.88
  -2   2   4   23.92    0.89
  -1  -2   4  444.54   14.12
   1  -2  -4  457.10   14.07
  -1  -2   4  458.44   13.07
   1  -2  -4  455.66   13.17
   1   2  -4  445.81   14.03
   1   2  -4  450.05   13.19
  -1   2   4  451.10   13.10
   0  -2   4   45.75    1.44
   0  -2  -4   43.94    1.48
   0  -2  -4   46.84    1.58
   0   2   4   45.60    1.48
   0   2  -4   45.58    1.46
   0   2  -4   47.11    1.54
   0   2  -4   45.82    1.44
  -1  -2  -4   78.25    2.60
  -1  -2  -4   76.30    2.42
   1  -2   4   80.42    2.34
   1  -2   4   76.01    2.50
   1   2   4   77.78    2.40
  -1   2  -4   78.80    2.38
  -1   2  -4   77.62    2.56
  -1   2  -4   78.11    2.40
   2  -2   4  103.86    3.03
  -2  -2  -4   94.66    3.34
   2  -2   4  106.85    3.24
  -2  -2  -4  102.52    3.12
   2   2   4  102.24    3.08
  -2   2  -4   98.14    3.32
  -2   2  -4  100.91    3.09
   3  -2   4    8.06    0.39
  -3  -2  -4    7.30    0.46
  -3  -2  -4    7.78    0.49
   3  -2   4    8.60    0.41
   3   2   4    7.93    0.45
  -3   2  -4    8.86    0.45
   3   2   4    8.39    0.45
  -3   2  -4    7.98    0.48
  -4  -2  -4    7.46    0.49
  -4  -2  -4    8.23    0.53
   4  -2   4    7.86    0.41
  -4   2  -4    8.12    0.51
   4   2   4    7.75    0.46
  -4   2  -4    7.50    0.46
   4   2   4    7.01    0.44
   5  -2   4   17.27    0.73
  -5  -2  -4   16.51    0.81
  -5  -2  -4   18.62    0.90
  -5   2  -4   16.75    0.78
   5   2   4   17.19    0.79
  -6  -2  -4    0.03    0.25
   6  -2   4    0.47    0.19
  -6   2  -4    0.20    0.23
   6   2   4    0.34    0.21
  -7  -3   4    0.21    0.26
   7  -3  -4   -0.04    0.20
   7   3  -4    0.27    0.24
  -7   3   4    0.04    0.23
   7   3  -4    0.21    0.22
   6  -3  -4   10.11    0.60
   6  -3  -4   10.35    0.59
  -6  -3   4    8.91    0.58
  -6   3   4    9.34    0.58
   6   3  -4   10.19    0.61
   5  -3  -4    3.17    0.35
   5  -3  -4    3.23    0.35
  -5  -3   4    3.54    0.36
  -5   3   4    3.80    0.38
   5   3  -4    3.36    0.36
   4  -3  -4   43.18    1.49
   4  -3  -4   44.09    1.59
  -4  -3   4   43.06    1.48
   4   3  -4   46.13    1.60
  -4   3   4   43.59    1.49
  -3  -3   4    1.32    0.19
   3  -3  -4    1.29    0.20
   3  -3  -4    1.18    0.19
   3   3  -4    1.28    0.19
   3   3  -4    1.11    0.18
  -3   3   4    1.11    0.19
   2  -3  -4  216.14    6.49
  -2  -3   4  220.47    6.46
   2  -3  -4  222.74    6.97
   2   3  -4  218.95    6.94
   2   3  -4  223.30    6.46
  -2   3   4  221.97    6.49
  -1  -3   4    0.07    0.11
   1  -3  -4   -0.01    0.11
  -1  -3   4   -0.09    0.06
   1  -3  -4    0.16    0.12
   1   3  -4    0.07    0.10
  -1   3   4    0.05    0.13
   1   3  -4   -0.03    0.09
   0  -3  -4  307.25    8.99
   0  -3   4  323.46    9.63
   0  -3   4  311.80    8.92
   0  -3  -4  299.31    9.66
   0   3  -4  298.49    8.95
   0   3   4  294.69    8.99
   0   3  -4  314.46    8.94
   0   3  -4  313.56    9.60
   1  -3   4    0.85    0.10
   1  -3   4    0.59    0.09
  -1  -3  -4    0.65    0.16
  -1  -3  -4    0.72    0.17
   1  -3   4    1.00    0.10
   1   3   4    0.72    0.16
  -1   3  -4    0.94    0.15
  -1   3  -4    0.72    0.13
  -1   3  -4    0.84    0.15
   2  -3   4   73.07    2.27
   2  -3   4   70.66    2.28
  -2  -3  -4   69.86    2.41
   2  -3   4   71.40    2.14
  -2  -3  -4   71.12    2.25
  -2   3  -4   69.70    2.36
   2   3   4   71.25    2.21
  -2   3  -4   67.87    2.20
  -3  -3  -4    0.73    0.21
   3  -3   4    0.63    0.13
   3  -3   4    0.71    0.14
   3  -3   4    0.79    0.15
  -3  -3  -4    0.78    0.20
   3   3   4    0.60    0.17
   3   3   4    0.68    0.19
  -3   3  -4    0.43    0.16
  -3   3  -4    0.66    0.19
   4  -3   4   22.46    0.86
  -4  -3  -4   24.48    1.04
  -4  -3  -4   20.81    0.94
  -4   3  -4   23.34    0.91
   4   3   4   23.98    0.93
   4   3   4   23.67    0.96
  -5  -3  -4   -0.13    0.19
  -5  -3  -4    0.21    0.22
   5  -3   4    0.17    0.14
   5   3   4    0.17    0.18
  -5   3  -4    0.26    0.20
  -6  -3  -4   17.10    0.93
  -6  -3  -4   17.33    0.88
   6  -3   4   16.36    0.71
   6   3   4   16.10    0.81
  -6   3  -4   16.02    0.81
   7  -4  -4   11.52    0.68
  -7  -4   4   11.79    0.70
   7   4  -4   11.94    0.72
  -7   4   4   11.21    0.69
   6  -4  -4    2.95    0.37
   6  -4  -4    3.36    0.38
  -6  -4   4    2.91    0.37
  -6   4   4    3.36    0.38
   6   4  -4    3.04    0.39
   5  -4  -4   18.95    0.84
   5  -4  -4   18.03    0.79
  -5  -4   4   17.71    0.79
   5   4  -4   17.67    0.79
   5   4  -4   19.03    0.84
  -5   4   4   17.71    0.80
   4  -4  -4   31.71    1.22
   4  -4  -4   31.11    1.15
  -4  -4   4   31.42    1.14
  -4   4   4   32.73    1.16
   4   4  -4   32.84    1.22
   4   4  -4   32.85    1.15
  -3  -4   4  113.20    3.38
   3  -4  -4  112.09    3.40
   3  -4  -4  107.27    3.64
  -3   4   4  111.05    3.40
   3   4  -4  114.68    3.63
  -2  -4   4   13.22    0.52
   2  -4  -4   12.86    0.57
  -2  -4   4   12.67    0.52
   2  -4  -4   12.40    0.54
  -2   4   4   13.58    0.56
   2   4  -4   11.79    0.51
   2   4  -4   12.96    0.54
  -1  -4   4  250.06    7.12
   1  -4  -4  233.76    7.16
  -1  -4   4  256.90    7.60
   1  -4  -4  243.39    7.69
  -1   4   4  244.29    7.17
   1   4  -4  232.15    7.10
   1   4  -4  238.65    7.11
   1   4  -4  253.70    7.63
   0  -4  -4    0.27    0.13
   0  -4   4    0.67    0.08
   0  -4  -4    0.70    0.15
   0   4  -4    0.68    0.11
   0   4  -4    0.65    0.12
   0   4  -4    0.65    0.13
   0   4   4    0.73    0.17
   1  -4   4   66.88    2.10
   1  -4   4   65.44    2.00
  -1  -4  -4   70.26    2.29
  -1  -4  -4   66.28    2.13
  -1   4  -4   67.62    2.05
   1   4   4   66.77    2.11
  -1   4  -4   66.31    2.20
  -1   4  -4   67.50    2.07
   2  -4   4   29.10    0.95
   2  -4   4   29.53    0.96
  -2  -4  -4   27.54    1.13
  -2  -4  -4   29.54    1.06
  -2   4  -4   30.78    0.98
  -2   4  -4   27.30    0.99
   2   4   4   27.49    1.02
  -2   4  -4   30.01    1.08
  -3  -4  -4   13.18    0.64
   3  -4   4   12.79    0.54
  -3  -4  -4   13.86    0.69
   3  -4   4   13.48    0.51
   3   4   4   12.75    0.63
  -3   4  -4   14.04    0.64
   3   4   4   14.87    0.63
  -3   4  -4   13.36    0.58
   4  -4   4    8.17    0.38
  -4  -4  -4    7.82    0.54
  -4  -4  -4    8.08    0.52
   4   4   4    8.42    0.50
  -4   4  -4    8.32    0.47
   4   4   4    7.52    0.48
  -5  -4  -4   24.28    1.12
  -5  -4  -4   24.19    1.04
   5  -4   4   23.67    0.88
   5   4   4   24.23    1.03
  -5   4  -4   22.73    0.96
   6  -4   4    0.30    0.15
  -6  -4  -4   -0.01    0.25
  -6  -4  -4   -0.19    0.23
  -6   4  -4    0.08    0.22
   6   4   4    0.14    0.21
   7  -5  -4    1.09    0.28
  -7   5   4    1.37    0.33
   7   5  -4    1.61    0.34
   6  -5  -4    2.05    0.31
  -6  -5   4    1.74    0.32
  -6   5   4    1.71    0.31
   6   5  -4    1.68    0.31
   6   5  -4    1.63    0.30
   5  -5  -4   50.93    1.74
  -5  -5   4   51.26    1.74
   5  -5  -4   52.46    1.86
   5   5  -4   50.40    1.86
   5   5  -4   49.35    1.73
  -5   5   4   51.22    1.75
  -4  -5   4    0.22    0.15
   4  -5  -4    0.33    0.18
   4  -5  -4    0.13    0.16
   4   5  -4    0.10    0.15
  -4   5   4    0.27    0.18
   4   5  -4    0.18    0.14
   3  -5  -4  115.14    3.48
   3  -5  -4  110.84    3.73
  -3  -5   4  114.64    3.44
  -3   5   4  114.20    3.48
   3   5  -4  114.09    3.45
   3   5  -4  116.29    3.71
   2  -5  -4   76.46    2.36
   2  -5  -4   71.04    2.52
  -2  -5   4   75.87    2.45
  -2  -5   4   75.34    2.32
   2   5  -4   81.50    2.49
  -2   5   4   73.27    2.36
   2   5  -4   78.13    2.33
   1  -5  -4    0.21    0.13
   1  -5  -4    0.12    0.11
  -1  -5   4    0.02    0.07
  -1  -5   4    0.31    0.08
  -1   5   4    0.39    0.15
   1   5  -4    0.13    0.09
   1   5  -4    0.11    0.08
   1   5  -4    0.22    0.09
   0  -5  -4   52.46    1.79
   0  -5  -4   53.72    1.68
   0  -5   4   54.41    1.54
   0   5  -4   51.96    1.59
   0   5  -4   51.61    1.58
   0   5   4   52.50    1.67
   0   5  -4   42.96    1.66
   1  -5   4   72.09    2.15
  -1  -5  -4   75.49    2.48
  -1  -5  -4   73.76    2.31
   1   5   4   73.10    2.30
  -1   5  -4   72.86    2.21
  -1   5  -4   72.34    2.23
  -1   5  -4   72.09    2.37
  -2  -5  -4    0.05    0.13
  -2  -5  -4    0.26    0.16
   2  -5   4    0.18    0.08
  -2   5  -4    0.11    0.12
   2   5   4    0.21    0.14
  -2   5  -4    0.32    0.12
  -2   5  -4    0.64    0.13
   3  -5   4   67.69    2.17
  -3  -5  -4   69.73    2.24
  -3  -5  -4   67.43    2.41
  -3   5  -4   71.11    2.16
   3   5   4   67.39    2.21
  -4  -5  -4   10.18    0.62
  -4  -5  -4    9.67    0.58
   4  -5   4   10.10    0.40
   4   5   4    9.62    0.56
  -4   5  -4    9.70    0.51
   4   5   4    9.69    0.54
   5  -5   4    6.17    0.31
  -5  -5  -4    5.36    0.48
  -5  -5  -4    5.08    0.50
   5   5   4    6.27    0.47
  -5   5  -4    5.78    0.43
  -6  -5  -4    5.69    0.57
  -6  -5  -4    5.99    0.55
   6   5   4    5.23    0.47
  -6   5  -4    6.34    0.49
   7  -6  -4    0.37    0.23
   7   6  -4    0.15    0.24
  -7   6   4   -0.08    0.23
   7   6  -4    0.06    0.23
   6  -6  -4   20.75    0.95
  -6  -6   4   21.28    0.92
   6   6  -4   19.44    0.90
  -6   6   4   21.10    0.93
   6   6  -4   21.05    0.97
  -5  -6   4    1.57    0.27
   5  -6  -4    1.60    0.27
   5  -6  -4    1.31    0.25
   5   6  -4    1.28    0.26
  -5   6   4    1.50    0.27
   5   6  -4    1.22    0.25
   4  -6  -4   95.57    3.02
   4  -6  -4   99.63    3.25
  -4  -6   4   92.93    2.99
  -4   6   4   95.23    3.02
   4   6  -4   99.96    3.23
   4   6  -4   98.48    3.01
  -3  -6   4    0.16    0.11
   3  -6  -4    0.36    0.14
   3  -6  -4    0.09    0.13
  -3   6   4    0.32    0.15
   3   6  -4    0.22    0.13
   3   6  -4    0.27    0.12
   2  -6  -4   69.14    2.17
  -2  -6   4   66.16    2.11
   2  -6  -4   70.92    2.33
  -2   6   4   68.73    2.18
   2   6  -4   70.41    2.27
  -1  -6   4    1.30    0.11
  -1  -6   4    1.64    0.16
   1  -6  -4    1.28    0.20
   1  -6  -4    1.25    0.19
   1   6  -4    1.58    0.16
  -1   6   4    1.68    0.22
   1   6  -4    1.85    0.17
   1   6  -4    1.55    0.15
   0  -6  -4   44.53    1.46
   0  -6  -4   44.77    1.57
   0   6  -4   43.82    1.44
   0   6  -4   44.42    1.37
   0   6  -4   44.23    1.36
   0   6   4   41.92    1.46
  -1  -6  -4    2.20    0.26
  -1  -6  -4    1.77    0.24
  -1   6  -4    2.18    0.18
  -1   6  -4    2.33    0.19
   1   6   4    2.46    0.26
  -1   6  -4    2.44    0.21
  -2  -6  -4  171.01    4.92
  -2  -6  -4  155.95    5.26
  -2   6  -4  159.49    5.16
   2   6   4  159.79    4.88
  -2   6  -4  166.36    4.78
  -2   6  -4  162.09    4.80
  -3  -6  -4    0.48    0.20
  -3  -6  -4    0.36    0.20
   3   6   4    0.27    0.17
  -3   6  -4    0.55    0.16
  -4  -6  -4   38.15    1.52
  -4  -6  -4   36.72    1.41
   4   6   4   38.01    1.38
  -4   6  -4   38.50    1.32
   4   6   4   37.30    1.45
  -5  -6  -4   -0.06    0.21
  -5  -6  -4    0.10    0.23
   5   6   4    0.04    0.20
  -5   6  -4    0.04    0.18
  -6  -6  -4    0.01    0.26
  -6  -6  -4    0.43    0.30
   6   6   4    0.16    0.21
  -6   6  -4    0.17    0.23
   7  -7  -4    2.07    0.34
   7   7  -4    1.84    0.36
  -7   7   4    1.71    0.34
   7   7  -4    2.00    0.37
   6  -7  -4    1.61    0.29
  -6   7   4    0.64    0.25
   6   7  -4    0.96    0.27
   6   7  -4    1.33    0.28
   5  -7  -4   50.39    1.90
  -5  -7   4   51.56    1.78
   5  -7  -4   54.45    1.80
   5   7  -4   54.36    1.93
   5   7  -4   52.62    1.79
  -5   7   4   52.79    1.81
   4  -7  -4    0.72    0.19
  -4  -7   4    0.99    0.20
   4  -7  -4    0.98    0.21
   4   7  -4    0.89    0.20
   4   7  -4    0.93    0.20
  -4   7   4    0.82    0.21
   3  -7  -4   82.64    2.55
  -3  -7   4   90.71    2.67
  -3  -7   4   80.58    2.50
   3  -7  -4   71.35    2.71
  -3   7   4   81.39    2.56
   3   7  -4   80.92    2.51
   3   7  -4   82.31    2.70
  -2  -7   4   50.46    1.59
   2  -7  -4   50.00    1.77
   2  -7  -4   48.60    1.65
   2   7  -4   52.62    1.60
  -2   7   4   49.65    1.66
   2   7  -4   53.41    1.71
   1  -7  -4   10.92    0.51
   1  -7  -4   10.69    0.53
  -1  -7   4   10.53    0.42
   1   7  -4   11.49    0.43
   1   7  -4   10.83    0.43
  -1   7   4   10.33    0.51
   1   7  -4   11.33    0.45
   0  -7  -4   38.38    1.37
   0  -7  -4   36.92    1.28
   0   7  -4   38.15    1.17
   0   7  -4   37.98    1.18
   0   7   4   36.95    1.29
   0   7  -4   36.11    1.23
  -1  -7  -4  109.40    3.89
  -1  -7  -4  125.52    3.65
  -1   7  -4  125.12    3.76
   1   7   4  111.71    3.62
  -1   7  -4  123.81    3.51
  -1   7  -4  116.74    3.52
  -2  -7  -4    0.21    0.16
  -2  -7  -4    0.13    0.16
  -2   7  -4    0.14    0.11
  -2   7  -4    0.16    0.10
   2   7   4    0.16    0.15
  -3  -7  -4   72.76    2.51
  -3  -7  -4   72.28    2.33
   3   7   4   69.27    2.30
  -3   7  -4   69.78    2.21
  -4  -7  -4    5.22    0.45
  -4  -7  -4    4.61    0.44
   4   7   4    4.55    0.41
   4   7   4    5.17    0.43
  -4   7  -4    5.04    0.36
  -5  -7  -4    7.59    0.55
  -5  -7  -4    6.92    0.57
   5   7   4    7.88    0.54
  -5   7  -4    6.47    0.46
   5   7   4    7.08    0.51
  -6  -7  -4    3.20    0.48
  -6  -7  -4    3.14    0.46
  -6   7  -4    3.32    0.39
   6   7   4    3.43    0.43
   7  -8  -4    9.37    0.58
   7   8  -4    7.72    0.60
   7   8  -4    7.23    0.56
  -7   8   4    7.93    0.58
   6  -8  -4    1.56    0.28
  -6   8   4    1.32    0.29
   6   8  -4    1.27    0.29
   6   8  -4    1.68    0.30
   5  -8  -4    4.03    0.36
   5   8  -4    4.16    0.37
   5   8  -4    4.67    0.40
  -5   8   4    4.23    0.41
   4  -8  -4   48.17    1.71
  -4  -8   4   47.82    1.59
   4  -8  -4   48.02    1.61
  -4   8   4   46.69    1.62
   4   8  -4   47.67    1.59
   4   8  -4   46.34    1.70
   3  -8  -4   49.35    1.70
   3  -8  -4   53.09    1.83
  -3  -8   4   51.13    1.65
   3   8  -4   55.24    1.80
   3   8  -4   52.03    1.67
  -3   8   4   50.35    1.72
   2  -8  -4   25.21    0.92
   2  -8  -4   25.99    0.98
   2   8  -4   22.36    0.89
   2   8  -4   24.04    0.85
  -2   8   4   25.90    0.93
   2   8  -4   24.63    0.85
   1  -8  -4  340.43   10.69
   1  -8  -4  334.60    9.94
   1   8  -4  341.63    9.84
  -1   8   4  331.05    9.95
   1   8  -4  340.36    9.84
   1   8  -4  351.58   10.57
   0  -8  -4   24.13    0.92
   0  -8  -4   25.12    0.99
   0   8  -4   24.36    0.81
   0   8  -4   25.20    0.84
   0   8  -4   25.08    0.80
   0   8   4   25.39    0.94
  -1  -8  -4   66.25    2.18
  -1  -8  -4   71.04    2.34
  -1   8  -4   67.27    2.04
  -1   8  -4   68.50    2.17
  -1   8  -4   64.60    2.05
   1   8   4   68.71    2.18
  -2  -8  -4   24.20    1.03
  -2  -8  -4   24.56    0.97
   2   8   4   25.72    0.97
  -2   8  -4   24.61    0.84
  -3  -8  -4    4.14    0.40
  -3  -8  -4    4.52    0.40
   3   8   4    4.68    0.39
  -3   8  -4    5.17    0.32
  -4  -8  -4    6.36    0.52
  -4  -8  -4    6.98    0.51
  -4   8  -4    6.68    0.40
   4   8   4    6.71    0.48
   4   8   4    6.55    0.49
  -5  -8  -4   17.71    0.88
  -5  -8  -4   18.13    0.94
  -5   8  -4   17.00    0.76
   5   8   4   16.03    0.85
   5   8   4   17.75    0.85
  -6  -8  -4   -0.07    0.24
  -6  -8  -4    0.04    0.25
  -6   8  -4    0.10    0.21
   6   8   4    0.46    0.25
   7  -9  -4    0.03    0.19
   7   9  -4   -0.05    0.23
   7   9  -4    0.28    0.23
  -7   9   4    0.07    0.23
   6  -9  -4   11.09    0.62
   6   9  -4   11.84    0.64
   6   9  -4   10.63    0.65
  -6   9   4   10.53    0.63
   5  -9  -4   -0.04    0.15
   5   9  -4    0.23    0.18
   5   9  -4    0.06    0.16
  -5   9   4   -0.01    0.18
   4  -9  -4   14.83    0.67
   4  -9  -4   12.74    0.62
   4   9  -4   13.76    0.65
   4   9  -4   13.30    0.62
  -4   9   4   12.74    0.64
   3  -9  -4    0.53    0.17
   3  -9  -4    0.47    0.17
  -3  -9   4    0.40    0.14
   3   9  -4    0.41    0.14
  -3   9   4    0.29    0.17
   3   9  -4    0.45    0.15
   2  -9  -4  244.21    7.11
   2  -9  -4  239.70    7.63
  -2  -9   4  229.25    7.00
   2   9  -4  259.86    7.04
   2   9  -4  248.30    7.56
  -2   9   4  235.73    7.11
   2   9  -4  227.84    7.02
   1  -9  -4    2.24    0.26
   1  -9  -4    1.96    0.24
   1   9  -4    1.34    0.15
   1   9  -4    1.65    0.16
  -1   9   4    1.44    0.23
   0  -9  -4  233.17    6.99
   0  -9  -4  226.50    7.50
   0   9  -4  236.64    6.84
   0   9   4  245.60    7.01
   0   9  -4  239.51    6.85
  -1  -9  -4    1.90    0.26
  -1  -9  -4    2.05    0.27
  -1   9  -4    2.13    0.18
  -1   9  -4    2.02    0.18
   1   9   4    2.41    0.29
  -2  -9  -4   33.38    1.27
  -2  -9  -4   31.15    1.18
  -2   9  -4   31.34    1.03
   2   9   4   31.18    1.17
  -3  -9  -4    6.30    0.46
  -3  -9  -4    6.33    0.48
   3   9   4    6.78    0.46
  -3   9  -4    6.40    0.35
  -4  -9  -4   22.66    0.98
  -4  -9  -4   21.25    1.03
   4   9   4   20.01    0.98
   4   9   4   21.90    0.95
  -4   9  -4   23.06    0.85
  -5  -9  -4    0.15    0.24
  -5  -9  -4    0.16    0.25
   5   9   4   -0.05    0.20
  -5   9  -4    0.02    0.17
   5   9   4    0.07    0.23
  -6  -9  -4   13.37    0.81
  -6  -9  -4   13.05    0.84
   6   9   4   12.99    0.79
  -6   9  -4   13.24    0.69
   7 -10  -4   11.94    0.69
   7  10  -4   12.67    0.73
  -7  10   4   13.08    0.74
   7  10  -4   12.23    0.77
   6 -10  -4    2.40    0.32
   6  10  -4    2.28    0.36
  -6  10   4    2.21    0.35
   6  10  -4    1.82    0.33
   5 -10  -4    3.51    0.37
   5  10  -4    4.12    0.39
   5  10  -4    3.64    0.38
  -5  10   4    4.25    0.41
   4 -10  -4    7.78    0.47
   4 -10  -4    7.80    0.47
   4  10  -4    8.31    0.48
   4  10  -4    7.77    0.45
  -4  10   4    7.50    0.47
   3 -10  -4   44.91    1.59
   3 -10  -4   46.64    1.51
  -3  10   4   41.46    1.50
   3  10  -4   45.27    1.55
   3  10  -4   41.96    1.45
  -2 -10   4    5.53    0.29
   2 -10  -4    5.74    0.38
   2 -10  -4    4.88    0.36
   2  10  -4    5.55    0.31
  -2  10   4    5.34    0.38
   2  10  -4    5.09    0.31
   1 -10  -4  139.90    4.53
   1 -10  -4  142.83    4.23
  -1  10   4  138.72    4.24
   1  10  -4  142.81    4.10
   1  10  -4  133.51    4.39
   1  10  -4  140.38    4.10
   0 -10  -4   15.27    0.63
   0 -10  -4   13.73    0.64
   0  10  -4   12.49    0.47
   0  10   4   13.55    0.63
   0  10  -4   13.43    0.47
  -1 -10  -4   78.94    2.67
  -1 -10  -4   74.75    2.48
  -1  10  -4   78.39    2.32
  -1  10  -4   77.07    2.33
   1  10   4   80.74    2.51
  -2 -10  -4   16.90    0.81
  -2 -10  -4   17.20    0.78
   2  10   4   17.86    0.78
  -2  10  -4   17.84    0.62
  -3 -10  -4    7.08    0.51
  -3 -10  -4    7.55    0.51
   3  10   4    7.87    0.50
  -3  10  -4    6.59    0.36
  -4 -10  -4   16.10    0.80
  -4 -10  -4   14.93    0.83
   4  10   4   14.87    0.80
   4  10   4   16.85    0.79
  -4  10  -4   15.72    0.65
  -5 -10  -4   14.12    0.85
  -5 -10  -4   15.39    0.82
   5  10   4   16.57    0.82
   5  10   4   14.14    0.82
  -5  10  -4   15.05    0.69
  -6 -10  -4   -0.09    0.27
  -6 -10  -4    0.62    0.31
  -6  10  -4    0.33    0.22
   6  10   4    0.29    0.25
   7 -11  -4    1.00    0.26
   7  11  -4    1.51    0.35
  -7  11   4    1.46    0.34
   7  11  -4    1.05    0.31
   6 -11  -4    3.54    0.39
   6  11  -4    4.04    0.46
   6  11  -4    5.31    0.44
  -6  11   4    4.64    0.46
   5 -11  -4   28.98    1.16
  -5  11   4   28.31    1.13
   5  11  -4   28.70    1.19
   5  11  -4   29.60    1.13
   4 -11  -4    0.24    0.16
   4  11  -4    0.13    0.15
  -4  11   4   -0.14    0.17
   4  11  -4    0.10    0.16
   3 -11  -4   64.36    2.09
   3 -11  -4   64.51    2.23
   3  11  -4   64.55    2.05
  -3  11   4   64.79    2.11
   2 -11  -4   53.80    1.86
   2 -11  -4   53.31    1.74
   2  11  -4   51.43    1.66
  -2  11   4   52.43    1.76
   1 -11  -4    3.42    0.31
   1 -11  -4    3.71    0.32
   1  11  -4    3.48    0.21
   1  11  -4    2.89    0.21
  -1  11   4    3.93    0.34
   0 -11  -4  100.97    3.58
   0 -11  -4  108.11    3.35
   0  11  -4  113.41    3.19
   0  11   4  113.09    3.38
   0  11  -4  107.69    3.18
  -1 -11  -4   51.93    1.68
  -1 -11  -4   46.26    1.77
  -1  11  -4   49.27    1.50
  -1  11  -4   48.83    1.49
   1  11   4   49.26    1.68
  -2 -11  -4    0.66    0.21
  -2 -11  -4    0.54    0.20
   2  11   4    0.41    0.21
  -2  11  -4    0.68    0.12
  -3 -11  -4   40.65    1.59
  -3 -11  -4   38.97    1.48
   3  11   4   39.69    1.48
  -3  11  -4   41.56    1.31
  -4 -11  -4    3.74    0.45
  -4 -11  -4    4.41    0.46
   4  11   4    4.01    0.47
  -4  11  -4    3.55    0.30
   4  11   4    3.84    0.43
  -5 -11  -4    3.52    0.47
  -5 -11  -4    3.63    0.46
   5  11   4    3.32    0.43
  -5  11  -4    2.93    0.33
   5  11   4    3.31    0.45
  -6 -11  -4    4.60    0.57
  -6 -11  -4    5.82    0.59
  -6  11  -4    4.68    0.41
   6  11   4    4.29    0.54
   6 -12  -4   10.63    0.59
   6  12  -4   10.54    0.63
  -6  12   4   10.66    0.64
   5 -12  -4    0.23    0.17
   5  12  -4    0.03    0.18
  -5  12   4    0.07    0.20
   4 -12  -4   76.93    2.60
   4  12  -4   77.20    2.44
  -4  12   4   74.16    2.47
   3 -12  -4    1.99    0.27
   3 -12  -4    2.19    0.28
   3  12  -4    1.89    0.23
  -3  12   4    1.66    0.27
   2 -12  -4   35.01    1.21
   2 -12  -4   34.20    1.27
  -2  12   4   32.70    1.22
   2  12  -4   33.14    1.12
   1 -12  -4    5.50    0.38
   1 -12  -4    5.38    0.38
  -1  12   4    5.87    0.41
   1  12  -4    5.25    0.27
   1  12  -4    5.96    0.28
   0 -12  -4    0.26    0.16
   0 -12  -4    0.28    0.16
   0  12   4    0.50    0.19
   0  12  -4    0.22    0.08
   0  12  -4    0.36    0.08
  -1 -12  -4    0.21    0.17
  -1 -12  -4    0.25    0.15
   1  12   4    0.42    0.20
  -2 -12  -4   64.42    2.15
  -2 -12  -4   65.29    2.31
   2  12   4   65.93    2.17
  -2  12  -4   63.84    1.95
  -3 -12  -4    1.89    0.32
  -3 -12  -4    1.63    0.30
  -3  12  -4    1.51    0.18
   3  12   4    1.33    0.30
  -4 -12  -4   16.45    0.87
  -4 -12  -4   16.95    0.91
   4  12   4   18.52    0.88
  -4  12  -4   19.21    0.72
  -5 -12  -4    0.50    0.29
  -5 -12  -4    0.55    0.28
   5  12   4    0.62    0.29
   5  12   4    0.38    0.26
  -5  12  -4    0.62    0.21
   6 -13  -4    1.53    0.26
   6  13  -4    0.96    0.27
  -6  13   4    1.05    0.28
   5 -13  -4   21.05    0.88
  -5  13   4   18.29    0.87
   5  13  -4   20.76    0.88
   4 -13  -4    0.24    0.17
   4  13  -4    0.33    0.17
  -4  13   4    0.22    0.20
   3 -13  -4   48.13    1.72
  -3  13   4   51.71    1.68
   3  13  -4   45.03    1.58
   2 -13  -4   11.67    0.58
   2 -13  -4   11.16    0.58
  -2  13   4   10.76    0.59
   2  13  -4   12.03    0.49
   1 -13  -4    0.44    0.17
   1 -13  -4    0.81    0.20
  -1  13   4    0.62    0.20
   1  13  -4    0.51    0.11
   0 -13  -4    8.59    0.48
   0 -13  -4    7.60    0.46
   0  13   4    8.78    0.50
   0  13  -4    7.41    0.30
   0  13  -4    7.46    0.30
  -1 -13  -4   37.10    1.38
  -1 -13  -4   40.39    1.47
   1  13   4   37.95    1.40
  -2 -13  -4    0.17    0.17
  -2 -13  -4    0.86    0.24
  -2  13  -4    0.55    0.10
   2  13   4    0.75    0.23
  -3 -13  -4   59.67    2.08
  -3 -13  -4   58.94    2.22
   3  13   4   60.64    2.09
  -3  13  -4   61.68    1.86
  -4 -13  -4    0.26    0.23
  -4 -13  -4    0.21    0.23
   4  13   4   -0.02    0.21
  -4  13  -4    0.19    0.15
  -5 -13  -4    5.61    0.59
   5  13   4    4.78    0.53
  -5  13  -4    5.17    0.39
   5  13   4    5.76    0.54
   6 -14  -4    2.95    0.32
  -6  14   4    2.80    0.38
   6  14  -4    3.50    0.41
   5 -14  -4    0.50    0.19
  -5  14   4    0.81    0.24
   5  14  -4    1.39    0.27
   4 -14  -4   13.36    0.64
   4  14  -4   13.49    0.64
  -4  14   4   13.63    0.67
   3 -14  -4   13.10    0.63
  -3  14   4   12.78    0.65
   3  14  -4   13.50    0.59
   2 -14  -4   20.14    0.81
   2  14  -4   17.36    0.69
  -2  14   4   18.62    0.81
   1 -14  -4   90.03    2.81
   1 -14  -4   92.55    3.00
  -1  14   4   88.26    2.85
   1  14  -4   86.79    2.66
   0 -14  -4   14.63    0.72
   0 -14  -4   16.95    0.72
   0  14   4   15.99    0.73
  -1 -14  -4   25.56    1.03
  -1 -14  -4   26.10    1.08
   1  14   4   27.03    1.06
  -2 -14  -4   15.16    0.75
  -2 -14  -4   15.82    0.79
   2  14   4   16.55    0.78
  -3 -14  -4    0.16    0.20
  -3 -14  -4    0.38    0.23
   3  14   4    0.37    0.23
  -3  14  -4    0.47    0.13
  -4 -14  -4    3.21    0.43
  -4 -14  -4    2.93    0.42
   4  14   4    2.71    0.40
  -4  14  -4    3.02    0.28
  -5 -14  -4    7.44    0.62
  -5  14  -4    7.49    0.45
   5  14   4    7.45    0.61
   5  14   4    7.87    0.61
   6 -15  -4    6.57    0.42
  -6  15   4    6.27    0.51
   6  15  -4    6.24    0.50
   5 -15  -4    1.59    0.24
  -5  15   4    1.71    0.32
   5  15  -4    1.76    0.29
   4 -15  -4    3.79    0.32
  -4  15   4    3.31    0.37
   4  15  -4    3.51    0.35
   3 -15  -4    0.44    0.17
   3  15  -4    0.67    0.18
  -3  15   4    0.53    0.22
   2 -15  -4   70.12    2.46
   2  15  -4   75.23    2.26
  -2  15   4   73.56    2.39
   1 -15  -4    2.07    0.27
  -1  15   4    1.96    0.30
   1  15  -4    2.24    0.19
   0 -15  -4  127.72    4.20
   0 -15  -4  128.77    3.93
   0  15   4  126.89    3.96
  -1 -15  -4    1.23    0.24
  -1 -15  -4    1.19    0.24
   1  15   4    1.50    0.28
  -2 -15  -4    2.40    0.34
  -2 -15  -4    2.51    0.34
   2  15   4    2.09    0.34
  -3 -15  -4    0.13    0.20
  -3  15  -4    0.24    0.12
   3  15   4    0.49    0.25
  -4 -15  -4    8.49    0.63
   4  15   4   10.78    0.67
  -4  15  -4    9.47    0.46
  -5 -15  -4   -0.04    0.23
  -5  15  -4    0.09    0.17
   5  15   4    0.38    0.27
   5  15   4    0.64    0.30
   6 -16  -4    1.99    0.23
  -6  16   4    1.67    0.34
   6  16  -4    1.63    0.33
   5 -16  -4    0.88    0.19
   5  16  -4    0.97    0.25
  -5  16   4    0.94    0.27
   4 -16  -4    4.33    0.32
  -4  16   4    3.95    0.41
   4  16  -4    4.02    0.35
   3 -16  -4   20.44    0.79
   3  16  -4   17.85    0.75
  -3  16   4   18.16    0.83
   2 -16  -4   13.76    0.61
   2  16  -4   12.45    0.54
  -2  16   4   12.16    0.65
   1 -16  -4   42.73    1.59
   1  16  -4   44.63    1.39
  -1  16   4   46.50    1.59
   0 -16  -4    1.07    0.22
   0  16   4    1.59    0.27
  -1 -16  -4   22.00    0.96
   1  16   4   22.76    0.96
  -2 -16  -4    5.74    0.46
   2  16   4    5.83    0.48
  -3 -16  -4    2.36    0.37
   3  16   4    3.66    0.44
  -3  16  -4    2.51    0.21
  -4 -16  -4    2.23    0.38
  -4  16  -4    2.83    0.26
   4  16   4    2.04    0.39
  -5 -16  -4   10.14    0.72
   5  16   4    8.52    0.69
   5  16   4   10.31    0.70
  -5  16  -4    9.87    0.51
   5 -17  -4   13.63    0.57
  -5  17   4   12.96    0.72
   5  17  -4   14.03    0.70
   4 -17  -4    0.30    0.14
   4  17  -4    0.35    0.19
  -4  17   4    0.16    0.21
   3 -17  -4   24.94    0.94
   3  17  -4   24.50    0.93
  -3  17   4   24.39    1.02
   2 -17  -4   54.45    1.87
  -2  17   4   52.61    1.88
   2  17  -4   55.99    1.74
   1 -17  -4    0.19    0.15
  -1  17   4    0.06    0.20
   1  17  -4    0.00    0.10
   0 -17  -4   27.64    1.08
   0  17   4   26.28    1.08
  -1 -17  -4   24.70    1.02
   1  17   4   23.04    1.01
  -2 -17  -4    0.32    0.20
   2  17   4    0.38    0.23
  -3 -17  -4   20.23    0.96
  -3  17  -4   19.40    0.66
   3  17   4   18.25    0.93
  -4 -17  -4    5.94    0.53
   4  17   4    6.06    0.54
  -4  17  -4    5.96    0.35
   5  18  -4    0.10    0.19
  -5  18   4    0.08    0.22
   4  18  -4   28.81    1.12
  -4  18   4   29.71    1.19
   3 -18  -4    0.70    0.15
   3  18  -4    0.99    0.20
  -3  18   4    0.48    0.24
   2 -18  -4    6.92    0.38
   2  18  -4    6.48    0.37
  -2  18   4    7.08    0.50
   1 -18  -4    2.06    0.25
   1  18  -4    2.18    0.19
  -1  18   4    2.36    0.33
   0 -18  -4    7.62    0.46
   0  18   4    7.52    0.51
  -1 -18  -4    0.69    0.21
   1  18   4    1.46    0.30
  -2 -18  -4   45.06    1.68
   2  18   4   43.04    1.64
  -3 -18  -4    0.37    0.22
   3  18   4    0.22    0.25
  -4 -18  -4   11.72    0.75
  -4  18  -4   12.87    0.53
   4  18   4   12.21    0.77
  -5  19   4   16.81    0.83
   5  19  -4   15.81    0.79
   4  19  -4    0.37    0.19
  -4  19   4    0.09    0.22
  -3  19   4   22.72    0.99
   3  19  -4   22.87    0.89
   2 -19  -4    5.99    0.33
   2  19  -4    5.87    0.35
  -2  19   4    5.10    0.44
   1 -19  -4    0.88    0.17
   1  19  -4    1.33    0.16
  -1  19   4    1.09    0.26
   0 -19  -4    2.98    0.30
   0  19   4    2.70    0.35
  -1 -19  -4   32.24    1.25
   1  19   4   31.78    1.27
  -2 -19  -4    0.14    0.18
   2  19   4    0.41    0.25
  -3 -19  -4   23.48    1.07
   3  19   4   22.36    1.06
  -4 -19  -4    0.46    0.26
  -4  19  -4    0.02    0.14
   4  19   4    0.17    0.29
  -5  20   4    0.09    0.23
   5  20  -4   -0.19    0.17
  -4  20   4    7.11    0.53
   4  20  -4    6.94    0.46
  -3  20   4    7.87    0.56
   3  20  -4    8.43    0.47
   2  20  -4    8.08    0.42
  -2  20   4    8.12    0.55
   1 -20  -4   22.55    0.87
   1  20  -4   24.16    0.80
  -1  20   4   22.70    0.98
   0 -20  -4    5.15    0.35
   0  20   4    4.88    0.43
  -1 -20  -4   13.07    0.66
   1  20   4   14.53    0.74
  -2 -20  -4    7.43    0.50
   2  20   4    7.77    0.56
  -3 -20  -4    0.03    0.20
   3  20   4    0.34    0.27
   4  20   4    2.54    0.44
   4  21  -4    0.50    0.20
  -4  21   4    0.40    0.25
  -3  21   4    2.14    0.36
   3  21  -4    2.41    0.28
  -2  21   4   30.41    1.24
   2  21  -4   32.36    1.10
   1 -21  -4   -0.12    0.09
  -1  21   4    0.52    0.23
   1  21  -4    0.03    0.11
   0 -21  -4   29.18    1.11
   0  21   4   31.69    1.22
  -1 -21  -4    0.54    0.18
   1  21   4    0.42    0.24
  -2 -21  -4    2.17    0.31
   2  21   4    2.19    0.38
  -3 -21  -4    1.10    0.27
   3  21   4    1.00    0.32
   4  22  -4    1.12    0.24
  -4  22   4    0.97    0.30
  -3  22   4    4.13    0.46
   3  22  -4    5.20    0.37
  -2  22   4    0.88    0.28
   2  22  -4    1.56    0.22
  -1  22   4   15.94    0.80
   1  22  -4   17.18    0.62
   0 -22  -4    3.24    0.25
   0  22   4    3.77    0.42
  -1 -22  -4    7.74    0.45
   1  22   4    8.72    0.58
  -2 -22  -4    0.92    0.23
   2  22   4    1.48    0.33
   3  22   4   -0.05    0.24
   3  23  -4    6.58    0.42
  -3  23   4    5.71    0.50
  -2  23   4    8.01    0.56
   2  23  -4    8.68    0.44
   1  23  -4    0.26    0.12
  -1  23   4    0.11    0.21
   0  23   4   15.25    0.78
   1  23   4    4.79    0.49
   2  23   4   -0.10    0.22
  -3  24   4    0.25    0.25
   3  24  -4    0.04    0.16
   2  24  -4    4.20    0.31
  -2  24   4    3.76    0.44
  -1  24   4    0.42    0.24
   1  24  -4    0.63    0.15
   0  24   4    0.45    0.24
   1  24   4    0.51    0.26
   2  24   4   11.14    0.71
  -2  25   4    0.67    0.27
   2  25  -4    0.73    0.18
  -1  25   4    0.10    0.21
   1  25  -4    0.13    0.12
   0  25   4    2.89    0.39
   1  25   4    6.50    0.53
   7   0  -5    7.34    0.57
   7   0  -5    8.29    0.59
  -7   0   5    8.48    0.60
  -6   0   5    0.06    0.21
   6   0  -5   -0.07    0.17
   6   0  -5    0.13    0.21
  -5   0   5    0.53    0.22
   5   0  -5    0.65    0.21
   5   0  -5    0.74    0.22
   4   0  -5    0.61    0.19
   4   0  -5    0.14    0.15
  -4   0   5   -0.09    0.15
   3   0  -5  246.99    7.41
   3   0  -5  247.72    7.95
  -3   0   5  258.98    7.42
  -2   0   5    0.35    0.14
   2   0  -5    0.09    0.12
   2   0  -5    0.13    0.12
   1   0  -5  205.10    5.84
   1   0  -5  189.12    6.26
  -1   0   5  198.60    5.86
   0   0  -5    0.08    0.10
   0   0  -5    0.10    0.12
   0   0   5    0.11    0.12
   1   0   5   38.23    1.27
  -1   0  -5   38.26    1.32
  -1   0  -5   39.33    1.41
   1   0   5   37.61    1.35
   2   0   5   -0.16    0.11
  -2   0  -5   -0.12    0.15
  -2   0  -5   -0.13    0.13
  -3   0  -5   12.60    0.68
  -3   0  -5   13.26    0.64
   3   0   5   13.46    0.59
   3   0   5   12.89    0.59
   4   0   5    0.09    0.15
  -4   0  -5    0.12    0.20
  -4   0  -5    0.09    0.20
  -5   0  -5   27.86    1.14
   5   0   5   25.98    1.06
   6   0   5    0.00    0.17
  -6   0  -5    0.05    0.24
  -7  -1   5    1.77    0.36
   7  -1  -5    1.46    0.32
  -7   1   5    1.37    0.33
   7   1  -5    0.82    0.28
   7   1  -5    1.62    0.34
  -6  -1   5    2.84    0.37
   6  -1  -5    2.47    0.36
   6  -1  -5    2.59    0.37
   6   1  -5    2.69    0.36
  -6   1   5    2.75    0.37
   6   1  -5    2.03    0.33
  -5  -1   5   13.47    0.66
   5  -1  -5   12.73    0.68
   5  -1  -5   14.58    0.68
   5   1  -5   13.26    0.68
   5   1  -5   13.03    0.66
  -5   1   5   12.96    0.66
   4  -1  -5   12.99    0.60
   4  -1  -5   12.70    0.63
  -4  -1   5   12.15    0.59
   4   1  -5   12.67    0.62
  -4   1   5   11.73    0.59
   4   1  -5   11.38    0.58
  -3  -1   5    0.18    0.15
   3  -1  -5    0.22    0.14
   3  -1  -5    0.07    0.13
   3   1  -5    0.09    0.13
   3   1  -5    0.34    0.16
  -3   1   5    0.37    0.17
   2  -1  -5  126.80    4.46
  -2  -1   5  145.50    4.17
   2  -1  -5  137.65    4.17
  -2   1   5  145.38    4.18
   2   1  -5  136.97    4.45
   2   1  -5  139.48    4.16
   1  -1  -5   11.07    0.50
   1  -1  -5   11.06    0.52
  -1  -1   5   11.64    0.51
  -1   1   5   11.45    0.52
   1   1  -5   10.37    0.49
   1   1  -5   10.15    0.47
   0  -1   5   57.47    1.80
   0  -1  -5   54.58    1.82
   0  -1  -5   57.49    1.95
   0  -1   5   56.58    1.88
   0   1  -5   56.88    1.81
   0   1   5   58.57    1.83
   0   1  -5   55.91    1.92
  -1  -1  -5   36.76    1.28
   1  -1   5   38.13    1.22
   1  -1   5   36.98    1.28
  -1  -1  -5   37.45    1.37
  -1   1  -5   36.96    1.35
   1   1   5   35.79    1.23
  -1   1  -5   35.24    1.26
   2  -1   5    1.48    0.20
  -2  -1  -5    2.42    0.31
   2  -1   5    0.97    0.17
   2  -1   5    1.25    0.18
  -2  -1  -5    1.19    0.23
   2   1   5    1.47    0.22
  -2   1  -5    1.41    0.24
  -2   1  -5    1.70    0.25
  -3  -1  -5   26.53    1.13
  -3  -1  -5   26.02    1.05
   3  -1   5   26.74    0.99
  -3   1  -5   28.46    1.05
   3   1   5   26.02    1.03
   3   1   5   27.11    0.99
  -3   1  -5   26.97    1.12
  -4  -1  -5   31.72    1.19
  -4  -1  -5   29.80    1.27
   4  -1   5   30.38    1.13
   4   1   5   29.52    1.16
  -4   1  -5   29.87    1.16
  -5  -1  -5    0.19    0.24
   5  -1   5    0.19    0.16
  -5   1  -5   -0.21    0.19
   5   1   5    0.16    0.18
   6  -1   5    7.22    0.46
  -6  -1  -5    8.21    0.60
   6   1   5    7.47    0.49
  -6   1  -5    7.47    0.57
  -7  -2   5    3.21    0.43
   7  -2  -5    3.78    0.46
  -7   2   5    4.05    0.48
   7   2  -5    4.49    0.48
   7   2  -5    4.00    0.47
   6  -2  -5   24.12    1.09
  -6  -2   5   24.19    1.03
   6  -2  -5   24.89    1.05
   6   2  -5   24.15    1.03
  -6   2   5   24.17    1.04
   6   2  -5   24.86    1.09
   5  -2  -5    2.06    0.30
  -5  -2   5    2.48    0.32
   5  -2  -5    2.67    0.34
  -5   2   5    2.10    0.31
   5   2  -5    1.93    0.29
   5   2  -5    2.10    0.31
  -4  -2   5   58.83    1.90
   4  -2  -5   57.57    2.03
   4  -2  -5   57.12    1.91
   4   2  -5   59.53    2.03
  -4   2   5   58.12    1.91
   4   2  -5   54.12    1.89
   3  -2  -5   20.25    0.85
   3  -2  -5   20.10    0.81
  -3  -2   5   21.18    0.81
  -3   2   5   19.94    0.81
   3   2  -5   22.07    0.85
   3   2  -5   20.71    0.80
   2  -2  -5    2.88    0.26
   2  -2  -5    2.50    0.26
  -2  -2   5    2.57    0.25
   2   2  -5    1.94    0.22
  -2   2   5    2.14    0.25
   2   2  -5    2.87    0.25
  -1  -2   5  116.86    3.53
   1  -2  -5  118.14    3.54
  -1  -2   5  116.65    3.72
   1  -2  -5  119.33    3.80
  -1   2   5  117.75    3.56
   1   2  -5  112.85    3.76
   1   2  -5  115.84    3.51
   0  -2  -5  189.41    5.95
   0  -2  -5  189.88    5.55
   0  -2   5  190.14    5.49
   0   2  -5  179.63    5.51
   0   2   5  182.58    5.54
   0   2  -5  186.32    5.90
   1  -2   5    3.17    0.22
  -1  -2  -5    3.48    0.31
   1  -2   5    3.49    0.25
  -1  -2  -5    2.67    0.29
  -1   2  -5    3.10    0.29
  -1   2  -5    3.28    0.29
   1   2   5    3.30    0.30
  -2  -2  -5  114.66    3.57
  -2  -2  -5  109.74    3.82
   2  -2   5  117.91    3.70
   2  -2   5  115.55    3.46
   2  -2   5  120.17    3.68
   2   2   5  117.27    3.52
  -2   2  -5  113.88    3.53
  -2   2  -5  112.89    3.79
   3  -2   5   13.85    0.59
  -3  -2  -5   15.07    0.75
  -3  -2  -5   15.87    0.71
   3   2   5   14.41    0.67
  -3   2  -5   14.88    0.67
  -3   2  -5   13.99    0.71
   3   2   5   14.36    0.65
  -4  -2  -5    3.31    0.41
   4  -2   5    3.20    0.27
  -4  -2  -5    3.52    0.39
   4   2   5    3.55    0.33
  -4   2  -5    3.55    0.37
  -5  -2  -5    5.20    0.50
  -5  -2  -5    4.17    0.46
   5  -2   5    4.26    0.32
  -5   2  -5    4.16    0.44
   5   2   5    4.17    0.37
   6  -2   5    1.79    0.25
  -6  -2  -5    1.35    0.35
  -6   2  -5    1.64    0.34
   6   2   5    1.23    0.28
   7  -3  -5    9.12    0.63
  -7   3   5   10.26    0.66
   7   3  -5   10.44    0.66
   7   3  -5   11.38    0.69
   6  -3  -5    0.32    0.23
  -6  -3   5    0.22    0.22
   6  -3  -5    0.19    0.20
   6   3  -5    0.55    0.25
  -6   3   5    0.63    0.25
   6   3  -5    0.42    0.22
   5  -3  -5   63.75    2.08
   5  -3  -5   57.23    2.18
  -5  -3   5   62.03    2.05
   5   3  -5   60.99    2.20
  -5   3   5   62.55    2.08
   5   3  -5   62.55    2.07
  -4  -3   5    8.64    0.49
   4  -3  -5    9.27    0.53
   4  -3  -5    8.97    0.50
   4   3  -5    9.71    0.53
   4   3  -5    9.56    0.51
  -4   3   5    9.21    0.52
   3  -3  -5   16.81    0.74
   3  -3  -5   15.86    0.68
  -3  -3   5   15.76    0.66
  -3   3   5   16.19    0.69
   3   3  -5   15.83    0.67
   3   3  -5   17.35    0.71
  -2  -3   5    1.09    0.17
   2  -3  -5    1.13    0.19
   2  -3  -5    1.05    0.19
   2   3  -5    0.87    0.16
   2   3  -5    1.44    0.19
  -2   3   5    1.11    0.20
   1  -3  -5   37.90    1.34
   1  -3  -5   36.10    1.26
  -1  -3   5   36.15    1.23
  -1   3   5   36.91    1.28
   1   3  -5   36.66    1.29
   1   3  -5   37.01    1.22
   0  -3  -5    0.08    0.13
   0  -3   5    0.79    0.11
   0  -3   5    0.54    0.13
   0   3  -5    0.41    0.13
   0   3  -5    0.34    0.12
   0   3   5    1.53    0.22
  -1  -3  -5  136.06    4.22
  -1  -3  -5  139.04    4.53
   1  -3   5  140.45    4.37
   1  -3   5  142.63    4.10
   1   3   5  136.44    4.19
  -1   3  -5  137.26    4.17
  -1   3  -5  139.56    4.47
   2  -3   5    0.15    0.10
  -2  -3  -5    0.48    0.19
  -2  -3  -5    0.13    0.16
   2  -3   5    0.17    0.11
   2  -3   5    0.63    0.12
  -2   3  -5    0.20    0.16
  -2   3  -5    1.78    0.25
   2   3   5    0.22    0.15
   3  -3   5   41.11    1.38
  -3  -3  -5   42.15    1.48
  -3  -3  -5   38.95    1.57
  -3   3  -5   41.40    1.42
   3   3   5   41.98    1.43
   3   3   5   39.57    1.49
  -4  -3  -5    0.20    0.20
  -4  -3  -5    0.40    0.23
   4  -3   5    0.28    0.12
  -4   3  -5    0.00    0.17
   4   3   5    0.08    0.16
   5  -3   5    0.21    0.14
  -5  -3  -5    0.38    0.26
  -5  -3  -5    0.17    0.25
  -5   3  -5    0.24    0.22
   5   3   5    0.32    0.20
   6  -3   5   -0.08    0.13
  -6  -3  -5    0.14    0.26
   6   3   5   -0.09    0.19
  -6   3  -5    0.03    0.24
   7  -4  -5    2.13    0.36
   7   4  -5    2.55    0.40
  -7   4   5    2.47    0.39
   7   4  -5    2.66    0.39
   6  -4  -5   25.98    1.06
  -6  -4   5   24.47    1.04
   6  -4  -5   25.48    1.11
  -6   4   5   24.11    1.05
   6   4  -5   24.59    1.05
   6   4  -5   24.10    1.10
   5  -4  -5    4.37    0.41
  -5  -4   5    5.34    0.41
   5  -4  -5    5.29    0.43
   5   4  -5    5.44    0.41
  -5   4   5    4.83    0.42
   5   4  -5    5.15    0.43
  -4  -4   5   67.49    2.17
   4  -4  -5   66.38    2.19
   4  -4  -5   65.13    2.34
   4   4  -5   65.72    2.32
  -4   4   5   66.29    2.19
   4   4  -5   71.42    2.19
  -3  -4   5   42.40    1.39
   3  -4  -5   39.39    1.41
   3  -4  -5   41.73    1.51
   3   4  -5   42.60    1.40
   3   4  -5   40.09    1.48
  -3   4   5   42.03    1.42
  -2  -4   5    2.20    0.21
   2  -4  -5    2.26    0.26
  -2  -4   5    2.36    0.23
   2  -4  -5    2.29    0.26
   2   4  -5    1.88    0.21
  -2   4   5    1.94    0.25
   2   4  -5    1.84    0.21
   1  -4  -5   74.29    2.47
  -1  -4   5   69.10    2.34
  -1  -4   5   74.59    2.26
   1  -4  -5   71.84    2.31
  -1   4   5   72.95    2.32
   1   4  -5   76.62    2.26
   1   4  -5   72.19    2.40
   0  -4  -5  231.52    6.61
   0  -4  -5  216.18    7.08
   0  -4   5  221.82    6.92
   0   4  -5  219.28    6.53
   0   4  -5  219.62    6.52
   0   4   5  210.92    6.58
   0   4  -5  237.07    7.00
  -1  -4  -5   12.21    0.61
   1  -4   5   12.07    0.44
  -1  -4  -5   11.98    0.58
   1  -4   5   12.27    0.44
  -1   4  -5   12.34    0.55
  -1   4  -5   11.55    0.53
  -1   4  -5   11.89    0.53
   1   4   5   11.67    0.56
   2  -4   5  171.35    5.28
   2  -4   5  163.91    5.28
  -2  -4  -5  158.34    5.48
  -2  -4  -5  167.83    5.12
  -2   4  -5  171.34    5.06
  -2   4  -5  175.19    5.44
   2   4   5  175.93    5.09
  -3  -4  -5    4.13    0.42
  -3  -4  -5    4.54    0.42
   3  -4   5    4.44    0.24
  -3   4  -5    4.61    0.36
   3   4   5    5.06    0.38
  -4  -4  -5    8.05    0.55
   4  -4   5    7.96    0.37
  -4  -4  -5    7.57    0.56
   4   4   5    8.05    0.51
  -4   4  -5    8.45    0.49
  -5  -4  -5    3.25    0.45
   5  -4   5    3.15    0.24
  -5  -4  -5    4.17    0.47
   5   4   5    3.53    0.40
  -5   4  -5    3.08    0.37
  -6  -4  -5    2.62    0.42
  -6   4  -5    2.74    0.39
   6   4   5    2.64    0.37
   7  -5  -5    4.43    0.49
  -7   5   5    4.53    0.50
   7   5  -5    4.48    0.49
   7   5  -5    4.35    0.51
   6  -5  -5    3.95    0.44
  -6   5   5    5.09    0.48
   6   5  -5    4.07    0.44
   6   5  -5    4.70    0.44
   5  -5  -5    9.12    0.55
   5  -5  -5    7.85    0.51
  -5  -5   5    9.10    0.52
   5   5  -5    7.88    0.51
   5   5  -5    8.24    0.53
  -5   5   5    8.45    0.53
   4  -5  -5   25.72    1.08
   4  -5  -5   25.67    1.01
  -4  -5   5   26.13    0.99
   4   5  -5   25.11    0.99
   4   5  -5   26.23    1.06
  -4   5   5   28.31    1.04
   3  -5  -5    2.92    0.31
  -3  -5   5    4.00    0.32
   3  -5  -5    3.73    0.34
   3   5  -5    3.34    0.31
  -3   5   5    4.10    0.35
   3   5  -5    3.52    0.30
   2  -5  -5  143.81    4.27
  -2  -5   5  136.61    4.21
   2  -5  -5  141.39    4.58
  -2   5   5  145.54    4.28
   2   5  -5  146.99    4.22
   2   5  -5  132.82    4.51
  -1  -5   5   49.89    1.61
  -1  -5   5   49.79    1.64
   1  -5  -5   48.77    1.67
   1  -5  -5   50.62    1.79
   1   5  -5   51.75    1.71
   1   5  -5   51.43    1.61
  -1   5   5   53.56    1.70
   1   5  -5   50.19    1.61
   0  -5  -5  121.09    3.64
   0  -5  -5  111.83    3.89
   0  -5   5  122.23    3.50
   0   5  -5  117.19    3.56
   0   5   5  118.57    3.64
   0   5  -5  124.85    3.80
   0   5  -5  114.91    3.55
  -1  -5  -5   79.95    2.49
   1  -5   5   78.67    2.31
  -1  -5  -5   84.03    2.67
  -1   5  -5   75.09    2.40
  -1   5  -5   73.53    2.55
  -1   5  -5   77.04    2.40
   1   5   5   75.42    2.46
  -2  -5  -5    6.21    0.46
  -2  -5  -5    6.29    0.45
  -2   5  -5    6.72    0.40
   2   5   5    6.93    0.44
  -3  -5  -5   22.66    0.96
  -3  -5  -5   22.94    1.02
  -3   5  -5   23.06    0.88
   3   5   5   22.58    0.92
  -4  -5  -5   32.29    1.24
  -4  -5  -5   29.68    1.31
   4   5   5   30.39    1.18
   4   5   5   29.99    1.23
  -4   5  -5   29.67    1.14
  -5  -5  -5    0.97    0.30
  -5  -5  -5    0.63    0.29
   5   5   5    0.35    0.23
  -5   5  -5    0.43    0.22
  -6  -5  -5    7.22    0.64
  -6  -5  -5    6.68    0.63
  -6   5  -5    5.56    0.49
   6   5   5    6.25    0.51
   7  -6  -5   10.64    0.68
   7   6  -5   10.03    0.67
  -7   6   5   11.41    0.69
   7   6  -5   10.83    0.70
   6  -6  -5    0.12    0.19
  -6   6   5    0.19    0.23
   6   6  -5   -0.03    0.19
   5  -6  -5    1.01    0.25
   5  -6  -5    0.93    0.25
  -5   6   5    0.62    0.24
   5   6  -5    1.16    0.25
  -4  -6   5    1.42    0.23
   4  -6  -5    1.09    0.24
   4  -6  -5    0.83    0.22
   4   6  -5    1.53    0.25
  -4   6   5    0.94    0.24
   3  -6  -5  170.74    5.42
  -3  -6   5  164.54    4.99
   3  -6  -5  169.11    5.05
   3   6  -5  168.62    5.37
   3   6  -5  167.68    5.01
  -3   6   5  164.83    5.05
   2  -6  -5    1.16    0.21
  -2  -6   5    1.11    0.18
   2  -6  -5    0.75    0.19
  -2  -6   5    0.93    0.14
  -2   6   5    0.69    0.20
   2   6  -5    1.06    0.17
   2   6  -5    1.44    0.19
  -1  -6   5  232.77    7.62
   1  -6  -5  236.36    7.26
   1  -6  -5  238.80    7.80
   1   6  -5  278.71    7.72
   1   6  -5  249.41    7.18
   1   6  -5  242.01    7.18
  -1   6   5  241.83    7.28
   0  -6  -5    1.50    0.23
   0  -6  -5    1.58    0.24
   0   6   5    1.53    0.24
   0   6  -5    1.66    0.18
   0   6  -5    1.74    0.19
   0   6  -5    1.43    0.17
  -1  -6  -5    5.14    0.39
  -1  -6  -5    4.14    0.37
  -1   6  -5    4.12    0.29
   1   6   5    4.29    0.37
  -1   6  -5    4.36    0.31
  -1   6  -5    4.83    0.32
  -2  -6  -5    1.93    0.28
  -2  -6  -5    2.08    0.30
  -2   6  -5    2.39    0.25
   2   6   5    2.34    0.29
  -3  -6  -5   34.06    1.37
  -3  -6  -5   33.89    1.28
   3   6   5   33.10    1.25
  -3   6  -5   32.27    1.16
  -4  -6  -5   -0.27    0.19
  -4  -6  -5    0.17    0.22
   4   6   5    0.15    0.20
   4   6   5   -0.02    0.19
  -4   6  -5    0.17    0.17
  -5  -6  -5   28.26    1.32
  -5  -6  -5   27.88    1.23
   5   6   5   27.90    1.22
  -5   6  -5   30.04    1.14
  -6  -6  -5    0.04    0.26
  -6  -6  -5    0.07    0.25
   6   6   5    0.06    0.20
  -6   6  -5    0.16    0.23
   7  -7  -5    2.13    0.37
   7   7  -5    3.35    0.46
  -7   7   5    3.26    0.44
   7   7  -5    3.62    0.45
   6  -7  -5    2.09    0.34
   6   7  -5    2.46    0.37
  -6   7   5    1.58    0.33
   5  -7  -5    2.29    0.33
   5  -7  -5    1.72    0.30
  -5   7   5    2.29    0.34
   5   7  -5    2.29    0.32
  -4  -7   5   32.53    1.15
   4  -7  -5   30.83    1.17
   4  -7  -5   26.49    1.21
  -4   7   5   34.43    1.21
   4   7  -5   33.90    1.24
  -3  -7   5    1.89    0.23
   3  -7  -5    1.36    0.24
   3  -7  -5    1.58    0.25
  -3   7   5    1.74    0.27
   3   7  -5    1.63    0.22
   3   7  -5    1.54    0.22
  -2  -7   5  193.59    5.83
   2  -7  -5  187.00    5.98
  -2  -7   5  186.94    5.48
   2  -7  -5  177.57    5.56
   2   7  -5  186.46    5.50
  -2   7   5  187.68    5.58
   2   7  -5  182.85    5.89
   1  -7  -5    9.59    0.49
  -1  -7   5    8.46    0.38
   1  -7  -5    9.39    0.51
   1   7  -5    8.24    0.40
   1   7  -5    8.34    0.40
   1   7  -5    9.03    0.40
  -1   7   5    8.32    0.49
   0  -7  -5   68.89    2.27
   0  -7  -5   73.08    2.44
   0   7  -5   70.08    2.17
   0   7  -5   72.29    2.30
   0   7   5   67.76    2.27
   0   7  -5   71.04    2.16
  -1  -7  -5   36.39    1.30
  -1  -7  -5   35.43    1.38
  -1   7  -5   37.33    1.20
   1   7   5   34.17    1.28
  -2  -7  -5    1.71    0.29
  -2  -7  -5    2.31    0.31
   2   7   5    2.31    0.31
  -2   7  -5    2.28    0.25
  -3  -7  -5   14.02    0.72
  -3  -7  -5   13.38    0.75
  -3   7  -5   14.86    0.62
   3   7   5   14.67    0.71
  -4  -7  -5   23.52    1.08
  -4  -7  -5   23.89    1.15
  -4   7  -5   25.95    0.98
   4   7   5   27.63    1.08
   4   7   5   25.88    1.12
  -5  -7  -5    0.15    0.27
  -5  -7  -5    0.10    0.25
  -5   7  -5   -0.01    0.19
   5   7   5   -0.04    0.21
  -6  -7  -5    6.19    0.67
  -6  -7  -5    7.01    0.61
  -6   7  -5    6.64    0.51
   6   7   5    6.45    0.53
   7  -8  -5    2.35    0.37
   7   8  -5    2.70    0.43
  -7   8   5    2.46    0.41
   6  -8  -5   18.27    0.90
   6   8  -5   19.30    0.92
  -6   8   5   18.01    0.88
   5  -8  -5    0.25    0.19
   5   8  -5    0.32    0.19
   5   8  -5   -0.01    0.18
  -5   8   5    0.41    0.22
   4  -8  -5   45.51    1.76
   4  -8  -5   49.20    1.67
   4   8  -5   47.36    1.74
  -4   8   5   49.01    1.68
   4   8  -5   50.03    1.64
   3  -8  -5   29.79    1.15
   3  -8  -5   31.77    1.23
   3   8  -5   33.47    1.19
  -3   8   5   30.15    1.16
   2  -8  -5    1.90    0.26
   2  -8  -5    1.13    0.22
  -2   8   5    1.50    0.25
   2   8  -5    1.77    0.21
   2   8  -5    1.68    0.20
   1  -8  -5   93.00    2.89
   1  -8  -5   91.76    3.10
  -1   8   5   91.78    2.91
   1   8  -5   88.64    2.78
   1   8  -5   95.90    2.98
   0  -8  -5   88.21    2.71
   0  -8  -5   84.59    2.89
   0   8   5   86.36    2.71
   0   8  -5   83.75    2.56
   0   8  -5   83.13    2.57
  -1  -8  -5   19.76    0.84
  -1  -8  -5   20.48    0.90
  -1   8  -5   19.96    0.74
   1   8   5   20.19    0.85
  -2  -8  -5   75.16    2.68
  -2  -8  -5   77.03    2.50
   2   8   5   75.06    2.48
  -2   8  -5   78.47    2.37
  -3  -8  -5   10.92    0.62
  -3  -8  -5    9.87    0.63
   3   8   5   10.19    0.59
  -3   8  -5   10.11    0.49
  -4  -8  -5    3.58    0.46
  -4  -8  -5    3.95    0.45
   4   8   5    4.02    0.44
  -4   8  -5    3.86    0.36
   4   8   5    3.92    0.44
  -5  -8  -5    6.58    0.58
  -5  -8  -5    5.98    0.58
   5   8   5    6.45    0.52
  -5   8  -5    5.75    0.43
  -6  -8  -5    0.72    0.33
  -6   8  -5    1.18    0.30
   7  -9  -5    6.42    0.51
  -7   9   5    5.88    0.53
   7   9  -5    5.69    0.60
   6  -9  -5    0.24    0.21
  -6   9   5    0.40    0.24
   6   9  -5   -0.08    0.19
   6   9  -5    0.17    0.22
   5  -9  -5   42.21    1.61
  -5   9   5   41.43    1.53
   5   9  -5   41.96    1.50
   5   9  -5   41.09    1.60
   4  -9  -5    0.36    0.19
   4  -9  -5    0.31    0.19
  -4   9   5    0.13    0.19
   4   9  -5    0.19    0.17
   4   9  -5    0.52    0.19
   3  -9  -5   21.35    0.91
   3  -9  -5   20.85    0.86
  -3   9   5   20.58    0.88
   3   9  -5   20.81    0.85
   2  -9  -5    1.82    0.26
   2  -9  -5    2.04    0.27
   2   9  -5    1.92    0.21
   2   9  -5    1.74    0.21
  -2   9   5    1.27    0.25
   1  -9  -5   40.79    1.41
   1  -9  -5   38.19    1.49
   1   9  -5   41.63    1.29
  -1   9   5   39.13    1.41
   0  -9  -5    1.58    0.26
   0  -9  -5    1.89    0.26
   0   9   5    1.84    0.27
   0   9  -5    1.58    0.17
   0   9  -5    2.05    0.18
  -1  -9  -5   67.66    2.36
  -1  -9  -5   67.10    2.21
   1   9   5   64.65    2.20
  -1   9  -5   68.03    2.07
  -2  -9  -5   -0.03    0.17
  -2  -9  -5    0.43    0.20
   2   9   5    0.30    0.20
  -2   9  -5    0.14    0.13
  -3  -9  -5   39.69    1.56
  -3  -9  -5   38.70    1.45
  -3   9  -5   38.16    1.29
   3   9   5   37.82    1.43
  -4  -9  -5   -0.06    0.22
  -4  -9  -5    0.21    0.23
   4   9   5   -0.09    0.21
  -4   9  -5   -0.08    0.15
   4   9   5    0.20    0.22
  -5  -9  -5    0.19    0.26
  -5  -9  -5   -0.23    0.24
   5   9   5    0.01    0.23
  -5   9  -5   -0.13    0.18
   6 -10  -5   18.97    0.91
   6  10  -5   19.20    0.88
  -6  10   5   17.58    0.89
   5 -10  -5    2.65    0.34
  -5  10   5    2.00    0.33
   5  10  -5    2.02    0.30
   4 -10  -5   23.53    1.01
   4 -10  -5   22.84    0.96
   4  10  -5   23.56    0.92
  -4  10   5   23.97    0.98
   3 -10  -5   17.55    0.84
   3 -10  -5   21.86    0.85
   3  10  -5   18.16    0.75
  -3  10   5   19.60    0.84
   2 -10  -5    0.25    0.17
   2 -10  -5    0.13    0.16
  -2  10   5    0.14    0.19
   2  10  -5    0.06    0.12
   1 -10  -5   11.67    0.61
   1 -10  -5   11.97    0.60
  -1  10   5   12.75    0.62
   1  10  -5   11.51    0.48
   0 -10  -5   88.18    2.84
   0 -10  -5   89.36    3.04
   0  10  -5   91.91    2.69
   0  10   5   89.00    2.85
  -1 -10  -5    0.80    0.22
  -1 -10  -5    0.94    0.22
  -1  10  -5    1.23    0.17
   1  10   5    1.01    0.25
  -2 -10  -5   66.23    2.20
  -2 -10  -5   63.53    2.35
  -2  10  -5   66.67    2.02
   2  10   5   65.23    2.20
  -3 -10  -5    4.63    0.49
  -3 -10  -5    4.97    0.48
  -3  10  -5    5.13    0.33
   3  10   5    5.50    0.46
  -4 -10  -5    7.09    0.56
  -4 -10  -5    6.42    0.56
   4  10   5    6.74    0.54
  -4  10  -5    6.68    0.42
   4  10   5    7.50    0.55
  -5 -10  -5    3.29    0.46
  -5 -10  -5    2.60    0.44
   5  10   5    3.43    0.46
  -5  10  -5    2.78    0.34
   6 -11  -5    1.22    0.27
  -6  11   5    1.26    0.32
   6  11  -5    1.22    0.29
   5 -11  -5   10.03    0.57
  -5  11   5    8.11    0.56
   5  11  -5    8.74    0.53
   4 -11  -5    7.01    0.47
   4  11  -5    7.14    0.43
  -4  11   5    6.59    0.48
   3 -11  -5    0.38    0.19
   3 -11  -5    0.40    0.20
   3  11  -5    0.37    0.16
  -3  11   5    0.71    0.23
   2 -11  -5   81.23    2.77
   2 -11  -5   81.33    2.60
  -2  11   5   80.12    2.61
   1 -11  -5    3.42    0.33
   1 -11  -5    2.81    0.32
   1  11  -5    3.21    0.24
  -1  11   5    2.62    0.34
   0 -11  -5   68.04    2.27
   0 -11  -5   70.11    2.44
   0  11   5   70.65    2.30
   0  11  -5   70.46    2.11
  -1 -11  -5   54.89    1.85
  -1 -11  -5   51.43    1.95
   1  11   5   53.25    1.85
  -1  11  -5   55.39    1.68
  -2 -11  -5    7.68    0.54
  -2 -11  -5    9.33    0.56
   2  11   5    7.56    0.53
  -2  11  -5    8.41    0.39
  -3 -11  -5    2.92    0.40
  -3 -11  -5    2.22    0.34
  -3  11  -5    2.37    0.24
   3  11   5    2.76    0.38
  -4 -11  -5   12.16    0.78
  -4 -11  -5   12.57    0.75
   4  11   5   12.56    0.77
   4  11   5   14.39    0.77
  -4  11  -5   13.46    0.60
  -5 -11  -5   -0.14    0.23
  -5 -11  -5    0.60    0.31
   5  11   5    0.33    0.25
  -5  11  -5   -0.20    0.17
   6 -12  -5    0.37    0.21
   6  12  -5    0.24    0.22
  -6  12   5    0.39    0.26
   5 -12  -5    1.48    0.28
   5  12  -5    1.72    0.29
  -5  12   5    1.54    0.31
   4 -12  -5    1.16    0.25
   4  12  -5    0.87    0.21
  -4  12   5    1.49    0.29
   3 -12  -5   90.85    3.08
   3 -12  -5   92.49    2.90
  -3  12   5   91.04    2.91
   3  12  -5   88.39    2.80
   2 -12  -5    0.71    0.21
   2 -12  -5    0.16    0.18
  -2  12   5    0.09    0.19
   1 -12  -5  134.39    4.08
   1 -12  -5  130.50    4.36
  -1  12   5  136.76    4.12
   1  12  -5  129.28    3.93
   0 -12  -5    1.74    0.28
   0 -12  -5    2.16    0.29
   0  12  -5    2.11    0.18
   0  12   5    1.58    0.28
  -1 -12  -5   12.24    0.64
  -1 -12  -5   11.91    0.66
  -1  12  -5   11.60    0.47
   1  12   5   11.67    0.64
  -2 -12  -5    0.29    0.21
  -2 -12  -5    0.56    0.23
  -2  12  -5    0.43    0.12
   2  12   5    0.31    0.23
  -3 -12  -5    8.62    0.61
  -3 -12  -5    8.59    0.59
  -3  12  -5    9.43    0.44
   3  12   5   10.49    0.63
  -4 -12  -5    0.22    0.25
  -4 -12  -5    0.32    0.25
   4  12   5    0.33    0.26
  -4  12  -5    0.34    0.17
  -5 -12  -5   11.99    0.83
  -5 -12  -5   14.97    0.86
  -5  12  -5   13.90    0.66
   5  12   5   15.46    0.84
   6 -13  -5    2.83    0.36
   6  13  -5    2.53    0.36
  -6  13   5    2.02    0.36
   5 -13  -5    4.53    0.40
  -5  13   5    4.52    0.46
   5  13  -5    4.48    0.39
   4 -13  -5   12.17    0.65
  -4  13   5   12.76    0.68
   4  13  -5   12.47    0.60
   3 -13  -5    0.28    0.19
   3  13  -5    0.47    0.16
  -3  13   5    0.39    0.22
   2 -13  -5   86.70    2.81
   2 -13  -5   91.62    3.00
   2  13  -5   88.90    2.69
  -2  13   5   84.05    2.83
   1 -13  -5    0.38    0.19
   1 -13  -5    0.55    0.20
  -1  13   5    0.44    0.21
   1  13  -5    0.29    0.12
   0 -13  -5   14.72    0.69
   0 -13  -5   14.29    0.71
   0  13   5   13.79    0.69
   0  13  -5   13.80    0.51
  -1 -13  -5   20.18    0.89
  -1 -13  -5   22.16    0.96
   1  13   5   21.86    0.93
  -1  13  -5   20.13    0.71
  -2 -13  -5    0.64    0.24
  -2 -13  -5    1.41    0.30
   2  13   5    0.68    0.26
  -2  13  -5    1.35    0.16
  -3 -13  -5    6.27    0.53
  -3 -13  -5    6.39    0.52
   3  13   5    5.98    0.51
  -3  13  -5    6.60    0.35
  -4 -13  -5   20.08    1.08
  -4 -13  -5   23.41    1.07
  -4  13  -5   23.00    0.86
   4  13   5   23.65    1.07
  -5 -13  -5    0.46    0.29
  -5  13  -5    0.17    0.18
   5  13   5    0.36    0.27
   5  13   5    0.00    0.26
   6 -14  -5   11.57    0.66
   6  14  -5   13.29    0.71
  -6  14   5   11.98    0.72
   5 -14  -5    0.10    0.17
   5  14  -5   -0.01    0.17
  -5  14   5    0.24    0.23
   4 -14  -5   20.65    0.90
  -4  14   5   18.79    0.89
   4  14  -5   19.72    0.82
   3 -14  -5   17.18    0.80
  -3  14   5   17.49    0.81
   3  14  -5   16.68    0.70
   2 -14  -5    0.36    0.19
  -2  14   5    0.07    0.20
   2  14  -5    0.17    0.14
   1 -14  -5   54.73    2.05
   1 -14  -5   58.27    1.94
   1  14  -5   57.73    1.78
  -1  14   5   59.62    1.98
   0 -14  -5   21.20    0.94
   0 -14  -5   21.16    0.91
   0  14  -5   21.55    0.71
   0  14   5   21.15    0.92
  -1 -14  -5    4.64    0.44
  -1 -14  -5    4.27    0.41
   1  14   5    5.51    0.46
  -2 -14  -5   32.71    1.27
  -2 -14  -5   32.26    1.34
  -2  14  -5   31.35    1.01
   2  14   5   30.87    1.27
  -3 -14  -5    9.80    0.66
  -3 -14  -5    9.77    0.65
  -3  14  -5   11.54    0.47
   3  14   5   10.64    0.67
  -4 -14  -5    3.18    0.45
   4  14   5    3.07    0.44
  -4  14  -5    3.51    0.30
  -5 -14  -5    2.98    0.47
   5  14   5    3.43    0.48
   5  14   5    3.45    0.48
  -5  14  -5    3.94    0.35
   6 -15  -5    0.35    0.20
   6  15  -5    0.21    0.22
  -6  15   5    0.16    0.26
   5 -15  -5   18.63    0.83
  -5  15   5   17.59    0.87
   5  15  -5   16.99    0.81
   4 -15  -5    2.21    0.30
  -4  15   5    2.21    0.34
   4  15  -5    2.33    0.29
   3 -15  -5   16.08    0.75
   3  15  -5   15.60    0.67
  -3  15   5   15.93    0.79
   2 -15  -5    1.33    0.25
  -2  15   5    1.36    0.28
   2  15  -5    1.16    0.18
   1 -15  -5   21.45    0.93
  -1  15   5   20.95    0.93
   1  15  -5   22.03    0.75
   0 -15  -5    1.70    0.29
   0 -15  -5    1.04    0.24
   0  15  -5    1.26    0.14
   0  15   5    1.14    0.27
  -1 -15  -5   64.30    2.17
  -1 -15  -5   62.62    2.29
   1  15   5   64.67    2.19
  -2 -15  -5    2.90    0.38
  -2 -15  -5    2.93    0.39
  -2  15  -5    3.37    0.21
   2  15   5    3.04    0.40
  -3 -15  -5   15.74    0.87
  -3  15  -5   16.60    0.61
   3  15   5   15.92    0.85
  -4 -15  -5    0.13    0.24
  -4  15  -5    0.26    0.16
   4  15   5    0.12    0.27
   5 -16  -5    1.37    0.25
   5  16  -5    1.37    0.27
  -5  16   5    0.84    0.29
   4 -16  -5   15.04    0.72
  -4  16   5   15.31    0.78
   4  16  -5   15.20    0.70
   3 -16  -5    3.98    0.35
   3  16  -5    4.19    0.32
  -3  16   5    4.20    0.44
   2 -16  -5    0.80    0.21
   2  16  -5    1.02    0.18
  -2  16   5    1.40    0.29
   1 -16  -5    6.20    0.44
  -1  16   5    6.16    0.48
   1  16  -5    6.03    0.31
   0 -16  -5   46.54    1.70
   0  16   5   43.31    1.62
  -1 -16  -5    2.63    0.35
   1  16   5    2.08    0.34
  -2 -16  -5   42.75    1.68
   2  16   5   42.57    1.62
  -3 -16  -5    0.62    0.26
   3  16   5    0.26    0.27
  -3  16  -5    0.37    0.14
  -4 -16  -5    6.63    0.58
   4  16   5    7.12    0.60
  -4  16  -5    6.67    0.38
   5 -17  -5    6.41    0.42
   5  17  -5    6.42    0.47
  -5  17   5    6.76    0.53
   4 -17  -5    5.23    0.39
   4  17  -5    5.21    0.40
  -4  17   5    5.87    0.49
   3 -17  -5    1.97    0.27
   3  17  -5    2.24    0.27
  -3  17   5    1.64    0.33
   2 -17  -5   28.99    1.15
  -2  17   5   28.87    1.19
   2  17  -5   30.01    1.02
   1 -17  -5    8.04    0.49
  -1  17   5    6.66    0.51
   0 -17  -5   11.87    0.63
   0  17   5   10.93    0.64
  -1 -17  -5   27.22    1.16
   1  17   5   27.09    1.14
  -2 -17  -5    0.86    0.27
   2  17   5    0.31    0.26
  -3 -17  -5    4.65    0.52
   3  17   5    5.69    0.58
  -4 -17  -5    6.63    0.58
   4  17   5    6.60    0.60
  -4  17  -5    6.93    0.38
   5 -18  -5    0.64    0.17
  -5  18   5    0.69    0.28
   5  18  -5    0.08    0.20
   4 -18  -5    0.35    0.17
  -4  18   5    0.45    0.27
   4  18  -5    0.61    0.21
   3 -18  -5   29.09    1.10
  -3  18   5   25.83    1.16
   3  18  -5   28.78    1.04
   2 -18  -5    0.48    0.18
  -2  18   5    0.34    0.25
   2  18  -5    0.23    0.14
   1 -18  -5   45.20    1.62
  -1  18   5   41.95    1.59
   0 -18  -5    0.33    0.18
   0  18   5    0.38    0.23
  -1 -18  -5    1.55    0.30
   1  18   5    0.93    0.30
  -2 -18  -5    0.82    0.27
   2  18   5    1.48    0.33
  -3 -18  -5    6.81    0.55
   3  18   5    5.49    0.59
  -4 -18  -5    0.13    0.25
  -4  18  -5    0.00    0.13
   4  18   5   -0.18    0.26
  -5  19   5    1.29    0.32
   5  19  -5    1.43    0.28
   4 -19  -5    9.43    0.47
   4  19  -5    8.93    0.53
  -4  19   5    9.55    0.63
   3 -19  -5    0.29    0.15
  -3  19   5    0.25    0.25
   3  19  -5    0.59    0.18
   2 -19  -5   32.69    1.25
  -2  19   5   34.90    1.35
   2  19  -5   32.81    1.14
   1 -19  -5    0.41    0.18
  -1  19   5    0.12    0.23
   0 -19  -5   18.05    0.83
   0  19   5   17.57    0.86
  -1 -19  -5    8.34    0.53
   1  19   5    6.82    0.54
  -2 -19  -5    2.04    0.34
   2  19   5    2.46    0.40
  -3 -19  -5    1.70    0.35
   3  19   5    1.70    0.38
   4  20  -5    5.69    0.42
  -4  20   5    5.95    0.52
   3 -20  -5    7.34    0.39
  -3  20   5    7.21    0.56
   3  20  -5    6.85    0.43
   2 -20  -5    0.22    0.14
  -2  20   5    0.26    0.23
   2  20  -5   -0.05    0.14
   1 -20  -5   14.84    0.69
  -1  20   5   14.99    0.78
   0 -20  -5   13.99    0.68
   0  20   5   12.95    0.73
  -1 -20  -5    2.24    0.33
   1  20   5    3.02    0.41
  -2 -20  -5   14.48    0.76
   2  20   5   12.70    0.77
  -3 -20  -5    3.26    0.44
   3  20   5    2.28    0.42
   4  21  -5    0.16    0.18
  -4  21   5    0.20    0.26
  -3  21   5    6.53    0.54
   3  21  -5    7.19    0.43
   2 -21  -5    0.48    0.15
   2  21  -5    0.40    0.15
  -2  21   5   -0.03    0.23
   1 -21  -5   10.48    0.53
  -1  21   5   10.21    0.63
   0 -21  -5    0.28    0.17
   0  21   5    0.23    0.23
  -1 -21  -5   19.92    0.89
   1  21   5   17.93    0.91
  -2 -21  -5    0.17    0.19
   2  21   5    0.47    0.27
  -3 -21  -5    8.50    0.61
   3  21   5    8.45    0.66
  -3  22   5    1.00    0.30
   3  22  -5    0.36    0.18
  -2  22   5    0.50    0.27
   2  22  -5    0.42    0.16
   1 -22  -5    1.50    0.21
  -1  22   5    1.81    0.34
   0 -22  -5   10.91    0.56
   0  22   5   10.86    0.67
  -1 -22  -5    0.34    0.19
   1  22   5    0.32    0.25
  -2 -22  -5   16.08    0.80
   2  22   5   14.90    0.84
  -3  23   5    1.19    0.33
   3  23  -5    1.28    0.24
   2  23  -5   10.99    0.50
  -2  23   5   10.07    0.65
   1 -23  -5    0.47    0.14
  -1  23   5    0.83    0.28
   0 -23  -5    3.62    0.31
   0  23   5    4.01    0.46
  -1 -23  -5   11.17    0.58
   1  23   5    9.95    0.67
   2  24  -5    0.32    0.15
  -2  24   5    0.40    0.27
  -1  24   5   18.80    0.92
   0 -24  -5    0.30    0.14
   0  24   5    0.41    0.26
   1  24   5    1.07    0.31
   7   0  -6    0.51    0.27
   7   0  -6    0.61    0.28
   6   0  -6   30.52    1.26
  -6   0   6   32.04    1.28
   6   0  -6   31.94    1.35
   5   0  -6    0.10    0.20
  -5   0   6    0.35    0.23
   5   0  -6    0.00    0.18
  -4   0   6    5.65    0.43
   4   0  -6    6.40    0.44
   4   0  -6    5.28    0.41
   3   0  -6    0.43    0.16
   3   0  -6    0.18    0.14
  -3   0   6   -0.10    0.14
  -2   0   6   55.77    1.84
   2   0  -6   54.75    1.94
   2   0  -6   56.77    1.83
  -1   0   6    0.23    0.17
   1   0  -6    0.19    0.14
   1   0  -6    0.29    0.15
   0   0   6  170.71    5.32
   0   0  -6  178.45    5.74
   0   0  -6  186.58    5.36
   1   0   6    0.27    0.15
  -1   0  -6    0.20    0.16
  -1   0  -6    0.06    0.15
  -2   0  -6   79.71    2.65
  -2   0  -6   85.26    2.85
   3   0   6    0.24    0.15
  -3   0  -6   -0.01    0.18
  -3   0  -6   -0.06    0.18
  -4   0  -6   -0.27    0.17
   4   0   6   -0.11    0.14
  -5   0  -6   -0.26    0.22
   5   0   6   -0.08    0.15
   7  -1  -6   15.51    0.87
   7   1  -6   16.23    0.86
   7   1  -6   15.35    0.87
  -7   1   6   15.49    0.85
  -6  -1   6    0.31    0.24
   6  -1  -6    0.30    0.23
   6  -1  -6    0.39    0.22
   6   1  -6    0.49    0.24
   6   1  -6    0.51    0.24
  -6   1   6   -0.04    0.23
  -5  -1   6   37.51    1.45
   5  -1  -6   40.12    1.55
   5  -1  -6   41.74    1.48
   5   1  -6   40.24    1.47
   5   1  -6   39.07    1.55
  -5   1   6   39.75    1.47
   4  -1  -6   49.61    1.69
   4  -1  -6   48.69    1.78
  -4  -1   6   49.56    1.68
   4   1  -6   46.83    1.67
   4   1  -6   48.36    1.78
  -4   1   6   49.04    1.69
   3  -1  -6    2.98    0.31
   3  -1  -6    2.54    0.30
  -3  -1   6    3.20    0.32
   3   1  -6    2.45    0.28
   3   1  -6    2.67    0.29
  -3   1   6    2.88    0.33
   2  -1  -6   12.44    0.58
  -2  -1   6   12.92    0.59
   2  -1  -6   12.41    0.61
   2   1  -6   12.33    0.57
  -2   1   6   12.20    0.59
   2   1  -6   12.16    0.60
   1  -1  -6  136.11    4.52
  -1  -1   6  144.08    4.23
   1  -1  -6  140.81    4.23
   1   1  -6  139.36    4.51
   1   1  -6  137.53    4.21
  -1   1   6  138.64    4.24
   0  -1  -6   14.22    0.67
   0  -1  -6   13.96    0.65
   0  -1   6   13.84    0.61
   0  -1   6   14.37    0.60
   0   1  -6   14.57    0.66
   0   1  -6   14.40    0.63
   0   1   6   14.47    0.64
  -1  -1  -6  136.89    4.30
   1  -1   6  142.62    4.23
  -1  -1  -6  144.06    4.62
   1   1   6  138.06    4.25
  -1   1  -6  141.50    4.60
  -1   1  -6  141.93    4.30
  -2  -1  -6    4.84    0.43
   2  -1   6    5.65    0.34
  -2  -1  -6    6.49    0.45
  -2   1  -6    5.01    0.42
  -2   1  -6    5.19    0.43
   2   1   6    4.84    0.37
  -3  -1  -6    8.00    0.57
   3  -1   6    8.27    0.43
  -3  -1  -6    7.63    0.52
  -3   1  -6    7.92    0.51
   3   1   6    8.41    0.47
   4  -1   6    6.37    0.39
  -4  -1  -6    6.85    0.50
  -4   1  -6    5.80    0.47
   4   1   6    6.17    0.42
   5  -1   6    3.76    0.31
  -5  -1  -6    3.51    0.45
  -5   1  -6    3.89    0.46
   5   1   6    3.41    0.36
   7  -2  -6    0.22    0.23
  -7   2   6    0.08    0.24
   7   2  -6    0.26    0.26
   7   2  -6    0.17    0.24
   6  -2  -6    8.16    0.57
   6  -2  -6    8.45    0.58
   6   2  -6    8.64    0.59
   6   2  -6    7.45    0.55
  -6   2   6    8.94    0.59
   5  -2  -6    8.31    0.55
   5  -2  -6    7.63    0.54
  -5  -2   6    8.62    0.54
   5   2  -6    8.81    0.56
  -5   2   6    8.85    0.56
   5   2  -6    8.35    0.53
   4  -2  -6    6.29    0.45
   4  -2  -6    6.75    0.47
  -4  -2   6    6.94    0.46
   4   2  -6    7.33    0.46
  -4   2   6    6.63    0.47
   4   2  -6    6.72    0.47
   3  -2  -6   52.40    1.85
  -3  -2   6   51.98    1.72
   3  -2  -6   50.93    1.73
  -3   2   6   51.43    1.74
   3   2  -6   52.36    1.72
   3   2  -6   47.84    1.80
  -2  -2   6   14.44    0.65
   2  -2  -6   13.72    0.65
   2  -2  -6   15.30    0.69
   2   2  -6   15.49    0.67
   2   2  -6   15.12    0.64
  -2   2   6   14.59    0.67
  -1  -2   6   36.05    1.29
   1  -2  -6   38.29    1.39
   1  -2  -6   36.95    1.31
  -1  -2   6   36.12    1.30
   1   2  -6   39.36    1.29
   1   2  -6   40.12    1.37
  -1   2   6   36.05    1.32
   0  -2  -6   62.57    2.06
   0  -2  -6   62.78    2.19
   0  -2   6   61.36    1.99
   0   2   6   61.95    2.04
   0   2  -6   64.37    2.15
   0   2  -6   64.93    2.03
  -1  -2  -6    7.41    0.48
  -1  -2  -6    7.97    0.49
   1  -2   6    8.08    0.41
   1  -2   6    6.92    0.37
   1   2   6    7.82    0.45
  -1   2  -6    8.04    0.47
  -1   2  -6    7.39    0.47
  -2  -2  -6   15.96    0.78
   2  -2   6   17.37    0.67
  -2  -2  -6   18.70    0.85
  -2   2  -6   16.36    0.75
  -2   2  -6   16.13    0.79
   2   2   6   17.79    0.73
   3  -2   6   37.33    1.29
  -3  -2  -6   36.30    1.49
  -3  -2  -6   36.00    1.39
  -3   2  -6   36.54    1.35
   3   2   6   37.06    1.38
  -4  -2  -6   -0.11    0.21
  -4  -2  -6    0.24    0.24
   4  -2   6    0.18    0.13
  -4   2  -6    0.01    0.20
   4   2   6    0.18    0.17
   5  -2   6    8.80    0.46
  -5  -2  -6    9.59    0.64
  -5   2  -6    8.29    0.59
   5   2   6    9.24    0.54
   7  -3  -6    0.06    0.22
  -7   3   6    0.11    0.26
   7   3  -6   -0.15    0.20
   7   3  -6    0.02    0.23
   6  -3  -6    0.50    0.25
   6  -3  -6    0.77    0.27
  -6   3   6    0.96    0.29
   6   3  -6    0.85    0.26
   6   3  -6    0.65    0.25
  -5  -3   6    0.84    0.25
   5  -3  -6    0.55    0.24
   5  -3  -6    0.67    0.24
   5   3  -6    0.92    0.24
  -5   3   6    0.82    0.27
   5   3  -6    0.65    0.22
  -4  -3   6   58.16    1.92
   4  -3  -6   57.00    1.94
   4  -3  -6   56.76    2.07
  -4   3   6   57.81    1.94
   4   3  -6   58.26    1.93
   4   3  -6   55.47    2.03
  -3  -3   6    5.22    0.38
   3  -3  -6    5.49    0.41
   3  -3  -6    4.83    0.38
   3   3  -6    5.04    0.37
  -3   3   6    5.46    0.41
   3   3  -6    5.39    0.39
   2  -3  -6  139.60    4.61
   2  -3  -6  142.60    4.30
  -2  -3   6  139.21    4.26
  -2   3   6  139.79    4.30
   2   3  -6  144.38    4.56
   2   3  -6  140.91    4.26
  -1  -3   6    4.36    0.33
   1  -3  -6    4.61    0.35
   1  -3  -6    4.40    0.35
   1   3  -6    4.76    0.32
   1   3  -6    3.55    0.30
  -1   3   6    3.96    0.36
   0  -3  -6    0.27    0.17
   0  -3   6    0.17    0.13
   0  -3  -6    0.42    0.17
   0  -3   6    0.14    0.08
   0   3   6    0.28    0.16
   0   3  -6    0.31    0.13
   0   3  -6    0.18    0.15
  -1  -3  -6    4.61    0.39
   1  -3   6    4.66    0.27
  -1  -3  -6    5.64    0.41
  -1   3  -6    5.18    0.37
  -1   3  -6    4.92    0.38
   1   3   6    5.13    0.39
   2  -3   6   44.11    1.48
  -2  -3  -6   47.52    1.60
  -2  -3  -6   41.30    1.68
   2   3   6   44.97    1.54
  -2   3  -6   44.22    1.54
   3  -3   6    0.32    0.12
  -3  -3  -6    0.87    0.26
  -3  -3  -6    0.58    0.24
   3   3   6    0.78    0.21
  -3   3  -6    0.44    0.21
  -4  -3  -6   29.47    1.31
   4  -3   6   29.30    1.04
  -4  -3  -6   30.58    1.23
  -4   3  -6   29.39    1.16
   4   3   6   28.05    1.18
   5  -3   6   -0.02    0.11
  -5  -3  -6    0.01    0.24
   5   3   6    0.15    0.19
  -5   3  -6   -0.04    0.23
   7  -4  -6    0.57    0.28
  -7   4   6    0.39    0.29
   7   4  -6    0.59    0.28
   7   4  -6    0.69    0.28
   6  -4  -6    6.67    0.53
   6  -4  -6    6.15    0.51
   6   4  -6    6.32    0.51
  -6   4   6    6.60    0.53
   6   4  -6    6.83    0.51
   5  -4  -6   12.97    0.72
   5  -4  -6   13.87    0.70
  -5   4   6   12.98    0.70
   5   4  -6   12.58    0.69
   5   4  -6   12.95    0.68
   4  -4  -6    0.67    0.23
  -4  -4   6    0.80    0.22
   4  -4  -6    1.09    0.25
   4   4  -6    0.89    0.22
   4   4  -6    0.56    0.21
  -4   4   6    0.86    0.24
   3  -4  -6   59.94    2.22
  -3  -4   6   63.77    2.07
   3  -4  -6   62.95    2.09
   3   4  -6   67.37    2.21
  -3   4   6   61.72    2.10
   3   4  -6   66.30    2.08
   2  -4  -6   24.69    1.00
   2  -4  -6   24.26    0.95
  -2  -4   6   24.02    0.91
   2   4  -6   24.28    0.91
   2   4  -6   23.95    0.95
  -2   4   6   23.93    0.96
  -1  -4   6   45.32    1.43
  -1  -4   6   40.50    1.40
   1  -4  -6   41.82    1.47
   1  -4  -6   42.22    1.56
   1   4  -6   42.41    1.41
  -1   4   6   39.46    1.47
   1   4  -6   44.08    1.51
   0  -4   6   15.00    0.57
   0  -4  -6   14.68    0.70
   0  -4  -6   14.66    0.72
   0  -4   6   16.07    0.60
   0   4  -6   16.32    0.65
   0   4   6   15.86    0.70
   0   4  -6   15.85    0.67
   1  -4   6    6.27    0.28
  -1  -4  -6    6.27    0.46
   1  -4   6    6.50    0.29
  -1  -4  -6    6.42    0.46
  -1   4  -6    6.98    0.42
   1   4   6    6.21    0.43
  -1   4  -6    6.25    0.42
   2  -4   6    7.03    0.30
   2  -4   6    7.11    0.30
  -2  -4  -6    7.30    0.51
  -2  -4  -6    6.85    0.49
  -2   4  -6    7.02    0.45
   2   4   6    5.84    0.44
  -3  -4  -6   53.75    1.98
  -3  -4  -6   50.59    1.84
  -3   4  -6   50.73    1.76
  -4  -4  -6    1.24    0.31
  -4  -4  -6    0.91    0.28
  -4   4  -6    0.84    0.25
   4   4   6    0.62    0.23
  -5  -4  -6   12.60    0.82
  -5  -4  -6   12.90    0.76
   5   4   6   12.11    0.69
  -5   4  -6   12.15    0.69
   7  -5  -6    9.42    0.66
  -7   5   6   10.42    0.69
   7   5  -6    9.60    0.67
   7   5  -6    9.21    0.64
   6  -5  -6    0.69    0.27
  -6   5   6    0.83    0.29
   6   5  -6    0.78    0.26
   6   5  -6    0.70    0.25
   5  -5  -6   28.67    1.22
   5  -5  -6   29.16    1.16
   5   5  -6   26.77    1.19
   5   5  -6   30.36    1.15
  -5   5   6   27.97    1.15
   4  -5  -6   29.71    1.13
   4  -5  -6   28.47    1.18
   4   5  -6   27.52    1.09
  -4   5   6   28.85    1.13
   4   5  -6   28.93    1.16
  -3  -5   6    0.27    0.16
   3  -5  -6   -0.03    0.15
   3  -5  -6    0.37    0.19
  -3   5   6    0.12    0.17
   3   5  -6    0.05    0.14
   3   5  -6    0.01    0.14
  -2  -5   6   44.49    1.51
   2  -5  -6   46.28    1.67
   2  -5  -6   47.00    1.57
   2   5  -6   46.76    1.52
   2   5  -6   45.54    1.60
  -2   5   6   42.38    1.56
  -1  -5   6   91.94    2.80
   1  -5  -6   89.82    2.89
   1  -5  -6   94.89    3.10
  -1  -5   6   89.63    2.92
   1   5  -6   91.21    2.82
  -1   5   6   89.18    2.90
   1   5  -6   95.21    3.02
   0  -5  -6    1.76    0.27
   0  -5  -6    1.61    0.27
   0  -5   6    1.60    0.13
   0   5  -6    1.79    0.23
   0   5  -6    1.44    0.21
   0   5   6    1.44    0.25
  -1  -5  -6  118.60    4.09
  -1  -5  -6  122.74    3.83
   1   5   6  123.12    3.81
  -1   5  -6  128.13    3.77
  -2  -5  -6    4.67    0.45
  -2  -5  -6    4.79    0.43
  -2   5  -6    4.46    0.37
   2   5   6    4.43    0.41
  -3  -5  -6   11.49    0.67
  -3  -5  -6   11.58    0.71
   3   5   6   12.02    0.64
  -3   5  -6   11.51    0.60
  -4  -5  -6    8.11    0.58
  -4  -5  -6    8.25    0.62
  -4   5  -6    8.66    0.51
   4   5   6    7.85    0.53
  -5  -5  -6    3.95    0.50
  -5  -5  -6    3.84    0.52
   5   5   6    2.92    0.41
  -5   5  -6    4.30    0.44
   7  -6  -6    0.15    0.24
   7   6  -6    0.13    0.24
   7   6  -6    0.29    0.25
  -7   6   6    0.19    0.27
   6  -6  -6   27.99    1.28
  -6   6   6   32.23    1.26
   6   6  -6   28.32    1.21
   6   6  -6   30.27    1.30
   5  -6  -6    0.14    0.22
   5  -6  -6    0.30    0.22
  -5   6   6    0.55    0.25
   5   6  -6    0.40    0.22
   5   6  -6    0.84    0.24
   4  -6  -6   15.50    0.72
   4  -6  -6   14.59    0.75
   4   6  -6   14.81    0.69
   4   6  -6   15.44    0.73
  -4   6   6   14.06    0.72
   3  -6  -6    0.14    0.16
   3  -6  -6   -0.05    0.14
   3   6  -6    0.10    0.15
   3   6  -6   -0.21    0.11
  -3   6   6    0.18    0.19
   2  -6  -6   28.55    1.06
   2  -6  -6   26.09    1.09
   2   6  -6   26.74    0.98
  -2   6   6   27.91    1.06
   2   6  -6   26.38    1.03
  -1  -6   6    0.71    0.10
   1  -6  -6    0.72    0.21
   1  -6  -6    0.82    0.21
  -1   6   6    0.82    0.23
   1   6  -6    0.62    0.16
   1   6  -6    0.56    0.15
   0  -6  -6  169.84    5.19
   0  -6  -6  169.86    5.58
   0   6   6  175.42    5.19
   0   6  -6  170.24    5.10
  -1  -6  -6    0.43    0.20
  -1  -6  -6    0.77    0.22
  -1   6  -6    0.24    0.16
   1   6   6    0.60    0.20
  -2  -6  -6   39.82    1.46
  -2  -6  -6   38.81    1.54
   2   6   6   37.71    1.42
  -2   6  -6   40.28    1.37
  -3  -6  -6    0.36    0.24
  -3  -6  -6    0.05    0.23
  -3   6  -6    0.06    0.17
   3   6   6    0.61    0.24
  -4  -6  -6    0.34    0.26
  -4  -6  -6    0.08    0.23
   4   6   6    0.09    0.20
  -4   6  -6    0.35    0.20
  -5  -6  -6    0.24    0.27
  -5  -6  -6    0.08    0.27
  -5   6  -6    0.07    0.21
   5   6   6    0.14    0.22
   6  -7  -6    0.46    0.25
  -6   7   6    0.86    0.29
   6   7  -6    0.40    0.25
   6   7  -6    0.35    0.23
   5  -7  -6   34.38    1.40
   5  -7  -6   35.91    1.34
  -5   7   6   32.32    1.33
   5   7  -6   35.45    1.39
   5   7  -6   33.12    1.30
   4  -7  -6   15.75    0.77
   4  -7  -6   16.13    0.81
   4   7  -6   17.26    0.75
  -4   7   6   16.28    0.78
   4   7  -6   17.25    0.79
   3  -7  -6    1.53    0.27
   3  -7  -6    2.28    0.30
   3   7  -6    1.62    0.24
  -3   7   6    1.71    0.29
   3   7  -6    1.60    0.25
  -2  -7   6   45.70    1.38
   2  -7  -6   36.97    1.44
   2  -7  -6   41.43    1.55
  -2   7   6   39.85    1.46
   2   7  -6   40.89    1.38
   2   7  -6   40.35    1.46
   1  -7  -6   91.91    2.97
   1  -7  -6   95.11    3.19
   1   7  -6   94.32    2.88
  -1   7   6   94.54    2.99
   0  -7  -6    1.69    0.27
   0  -7  -6    1.21    0.25
   0   7  -6    1.70    0.22
   0   7   6    1.67    0.28
  -1  -7  -6  138.94    4.53
  -1  -7  -6  135.54    4.23
   1   7   6  133.42    4.21
  -1   7  -6  138.76    4.13
  -2  -7  -6    4.41    0.46
  -2  -7  -6    4.58    0.45
   2   7   6    4.89    0.45
  -2   7  -6    4.74    0.37
  -3  -7  -6    5.31    0.49
  -3  -7  -6    6.33    0.50
  -3   7  -6    5.65    0.40
   3   7   6    4.90    0.45
  -4  -7  -6    8.10    0.63
  -4  -7  -6    7.74    0.60
   4   7   6    7.82    0.57
  -4   7  -6    9.21    0.52
  -5  -7  -6    0.51    0.31
  -5  -7  -6    1.75    0.39
   5   7   6    0.58    0.26
  -5   7  -6    1.53    0.30
   6  -8  -6    6.24    0.52
  -6   8   6    6.09    0.53
   6   8  -6    6.72    0.51
   6   8  -6    7.65    0.56
   5  -8  -6    8.13    0.56
  -5   8   6    8.40    0.56
   5   8  -6    8.03    0.52
   5   8  -6    7.37    0.54
   4  -8  -6    3.45    0.40
   4  -8  -6    4.51    0.42
  -4   8   6    3.47    0.41
   4   8  -6    3.67    0.37
   3  -8  -6   61.72    2.08
   3  -8  -6   61.38    2.22
  -3   8   6   61.91    2.10
   3   8  -6   63.71    2.03
   2  -8  -6    8.98    0.54
   2  -8  -6    9.75    0.54
   2   8  -6    9.25    0.46
  -2   8   6    7.97    0.53
   1  -8  -6   25.61    1.03
   1  -8  -6   26.84    1.10
   1   8  -6   25.97    0.93
  -1   8   6   26.09    1.04
   0  -8  -6   31.22    1.19
   0  -8  -6   29.80    1.25
   0   8   6   31.27    1.19
   0   8  -6   32.29    1.08
  -1  -8  -6   10.46    0.62
  -1  -8  -6   10.86    0.60
  -1   8  -6   10.72    0.52
   1   8   6    9.42    0.58
  -2  -8  -6   23.94    1.10
  -2  -8  -6   26.38    1.06
   2   8   6   23.87    1.03
  -2   8  -6   25.41    0.94
  -3  -8  -6   43.52    1.65
  -3  -8  -6   44.00    1.75
  -3   8  -6   43.64    1.50
   3   8   6   44.44    1.62
  -4  -8  -6    0.29    0.26
  -4  -8  -6    0.59    0.28
  -4   8  -6    0.60    0.21
   4   8   6    0.57    0.25
  -5  -8  -6    8.57    0.69
  -5  -8  -6    9.26    0.69
  -5   8  -6    8.41    0.54
   5   8   6    8.70    0.63
   6  -9  -6    1.45    0.32
   6   9  -6    1.16    0.29
  -6   9   6    0.65    0.30
   5  -9  -6    0.47    0.21
  -5   9   6    0.49    0.24
   5   9  -6    0.26    0.20
   4  -9  -6   49.15    1.75
   4  -9  -6   49.00    1.85
   4   9  -6   50.76    1.70
  -4   9   6   48.17    1.75
   3  -9  -6    0.62    0.22
   3  -9  -6    0.75    0.24
   3   9  -6    0.47    0.17
  -3   9   6    0.26    0.22
   2  -9  -6   90.74    2.94
   2  -9  -6   94.55    3.15
  -2   9   6   93.40    2.97
   2   9  -6   89.53    2.84
   1  -9  -6    2.96    0.36
   1  -9  -6    2.89    0.34
  -1   9   6    3.38    0.37
   1   9  -6    3.09    0.27
   0  -9  -6    6.54    0.46
   0  -9  -6    6.51    0.46
   0   9  -6    6.32    0.35
   0   9   6    6.35    0.46
  -1  -9  -6    7.21    0.50
  -1  -9  -6    7.69    0.52
   1   9   6    7.32    0.51
  -1   9  -6    6.97    0.41
  -2  -9  -6   35.84    1.46
  -2  -9  -6   33.86    1.35
   2   9   6   36.22    1.36
  -2   9  -6   35.38    1.22
  -3  -9  -6    0.01    0.22
  -3  -9  -6    0.40    0.24
  -3   9  -6    0.30    0.17
   3   9   6    0.42    0.24
  -4  -9  -6   27.80    1.22
  -4  -9  -6   26.34    1.28
   4   9   6   27.21    1.24
  -4   9  -6   29.20    1.07
  -5  -9  -6    0.12    0.28
  -5  -9  -6    0.15    0.27
  -5   9  -6    0.30    0.21
   5   9   6    0.06    0.24
   6 -10  -6    8.34    0.59
  -6  10   6    8.95    0.62
   6  10  -6    8.82    0.59
   5 -10  -6    7.32    0.53
  -5  10   6    8.79    0.57
   5  10  -6    6.70    0.49
   4 -10  -6    2.03    0.32
   4 -10  -6    1.83    0.31
  -4  10   6    1.78    0.32
   4  10  -6    1.34    0.25
   3 -10  -6   61.22    2.14
   3 -10  -6   65.13    2.29
   3  10  -6   63.85    2.07
  -3  10   6   63.91    2.16
   2 -10  -6   13.30    0.70
   2 -10  -6   13.61    0.67
   2  10  -6   13.23    0.58
  -2  10   6   12.44    0.68
   1 -10  -6   37.48    1.38
   1 -10  -6   36.53    1.46
  -1  10   6   38.04    1.40
   1  10  -6   38.23    1.25
   0 -10  -6    4.26    0.42
   0 -10  -6    4.89    0.40
   0  10   6    4.74    0.41
   0  10  -6    4.00    0.28
  -1 -10  -6    9.84    0.61
  -1 -10  -6   10.26    0.61
   1  10   6    9.88    0.60
  -1  10  -6   10.32    0.49
  -2 -10  -6    6.94    0.51
  -2 -10  -6    6.14    0.51
   2  10   6    6.74    0.52
  -2  10  -6    6.85    0.39
  -3 -10  -6   24.15    1.08
  -3 -10  -6   23.05    1.12
   3  10   6   25.58    1.08
  -3  10  -6   24.64    0.91
  -4 -10  -6    0.19    0.25
  -4 -10  -6   -0.12    0.22
  -4  10  -6    0.39    0.20
   4  10   6    0.42    0.26
   4  10   6    0.14    0.24
  -5 -10  -6    6.97    0.64
  -5 -10  -6    8.05    0.65
  -5  10  -6    8.05    0.51
   5  10   6    7.24    0.61
   6 -11  -6    0.12    0.20
   6  11  -6    0.18    0.22
  -6  11   6    0.36    0.26
   5 -11  -6   11.44    0.67
  -5  11   6   11.80    0.69
   4 -11  -6   17.96    0.88
  -4  11   6   18.02    0.86
   4  11  -6   18.63    0.80
   3 -11  -6    2.64    0.34
   3 -11  -6    1.34    0.28
  -3  11   6    2.90    0.36
   3  11  -6    2.05    0.26
   2 -11  -6   24.03    0.99
   2 -11  -6   23.56    1.03
   2  11  -6   24.31    0.88
  -2  11   6   22.46    1.00
   1 -11  -6   53.87    1.96
   1 -11  -6   53.92    1.84
   1  11  -6   52.65    1.70
  -1  11   6   52.93    1.85
   0 -11  -6    3.34    0.38
   0 -11  -6    3.58    0.37
   0  11  -6    3.00    0.25
   0  11   6    2.79    0.36
  -1 -11  -6   51.92    1.90
  -1 -11  -6   50.17    1.78
  -1  11  -6   49.31    1.62
   1  11   6   49.68    1.78
  -2 -11  -6    6.39    0.51
  -2 -11  -6    7.01    0.52
  -2  11  -6    6.54    0.38
   2  11   6    6.73    0.51
  -3 -11  -6    7.85    0.58
  -3 -11  -6    6.85    0.55
  -3  11  -6    7.34    0.41
   3  11   6    7.28    0.56
  -4 -11  -6    5.55    0.54
  -4 -11  -6    4.22    0.52
   4  11   6    5.27    0.56
   4  11   6    6.41    0.55
  -4  11  -6    5.21    0.39
  -5 -11  -6    0.81    0.34
  -5 -11  -6    1.33    0.38
   5  11   6    1.31    0.34
  -5  11  -6    1.55    0.27
   6 -12  -6   13.71    0.76
  -6  12   6   13.12    0.78
   5 -12  -6    0.49    0.24
  -5  12   6   -0.10    0.23
   4 -12  -6    5.20    0.44
  -4  12   6    4.58    0.47
   3 -12  -6    0.42    0.20
   3  12  -6    0.51    0.17
  -3  12   6    0.30    0.23
   2 -12  -6   14.85    0.78
   2 -12  -6   16.32    0.77
   2  12  -6   16.99    0.66
  -2  12   6   15.58    0.79
   1 -12  -6    0.49    0.22
   1 -12  -6    0.41    0.20
   1  12  -6    0.38    0.13
  -1  12   6    0.47    0.24
   0 -12  -6   95.43    3.35
   0 -12  -6   97.68    3.13
   0  12   6   96.85    3.14
   0  12  -6  101.19    2.96
  -1 -12  -6    0.15    0.19
  -1 -12  -6    0.08    0.20
   1  12   6    0.32    0.21
  -1  12  -6    0.21    0.14
  -2 -12  -6   26.20    1.09
  -2 -12  -6   25.03    1.14
  -2  12  -6   24.43    0.89
   2  12   6   26.05    1.10
  -3 -12  -6    2.98    0.42
  -3 -12  -6    2.95    0.42
   3  12   6    3.13    0.43
  -3  12  -6    2.87    0.28
  -4 -12  -6    0.18    0.26
  -4 -12  -6   -0.08    0.24
  -4  12  -6   -0.01    0.16
   4  12   6    0.03    0.26
   6 -13  -6    0.24    0.22
  -6  13   6    0.80    0.31
   5 -13  -6   18.48    0.91
  -5  13   6   18.77    0.93
   4 -13  -6    5.98    0.48
  -4  13   6    7.34    0.53
   3 -13  -6    0.05    0.17
   3  13  -6    0.15    0.15
  -3  13   6    0.05    0.21
   2 -13  -6    6.48    0.48
   2 -13  -6    6.28    0.47
  -2  13   6    6.10    0.49
   2  13  -6    6.50    0.37
   1 -13  -6   29.92    1.19
   1 -13  -6   32.15    1.27
  -1  13   6   31.49    1.23
   1  13  -6   29.82    1.04
   0 -13  -6    1.47    0.29
   0 -13  -6    1.49    0.29
   0  13  -6    1.42    0.19
   0  13   6    1.60    0.30
  -1 -13  -6   40.96    1.58
  -1 -13  -6   39.59    1.48
   1  13   6   40.12    1.49
  -1  13  -6   37.73    1.29
  -2 -13  -6    0.69    0.26
  -2 -13  -6    0.33    0.24
  -2  13  -6    0.50    0.15
   2  13   6    0.30    0.25
  -3 -13  -6    5.70    0.52
  -3 -13  -6    5.62    0.52
  -3  13  -6    5.60    0.35
   3  13   6    5.59    0.57
  -4 -13  -6    3.14    0.47
  -4 -13  -6    2.56    0.45
   4  13   6    3.47    0.47
  -4  13  -6    3.39    0.32
   5 -14  -6    5.39    0.46
  -5  14   6    5.59    0.54
   4 -14  -6    4.27    0.41
  -4  14   6    3.51    0.42
   3 -14  -6   23.15    1.05
   3  14  -6   24.08    0.93
  -3  14   6   24.91    1.06
   2 -14  -6    6.21    0.47
  -2  14   6    6.43    0.50
   2  14  -6    6.08    0.36
   1 -14  -6    6.95    0.49
   1 -14  -6    7.11    0.49
   1  14  -6    7.22    0.36
  -1  14   6    6.41    0.50
   0 -14  -6   26.02    1.14
   0 -14  -6   27.06    1.09
   0  14  -6   26.57    0.90
   0  14   6   25.78    1.10
  -1 -14  -6    1.90    0.34
  -1 -14  -6    3.02    0.38
  -1  14  -6    2.63    0.24
   1  14   6    2.49    0.37
  -2 -14  -6   11.87    0.70
  -2 -14  -6   11.58    0.71
  -2  14  -6   10.77    0.48
   2  14   6   12.28    0.71
  -3 -14  -6   13.06    0.78
  -3 -14  -6   13.77    0.82
  -3  14  -6   14.06    0.57
   3  14   6   13.49    0.80
  -4 -14  -6    0.33    0.27
   4  14   6    0.48    0.31
  -4  14  -6    0.15    0.17
   5 -15  -6    0.39    0.23
   5  15  -6    0.79    0.25
  -5  15   6    0.29    0.27
   4 -15  -6   18.81    0.90
  -4  15   6   18.63    0.92
   3 -15  -6    1.75    0.30
  -3  15   6    1.43    0.32
   2 -15  -6   36.42    1.43
   2  15  -6   36.16    1.24
  -2  15   6   36.69    1.43
   1 -15  -6    2.14    0.32
  -1  15   6    1.94    0.34
   1  15  -6    2.21    0.22
   0 -15  -6    4.04    0.43
   0  15  -6    4.39    0.27
   0  15   6    4.97    0.48
  -1 -15  -6    0.86    0.26
  -1 -15  -6    0.25    0.23
   1  15   6    0.54    0.26
  -1  15  -6    0.72    0.15
  -2 -15  -6   21.86    1.05
  -2  15  -6   21.71    0.76
   2  15   6   22.48    1.04
  -3 -15  -6    0.33    0.24
  -3  15  -6    0.08    0.14
   3  15   6    0.03    0.25
  -4 -15  -6    8.54    0.68
   4  15   6    9.48    0.70
  -4  15  -6    9.81    0.49
   5 -16  -6    5.57    0.45
   5  16  -6    5.02    0.44
  -5  16   6    5.49    0.55
   4 -16  -6    0.28    0.20
  -4  16   6    0.00    0.25
   3 -16  -6   39.17    1.52
  -3  16   6   39.37    1.53
   2 -16  -6    5.32    0.43
   2  16  -6    5.15    0.34
  -2  16   6    4.78    0.51
   1 -16  -6   12.51    0.68
  -1  16   6   11.74    0.69
   1  16  -6   13.19    0.53
   0 -16  -6    5.27    0.45
   0  16   6    5.88    0.49
   0  16  -6    6.47    0.32
  -1 -16  -6    5.56    0.48
   1  16   6    5.63    0.50
  -2 -16  -6    2.53    0.39
   2  16   6    2.33    0.39
  -3 -16  -6   15.76    0.89
  -3  16  -6   15.54    0.60
   3  16   6   15.35    0.88
  -4 -16  -6    0.16    0.25
  -4  16  -6    0.26    0.16
   4  16   6    0.43    0.29
   5 -17  -6    6.25    0.46
  -5  17   6    7.08    0.57
   5  17  -6    5.79    0.47
   4 -17  -6    6.35    0.46
   4  17  -6    6.42    0.45
  -4  17   6    7.32    0.57
   3 -17  -6    0.10    0.18
  -3  17   6    0.01    0.25
   2 -17  -6   16.42    0.79
   2  17  -6   15.42    0.65
  -2  17   6   16.18    0.84
   1 -17  -6   20.47    0.95
   1  17  -6   21.39    0.76
  -1  17   6   20.17    0.96
   0 -17  -6    0.31    0.22
   0  17   6    0.61    0.26
   0  17  -6    0.41    0.13
  -1 -17  -6   25.53    1.12
   1  17   6   23.56    1.08
  -2 -17  -6    2.23    0.37
   2  17   6    2.59    0.41
  -3 -17  -6    3.90    0.51
  -3  17  -6    4.39    0.28
   3  17   6    3.69    0.50
   4 -18  -6    4.39    0.39
   4  18  -6    4.73    0.39
  -4  18   6    4.99    0.52
   3 -18  -6    0.54    0.21
  -3  18   6    0.43    0.28
   2 -18  -6    5.56    0.43
  -2  18   6    5.04    0.52
   2  18  -6    5.25    0.34
   1 -18  -6    0.50    0.22
  -1  18   6   -0.06    0.23
   1  18  -6    0.13    0.12
   0 -18  -6   46.37    1.77
   0  18   6   46.40    1.73
  -1 -18  -6    1.95    0.34
   1  18   6    1.80    0.35
  -2 -18  -6   14.95    0.83
   2  18   6   15.25    0.85
  -3 -18  -6    0.88    0.30
   3  18   6    0.69    0.34
   4 -19  -6    1.77    0.27
  -4  19   6    1.67    0.36
   4  19  -6    1.81    0.29
   3 -19  -6    0.44    0.19
  -3  19   6    0.02    0.24
   2 -19  -6    2.63    0.33
  -2  19   6    2.07    0.39
   2  19  -6    2.88    0.28
   1 -19  -6   25.15    1.06
   1  19  -6   23.71    0.85
  -1  19   6   23.76    1.07
   0 -19  -6    0.06    0.18
   0  19   6    0.36    0.26
  -1 -19  -6   28.07    1.22
   1  19   6   27.61    1.21
  -2 -19  -6    0.20    0.23
   2  19   6    0.94    0.32
  -3 -19  -6    2.51    0.41
   3  19   6    3.14    0.48
   4 -20  -6    2.17    0.27
   4  20  -6    2.09    0.31
  -4  20   6    1.93    0.40
   3 -20  -6   12.89    0.64
  -3  20   6   13.05    0.77
   2 -20  -6    2.54    0.32
  -2  20   6    3.20    0.44
   2  20  -6    2.56    0.27
   1 -20  -6    4.75    0.40
   1  20  -6    5.27    0.31
  -1  20   6    5.41    0.54
   0 -20  -6   11.02    0.64
   0  20   6   11.37    0.70
  -1 -20  -6    2.65    0.37
   1  20   6    2.40    0.40
  -2 -20  -6    4.63    0.51
   2  20   6    4.95    0.55
   3 -21  -6   -0.05    0.13
  -3  21   6    0.36    0.28
   2 -21  -6   16.89    0.76
   2  21  -6   16.24    0.68
  -2  21   6   17.27    0.88
   1 -21  -6    0.09    0.17
   1  21  -6   -0.01    0.11
  -1  21   6    0.03    0.23
   0 -21  -6    2.69    0.35
   0  21   6    3.17    0.43
  -1 -21  -6    0.55    0.22
   1  21   6    0.51    0.27
  -2 -21  -6    4.76    0.47
   2  21   6    4.82    0.55
   2 -22  -6    0.28    0.16
  -2  22   6    0.15    0.26
   2  22  -6    0.04    0.15
   1 -22  -6    3.61    0.34
  -1  22   6    3.09    0.43
   0 -22  -6    0.62    0.21
   0  22   6    0.48    0.28
  -1 -22  -6    0.40    0.22
   1  22   6    0.19    0.27
   1 -23  -6    3.94    0.34
  -1  23   6    4.12    0.48
   0 -23  -6    0.14    0.18
   0  23   6    0.11    0.24
   6   0  -7   -0.30    0.20
   6   0  -7    0.00    0.21
   5   0  -7   48.48    1.77
   5   0  -7   50.25    1.88
  -5   0   7   48.73    1.77
   4   0  -7    0.28    0.21
   4   0  -7    0.00    0.18
  -4   0   7    0.41    0.23
  -3   0   7   33.96    1.26
   3   0  -7   33.07    1.25
   3   0  -7   33.94    1.33
   2   0  -7    0.00    0.15
  -2   0   7    0.14    0.18
   2   0  -7    0.11    0.15
   1   0  -7    2.27    0.29
   1   0  -7    3.23    0.34
  -1   0   7    2.79    0.32
   0   0  -7    0.01    0.15
   0   0   7   -0.04    0.15
   0   0  -7    0.09    0.15
  -1   0  -7   39.08    1.51
  -1   0  -7   39.06    1.42
  -2   0  -7    0.39    0.22
  -2   0  -7    0.16    0.19
   3   0   7   39.66    1.44
  -3   0  -7   39.94    1.50
   4   0   7    0.11    0.15
  -4   0  -7    0.16    0.23
  -5   0  -7    4.69    0.52
   5   0   7    3.64    0.33
   6  -1  -7   11.52    0.72
   6  -1  -7   12.00    0.72
   6   1  -7   12.13    0.74
  -6   1   7   13.25    0.75
   6   1  -7   11.96    0.70
   5  -1  -7    4.07    0.44
   5  -1  -7    3.65    0.43
   5   1  -7    4.12    0.45
  -5   1   7    4.57    0.46
   5   1  -7    4.20    0.44
   4  -1  -7   55.52    1.90
   4  -1  -7   53.59    2.02
  -4  -1   7   55.11    1.90
  -4   1   7   53.38    1.90
   4   1  -7   56.15    2.01
   4   1  -7   56.02    1.90
  -3  -1   7    5.34    0.43
   3  -1  -7    5.63    0.44
   3  -1  -7    5.67    0.42
   3   1  -7    5.35    0.41
   3   1  -7    5.97    0.44
  -3   1   7    5.59    0.45
  -2  -1   7   34.59    1.28
   2  -1  -7   34.93    1.35
   2  -1  -7   35.03    1.28
   2   1  -7   34.74    1.27
  -2   1   7   35.42    1.30
   2   1  -7   34.23    1.33
   1  -1  -7   25.65    1.07
  -1  -1   7   28.55    1.02
   1  -1  -7   25.08    1.02
   1   1  -7   24.81    1.00
  -1   1   7   25.34    1.02
   1   1  -7   26.80    1.06
   0  -1   7   16.03    0.71
   0  -1  -7   18.29    0.81
   0  -1  -7   17.41    0.77
   0   1   7   16.32    0.74
   0   1  -7   17.21    0.79
   0   1  -7   16.33    0.74
  -1  -1  -7    6.20    0.47
  -1  -1  -7    6.54    0.46
  -1   1  -7    6.07    0.47
  -1   1  -7    6.19    0.45
  -2  -1  -7   48.57    1.83
   2  -1   7   48.17    1.66
  -2  -1  -7   48.93    1.73
  -2   1  -7   46.47    1.70
   3  -1   7    2.87    0.27
  -3  -1  -7    2.89    0.39
  -3   1  -7    2.88    0.37
   3   1   7    2.60    0.30
  -4  -1  -7   14.27    0.77
   4  -1   7   12.56    0.61
  -4   1  -7   14.37    0.76
   4   1   7   14.27    0.67
   5  -1   7    1.56    0.22
  -5  -1  -7    1.13    0.34
   5   1   7    1.83    0.27
  -5   1  -7    1.37    0.35
   6  -2  -7    7.09    0.58
   6  -2  -7    8.42    0.59
   6   2  -7    8.02    0.58
   6   2  -7    7.80    0.59
  -6   2   7    8.58    0.61
   5  -2  -7    8.90    0.59
   5  -2  -7    9.41    0.63
   5   2  -7    8.84    0.59
  -5   2   7   10.10    0.62
   5   2  -7    8.65    0.57
   4  -2  -7    0.66    0.23
   4  -2  -7    0.28    0.21
   4   2  -7    0.25    0.20
  -4   2   7    0.89    0.27
   4   2  -7    0.63    0.22
  -3  -2   7   35.96    1.32
   3  -2  -7   35.92    1.33
   3  -2  -7   34.73    1.40
   3   2  -7   36.54    1.32
  -3   2   7   35.42    1.34
   3   2  -7   37.00    1.39
  -2  -2   7   34.17    1.27
   2  -2  -7   34.36    1.36
   2  -2  -7   35.74    1.29
   2   2  -7   35.45    1.26
  -2   2   7   34.16    1.30
   2   2  -7   35.38    1.34
   1  -2  -7    1.11    0.23
   1  -2  -7    0.22    0.18
  -1  -2   7    0.44    0.19
   1   2  -7    0.03    0.15
  -1   2   7    0.43    0.20
   1   2  -7    0.24    0.17
   0  -2  -7   78.33    2.50
   0  -2  -7   78.62    2.67
   0   2  -7   72.68    2.61
   0   2  -7   75.11    2.45
   0   2   7   77.21    2.47
  -1  -2  -7    4.88    0.44
  -1  -2  -7    6.65    0.46
  -1   2  -7    5.04    0.42
   1   2   7    5.54    0.42
  -2  -2  -7    9.34    0.61
  -2  -2  -7    9.81    0.60
   2  -2   7    9.32    0.45
  -2   2  -7    9.19    0.57
  -3  -2  -7    7.61    0.56
   3  -2   7    6.32    0.36
  -3  -2  -7    6.30    0.51
   3   2   7    6.99    0.45
  -3   2  -7    6.14    0.47
  -4  -2  -7    3.03    0.42
   4  -2   7    3.15    0.26
   4   2   7    2.91    0.34
  -4   2  -7    2.90    0.40
   5  -2   7    1.32    0.19
  -5  -2  -7    1.73    0.38
  -5   2  -7    1.42    0.34
   5   2   7    1.09    0.25
   6  -3  -7    0.69    0.28
   6  -3  -7    0.46    0.27
  -6   3   7    0.85    0.30
   6   3  -7    0.42    0.25
   6   3  -7    0.63    0.27
   5  -3  -7   11.74    0.71
   5  -3  -7   11.82    0.67
   5   3  -7   12.79    0.71
   5   3  -7   10.78    0.65
  -5   3   7   11.75    0.68
   4  -3  -7    0.01    0.18
   4  -3  -7   -0.02    0.18
  -4   3   7    0.49    0.23
   4   3  -7    0.01    0.17
   4   3  -7    0.17    0.18
   3  -3  -7   42.76    1.60
   3  -3  -7   42.27    1.52
   3   3  -7   41.74    1.57
   3   3  -7   42.49    1.49
  -3   3   7   41.47    1.52
   2  -3  -7    1.45    0.26
   2  -3  -7    2.09    0.30
   2   3  -7    1.79    0.26
   2   3  -7    2.27    0.29
  -2   3   7    2.38    0.33
   1  -3  -7  141.03    4.76
   1  -3  -7  148.34    4.45
   1   3  -7  152.57    4.72
  -1   3   7  142.41    4.44
   1   3  -7  139.30    4.39
   0  -3  -7    0.28    0.20
   0  -3  -7    0.11    0.18
   0   3  -7    0.58    0.18
   0   3   7    0.43    0.20
   0   3  -7    0.25    0.16
  -1  -3  -7   51.72    1.97
  -1  -3  -7   53.15    1.86
   1   3   7   51.97    1.82
  -1   3  -7   57.69    1.84
  -2  -3  -7    2.78    0.37
   2  -3   7    2.23    0.20
  -2  -3  -7    3.47    0.41
  -2   3  -7    3.16    0.36
  -3  -3  -7    1.15    0.31
  -3  -3  -7    1.13    0.30
   3  -3   7    1.17    0.15
   3   3   7    0.87    0.23
  -3   3  -7    0.59    0.24
  -4  -3  -7    0.09    0.24
  -4   3  -7    0.24    0.23
   4   3   7    0.11    0.18
  -5  -3  -7    9.84    0.68
   5   3   7    8.49    0.55
  -5   3  -7    8.80    0.62
   6  -4  -7   15.17    0.80
   6  -4  -7   13.67    0.81
   6   4  -7   14.13    0.77
  -6   4   7   13.91    0.79
   6   4  -7   12.68    0.78
   5  -4  -7    5.33    0.49
   5  -4  -7    5.81    0.48
   5   4  -7    5.94    0.47
   5   4  -7    5.57    0.48
  -5   4   7    5.74    0.50
   4  -4  -7    0.51    0.22
   4  -4  -7    0.14    0.19
   4   4  -7    0.13    0.20
   4   4  -7    0.08    0.18
  -4   4   7    0.51    0.26
   3  -4  -7   21.01    0.90
   3  -4  -7   20.95    0.96
   3   4  -7   20.89    0.88
   3   4  -7   21.13    0.91
  -3   4   7   22.09    0.94
   2  -4  -7   35.68    1.39
   2  -4  -7   38.82    1.48
  -2   4   7   38.55    1.42
   2   4  -7   39.46    1.36
   2   4  -7   38.88    1.44
   1  -4  -7    0.39    0.20
   1  -4  -7    0.49    0.20
  -1   4   7    0.60    0.22
   1   4  -7    0.65    0.18
   1   4  -7    0.25    0.16
   0  -4  -7   78.01    2.56
   0  -4  -7   77.86    2.74
   0   4  -7   79.72    2.51
   0   4   7   78.03    2.55
  -1  -4  -7   11.78    0.63
   1  -4   7   11.22    0.44
  -1  -4  -7   10.60    0.64
  -1   4  -7   11.31    0.59
   1   4   7   11.73    0.62
  -2  -4  -7   14.32    0.79
  -2  -4  -7   14.75    0.76
  -2   4  -7   14.16    0.71
  -3  -4  -7    6.48    0.56
  -3  -4  -7    7.01    0.55
  -3   4  -7    6.86    0.49
   3   4   7    7.60    0.51
  -4  -4  -7    6.61    0.55
  -4  -4  -7    6.81    0.59
  -4   4  -7    5.74    0.48
   4   4   7    5.95    0.47
  -5  -4  -7    1.73    0.40
  -5   4  -7    1.17    0.32
   5   4   7    1.36    0.30
   6  -5  -7    7.60    0.61
  -6   5   7    7.33    0.60
   6   5  -7    9.89    0.64
   6   5  -7    9.86    0.62
   5  -5  -7    2.37    0.37
   5  -5  -7    2.87    0.39
   5   5  -7    2.61    0.37
   5   5  -7    2.25    0.35
  -5   5   7    2.86    0.40
   4  -5  -7   47.16    1.73
   4  -5  -7   51.02    1.85
   4   5  -7   48.01    1.81
  -4   5   7   48.65    1.75
   4   5  -7   47.76    1.71
   3  -5  -7    0.87    0.24
   3  -5  -7    1.45    0.28
  -3   5   7    0.84    0.26
   3   5  -7    0.96    0.23
   3   5  -7    0.69    0.21
   2  -5  -7   19.68    0.82
   2  -5  -7   18.55    0.85
  -2   5   7   17.94    0.82
   2   5  -7   14.84    0.72
   2   5  -7   17.41    0.78
   1  -5  -7   66.40    2.32
   1  -5  -7   64.18    2.17
  -1   5   7   64.93    2.17
   1   5  -7   63.83    2.10
   0  -5  -7    9.70    0.56
   0  -5  -7    8.51    0.56
   0  -5   7    8.25    0.34
   0   5  -7    9.26    0.49
   0   5   7    8.71    0.54
  -1  -5  -7    8.66    0.55
  -1  -5  -7    8.58    0.56
   1   5   7    8.04    0.52
  -1   5  -7    8.72    0.51
  -2  -5  -7   71.48    2.53
  -2  -5  -7   70.59    2.37
   2   5   7   69.75    2.32
  -2   5  -7   66.18    2.28
  -3  -5  -7    0.38    0.25
  -3  -5  -7    0.42    0.27
  -3   5  -7    0.14    0.19
  -4  -5  -7   14.45    0.88
  -4  -5  -7   15.41    0.84
   4   5   7   14.61    0.78
  -4   5  -7   14.73    0.75
  -5  -5  -7    3.57    0.51
  -5   5  -7    3.50    0.44
   5   5   7    4.04    0.46
   6  -6  -7    0.35    0.25
   6   6  -7    0.17    0.22
  -6   6   7    0.38    0.29
   6   6  -7    0.62    0.26
   5  -6  -7   44.22    1.75
   5  -6  -7   45.74    1.66
   5   6  -7   43.44    1.72
   5   6  -7   42.43    1.62
  -5   6   7   47.03    1.69
   4  -6  -7    0.09    0.20
   4  -6  -7    0.37    0.22
  -4   6   7    0.39    0.24
   4   6  -7   -0.13    0.17
   4   6  -7    0.62    0.22
   3  -6  -7   78.69    2.56
   3  -6  -7   74.89    2.72
   3   6  -7   79.72    2.51
  -3   6   7   76.28    2.57
   2  -6  -7    2.08    0.32
   2  -6  -7    1.89    0.31
   2   6  -7    1.88    0.26
  -2   6   7    2.08    0.33
   1  -6  -7    5.36    0.43
   1  -6  -7    5.02    0.43
  -1   6   7    6.25    0.47
   1   6  -7    5.01    0.36
   0  -6  -7    1.13    0.26
   0  -6  -7    1.24    0.27
   0   6  -7    1.24    0.22
   0   6   7    1.33    0.27
  -1  -6  -7   28.07    1.22
  -1  -6  -7   28.56    1.16
   1   6   7   29.47    1.16
  -1   6  -7   29.13    1.09
  -2  -6  -7    0.95    0.28
  -2  -6  -7    1.78    0.33
  -2   6  -7    1.18    0.25
   2   6   7    0.94    0.27
  -3  -6  -7   35.73    1.45
  -3  -6  -7   36.19    1.54
  -3   6  -7   37.09    1.35
  -4  -6  -7    0.19    0.26
  -4  -6  -7    0.32    0.28
   4   6   7    0.21    0.22
  -4   6  -7    0.09    0.21
  -5  -6  -7    4.45    0.55
  -5   6  -7    4.47    0.47
   6  -7  -7    5.45    0.50
   6   7  -7    5.58    0.49
  -6   7   7    5.51    0.56
   5  -7  -7    2.44    0.39
   5  -7  -7    2.60    0.39
  -5   7   7    2.03    0.39
   5   7  -7    2.55    0.35
   4  -7  -7   52.20    1.77
   4  -7  -7   50.61    1.87
   4   7  -7   46.69    1.70
  -4   7   7   45.17    1.74
   3  -7  -7    2.85    0.36
   3  -7  -7    2.62    0.36
   3   7  -7    2.34    0.30
  -3   7   7    2.50    0.36
   2  -7  -7   23.33    1.01
   2  -7  -7   21.48    0.94
   2   7  -7   20.61    0.86
  -2   7   7   22.37    0.97
   1  -7  -7   33.89    1.23
   1  -7  -7   33.41    1.31
  -1   7   7   30.89    1.22
   1   7  -7   27.25    1.10
   0  -7  -7   15.18    0.78
   0  -7  -7   16.18    0.76
   0   7  -7   15.10    0.67
   0   7   7   14.59    0.74
  -1  -7  -7    0.21    0.21
  -1  -7  -7    0.30    0.22
  -1   7  -7    0.34    0.19
   1   7   7    0.36    0.22
  -2  -7  -7   61.35    2.12
  -2  -7  -7   62.94    2.26
  -2   7  -7   59.70    2.01
   2   7   7   57.22    2.07
  -3  -7  -7    0.28    0.26
  -3  -7  -7    0.32    0.25
  -3   7  -7    0.28    0.21
  -4  -7  -7   13.88    0.87
  -4  -7  -7   14.61    0.84
   4   7   7   13.90    0.79
  -4   7  -7   15.11    0.73
   6  -8  -7    6.10    0.55
   6   8  -7    6.31    0.51
  -6   8   7    6.51    0.56
   5  -8  -7   11.45    0.71
   5   8  -7   11.36    0.66
  -5   8   7   12.86    0.73
   4  -8  -7    0.66    0.25
   4  -8  -7    0.15    0.21
   4   8  -7    0.37    0.20
  -4   8   7    0.87    0.28
   3  -8  -7   14.37    0.74
   3  -8  -7   14.74    0.77
   3   8  -7   13.93    0.67
  -3   8   7   13.75    0.74
   2  -8  -7   21.39    0.93
   2  -8  -7   18.12    0.93
   2   8  -7   22.45    0.85
  -2   8   7   21.31    0.94
   1  -8  -7    1.69    0.30
   1  -8  -7    1.90    0.32
  -1   8   7    1.74    0.31
   1   8  -7    2.48    0.28
   0  -8  -7   71.03    2.39
   0  -8  -7   70.13    2.55
   0   8  -7   73.67    2.28
   0   8   7   70.84    2.38
  -1  -8  -7    8.89    0.60
  -1  -8  -7    8.94    0.58
  -1   8  -7    9.52    0.51
   1   8   7    9.38    0.59
  -2  -8  -7    6.68    0.55
  -2  -8  -7    7.46    0.55
   2   8   7    7.74    0.56
  -2   8  -7    7.27    0.47
  -3  -8  -7    9.63    0.65
  -3  -8  -7    8.96    0.64
  -3   8  -7    9.94    0.55
  -4  -8  -7    1.57    0.38
  -4  -8  -7    1.05    0.34
  -4   8  -7    1.61    0.29
   4   8   7    1.36    0.33
   6  -9  -7    0.46    0.26
   6   9  -7    0.02    0.21
  -6   9   7   -0.09    0.26
   5  -9  -7    3.58    0.44
  -5   9   7    3.56    0.46
   5   9  -7    3.30    0.40
   4  -9  -7    0.90    0.27
   4  -9  -7    1.05    0.28
  -4   9   7    0.88    0.28
   4   9  -7    0.88    0.24
   3  -9  -7   19.88    0.97
   3  -9  -7   20.11    0.93
  -3   9   7   22.22    0.97
   3   9  -7   20.50    0.86
   2  -9  -7    1.18    0.27
   2  -9  -7    1.35    0.28
   2   9  -7    1.12    0.21
  -2   9   7    0.97    0.29
   1  -9  -7   61.48    2.42
   1  -9  -7   69.83    2.30
  -1   9   7   68.47    2.29
   1   9  -7   70.57    2.17
   0  -9  -7    0.77    0.25
   0  -9  -7    0.89    0.25
   0   9  -7    0.91    0.19
   0   9   7    1.17    0.27
  -1  -9  -7   44.69    1.62
  -1  -9  -7   45.36    1.73
  -1   9  -7   41.39    1.49
   1   9   7   44.04    1.61
  -2  -9  -7    0.08    0.21
  -2  -9  -7    0.34    0.24
  -2   9  -7    0.15    0.18
   2   9   7   -0.08    0.22
  -3  -9  -7    0.24    0.25
  -3  -9  -7    0.27    0.27
  -3   9  -7    0.28    0.19
  -4  -9  -7    0.22    0.28
  -4  -9  -7    0.09    0.25
  -4   9  -7    0.02    0.18
   4   9   7   -0.17    0.21
   6 -10  -7    9.93    0.68
   6  10  -7   10.78    0.66
  -6  10   7   10.25    0.72
   5 -10  -7    5.38    0.49
   5  10  -7    5.93    0.47
  -5  10   7    6.30    0.55
   4 -10  -7    1.20    0.29
  -4  10   7    1.09    0.31
   4  10  -7    0.85    0.24
   3 -10  -7   13.29    0.74
   3 -10  -7   15.04    0.78
   3  10  -7   13.85    0.66
  -3  10   7   15.00    0.77
   2 -10  -7   35.95    1.39
   2 -10  -7   36.54    1.47
   2  10  -7   36.29    1.28
  -2  10   7   36.23    1.41
   1 -10  -7    2.15    0.34
   1 -10  -7    1.88    0.32
   1  10  -7    1.87    0.24
  -1  10   7    1.62    0.31
   0 -10  -7   27.46    1.14
   0 -10  -7   29.12    1.21
   0  10   7   26.84    1.14
   0  10  -7   28.64    1.03
  -1 -10  -7    6.32    0.50
  -1 -10  -7    5.63    0.48
  -1  10  -7    5.52    0.40
   1  10   7    5.62    0.47
  -2 -10  -7    2.33    0.39
  -2 -10  -7    2.89    0.41
  -2  10  -7    3.44    0.33
   2  10   7    3.62    0.45
  -3 -10  -7    3.54    0.48
  -3 -10  -7    4.92    0.52
  -3  10  -7    3.96    0.35
   3  10   7    3.67    0.47
  -4 -10  -7    3.08    0.47
  -4 -10  -7    2.78    0.44
   4  10   7    3.07    0.45
  -4  10  -7    2.98    0.35
   6 -11  -7    4.35    0.50
  -6  11   7    4.99    0.55
   6  11  -7    4.01    0.47
   5 -11  -7    1.70    0.33
   5  11  -7    2.30    0.35
  -5  11   7    3.14    0.44
   4 -11  -7   28.70    1.25
   4  11  -7   28.00    1.12
  -4  11   7   28.69    1.22
   3 -11  -7    2.27    0.35
   3 -11  -7    1.99    0.34
   3  11  -7    1.93    0.27
  -3  11   7    1.96    0.34
   2 -11  -7   12.56    0.71
   2 -11  -7   13.13    0.70
   2  11  -7   12.49    0.58
  -2  11   7   11.96    0.70
   1 -11  -7   16.69    0.83
   1 -11  -7   16.15    0.80
  -1  11   7   15.61    0.80
   1  11  -7   16.13    0.67
   0 -11  -7    7.91    0.55
   0 -11  -7    8.14    0.55
   0  11  -7    8.11    0.44
   0  11   7    8.12    0.55
  -1 -11  -7    6.86    0.52
  -1 -11  -7    5.92    0.50
   1  11   7    6.52    0.51
  -1  11  -7    5.65    0.40
  -2 -11  -7   24.26    1.08
  -2 -11  -7   22.66    1.11
  -2  11  -7   23.87    0.91
   2  11   7   23.70    1.07
  -3 -11  -7    1.00    0.30
  -3 -11  -7    0.97    0.31
   3  11   7    1.03    0.32
  -3  11  -7    0.78    0.21
  -4 -11  -7    7.33    0.64
  -4 -11  -7    8.59    0.65
  -4  11  -7    7.76    0.49
   4  11   7    7.40    0.62
   5 -12  -7   18.43    0.94
  -5  12   7   17.51    0.94
   5  12  -7   19.49    0.89
   4 -12  -7    0.84    0.27
   4  12  -7    0.74    0.23
  -4  12   7    0.71    0.29
   3 -12  -7   32.08    1.38
  -3  12   7   33.79    1.35
   3  12  -7   32.89    1.21
   2 -12  -7    0.53    0.23
   2 -12  -7    0.64    0.25
  -2  12   7    0.44    0.25
   2  12  -7    0.62    0.18
   1 -12  -7    0.38    0.22
   1 -12  -7    0.22    0.21
   1  12  -7    0.78    0.17
  -1  12   7    0.37    0.23
   0 -12  -7    0.48    0.23
   0 -12  -7    0.54    0.23
   0  12   7    0.10    0.21
   0  12  -7    0.60    0.17
  -1 -12  -7   23.63    1.02
  -1 -12  -7   22.16    1.04
  -1  12  -7   21.30    0.85
   1  12   7   21.75    1.00
  -2 -12  -7    0.51    0.25
  -2 -12  -7   -0.04    0.23
  -2  12  -7    0.40    0.17
   2  12   7    0.53    0.26
  -3 -12  -7   25.99    1.24
  -3 -12  -7   25.60    1.17
   3  12   7   26.49    1.19
  -3  12  -7   25.70    0.97
  -4 -12  -7   -0.11    0.27
  -4 -12  -7    0.47    0.29
  -4  12  -7    0.47    0.19
   4  12   7    0.30    0.27
   5 -13  -7    1.27    0.30
  -5  13   7    1.61    0.35
   5  13  -7    1.02    0.27
   4 -13  -7   27.85    1.25
   4  13  -7   29.04    1.13
  -4  13   7   28.19    1.23
   3 -13  -7    2.99    0.40
   3  13  -7    3.11    0.33
  -3  13   7    3.04    0.43
   2 -13  -7   15.43    0.79
   2 -13  -7   15.21    0.81
   2  13  -7   16.39    0.68
  -2  13   7   14.60    0.81
   1 -13  -7    7.17    0.53
   1 -13  -7    8.51    0.55
  -1  13   7    7.70    0.55
   1  13  -7    7.92    0.42
   0 -13  -7    6.55    0.52
   0 -13  -7    7.55    0.54
   0  13  -7    6.88    0.40
   0  13   7    7.44    0.54
  -1 -13  -7    2.34    0.36
  -1 -13  -7    2.21    0.37
   1  13   7    1.56    0.33
  -1  13  -7    2.11    0.26
  -2 -13  -7   24.46    1.19
  -2 -13  -7   28.22    1.18
   2  13   7   25.32    1.15
  -2  13  -7   26.34    0.95
  -3 -13  -7    0.11    0.25
  -3 -13  -7    0.12    0.24
  -3  13  -7    0.11    0.16
   3  13   7    0.02    0.25
  -4 -13  -7   10.10    0.72
  -4 -13  -7    9.22    0.70
  -4  13  -7    7.46    0.48
   5 -14  -7    6.07    0.52
  -5  14   7    6.97    0.57
   5  14  -7    5.49    0.48
   4 -14  -7    0.05    0.20
   4  14  -7    0.11    0.18
  -4  14   7   -0.12    0.24
   3 -14  -7   15.00    0.82
  -3  14   7   16.33    0.86
   3  14  -7   15.52    0.70
   2 -14  -7   18.25    0.90
  -2  14   7   17.56    0.90
   2  14  -7   17.37    0.73
   1 -14  -7    1.80    0.31
  -1  14   7    1.10    0.30
   1  14  -7    1.25    0.20
   0 -14  -7   33.69    1.31
   0 -14  -7   30.80    1.34
   0  14   7   32.79    1.31
   0  14  -7   31.83    1.12
  -1 -14  -7   12.23    0.74
  -1 -14  -7   12.60    0.73
  -1  14  -7   13.26    0.57
   1  14   7   12.77    0.74
  -2 -14  -7    4.40    0.52
  -2 -14  -7    4.34    0.51
   2  14   7    4.22    0.50
  -2  14  -7    3.61    0.30
  -3 -14  -7    5.23    0.58
  -3 -14  -7    5.01    0.54
  -3  14  -7    5.09    0.35
   5 -15  -7    1.90    0.36
  -5  15   7    1.82    0.40
   5  15  -7    2.04    0.34
   4 -15  -7    1.51    0.32
  -4  15   7    1.61    0.37
   4  15  -7    0.83    0.23
   3 -15  -7    8.22    0.57
  -3  15   7    8.69    0.64
   3  15  -7    7.55    0.47
   2 -15  -7    0.04    0.19
   2  15  -7    0.03    0.15
  -2  15   7    0.35    0.26
   1 -15  -7   33.01    1.42
  -1  15   7   36.50    1.41
   1  15  -7   35.16    1.20
   0 -15  -7    1.48    0.30
   0  15   7    1.09    0.30
   0  15  -7    1.32    0.21
  -1 -15  -7   19.66    1.00
  -1  15  -7   20.68    0.77
   1  15   7   21.00    0.99
  -2 -15  -7    2.66    0.41
   2  15   7    2.67    0.43
  -2  15  -7    3.71    0.28
  -3 -15  -7    0.24    0.25
   3  15   7    0.35    0.29
  -3  15  -7   -0.05    0.14
   4 -16  -7    0.03    0.19
  -4  16   7    0.02    0.25
   4  16  -7    0.08    0.18
   3 -16  -7    2.86    0.38
  -3  16   7    1.99    0.39
   3  16  -7    2.52    0.30
   2 -16  -7   23.97    1.06
   2  16  -7   23.07    0.90
  -2  16   7   22.21    1.06
   1 -16  -7    0.06    0.20
  -1  16   7    0.19    0.26
   1  16  -7    0.15    0.14
   0 -16  -7   28.47    1.21
   0  16   7   25.62    1.16
   0  16  -7   26.58    0.96
  -1 -16  -7    3.18    0.44
   1  16   7    3.61    0.46
  -1  16  -7    3.86    0.28
  -2 -16  -7    1.47    0.35
   2  16   7    2.31    0.40
  -2  16  -7    1.73    0.20
  -3 -16  -7    0.24    0.25
  -3  16  -7    0.41    0.16
   3  16   7    0.17    0.29
   4 -17  -7   10.23    0.64
  -4  17   7   10.51    0.72
   4  17  -7   10.09    0.59
   3 -17  -7    0.99    0.25
   3  17  -7    0.61    0.20
  -3  17   7    1.08    0.34
   2 -17  -7    4.81    0.44
   2  17  -7    4.06    0.34
  -2  17   7    4.79    0.53
   1 -17  -7   13.76    0.76
   1  17  -7   14.30    0.60
  -1  17   7   14.54    0.80
   0 -17  -7    1.39    0.31
   0  17  -7    2.16    0.24
   0  17   7    1.64    0.35
  -1 -17  -7    7.05    0.56
  -1  17  -7    7.90    0.38
   1  17   7    7.66    0.59
  -2 -17  -7   10.33    0.69
   4 -18  -7    0.21    0.20
  -4  18   7    0.51    0.32
   4  18  -7    0.21    0.21
   3 -18  -7   16.68    0.84
  -3  18   7   17.44    0.93
   3  18  -7   16.90    0.75
   2 -18  -7    1.44    0.29
  -2  18   7    1.39    0.36
   2  18  -7    1.33    0.22
   1 -18  -7    1.80    0.32
   1  18  -7    1.32    0.20
  -1  18   7    0.72    0.30
   0 -18  -7    0.34    0.24
   0  18   7    0.58    0.28
   0  18  -7    0.64    0.16
  -1 -18  -7    6.07    0.51
   1  18   7    5.45    0.57
  -2 -18  -7    0.17    0.23
   2  18   7    0.06    0.26
   3 -19  -7    0.40    0.22
  -3  19   7    0.36    0.30
   3  19  -7    0.30    0.19
   2 -19  -7    4.77    0.42
   2  19  -7    3.53    0.32
  -2  19   7    3.41    0.47
   1 -19  -7    3.16    0.40
  -1  19   7    3.20    0.45
   1  19  -7    3.28    0.27
   0 -19  -7    3.91    0.44
   0  19   7    3.25    0.45
  -1 -19  -7    1.25    0.32
   1  19   7    1.14    0.32
  -2 -19  -7   10.58    0.71
   2  19   7   11.71    0.76
   3 -20  -7    6.96    0.49
   3  20  -7    6.54    0.44
  -3  20   7    6.94    0.61
   2 -20  -7   11.84    0.68
  -2  20   7   11.55    0.75
   2  20  -7   12.98    0.59
   1 -20  -7    0.82    0.25
  -1  20   7    0.78    0.31
   1  20  -7    0.83    0.17
   0 -20  -7   12.72    0.73
   0  20   7   13.55    0.78
  -1 -20  -7    4.03    0.48
   1  20   7    5.31    0.56
   2 -21  -7   -0.03    0.17
  -2  21   7    0.08    0.27
   2  21  -7    0.00    0.14
   1 -21  -7   13.45    0.73
   1  21  -7   14.50    0.58
  -1  21   7   13.73    0.82
   0 -21  -7   -0.07    0.19
   0  21   7    0.37    0.28
   6   0  -8    3.64    0.46
   6   0  -8    4.42    0.52
   5   0  -8   -0.22    0.19
   5   0  -8   -0.06    0.23
   4   0  -8   15.26    0.78
   4   0  -8   16.65    0.84
   3   0  -8    0.15    0.19
   3   0  -8    0.23    0.19
   2   0  -8  108.46    3.62
   2   0  -8  103.96    3.38
   1   0  -8    0.43    0.21
   1   0  -8    0.22    0.18
   0   0  -8   31.34    1.28
   0   0  -8   29.49    1.19
  -1   0  -8   -0.22    0.17
   2   0   8    5.12    0.36
  -2   0  -8    4.45    0.48
   3   0   8    0.19    0.15
  -3   0  -8    0.12    0.23
   4   0   8   12.39    0.60
  -4   0  -8   13.23    0.77
   6  -1  -8    4.19    0.53
   6  -1  -8    4.07    0.49
   6   1  -8    5.20    0.55
   6   1  -8    4.96    0.52
   5  -1  -8    1.76    0.34
   5  -1  -8    1.65    0.35
   5   1  -8    1.41    0.33
   5   1  -8    1.59    0.33
   4  -1  -8    7.93    0.57
   4  -1  -8    8.51    0.55
   4   1  -8    8.32    0.58
   4   1  -8    7.60    0.54
   3  -1  -8   33.38    1.35
   3  -1  -8   31.86    1.27
   3   1  -8   32.25    1.26
   3   1  -8   33.70    1.35
  -3   1   8   33.71    1.30
   2  -1  -8    0.48    0.22
   2  -1  -8    0.56    0.22
   2   1  -8    0.50    0.21
   2   1  -8    0.80    0.23
   1  -1  -8   60.71    2.07
   1  -1  -8   60.62    2.21
   1   1  -8   63.41    2.07
   1   1  -8   58.47    2.18
   0  -1  -8    7.08    0.53
   0  -1  -8    8.22    0.53
   0   1  -8    8.61    0.53
  -1  -1  -8    4.51    0.47
  -1  -1  -8    4.12    0.43
  -1   1  -8    4.41    0.43
  -2  -1  -8   12.56    0.70
   2  -1   8   12.37    0.57
  -2   1  -8   11.90    0.68
  -3  -1  -8    5.80    0.51
   3  -1   8    5.36    0.36
  -3   1  -8    5.61    0.49
   3   1   8    5.83    0.40
  -4  -1  -8    0.59    0.29
   4  -1   8    0.08    0.13
   4   1   8    0.45    0.18
  -4   1  -8    0.37    0.26
   6  -2  -8    0.61    0.29
   6  -2  -8    1.22    0.34
   6   2  -8    0.92    0.30
   6   2  -8    0.52    0.27
   5  -2  -8   24.69    1.15
   5  -2  -8   25.23    1.10
   5   2  -8   23.40    1.13
   5   2  -8   25.15    1.09
   4  -2  -8    7.78    0.56
   4  -2  -8    8.13    0.55
   4   2  -8    7.19    0.56
  -4   2   8    7.61    0.57
   4   2  -8    7.23    0.52
   3  -2  -8   18.28    0.94
   3  -2  -8   21.45    0.92
  -3   2   8   20.01    0.92
   3   2  -8   20.03    0.88
   3   2  -8   20.53    0.94
   2  -2  -8   27.13    1.18
   2  -2  -8   27.99    1.13
   2   2  -8   28.62    1.11
  -2   2   8   26.98    1.13
   2   2  -8   28.73    1.16
   1  -2  -8    8.08    0.56
   1  -2  -8    8.20    0.55
   1   2  -8    8.80    0.55
   1   2  -8    9.45    0.55
  -1   2   8    9.81    0.58
   0  -2  -8   15.29    0.76
   0  -2  -8   15.86    0.80
   0   2  -8   14.96    0.73
  -1  -2  -8   34.52    1.41
  -1  -2  -8   33.14    1.31
  -1   2  -8   33.28    1.29
  -2  -2  -8    0.99    0.28
   2  -2   8    1.06    0.18
  -2   2  -8    0.83    0.26
   3  -2   8   18.13    0.71
  -3  -2  -8   19.32    0.94
  -3   2  -8   17.94    0.88
   3   2   8   18.49    0.83
  -4  -2  -8    3.80    0.47
  -4   2  -8    3.86    0.46
   4   2   8    3.55    0.38
   6  -3  -8   15.76    0.90
   6  -3  -8   17.57    0.89
   6   3  -8   15.05    0.84
   6   3  -8   15.25    0.87
   5  -3  -8    0.94    0.29
   5  -3  -8    0.79    0.29
   5   3  -8    0.95    0.29
  -5   3   8    1.33    0.33
   5   3  -8    0.46    0.26
   4  -3  -8   52.64    1.97
   4  -3  -8   60.85    2.13
   4   3  -8   56.85    2.09
   4   3  -8   52.51    1.95
  -4   3   8   56.97    2.00
   3  -3  -8   -0.11    0.18
   3  -3  -8   -0.23    0.17
   3   3  -8    0.13    0.18
  -3   3   8    0.27    0.22
   3   3  -8    0.00    0.18
   2  -3  -8    2.24    0.34
   2  -3  -8    2.06    0.32
   2   3  -8    2.53    0.31
   2   3  -8    2.26    0.32
  -2   3   8    2.39    0.36
   1  -3  -8    0.35    0.21
   1  -3  -8   -0.02    0.18
   1   3  -8    0.18    0.18
  -1   3   8    0.13    0.20
   0  -3  -8   27.30    1.11
   0  -3  -8   26.45    1.18
   0   3  -8   26.82    1.07
  -1  -3  -8    1.52    0.30
  -1  -3  -8    0.83    0.26
   1  -3   8    0.60    0.14
  -1   3  -8    0.81    0.26
  -2  -3  -8   29.90    1.26
  -2  -3  -8   25.43    1.14
   2  -3   8   28.03    0.96
  -2   3  -8   24.79    1.10
  -3  -3  -8    1.82    0.36
   3   3   8    1.65    0.28
  -3   3  -8    1.53    0.32
  -4  -3  -8    3.92    0.50
   4   3   8    3.84    0.38
  -4   3  -8    4.15    0.47
   6  -4  -8    1.70    0.37
   6  -4  -8    1.46    0.35
   6   4  -8    1.58    0.36
   6   4  -8    1.76    0.35
   5  -4  -8   30.82    1.34
   5  -4  -8   30.28    1.26
   5   4  -8   29.68    1.24
   5   4  -8   30.25    1.31
  -5   4   8   29.75    1.28
   4  -4  -8    2.16    0.37
   4  -4  -8    2.53    0.38
   4   4  -8    2.18    0.34
  -4   4   8    3.07    0.41
   4   4  -8    2.26    0.34
   3  -4  -8   12.44    0.69
   3  -4  -8   12.31    0.71
  -3   4   8   12.06    0.70
   3   4  -8   12.35    0.65
   2  -4  -8    9.93    0.62
   2  -4  -8   10.41    0.62
   2   4  -8   10.42    0.57
  -2   4   8    9.88    0.62
   1  -4  -8    2.70    0.36
   1  -4  -8    2.79    0.38
  -1   4   8    2.49    0.36
   1   4  -8    2.50    0.32
   0  -4  -8    9.03    0.58
   0  -4  -8    8.91    0.61
   0   4   8    8.62    0.55
   0   4  -8    9.29    0.54
  -1  -4  -8   54.38    2.03
  -1  -4  -8   52.18    1.89
  -1   4  -8   53.66    1.86
  -2  -4  -8    2.26    0.37
  -2  -4  -8    2.83    0.41
  -2   4  -8    2.90    0.37
  -3  -4  -8   15.25    0.83
   3   4   8   15.28    0.77
  -3   4  -8   14.29    0.76
  -4  -4  -8    2.56    0.44
   4   4   8    3.11    0.39
  -4   4  -8    2.76    0.40
   6  -5  -8    5.39    0.58
  -6   5   8    4.82    0.56
   6   5  -8    5.06    0.54
   5  -5  -8    1.93    0.36
   5  -5  -8    1.89    0.36
   5   5  -8    1.47    0.31
  -5   5   8    1.61    0.35
   4  -5  -8    7.35    0.56
   4  -5  -8    7.10    0.53
   4   5  -8    6.91    0.50
  -4   5   8    6.85    0.55
   3  -5  -8   20.76    1.01
   3  -5  -8   22.06    0.98
  -3   5   8   21.88    1.00
   3   5  -8   23.08    0.95
   2  -5  -8    3.93    0.44
   2  -5  -8    3.45    0.41
   2   5  -8    3.60    0.38
  -2   5   8    4.48    0.47
   1  -5  -8   31.33    1.33
   1  -5  -8   31.57    1.25
  -1   5   8   32.77    1.25
   1   5  -8   30.25    1.18
   0  -5  -8   10.04    0.64
   0  -5  -8    9.18    0.59
   0   5   8    9.50    0.59
   0   5  -8   10.50    0.57
  -1  -5  -8    8.07    0.56
  -1  -5  -8    8.02    0.57
  -1   5  -8    7.55    0.51
  -2  -5  -8   12.04    0.74
  -2  -5  -8   12.66    0.73
  -2   5  -8   12.12    0.67
  -3  -5  -8    6.56    0.59
  -3  -5  -8    6.67    0.57
  -3   5  -8    6.10    0.49
   3   5   8    6.53    0.51
  -4  -5  -8    1.27    0.35
   4   5   8    1.83    0.33
  -4   5  -8    2.40    0.37
   6  -6  -8    1.49    0.36
   6   6  -8    1.31    0.33
  -6   6   8    1.88    0.41
   5  -6  -8    0.28    0.26
   5  -6  -8    0.15    0.24
   5   6  -8    0.21    0.21
  -5   6   8    0.48    0.29
   4  -6  -8   14.76    0.79
   4  -6  -8   14.61    0.82
   4   6  -8   15.77    0.77
  -4   6   8   15.59    0.83
   3  -6  -8    0.76    0.27
   3  -6  -8    0.66    0.25
   3   6  -8    0.50    0.21
  -3   6   8    0.55    0.28
   2  -6  -8  118.23    3.78
   2  -6  -8  122.33    4.05
  -2   6   8  115.35    3.78
   2   6  -8  118.91    3.70
   1  -6  -8    1.27    0.30
   1  -6  -8    1.95    0.32
  -1   6   8    1.48    0.30
   1   6  -8    1.46    0.25
   0  -6  -8   27.85    1.16
   0  -6  -8   28.82    1.24
   0   6   8   29.36    1.16
   0   6  -8   27.09    1.09
  -1  -6  -8    0.61    0.26
  -1  -6  -8    0.60    0.25
  -1   6  -8    0.90    0.25
  -2  -6  -8    0.19    0.26
  -2  -6  -8   -0.28    0.20
  -2   6  -8   -0.03    0.20
  -3  -6  -8    0.19    0.26
  -3  -6  -8    0.37    0.27
  -3   6  -8    0.06    0.23
  -4  -6  -8    9.46    0.69
  -4   6  -8    9.58    0.60
   4   6   8    8.53    0.61
   6  -7  -8    3.79    0.50
   6   7  -8    3.57    0.46
  -6   7   8    3.86    0.51
   5  -7  -8    0.18    0.25
   5  -7  -8    0.34    0.25
  -5   7   8    0.60    0.31
   5   7  -8    0.19    0.22
   4  -7  -8    7.78    0.57
   4  -7  -8    7.77    0.57
  -4   7   8    7.62    0.58
   4   7  -8    6.61    0.50
   3  -7  -8   26.93    1.21
   3  -7  -8   27.52    1.15
   3   7  -8   26.28    1.08
  -3   7   8   27.43    1.17
   2  -7  -8    0.72    0.25
   2  -7  -8    0.69    0.25
  -2   7   8    0.63    0.27
   2   7  -8    0.29    0.18
   1  -7  -8   35.65    1.45
   1  -7  -8   37.17    1.55
  -1   7   8   40.85    1.47
   1   7  -8   38.79    1.38
   0  -7  -8   11.64    0.68
   0  -7  -8   12.61    0.73
   0   7   8   12.34    0.68
   0   7  -8   12.13    0.62
  -1  -7  -8    3.44    0.43
  -1  -7  -8    2.29    0.36
  -1   7  -8    2.42    0.33
   1   7   8    3.10    0.40
  -2  -7  -8    6.19    0.54
  -2  -7  -8    6.08    0.53
  -2   7  -8    6.53    0.47
  -3  -7  -8    6.09    0.61
  -3  -7  -8    6.12    0.58
  -3   7  -8    6.98    0.51
  -4  -7  -8    1.79    0.40
  -4  -7  -8    1.46    0.40
   4   7   8    1.66    0.35
  -4   7  -8    1.31    0.32
   5  -8  -8   17.99    0.95
   5   8  -8   16.90    0.87
  -5   8   8   18.87    0.95
   4  -8  -8    7.71    0.57
   4  -8  -8    6.06    0.54
  -4   8   8    7.85    0.59
   4   8  -8    6.64    0.50
   3  -8  -8   19.22    0.90
   3  -8  -8   17.41    0.92
   3   8  -8   17.09    0.80
  -3   8   8   18.41    0.91
   2  -8  -8    9.16    0.62
   2  -8  -8   10.39    0.63
   2   8  -8    9.69    0.53
  -2   8   8    9.38    0.62
   1  -8  -8    2.45    0.37
   1  -8  -8    2.61    0.39
   1   8  -8    2.64    0.31
  -1   8   8    2.77    0.38
   0  -8  -8   10.81    0.64
   0  -8  -8   10.19    0.66
   0   8   8   10.10    0.63
   0   8  -8   10.27    0.56
  -1  -8  -8   33.86    1.46
  -1  -8  -8   33.80    1.37
  -1   8  -8   34.92    1.29
   1   8   8   35.67    1.38
  -2  -8  -8    1.51    0.34
  -2  -8  -8    1.48    0.34
  -2   8  -8    1.86    0.30
  -3  -8  -8   15.78    0.90
  -3  -8  -8   15.14    0.86
  -3   8  -8   14.79    0.74
  -4  -8  -8    3.25    0.49
  -4  -8  -8    4.68    0.55
   4   8   8    3.63    0.48
  -4   8  -8    3.39    0.40
   5  -9  -8    0.12    0.24
   5   9  -8    0.00    0.21
  -5   9   8    0.42    0.28
   4  -9  -8   30.17    1.35
   4  -9  -8   31.77    1.31
  -4   9   8   29.59    1.30
   4   9  -8   31.33    1.23
   3  -9  -8    0.24    0.22
   3  -9  -8    0.29    0.25
   3   9  -8    0.38    0.20
  -3   9   8    0.64    0.28
   2  -9  -8    3.48    0.44
   2  -9  -8    4.38    0.46
  -2   9   8    3.65    0.45
   2   9  -8    3.05    0.33
   1  -9  -8    2.66    0.38
   1  -9  -8    2.51    0.38
   1   9  -8    3.35    0.34
  -1   9   8    1.87    0.33
   0  -9  -8   26.89    1.19
   0  -9  -8   26.25    1.12
   0   9   8   27.50    1.13
   0   9  -8   24.81    1.01
  -1  -9  -8    0.52    0.26
  -1  -9  -8    0.43    0.24
   1   9   8    0.42    0.25
  -1   9  -8    0.01    0.17
  -2  -9  -8   24.96    1.11
  -2  -9  -8   23.32    1.15
  -2   9  -8   24.43    0.99
  -3  -9  -8    0.33    0.29
  -3  -9  -8    0.76    0.29
  -3   9  -8    0.30    0.21
   5 -10  -8   20.19    1.04
  -5  10   8   20.38    1.03
   5  10  -8   20.45    0.96
   4 -10  -8    1.18    0.31
   4  10  -8    1.15    0.28
  -4  10   8    1.13    0.35
   3 -10  -8   12.04    0.71
   3 -10  -8   11.73    0.72
  -3  10   8   11.20    0.72
   3  10  -8   11.50    0.61
   2 -10  -8    9.96    0.67
   2 -10  -8   10.87    0.67
  -2  10   8   11.52    0.69
   2  10  -8   10.70    0.56
   1 -10  -8    9.17    0.60
   1 -10  -8    9.56    0.63
   1  10  -8    8.62    0.49
  -1  10   8    8.98    0.60
   0 -10  -8   10.61    0.66
   0 -10  -8   10.41    0.66
   0  10  -8   10.68    0.56
   0  10   8   10.72    0.66
  -1 -10  -8   33.73    1.44
  -1 -10  -8   35.25    1.38
   1  10   8   33.50    1.35
  -1  10  -8   31.87    1.23
  -2 -10  -8   -0.02    0.22
  -2 -10  -8    0.51    0.27
  -2  10  -8   -0.01    0.18
  -3 -10  -8   10.61    0.72
  -3 -10  -8   11.03    0.75
  -3  10  -8   11.10    0.60
   5 -11  -8    0.72    0.29
  -5  11   8    0.20    0.28
   5  11  -8    0.18    0.22
   4 -11  -8    9.84    0.67
  -4  11   8   10.60    0.70
   4  11  -8    9.60    0.59
   3 -11  -8   19.02    0.98
   3 -11  -8   19.84    0.95
   3  11  -8   19.20    0.85
  -3  11   8   19.22    0.98
   2 -11  -8    0.77    0.27
   2 -11  -8    0.64    0.26
  -2  11   8    0.83    0.29
   2  11  -8    0.38    0.18
   1 -11  -8   21.85    1.00
   1 -11  -8   20.80    1.03
   1  11  -8   22.16    0.88
  -1  11   8   21.38    1.00
   0 -11  -8    3.84    0.45
   0 -11  -8    4.16    0.46
   0  11   8    3.69    0.45
   0  11  -8    4.04    0.38
  -1 -11  -8    2.51    0.39
  -1 -11  -8    2.12    0.38
  -1  11  -8    2.87    0.33
   1  11   8    3.62    0.44
  -2 -11  -8   13.93    0.83
  -2 -11  -8   13.00    0.79
   2  11   8   14.25    0.81
  -2  11  -8   13.59    0.66
  -3 -11  -8    1.23    0.34
  -3 -11  -8    1.33    0.36
  -3  11  -8    1.78    0.28
   5 -12  -8    0.43    0.27
  -5  12   8    0.77    0.32
   5  12  -8    0.34    0.24
   4 -12  -8    8.06    0.61
  -4  12   8    9.11    0.66
   4  12  -8    8.65    0.55
   3 -12  -8    0.43    0.24
   3  12  -8    0.00    0.17
  -3  12   8    0.46    0.30
   2 -12  -8   36.97    1.48
   2 -12  -8   37.53    1.55
  -2  12   8   37.46    1.49
   2  12  -8   36.46    1.34
   1 -12  -8    1.19    0.30
   1 -12  -8    1.29    0.29
   1  12  -8    0.86    0.21
  -1  12   8    1.18    0.31
   0 -12  -8   13.36    0.78
   0 -12  -8   14.81    0.78
   0  12   8   13.11    0.75
   0  12  -8   13.77    0.65
  -1 -12  -8    0.46    0.26
  -1 -12  -8    0.91    0.30
  -1  12  -8    0.66    0.20
   1  12   8    0.59    0.27
  -2 -12  -8    1.03    0.32
  -2 -12  -8    0.66    0.30
   2  12   8    0.78    0.32
  -2  12  -8    1.17    0.24
  -3 -12  -8    0.21    0.26
  -3 -12  -8    0.38    0.27
  -3  12  -8   -0.04    0.18
   4 -13  -8    2.23    0.38
  -4  13   8    1.94    0.41
   4  13  -8    2.25    0.33
   3 -13  -8   17.07    0.92
   3  13  -8   16.55    0.77
  -3  13   8   16.52    0.91
   2 -13  -8    0.32    0.23
  -2  13   8    0.58    0.28
   2  13  -8    0.21    0.18
   1 -13  -8   35.93    1.48
   1 -13  -8   34.72    1.40
   1  13  -8   33.78    1.26
  -1  13   8   37.08    1.44
   0 -13  -8    1.79    0.34
   0 -13  -8    1.68    0.33
   0  13   8    1.79    0.36
   0  13  -8    2.06    0.28
  -1 -13  -8    1.32    0.34
  -1 -13  -8    1.37    0.32
  -1  13  -8    1.32    0.25
   1  13   8    1.60    0.35
  -2 -13  -8    3.12    0.45
  -2 -13  -8    4.21    0.50
   2  13   8    2.69    0.44
  -2  13  -8    3.85    0.35
  -3 -13  -8    2.79    0.46
  -3 -13  -8    3.60    0.50
  -3  13  -8    4.07    0.37
   4 -14  -8    3.18    0.44
  -4  14   8    2.91    0.47
   4  14  -8    3.53    0.40
   3 -14  -8    6.70    0.55
   3  14  -8    7.02    0.46
  -3  14   8    6.46    0.58
   2 -14  -8   10.34    0.68
   2  14  -8   10.50    0.56
  -2  14   8   11.59    0.72
   1 -14  -8    1.77    0.33
  -1  14   8    1.88    0.36
   1  14  -8    1.53    0.25
   0 -14  -8    4.50    0.50
   0  14  -8    4.62    0.37
   0  14   8    4.61    0.51
  -1 -14  -8   13.49    0.78
  -1 -14  -8   14.02    0.81
  -1  14  -8   13.23    0.62
   1  14   8   12.92    0.78
  -2 -14  -8    0.21    0.25
   2  14   8    0.26    0.27
  -2  14  -8    0.01    0.16
   4 -15  -8   19.84    1.02
  -4  15   8   19.49    1.04
   4  15  -8   20.10    0.91
   3 -15  -8    0.85    0.28
   3  15  -8    0.47    0.20
  -3  15   8    0.47    0.30
   2 -15  -8    0.64    0.26
  -2  15   8    0.78    0.31
   2  15  -8    0.57    0.20
   1 -15  -8    0.49    0.25
  -1  15   8    0.62    0.29
   1  15  -8    0.42    0.18
   0 -15  -8   10.91    0.71
   0  15  -8   11.93    0.58
   0  15   8   12.97    0.74
  -1 -15  -8    0.35    0.25
   1  15   8   -0.03    0.23
  -1  15  -8    0.02    0.16
  -2 -15  -8    7.92    0.64
  -2  15  -8    9.51    0.48
  -4  16   8    0.36    0.31
   3 -16  -8    5.68    0.51
   3  16  -8    6.30    0.44
  -3  16   8    5.75    0.62
   2 -16  -8    3.55    0.45
  -2  16   8    3.63    0.49
   2  16  -8    3.60    0.36
   1 -16  -8    4.38    0.50
   1  16  -8    4.18    0.35
  -1  16   8    4.25    0.50
   0 -16  -8    0.42    0.25
   0  16   8    0.71    0.31
   0  16  -8    0.93    0.22
  -1 -16  -8   20.12    1.04
  -1  16  -8   19.89    0.79
   1  16   8   22.01    1.03
  -2 -16  -8    0.15    0.24
  -2  16  -8    0.06    0.14
   2  16   8    0.31    0.28
   3 -17  -8    7.71    0.58
   3  17  -8    8.11    0.50
  -3  17   8    7.74    0.65
   2 -17  -8    1.48    0.32
   2  17  -8    2.05    0.29
  -2  17   8    1.60    0.38
   1 -17  -8   16.76    0.89
   1  17  -8   16.13    0.71
  -1  17   8   16.96    0.90
   0 -17  -8    3.67    0.46
   0  17  -8    3.48    0.33
   0  17   8    3.36    0.46
  -1 -17  -8    0.73    0.28
  -1  17  -8    1.62    0.22
   1  17   8    1.54    0.36
   2 -18  -8   16.76    0.91
  -2  18   8   17.78    0.96
   2  18  -8   18.64    0.78
   1 -18  -8    0.27    0.23
   1  18  -8    0.27    0.18
  -1  18   8   -0.20    0.26
   0 -18  -8   11.48    0.74
   0  18   8   13.06    0.78
   0  18  -8   12.19    0.56
  -1 -18  -8   -0.03    0.22
   1  18   8    0.21    0.27
   1 -19  -8   10.75    0.68
  -1  19   8   10.60    0.72
   1  19  -8   10.95    0.54
   0  19   8    0.34    0.28
   0  19  -8    0.84    0.18
   5   0  -9   21.20    1.01
   5   0  -9   20.53    1.06
   4   0  -9    0.04    0.21
   4   0  -9    0.08    0.22
   3   0  -9    1.50    0.33
   3   0  -9    2.14    0.35
   2   0  -9   -0.17    0.18
   2   0  -9    0.09    0.21
   1   0  -9   24.90    1.07
   0   0  -9    0.06    0.20
  -1   0  -9   37.93    1.47
  -2   0  -9    0.42    0.25
   2   0   9    0.09    0.15
  -3   0  -9    0.02    0.25
   3   0   9    0.13    0.16
   5  -1  -9    1.73    0.35
   5  -1  -9    1.54    0.36
   5   1  -9    1.14    0.32
   5   1  -9    2.09    0.36
   4  -1  -9    2.09    0.37
   4  -1  -9    2.21    0.37
   4   1  -9    2.47    0.38
   4   1  -9    2.75    0.40
   3  -1  -9   18.38    0.95
   3  -1  -9   18.86    0.91
   3   1  -9   19.69    0.95
   3   1  -9   18.29    0.89
   2  -1  -9    5.84    0.50
   2  -1  -9    6.48    0.51
   2   1  -9    5.63    0.48
   1  -1  -9    6.54    0.50
   1  -1  -9    6.11    0.51
   1   1  -9    5.64    0.47
   0  -1  -9   27.02    1.15
   0   1  -9   27.84    1.15
  -1  -1  -9    0.30    0.22
  -1   1  -9    0.14    0.21
  -2  -1  -9   14.84    0.81
   2  -1   9   14.68    0.65
  -2   1  -9   14.62    0.80
   2   1   9   15.80    0.71
  -3  -1  -9    4.27    0.50
   3  -1   9    4.18    0.30
  -3   1  -9    4.90    0.52
   3   1   9    3.79    0.34
   5  -2  -9    4.72    0.54
   5  -2  -9    4.89    0.53
   5   2  -9    5.07    0.56
   5   2  -9    4.73    0.51
   4  -2  -9   24.94    1.21
   4  -2  -9   26.95    1.16
   4   2  -9   26.88    1.14
   4   2  -9   26.61    1.21
   3  -2  -9   -0.14    0.21
   3  -2  -9   -0.03    0.22
   3   2  -9    0.23    0.21
   2  -2  -9   37.77    1.44
   2  -2  -9   36.48    1.50
   2   2  -9   34.77    1.39
   1  -2  -9   12.27    0.70
   1  -2  -9   13.21    0.75
   1   2  -9   11.22    0.66
   0  -2  -9    1.09    0.29
   0  -2  -9    0.40    0.24
   0   2  -9    0.37    0.22
  -1  -2  -9    5.53    0.50
  -1   2  -9    7.03    0.51
   2  -2   9    5.78    0.33
  -2  -2  -9    6.57    0.55
  -2   2  -9    5.48    0.50
  -3  -2  -9    2.19    0.39
   3   2   9    2.02    0.29
  -3   2  -9    2.01    0.37
   5  -3  -9    6.98    0.59
   5  -3  -9    7.33    0.58
   5   3  -9    6.64    0.55
   4  -3  -9    1.25    0.32
   4  -3  -9    1.11    0.31
   4   3  -9    0.41    0.25
   3  -3  -9   46.91    1.82
   3  -3  -9   53.02    1.97
   3   3  -9   49.56    1.81
   2  -3  -9    0.68    0.28
   2  -3  -9    0.75    0.27
   2   3  -9    0.52    0.24
   1  -3  -9   37.59    1.54
   1  -3  -9   35.91    1.44
   1   3  -9   36.63    1.40
   0  -3  -9    0.00    0.20
   0  -3  -9    0.23    0.22
   0   3  -9    0.08    0.18
  -1  -3  -9    1.92    0.35
   1  -3   9    1.87    0.19
  -1  -3  -9    1.37    0.32
  -1   3  -9    1.97    0.33
  -2  -3  -9   -0.01    0.24
  -2   3  -9    0.11    0.23
  -3  -3  -9   13.17    0.78
  -3   3  -9   11.65    0.72
   3   3   9   12.32    0.67
   5  -4  -9    6.40    0.58
   5  -4  -9    6.28    0.55
   5   4  -9    5.76    0.56
   4  -4  -9   23.37    1.06
   4  -4  -9   21.19    1.08
   4   4  -9   21.78    1.01
   3  -4  -9    0.73    0.27
   3  -4  -9    0.23    0.24
   3   4  -9    0.84    0.26
   2  -4  -9   39.99    1.63
   2  -4  -9   38.57    1.53
   2   4  -9   39.53    1.49
   1  -4  -9    9.42    0.62
   1  -4  -9    8.61    0.62
   1   4  -9    8.34    0.55
   0  -4  -9    5.68    0.49
   0  -4  -9    6.10    0.53
   0   4  -9    5.11    0.45
  -1  -4  -9    6.82    0.56
  -1  -4  -9    6.60    0.53
  -1   4  -9    7.42    0.52
  -2  -4  -9   11.38    0.71
  -2   4  -9   10.96    0.67
  -3  -4  -9    0.12    0.29
   3   4   9    0.34    0.22
  -3   4  -9    0.32    0.26
   5  -5  -9    4.06    0.52
   5  -5  -9    3.97    0.49
   5   5  -9    3.70    0.47
   4  -5  -9    3.20    0.44
   4  -5  -9    3.50    0.45
   4   5  -9    3.66    0.43
   3  -5  -9   17.42    0.92
   3  -5  -9   16.16    0.87
   3   5  -9   17.54    0.84
   2  -5  -9    1.23    0.31
   2  -5  -9    1.46    0.33
   2   5  -9    1.65    0.30
   1  -5  -9    8.51    0.61
   1  -5  -9    6.74    0.55
   1   5  -9    7.50    0.52
   0  -5  -9   28.10    1.30
   0  -5  -9   29.95    1.24
   0   5  -9   29.83    1.18
  -1  -5  -9    0.84    0.28
  -1  -5  -9    0.12    0.24
  -1   5  -9    0.29    0.22
  -2  -5  -9   13.69    0.80
  -2  -5  -9   13.10    0.83
  -2   5  -9   15.15    0.77
  -3  -5  -9    2.85    0.46
  -3   5  -9    2.63    0.41
   3   5   9    3.19    0.41
   5  -6  -9   13.10    0.84
   5  -6  -9   15.06    0.84
   5   6  -9   13.63    0.78
   4  -6  -9    0.47    0.26
   4  -6  -9    0.55    0.27
  -4   6   9    0.05    0.26
   4   6  -9   -0.05    0.21
   3  -6  -9    0.80    0.29
   3  -6  -9    0.64    0.28
   3   6  -9    1.01    0.27
  -3   6   9    1.03    0.33
   2  -6  -9    0.30    0.24
   2  -6  -9    0.44    0.26
  -2   6   9    0.31    0.26
   2   6  -9    0.52    0.22
   1  -6  -9   34.74    1.48
   1  -6  -9   35.24    1.41
   1   6  -9   33.48    1.31
   0  -6  -9   -0.05    0.22
   0  -6  -9    0.19    0.23
   0   6  -9    0.30    0.21
  -1  -6  -9   34.23    1.46
  -1  -6  -9   33.50    1.38
  -1   6  -9   33.25    1.31
  -2  -6  -9    0.22    0.25
  -2  -6  -9    0.13    0.23
  -2   6  -9    0.15    0.23
  -3  -6  -9    3.34    0.49
   3   6   9    3.69    0.46
  -3   6  -9    3.31    0.43
   5  -7  -9    0.93    0.32
   5   7  -9    1.37    0.32
   4  -7  -9    7.98    0.62
   4  -7  -9    7.53    0.62
   4   7  -9    8.37    0.57
  -4   7   9    9.29    0.67
   3  -7  -9    9.20    0.66
   3  -7  -9    9.84    0.69
   3   7  -9   10.73    0.61
  -3   7   9   10.84    0.71
   2  -7  -9    6.04    0.53
   2  -7  -9    5.94    0.53
  -2   7   9    7.04    0.56
   2   7  -9    6.26    0.47
   1  -7  -9    5.19    0.50
   1  -7  -9    3.55    0.46
  -1   7   9    4.61    0.49
   1   7  -9    4.82    0.42
   0  -7  -9   23.42    1.11
   0  -7  -9   23.17    1.04
   0   7  -9   20.90    0.96
  -1  -7  -9    0.01    0.22
  -1  -7  -9    0.15    0.24
  -1   7  -9    0.51    0.23
  -2  -7  -9   15.70    0.87
  -2  -7  -9   16.76    0.93
  -2   7  -9   16.46    0.82
  -3  -7  -9    1.76    0.40
  -3  -7  -9    1.51    0.38
  -3   7  -9    1.01    0.31
   5  -8  -9    3.30    0.47
  -5   8   9    3.09    0.48
   5   8  -9    2.86    0.42
   4  -8  -9   17.28    0.94
   4  -8  -9   18.53    0.99
  -4   8   9   17.69    0.97
   4   8  -9   18.42    0.89
   3  -8  -9    0.40    0.26
   3  -8  -9    0.33    0.26
  -3   8   9    0.12    0.27
   3   8  -9    0.15    0.20
   2  -8  -9   20.21    0.97
   2  -8  -9   16.95    0.96
   2   8  -9   18.96    0.85
  -2   8   9   18.52    0.95
   1  -8  -9    5.94    0.52
   1  -8  -9    6.00    0.53
  -1   8   9    6.05    0.53
   1   8  -9    5.02    0.43
   0  -8  -9    3.42    0.45
   0  -8  -9    3.69    0.47
   0   8  -9    3.87    0.41
  -1  -8  -9    7.16    0.58
  -1  -8  -9    7.31    0.60
  -1   8  -9    8.04    0.53
  -2  -8  -9    3.23    0.45
  -2  -8  -9    4.02    0.51
  -2   8  -9    3.88    0.44
  -3  -8  -9    0.90    0.33
  -3   8  -9    0.63    0.27
   4  -9  -9    0.43    0.27
  -4   9   9   -0.03    0.28
   4   9  -9   -0.12    0.20
   3  -9  -9   29.70    1.29
   3  -9  -9   30.69    1.37
   3   9  -9   29.63    1.20
  -3   9   9   29.07    1.30
   2  -9  -9    0.83    0.30
   2  -9  -9    0.59    0.27
   2   9  -9    0.37    0.21
  -2   9   9    0.43    0.28
   1  -9  -9   24.81    1.20
   1  -9  -9   26.57    1.17
  -1   9   9   25.29    1.14
   1   9  -9   26.53    1.06
   0  -9  -9    1.91    0.36
   0  -9  -9    2.94    0.42
   0   9  -9    2.19    0.33
  -1  -9  -9    1.22    0.32
  -1  -9  -9    0.98    0.31
  -1   9  -9    1.37    0.29
  -2  -9  -9    0.15    0.26
  -2  -9  -9   -0.17    0.22
  -2   9  -9    0.07    0.21
   4 -10  -9   13.84    0.84
   4  10  -9   12.95    0.73
  -4  10   9   14.66    0.87
   3 -10  -9    0.25    0.26
   3 -10  -9    0.10    0.25
   3  10  -9    0.57    0.23
  -3  10   9    0.71    0.32
   2 -10  -9   26.44    1.22
   2 -10  -9   27.50    1.29
   2  10  -9   28.24    1.12
  -2  10   9   28.31    1.23
   1 -10  -9    7.04    0.58
   1 -10  -9    7.58    0.58
  -1  10   9    7.42    0.58
   1  10  -9    6.88    0.49
   0 -10  -9    1.57    0.34
   0 -10  -9    0.61    0.29
   0  10   9    1.02    0.30
   0  10  -9    0.82    0.24
  -1 -10  -9    5.03    0.54
  -1 -10  -9    5.02    0.55
  -1  10  -9    4.53    0.44
  -2 -10  -9    4.48    0.53
  -2 -10  -9    4.66    0.55
  -2  10  -9    4.66    0.46
   4 -11  -9    3.05    0.46
  -4  11   9    3.38    0.49
   4  11  -9    3.40    0.41
   3 -11  -9   14.97    0.88
   3  11  -9   14.86    0.75
  -3  11   9   14.52    0.86
   2 -11  -9    3.61    0.49
   2 -11  -9    2.54    0.42
   2  11  -9    3.44    0.38
  -2  11   9    3.02    0.46
   1 -11  -9    2.34    0.41
   1 -11  -9    2.81    0.42
   1  11  -9    2.88    0.35
  -1  11   9    2.66    0.42
   0 -11  -9   16.18    0.91
   0 -11  -9   17.20    0.89
   0  11  -9   16.34    0.78
   0  11   9   17.45    0.90
  -1 -11  -9    0.11    0.22
  -1 -11  -9    0.57    0.29
  -1  11  -9    0.10    0.19
  -2 -11  -9    6.35    0.59
  -2 -11  -9    7.69    0.61
  -2  11  -9    7.43    0.50
   4 -12  -9   -0.05    0.23
   4  12  -9    0.21    0.22
  -4  12   9    0.06    0.29
   3 -12  -9    0.59    0.28
   3  12  -9    0.39    0.23
  -3  12   9    0.63    0.32
   2 -12  -9    0.71    0.28
   2  12  -9    0.33    0.20
  -2  12   9    0.51    0.29
   1 -12  -9   11.00    0.74
   1 -12  -9   12.61    0.76
   1  12  -9   11.86    0.64
  -1  12   9   12.68    0.76
   0 -12  -9    0.23    0.25
   0 -12  -9   -0.05    0.24
   0  12  -9    0.12    0.19
   0  12   9    0.10    0.26
  -1 -12  -9   18.94    0.96
  -1 -12  -9   16.78    0.96
  -1  12  -9   18.24    0.82
  -2 -12  -9    1.01    0.32
  -2 -12  -9    0.72    0.30
  -2  12  -9    0.72    0.24
   3 -13  -9    3.54    0.49
   3  13  -9    4.49    0.45
  -3  13   9    3.83    0.53
   2 -13  -9    3.98    0.51
  -2  13   9    4.14    0.52
   2  13  -9    4.40    0.40
   1 -13  -9    2.47    0.41
   1  13  -9    2.44    0.33
  -1  13   9    2.18    0.41
   0 -13  -9   28.14    1.36
   0 -13  -9   31.02    1.32
   0  13   9   32.10    1.33
   0  13  -9   30.84    1.19
  -1 -13  -9    0.22    0.27
  -1 -13  -9    0.25    0.25
  -1  13  -9    0.20    0.20
   3 -14  -9    0.06    0.25
  -3  14   9    0.37    0.31
   3  14  -9    0.11    0.21
   2 -14  -9   12.27    0.78
  -2  14   9   12.31    0.78
   2  14  -9   11.83    0.64
   1 -14  -9    3.25    0.45
   1  14  -9    3.88    0.40
  -1  14   9    4.14    0.51
   0 -14  -9    1.33    0.34
   0  14  -9    1.28    0.27
   0  14   9    1.43    0.36
  -1 -14  -9    4.18    0.53
  -1  14  -9    4.32    0.41
   2 -15  -9    0.49    0.27
   2  15  -9    0.64    0.23
  -2  15   9    0.62    0.32
   1 -15  -9    9.31    0.67
  -1  15   9    8.44    0.66
   1  15  -9    9.22    0.54
   0 -15  -9    0.21    0.25
   0  15  -9    0.37    0.21
   0  15   9    1.09    0.34
   2 -16  -9   16.67    0.92
  -2  16   9   17.69    0.97
   2  16  -9   16.61    0.79
   1 -16  -9    0.87    0.29
   1  16  -9    0.92    0.25
  -1  16   9    0.56    0.31
   0  16   9    1.20    0.35
   4   0 -10   27.21    1.31
   4   0 -10   28.20    1.25
   3   0 -10   -0.11    0.23
   2   0 -10   18.65    0.94
   1   0 -10   -0.02    0.22
   0   0 -10    0.16    0.24
  -1   0 -10    0.44    0.25
  -2   0 -10   18.13    0.92
   2   0  10   16.43    0.73
   4  -1 -10    0.26    0.28
   4  -1 -10    1.31    0.34
   4   1 -10    0.41    0.27
   3  -1 -10   14.17    0.84
   3  -1 -10   16.66    0.91
   3   1 -10   16.71    0.87
   2  -1 -10    5.37    0.55
   2   1 -10    5.79    0.51
   1  -1 -10    0.67    0.27
   1   1 -10    0.65    0.27
   0  -1 -10   10.87    0.70
   0   1 -10   12.08    0.71
  -1  -1 -10    8.59    0.61
  -1   1 -10    7.72    0.58
   2  -1  10    0.16    0.13
  -2  -1 -10    0.37    0.30
  -2   1 -10    0.23    0.27
   2   1  10    0.45    0.18
   4  -2 -10    6.38    0.58
   4  -2 -10    6.30    0.56
   4   2 -10    6.59    0.55
   3  -2 -10    7.43    0.60
   3  -2 -10    7.48    0.60
   3   2 -10    5.93    0.54
   2  -2 -10    7.56    0.62
   2  -2 -10    6.68    0.56
   2   2 -10    6.65    0.55
   1  -2 -10   26.01    1.12
   1   2 -10   21.19    1.04
   0  -2 -10    0.59    0.28
   0   2 -10    0.98    0.28
  -1  -2 -10   10.01    0.66
   1  -2  10    8.84    0.44
  -1   2 -10    9.80    0.64
  -2  -2 -10    2.94    0.45
   2   2  10    2.43    0.32
  -2   2 -10    2.69    0.42
   4  -3 -10   -0.04    0.23
   4  -3 -10    0.14    0.25
   4   3 -10    0.21    0.24
   3  -3 -10    0.78    0.29
   3  -3 -10    0.77    0.30
   3   3 -10    0.70    0.27
   2  -3 -10   21.35    1.10
   2  -3 -10   22.17    1.07
   2   3 -10   22.98    1.04
   1  -3 -10    0.66    0.29
   1  -3 -10    0.32    0.27
   1   3 -10    0.19    0.22
   0  -3 -10   27.35    1.22
   0   3 -10   28.47    1.20
  -1  -3 -10   -0.05    0.23
  -1   3 -10    0.11    0.23
  -2  -3 -10    5.36    0.58
  -2   3 -10    4.10    0.49
   4  -4 -10    6.33    0.57
   4  -4 -10    4.95    0.57
   4   4 -10    6.62    0.54
   3  -4 -10    4.14    0.52
   3  -4 -10    4.02    0.50
   3   4 -10    4.91    0.51
   2  -4 -10    5.69    0.60
   2  -4 -10    5.09    0.54
   2   4 -10    5.27    0.52
   1  -4 -10   27.07    1.28
   1  -4 -10   26.90    1.21
   1   4 -10   26.20    1.15
   0  -4 -10    0.18    0.25
   0  -4 -10    0.36    0.26
   0   4 -10    0.24    0.24
  -1  -4 -10   12.59    0.76
  -1   4 -10   12.81    0.73
  -2  -4 -10    2.14    0.41
  -2   4 -10    2.26    0.39
   4  -5 -10    0.08    0.26
   4  -5 -10    0.05    0.26
   4   5 -10    0.01    0.23
   3  -5 -10   19.00    0.96
   3  -5 -10   16.88    0.96
   3   5 -10   16.19    0.87
   2  -5 -10    4.35    0.53
   2  -5 -10    5.32    0.56
   2   5 -10    4.12    0.48
   1  -5 -10    1.28    0.35
   1  -5 -10    1.62    0.36
   1   5 -10    1.56    0.32
   0  -5 -10    6.57    0.59
   0  -5 -10    7.21    0.57
   0   5 -10    6.26    0.51
  -1  -5 -10    5.36    0.57
  -1   5 -10    5.58    0.49
  -2  -5 -10   -0.08    0.24
  -2   5 -10    0.05    0.25
   4  -6 -10   15.67    0.92
   4  -6 -10   15.31    0.90
   4   6 -10   15.31    0.83
   3  -6 -10    0.20    0.27
   3  -6 -10    0.85    0.30
   3   6 -10    0.28    0.24
   2  -6 -10   10.32    0.71
   2  -6 -10   11.53    0.76
   2   6 -10   10.71    0.66
   1  -6 -10    0.08    0.24
   1  -6 -10   -0.01    0.23
   1   6 -10    0.19    0.20
   0  -6 -10    0.96    0.31
   0  -6 -10    0.83    0.31
   0   6 -10    1.04    0.29
  -1  -6 -10    0.62    0.30
  -1  -6 -10    0.16    0.26
  -1   6 -10    0.75    0.27
   4  -7 -10    0.33    0.30
   4  -7 -10    0.00    0.26
   4   7 -10    0.24    0.24
   3  -7 -10   15.81    0.90
   3  -7 -10   15.82    0.93
   3   7 -10   16.09    0.83
   2  -7 -10    2.41    0.44
   2  -7 -10    2.00    0.39
   2   7 -10    2.31    0.36
   1  -7 -10    1.33    0.35
   1  -7 -10    2.21    0.40
   1   7 -10    1.25    0.29
   0  -7 -10    7.51    0.62
   0  -7 -10    8.43    0.63
   0   7 -10    7.42    0.55
  -1  -7 -10    4.66    0.57
  -1  -7 -10    4.83    0.56
  -1   7 -10    4.66    0.49
   3  -8 -10    7.43    0.62
   3  -8 -10    6.24    0.60
   3   8 -10    5.91    0.51
   2  -8 -10    6.02    0.65
   2  -8 -10    6.32    0.63
   2   8 -10    6.77    0.52
   1  -8 -10   14.74    0.90
   1  -8 -10   15.73    0.88
   1   8 -10   15.71    0.80
   0  -8 -10    0.43    0.28
   0  -8 -10    0.58    0.29
   0   8 -10    0.83    0.27
  -1  -8 -10    9.71    0.70
  -1  -8 -10   11.09    0.76
  -1   8 -10   10.75    0.65
   3  -9 -10    0.09    0.24
   3  -9 -10    0.09    0.28
   3   9 -10   -0.09    0.21
   2  -9 -10   13.29    0.84
   2  -9 -10   14.88    0.90
   2   9 -10   15.02    0.78
   1  -9 -10    1.28    0.35
   1  -9 -10    0.83    0.32
   1   9 -10    1.26    0.29
   0  -9 -10   27.06    1.18
   0  -9 -10   22.48    1.19
   0   9 -10   24.99    1.09
  -1  -9 -10    0.76    0.30
  -1  -9 -10    1.33    0.35
  -1   9 -10    0.90    0.28
   3 -10 -10    3.35    0.50
   3  10 -10    3.86    0.45
   2 -10 -10    2.93    0.47
   2 -10 -10    2.82    0.46
   2  10 -10    3.16    0.40
   1 -10 -10   23.71    1.14
   1 -10 -10   23.73    1.19
   1  10 -10   23.29    1.04
   0 -10 -10    1.18    0.34
   0 -10 -10    0.31    0.25
   0  10 -10    0.66    0.26
   2 -11 -10    7.73    0.66
   2 -11 -10    9.76    0.71
   2  11 -10    8.61    0.58
   1 -11 -10    0.38    0.29
   1 -11 -10    0.30    0.27
   1  11 -10    0.49    0.25
   0 -11 -10    4.00    0.51
   0 -11 -10    3.67    0.52
   0  11 -10    3.95    0.45
   2 -12 -10    6.87    0.62
   2  12 -10    7.51    0.54
   1 -12 -10    1.61    0.37
   1  12 -10    1.77    0.32
   2   0 -11    0.10    0.25
   1   0 -11   21.74    1.09
   0   0 -11    0.17    0.26
   2  -1 -11   15.04    0.88
   2   1 -11   15.25    0.88
   1  -1 -11    0.72    0.32
   1   1 -11    0.89    0.32
   0  -1 -11    6.08    0.61
   0   1 -11    6.36    0.56
   2  -2 -11    0.18    0.27
   2   2 -11    0.39    0.28
   1  -2 -11    3.27    0.48
   1   2 -11    2.85    0.44
   0  -2 -11    6.85    0.59
   0   2 -11    6.51    0.57
   2  -3 -11    0.06    0.25
   2   3 -11    0.30    0.25
   1  -3 -11    1.92    0.40
   1   3 -11    1.59    0.36
   2  -4 -11   -0.03    0.25
   2   4 -11   -0.15    0.22
   1  -4 -11    5.50    0.58
   1   4 -11    3.97    0.51
   1  -5 -11    0.25    0.29
   1  -5 -11    0.59    0.31
   1   5 -11    0.30    0.26
   0   0   0    0.00    0.00
;
_shelx_hkl_checksum              20779
_olex2_submission_special_instructions 'No special instructions were received'
loop_
_space_group_symop_operation_xyz
'x, y, z'
'-x+1/2, y+1/2, -z+1/2'
'-x, -y, -z'
'x-1/2, -y-1/2, z-1/2'
loop_
_atom_site_label
_atom_site_type_symbol
_atom_site_fract_x
_atom_site_fract_y
_atom_site_fract_z
_atom_site_U_iso_or_equiv
_atom_site_adp_type
_atom_site_occupancy
_atom_site_site_symmetry_order
_atom_site_calc_flag
_atom_site_refinement_flags_posn
_atom_site_refinement_flags_adp
_atom_site_refinement_flags_occupancy
_atom_site_disorder_assembly
_atom_site_disorder_group
I1 I 0.57174(2) 0.41818(2) 0.82813(2) 0.03339(5) Uani 1 1 d . . . . .
N1 N 0.1403(4) 0.39443(11) 0.2258(3) 0.0390(4) Uani 1 1 d . . . . .
H2 H 0.180(7) 0.4122(17) 0.138(5) 0.071(11) Uiso 1 1 d . . . . .
C3 C 0.1888(4) 0.31207(11) 0.4326(3) 0.0307(4) Uani 1 1 d . . . . .
C2 C 0.2566(4) 0.33977(12) 0.2923(3) 0.0356(5) Uani 1 1 d . . . . .
C5 C -0.1073(5) 0.39632(15) 0.4293(3) 0.0428(5) Uani 1 1 d . . . . .
C4 C 0.0043(4) 0.33976(13) 0.5032(3) 0.0385(5) Uani 1 1 d . . . . .
N2 N 0.3168(3) 0.25245(10) 0.5068(3) 0.0386(4) Uani 1 1 d . . . . .
O5 O 0.4479(4) 0.42108(11) 1.0137(3) 0.0638(6) Uani 1 1 d . . . . .
O4 O 0.4176(4) 0.46984(13) 0.6700(3) 0.0743(7) Uani 1 1 d . . . . .
O2 O 0.2326(3) 0.22152(10) 0.6138(2) 0.0518(5) Uani 1 1 d . . . . .
O1 O 0.5021(3) 0.23740(10) 0.4580(3) 0.0550(5) Uani 1 1 d . . . . .
O3 O 0.5665(4) 0.33552(11) 0.7497(3) 0.0642(6) Uani 1 1 d . . . . .
O6 O 0.8702(4) 0.44429(13) 0.8789(3) 0.0629(6) Uani 1 1 d . . . . .
C6 C -0.0362(5) 0.42362(13) 0.2893(3) 0.0397(5) Uani 1 1 d . . . . .
H5 H -0.040(5) 0.3198(15) 0.591(4) 0.049(8) Uiso 1 1 d . . . . .
H1 H 0.372(5) 0.3223(16) 0.234(4) 0.059(9) Uiso 1 1 d . . . . .
H4 H -0.227(6) 0.4173(15) 0.472(4) 0.060(10) Uiso 1 1 d . . . . .
H3 H -0.097(6) 0.4600(19) 0.245(4) 0.068(10) Uiso 1 1 d . . . . .
loop_
_atom_site_aniso_label
_atom_site_aniso_U_11
_atom_site_aniso_U_22
_atom_site_aniso_U_33
_atom_site_aniso_U_23
_atom_site_aniso_U_13
_atom_site_aniso_U_12
I1 0.03831(8) 0.03390(9) 0.02900(8) 0.00122(5) 0.00870(5) 0.00195(6)
N1 0.0455(11) 0.0399(11) 0.0341(10) 0.0067(8) 0.0137(8) -0.0050(9)
C3 0.0328(9) 0.0306(10) 0.0289(10) 0.0005(8) 0.0051(8) -0.0027(8)
C2 0.0365(11) 0.0390(12) 0.0331(11) -0.0019(9) 0.0110(9) -0.0032(9)
C5 0.0413(12) 0.0490(14) 0.0413(13) 0.0033(11) 0.0157(10) 0.0079(11)
C4 0.0420(12) 0.0455(14) 0.0309(11) 0.0063(10) 0.0141(9) -0.0008(10)
N2 0.0430(10) 0.0315(10) 0.0393(10) -0.0006(8) 0.0015(8) -0.0027(8)
O5 0.0679(13) 0.0756(16) 0.0586(13) 0.0065(11) 0.0414(11) 0.0033(11)
O4 0.1012(19) 0.0675(16) 0.0507(13) 0.0184(11) 0.0027(12) 0.0322(13)
O2 0.0612(11) 0.0436(10) 0.0501(11) 0.0141(9) 0.0077(9) -0.0048(9)
O1 0.0497(10) 0.0514(12) 0.0641(12) 0.0006(10) 0.0099(9) 0.0142(9)
O3 0.0890(16) 0.0415(11) 0.0538(12) -0.0125(9) -0.0118(11) 0.0086(10)
O6 0.0476(11) 0.0751(15) 0.0681(14) 0.0006(12) 0.0159(10) -0.0194(10)
C6 0.0452(13) 0.0377(13) 0.0356(12) 0.0058(10) 0.0052(10) 0.0013(10)
loop_
_atom_type_symbol
_atom_type_description
_atom_type_scat_dispersion_real
_atom_type_scat_dispersion_imag
_atom_type_scat_source
C C 0.0033 0.0016 'International Tables Vol C Tables 4.2.6.8 and 6.1.1.4'
H H 0.0000 0.0000 'International Tables Vol C Tables 4.2.6.8 and 6.1.1.4'
N N 0.0061 0.0033 'International Tables Vol C Tables 4.2.6.8 and 6.1.1.4'
O O 0.0106 0.0060 'International Tables Vol C Tables 4.2.6.8 and 6.1.1.4'
I I -0.4742 1.8119 'International Tables Vol C Tables 4.2.6.8 and 6.1.1.4'
loop_
_geom_angle_atom_site_label_1
_geom_angle_atom_site_label_2
_geom_angle_atom_site_label_3
_geom_angle
_geom_angle_site_symmetry_1
_geom_angle_site_symmetry_3
_geom_angle_publ_flag
O4 I1 O5 112.23(11) . . ?
O4 I1 O3 107.91(11) . . ?
O4 I1 O6 110.05(12) . . ?
O3 I1 O5 110.62(11) . . ?
O6 I1 O5 107.49(11) . . ?
O6 I1 O3 108.49(12) . . ?
C6 N1 C2 123.5(2) . . ?
C2 C3 C4 121.1(2) . . ?
C2 C3 N2 118.2(2) . . ?
C4 C3 N2 120.7(2) . . ?
N1 C2 C3 118.0(2) . . ?
C6 C5 C4 120.1(2) . . ?
C5 C4 C3 118.0(2) . . ?
O2 N2 C3 118.0(2) . . ?
O2 N2 O1 124.5(2) . . ?
O1 N2 C3 117.5(2) . . ?
N1 C6 C5 119.3(2) . . ?
loop_
_geom_bond_atom_site_label_1
_geom_bond_atom_site_label_2
_geom_bond_distance
_geom_bond_site_symmetry_2
_geom_bond_publ_flag
I1 O5 1.7580(19) . ?
I1 O4 1.751(2) . ?
I1 O3 1.756(2) . ?
I1 O6 1.754(2) . ?
N1 C2 1.334(3) . ?
N1 C6 1.332(3) . ?
C3 C2 1.370(3) . ?
C3 C4 1.387(3) . ?
C3 N2 1.463(3) . ?
C5 C4 1.374(4) . ?
C5 C6 1.373(4) . ?
N2 O2 1.220(3) . ?
N2 O1 1.221(3) . ?
