#------------------------------------------------------------------------------
#$Date: 2022-08-31 00:56:23 +0300 (Wed, 31 Aug 2022) $
#$Revision: 277467 $
#$URL: file:///home/coder/svn-repositories/cod/cif/7/13/06/7130615.cif $
#------------------------------------------------------------------------------
#
# This file is available in the Crystallography Open Database (COD),
# http://www.crystallography.net/
#
# All data on this site have been placed in the public domain by the
# contributors.
#
data_7130615
loop_
_publ_author_name
'Dhaka, Arun'
'Jeannin, olivier'
'Aubert, Emmanuel'
'Espinosa, Enrique'
'Fourmigu\'e, Marc'
'Jeon, Ie-Rang'
_publ_section_title
;
 N-chlorobenzimidazoles as efficient and structurally diverse amphoteric
 halogen bond donors in crystal engineering
;
_journal_name_full               'Chemical Communications'
_journal_paper_doi               10.1039/D2CC03971K
_journal_year                    2022
_chemical_formula_moiety         'C8 H7 Cl N2'
_chemical_formula_sum            'C8 H7 Cl N2'
_chemical_formula_weight         166.61
_space_group_IT_number           14
_space_group_name_Hall           '-P 2ybc'
_space_group_name_H-M_alt        'P 1 21/c 1'
_symmetry_cell_setting           monoclinic
_symmetry_Int_Tables_number      14
_symmetry_space_group_name_Hall  '-P 2ybc'
_symmetry_space_group_name_H-M   'P 1 21/c 1'
_atom_sites_solution_hydrogens   geom
_atom_sites_solution_primary     'direct - structure invariant direct methods'
_atom_sites_solution_secondary   'direct - structure invariant direct methods'
_audit_conform_dict_location     ftp://ftp.iucr.org/pub/cif_core.dic
_audit_conform_dict_name         cif_core.dic
_audit_conform_dict_version      2.4.3
_audit_creation_date             2019-02-12T11:07:44-00:00
_audit_creation_method           'WinGX routine CIF_UPDATE'
_audit_update_record
;
2022-05-17 deposited with the CCDC.	2022-08-24 downloaded from the CCDC.
;
_cell_angle_alpha                90
_cell_angle_beta                 110.940(3)
_cell_angle_gamma                90
_cell_formula_units_Z            4
_cell_length_a                   8.0888(5)
_cell_length_b                   12.0248(7)
_cell_length_c                   8.8930(5)
_cell_measurement_reflns_used    2977
_cell_measurement_temperature    296(2)
_cell_measurement_theta_max      27.41
_cell_measurement_theta_min      2.7
_cell_measurement_wavelength     0.71073
_cell_volume                     807.86(8)
_computing_cell_refinement       'Bruker APEX2 (Bruker, 2014)'
_computing_data_collection       'Bruker APEX2 (Bruker, 2014)'
_computing_data_reduction        'Bruker APEX2 (Bruker, 2014)'
_computing_molecular_graphics    'Ortep for Windows (Farrugia, 2012)'
_computing_publication_material  'WinGX publication routines (Farrugia, 2012)'
_computing_structure_refinement  'SHELXL-2014/7 (Sheldrick, 2014)'
_computing_structure_solution    'SIR-97 (Altomare et al., 1999)'
_diffrn_ambient_temperature      296(2)
_diffrn_detector                 'CCD plate'
_diffrn_measured_fraction_theta_full 1
_diffrn_measured_fraction_theta_max 0.999
_diffrn_measurement_device_type  'APEXII, Bruker-AXS'
_diffrn_measurement_method       'CCD rotation images, thick slices'
_diffrn_orient_matrix_UB_11      0.004067
_diffrn_orient_matrix_UB_12      0.021882
_diffrn_orient_matrix_UB_13      0.109753
_diffrn_orient_matrix_UB_21      -0.128354
_diffrn_orient_matrix_UB_22      -0.018814
_diffrn_orient_matrix_UB_23      -0.031308
_diffrn_orient_matrix_UB_31      0.032103
_diffrn_orient_matrix_UB_32      -0.077994
_diffrn_orient_matrix_UB_33      0.038345
_diffrn_radiation_probe          x-ray
_diffrn_radiation_source         'fine-focus sealed tube'
_diffrn_radiation_type           MoK\a
_diffrn_radiation_wavelength     0.71073
_diffrn_reflns_av_R_equivalents  0.0242
_diffrn_reflns_av_unetI/netI     0.0232
_diffrn_reflns_Laue_measured_fraction_full 1
_diffrn_reflns_Laue_measured_fraction_max 0.999
_diffrn_reflns_limit_h_max       9
_diffrn_reflns_limit_h_min       -10
_diffrn_reflns_limit_k_max       15
_diffrn_reflns_limit_k_min       -13
_diffrn_reflns_limit_l_max       11
_diffrn_reflns_limit_l_min       -11
_diffrn_reflns_number            6626
_diffrn_reflns_point_group_measured_fraction_full 1
_diffrn_reflns_point_group_measured_fraction_max 0.999
_diffrn_reflns_theta_full        25.242
_diffrn_reflns_theta_max         27.487
_diffrn_reflns_theta_min         2.696
_diffrn_standards_number         0
_exptl_absorpt_coefficient_mu    0.403
_exptl_absorpt_correction_T_max  0.972
_exptl_absorpt_correction_T_min  0.948
_exptl_absorpt_correction_type   multi-scan
_exptl_absorpt_process_details
;
  [Sheldrick, G.M. (2002). SADABS Bruker AXS Inc., Madison, Wisconsin, USA]
;
_exptl_crystal_colour            colorless
_exptl_crystal_density_diffrn    1.37
_exptl_crystal_density_method    'not measured'
_exptl_crystal_description       prism
_exptl_crystal_F_000             344
_exptl_crystal_size_max          0.26
_exptl_crystal_size_mid          0.11
_exptl_crystal_size_min          0.07
_refine_diff_density_max         0.207
_refine_diff_density_min         -0.213
_refine_diff_density_rms         0.049
_refine_ls_extinction_method     none
_refine_ls_goodness_of_fit_ref   1.076
_refine_ls_hydrogen_treatment    constr
_refine_ls_matrix_type           full
_refine_ls_number_constraints    0
_refine_ls_number_parameters     101
_refine_ls_number_reflns         1853
_refine_ls_number_restraints     0
_refine_ls_restrained_S_all      1.076
_refine_ls_R_factor_all          0.0529
_refine_ls_R_factor_gt           0.0358
_refine_ls_shift/su_max          0
_refine_ls_shift/su_mean         0
_refine_ls_structure_factor_coef Fsqd
_refine_ls_weighting_details
'w=1/[\s^2^(Fo^2^)+(0.0453P)^2^+0.2209P] where P=(Fo^2^+2Fc^2^)/3'
_refine_ls_weighting_scheme      calc
_refine_ls_wR_factor_gt          0.0901
_refine_ls_wR_factor_ref         0.1022
_reflns_Friedel_coverage         0
_reflns_number_gt                1427
_reflns_number_total             1853
_reflns_threshold_expression     'I > 2\s(I)'
_cod_data_source_file            d2cc03971k2.cif
_cod_data_source_block           shelx
_cod_original_sg_symbol_H-M      'P 21/c'
_cod_database_code               7130615
_shelx_res_file
;
 
    shelx.res created by SHELXL-2014/7
 
TITL SIR2014 run in space group P 21/c
CELL  0.71073   8.0888  12.0248   8.8930   90.000  110.940   90.000
ZERR     4.00   0.0005   0.0007   0.0005    0.000    0.003    0.000
LATT   1
SYMM  - X, 1/2 + Y, 1/2 - Z
SFAC  C    H    N    CL
UNIT  32 28 8 4
MERG   2
FMAP   2
PLAN   25
ACTA
BOND   $H
CONF
L.S.  10
WGHT    0.045300    0.220900
FVAR       0.77275
C1    1    0.191194   -0.100908    0.980002    11.00000    0.04857    0.04210 =
         0.04174   -0.00159    0.02236    0.00280
C2    1    0.149076   -0.210775    1.001209    11.00000    0.05666    0.04173 =
         0.04815    0.00244    0.02851    0.00429
C3    1    0.260361   -0.270963    1.131498    11.00000    0.07404    0.05976 =
         0.06429    0.01933    0.03589    0.01563
AFIX  43
H3    2    0.236118   -0.344653    1.147783    11.00000   -1.20000
AFIX   0
C4    1    0.406949   -0.218215    1.235178    11.00000    0.06834    0.10157 =
         0.05886    0.02179    0.01842    0.02269
AFIX  43
H4    2    0.482224   -0.256914    1.323750    11.00000   -1.20000
AFIX   0
C5    1    0.446297   -0.108887    1.211896    11.00000    0.05642    0.10388 =
         0.05738   -0.00102    0.00939   -0.00310
AFIX  43
H5    2    0.547595   -0.076323    1.284730    11.00000   -1.20000
AFIX   0
C6    1    0.339321   -0.047387    1.083826    11.00000    0.05912    0.06135 =
         0.05786   -0.00673    0.02226   -0.00847
AFIX  43
H6    2    0.365100    0.026070    1.067893    11.00000   -1.20000
AFIX   0
C7    1   -0.058865   -0.154488    0.786261    11.00000    0.05063    0.04147 =
         0.04820   -0.00784    0.02273   -0.00228
C8    1   -0.216041   -0.147777    0.635695    11.00000    0.05761    0.07106 =
         0.05620   -0.00892    0.01325   -0.00593
AFIX 137
H8A   2   -0.178379   -0.146278    0.544858    11.00000   -1.50000
H8B   2   -0.281262   -0.081265    0.636748    11.00000   -1.50000
H8C   2   -0.290236   -0.211442    0.628005    11.00000   -1.50000
AFIX   0
N1    3    0.055546   -0.067025    0.842221    11.00000    0.05330    0.03304 =
         0.04646    0.00142    0.01897    0.00054
N2    3   -0.007455   -0.241653    0.879874    11.00000    0.06235    0.03795 =
         0.05741   -0.00273    0.02734   -0.00499
CL1   4    0.043166    0.058471    0.752901    11.00000    0.06586    0.03521 =
         0.05793    0.00498    0.03012    0.00540
HKLF    4
 
REM  SIR2014 run in space group P 21/c
REM R1 =  0.0358 for    1427 Fo > 4sig(Fo)  and  0.0529 for all    1853 data
REM    101 parameters refined using      0 restraints
 
END
 
WGHT      0.0439      0.2303
 
REM Highest difference peak  0.207,  deepest hole -0.213,  1-sigma level  0.049
Q1    1   0.2067 -0.1641  0.9719  11.00000  0.05    0.21
Q2    1   0.1334 -0.0804  0.9262  11.00000  0.05    0.20
Q3    1  -0.3350 -0.1412  0.6429  11.00000  0.05    0.17
Q4    1   0.1548 -0.1439  1.0071  11.00000  0.05    0.16
Q5    1   0.2818 -0.0829  1.0078  11.00000  0.05    0.15
Q6    1   0.1875 -0.2378  1.0711  11.00000  0.05    0.15
Q7    1  -0.0341 -0.1002  0.8173  11.00000  0.05    0.14
Q8    1   0.4432 -0.1750  1.1761  11.00000  0.05    0.14
Q9    1   0.4519 -0.0889  1.1351  11.00000  0.05    0.13
Q10   1   0.3455 -0.2478  1.1296  11.00000  0.05    0.13
Q11   1   0.4613 -0.0363  1.4203  11.00000  0.05    0.13
Q12   1  -0.5075 -0.0581  0.5202  11.00000  0.05    0.13
Q13   1  -0.5122 -0.1985  0.5419  11.00000  0.05    0.13
Q14   1  -0.4997 -0.1125  0.5562  11.00000  0.05    0.13
Q15   1  -0.1145  0.0604  0.7425  11.00000  0.05    0.13
Q16   1  -0.2342 -0.2150  0.5398  11.00000  0.05    0.12
Q17   1   0.1324 -0.3479  1.2128  11.00000  0.05    0.12
Q18   1   0.3785 -0.1567  1.2212  11.00000  0.05    0.12
Q19   1   0.2381 -0.4409  1.0024  11.00000  0.05    0.12
Q20   1  -0.2113 -0.0798  0.5822  11.00000  0.05    0.12
Q21   1   0.4639 -0.1481  1.4444  11.00000  0.05    0.11
Q22   1   0.3986 -0.1267  0.9775  11.00000  0.05    0.11
Q23   1   0.1805  0.0431  0.7640  11.00000  0.05    0.11
Q24   1   0.3051  0.0553  1.0181  11.00000  0.05    0.11
Q25   1   0.4272 -0.2582  1.0691  11.00000  0.05    0.11
;
_shelx_res_checksum              97358
_shelx_hkl_file
;
  -1   0   0 4197.56   86.83   4
   2   0   0 1581.86   33.84   2
  -2   0   0 1599.53   34.25   4
   2   0   0 1608.18   34.04   3
  -2   0   0 1630.34   34.35   2
  -2   0   0 1550.51   34.29   3
  -3   0   0  692.31   14.57   2
  -3   0   0  671.67   14.88   4
  -3   0   0  688.84   14.60   3
   3   0   0  704.21   14.58   3
   3   0   0  691.79   14.57   2
  -4   0   0  420.46    9.38   2
   4   0   0  425.35    9.37   2
   4   0   0  415.32    9.33   3
  -4   0   0  415.82    9.80   4
  -4   0   0  414.88    9.39   3
  -5   0   0  270.78    6.66   2
   5   0   0  271.92    6.61   3
  -5   0   0  270.85    6.70   3
   6   0   0   -0.62    0.71   3
   6   0   0    0.12    0.48   1
  -6   0   0   -0.36    0.82   3
  -6   0   0    0.88    0.86   2
  -7   0   0   15.56    1.67   2
  -7   0   0   16.16    1.74   3
  -8   0   0   52.57    2.90   3
  -8   0   0   49.46    2.77   2
  -9   0   0    6.94    1.65   2
   0  -1   0   -0.12    0.05   4
   0   1   0   -0.04    0.06   3
   0   1   0    0.04    0.06   4
  -1  -1   0  857.27   18.75   2
  -1  -1   0  913.28   19.31   3
   1  -1   0  865.95   18.77   2
  -1  -1   0  925.06   18.99   4
   1   1   0  895.06   19.40   4
   1   1   0  889.31   18.75   2
   1   1   0  931.29   19.55   3
  -1   1   0  861.53   19.07   2
   2  -1   0  324.93    8.20   1
   2  -1   0  397.32    8.28   2
  -2  -1   0  382.32    8.41   4
  -2  -1   0  389.80    8.05   2
  -2  -1   0  383.80    8.33   3
  -2   1   0  395.89    8.08   3
   2   1   0  379.30    8.30   3
   2   1   0  374.76    8.43   4
  -2   1   0  407.02    8.30   2
   2   1   0  384.96    8.04   2
  -3  -1   0    1.06    0.50   3
  -3  -1   0    0.84    0.39   2
   3  -1   0    0.15    0.47   2
  -3  -1   0    1.04    0.58   4
   3  -1   0    0.84    0.35   3
  -3   1   0    0.66    0.35   3
  -3   1   0    1.43    0.58   4
  -3   1   0    0.83    0.40   2
   3   1   0    0.40    0.48   4
   3   1   0    1.61    0.43   2
   3   1   0    0.33    0.44   3
  -4  -1   0  400.56    9.59   4
  -4  -1   0  416.30    9.07   2
  -4  -1   0  410.79    9.35   3
   4  -1   0  418.95    9.28   2
   4  -1   0  406.70    9.02   3
   4  -1   0  407.27    8.57   1
  -4   1   0  399.42    9.53   4
  -4   1   0  397.12    9.22   2
   4   1   0  410.90    9.03   2
  -4   1   0  405.60    9.05   3
   4   1   0  409.73    9.28   3
  -5  -1   0   78.65    2.82   3
  -5  -1   0   80.48    2.61   2
   5  -1   0   78.52    2.05   1
   5  -1   0   77.53    2.53   3
  -5   1   0   78.86    2.62   3
  -5   1   0   76.02    2.75   2
   5   1   0   75.91    2.70   3
   6  -1   0   83.94    2.33   1
  -6  -1   0   88.33    3.05   2
  -6  -1   0   92.59    3.31   3
  -6   1   0   91.96    3.12   3
  -6   1   0   95.11    3.34   2
  -7  -1   0   13.39    1.66   3
  -7  -1   0   13.43    1.57   2
   7  -1   0   12.81    1.15   1
  -7   1   0   13.07    1.69   2
  -7   1   0   10.97    1.40   3
  -8  -1   0    1.85    1.30   3
  -8  -1   0    1.90    1.10   2
  -8   1   0    0.50    1.28   2
  -8   1   0    2.56    1.05   3
  -9  -1   0    0.00    1.11   3
  -9  -1   0    1.04    1.17   2
  -9   1   0   -0.67    1.32   2
   0   2   0   30.04    0.93   4
   0   2   0   29.06    0.97   3
  -1  -2   0  243.00    5.34   4
  -1  -2   0  241.88    5.42   3
   1  -2   0  234.66    5.26   2
   1   2   0  239.24    5.40   3
   1   2   0  236.01    5.33   4
  -1   2   0  241.80    5.29   2
  -2  -2   0  458.55   10.23   4
   2  -2   0  469.97   10.14   2
  -2  -2   0  472.19    9.71   2
  -2  -2   0  458.60   10.24   3
   2   2   0  476.46   10.26   3
   2   2   0  461.89   10.27   4
  -2   2   0  481.64   10.15   2
   2   2   0  480.88    9.71   2
  -3  -2   0  320.56    6.87   2
  -3  -2   0  311.42    7.49   4
  -3  -2   0  304.22    7.36   3
   3  -2   0  321.71    7.31   2
   3   2   0  319.43    7.39   3
  -3   2   0  321.44    7.32   2
   3   2   0  317.98    7.53   4
  -3   2   0  316.22    6.93   3
   3   2   0  320.62    6.87   2
  -4  -2   0    2.55    0.52   2
  -4  -2   0    1.15    0.69   3
  -4  -2   0    0.62    0.62   4
   4   2   0    1.19    0.66   3
  -4   2   0    2.03    0.75   2
  -4   2   0    1.80    0.63   4
   4   2   0    1.62    0.89   4
  -4   2   0    0.92    0.49   3
   4   2   0    2.23    0.51   2
  -5  -2   0   24.96    1.70   3
  -5  -2   0   24.62    1.37   2
  -5   2   0   22.85    1.36   3
   5   2   0   22.97    1.57   3
  -5   2   0   24.26    1.65   2
   5   2   0   22.18    1.74   4
  -6  -2   0    0.18    0.83   3
  -6  -2   0    0.02    0.79   2
  -6   2   0    0.60    0.75   3
  -6   2   0   -1.07    0.94   2
  -7  -2   0   65.37    2.67   2
  -7  -2   0   64.49    3.20   3
  -7   2   0   64.43    2.67   3
  -7   2   0   70.35    3.28   2
  -8  -2   0   41.21    2.85   3
  -8  -2   0   38.78    2.36   2
  -8   2   0   41.80    2.34   3
  -8   2   0   36.83    2.80   2
  -9  -2   0    2.06    1.50   3
  -9   2   0   -0.73    1.40   2
   0   3   0   -0.68    0.42   3
   0   3   0   -0.98    0.37   4
   0   3   0   -1.46    0.28   2
  -1  -3   0  169.24    4.03   4
  -1  -3   0  165.85    4.15   3
   1   3   0  167.43    4.14   3
   1   3   0  169.44    4.04   4
  -1   3   0  170.60    3.97   2
  -2  -3   0  137.50    3.70   4
  -2  -3   0  139.43    3.80   3
  -2   3   0  146.47    3.66   2
   2   3   0  140.24    3.02   2
   2   3   0  143.99    3.80   3
   2   3   0  142.14    3.75   4
  -3  -3   0   38.91    1.78   4
  -3  -3   0   37.54    1.70   3
   3   3   0   38.15    1.15   2
  -3   3   0   37.21    1.59   2
   3   3   0   40.92    1.80   3
   3   3   0   40.47    1.77   4
  -4  -3   0   97.24    3.35   3
  -4  -3   0  104.59    2.67   2
   4   3   0  102.33    3.44   4
  -4   3   0   97.05    3.15   2
   4   3   0  105.46    2.67   2
   4   3   0  104.34    3.35   3
  -4   3   0  101.46    2.75   3
  -5  -3   0   98.65    2.80   2
  -5  -3   0   99.92    3.54   3
   5   3   0   96.40    3.63   4
  -5   3   0   94.13    2.83   3
  -5   3   0   97.71    3.30   2
  -6  -3   0   27.15    2.14   3
  -6  -3   0   22.81    1.49   2
  -6   3   0   23.83    2.03   2
  -6   3   0   23.32    1.47   3
  -7  -3   0    1.88    1.20   3
  -7  -3   0    0.31    0.90   2
  -7   3   0    1.01    1.30   2
  -7   3   0    1.39    0.83   3
  -8  -3   0   43.28    2.35   2
  -8  -3   0   40.83    3.01   3
  -8   3   0   43.78    3.01   2
  -9  -3   0    4.69    1.79   3
  -9   3   0    5.86    1.83   2
   0   4   0   61.60    1.98   3
   0   4   0   59.56    1.67   2
   0   4   0   60.83    1.86   4
  -1  -4   0   25.82    1.18   4
  -1  -4   0   23.93    1.31   3
   1   4   0   24.02    1.17   4
   1   4   0   23.64    1.20   3
  -1   4   0   21.37    1.06   2
  -2  -4   0   74.94    2.55   3
  -2  -4   0   75.70    2.47   4
   2   4   0   75.26    2.43   4
   2   4   0   79.42    2.56   3
  -2   4   0   76.37    2.41   2
   2   4   0   76.21    1.66   2
  -3  -4   0  478.91   11.08   4
  -3  -4   0  484.14   11.22   3
   3   4   0  493.43   11.19   3
  -3   4   0  481.10   10.03   1
   3   4   0  497.25   11.17   4
   3   4   0  480.85   10.04   2
  -3   4   0  492.36   10.97   2
  -4  -4   0    0.14    0.80   3
  -4   4   0    1.73    0.50   3
   4   4   0    0.74    0.85   4
  -4   4   0    4.14    0.95   2
  -5  -4   0    0.28    0.94   3
   5   4   0    1.23    0.81   4
  -5   4   0   -0.46    0.49   3
  -5   4   0    0.44    0.89   2
  -6  -4   0   13.70    1.78   3
  -6   4   0   12.30    1.20   3
   6   4   0   15.37    2.05   4
  -6   4   0   14.27    1.75   2
  -7  -4   0   35.73    2.77   3
  -7   4   0   33.74    1.82   3
  -7   4   0   36.28    2.39   2
  -8  -4   0   32.52    2.94   3
  -8   4   0   32.13    2.45   2
  -9  -4   0   -1.26    1.37   3
  -9   4   0    0.32    1.27   2
   0   5   0   -0.07    0.50   3
   0   5   0   -0.06    0.37   2
   0   5   0   -0.18    0.45   4
  -1  -5   0  477.29   10.97   3
  -1  -5   0  485.36   10.70   4
   1   5   0  490.53   10.72   4
   1   5   0  482.20   10.92   3
  -1   5   0  488.90   10.58   2
  -2  -5   0   44.79    1.88   4
  -2  -5   0   42.85    1.94   3
   2   5   0   46.64    1.96   3
  -2   5   0   42.52    1.78   2
   2   5   0   44.18    1.90   4
  -3  -5   0   96.67    3.18   4
  -3  -5   0   96.44    3.40   3
   3   5   0  101.49    3.41   3
  -3   5   0   94.04    3.11   2
   3   5   0  102.19    3.32   4
  -3   5   0   94.05    2.33   1
  -4  -5   0   25.83    1.93   3
  -4   5   0   27.59    1.79   2
   4   5   0   28.65    1.79   4
  -5  -5   0   62.40    3.08   3
  -5   5   0   62.51    2.68   2
   5   5   0   59.60    3.12   4
  -5   5   0   62.46    2.10   3
  -6  -5   0    9.47    1.65   3
   6   5   0   10.22    1.93   4
  -6   5   0    9.85    1.00   3
  -6   5   0   10.71    1.50   2
  -7  -5   0   30.75    2.81   3
   7   5   0   27.82    2.67   4
  -7   5   0   30.31    2.62   2
  -7   5   0   25.82    1.62   3
  -8  -5   0   19.83    2.50   3
  -8   5   0   17.60    2.34   2
  -9  -5   0    5.14    1.90   3
  -9   5   0    2.26    1.84   2
   0   6   0 1839.00   39.67   2
   0   6   0 1894.40   38.66   3
   0   6   0 1844.94   38.40   4
  -1  -6   0  410.13    9.38   4
  -1   6   0  411.61    9.40   3
  -1   6   0  411.07    9.23   2
   1   6   0  413.91    9.68   3
   1   6   0  412.12    9.41   4
   1   6   0  412.79    8.77   2
  -2  -6   0  389.65    9.46   3
  -2  -6   0  390.32    9.15   4
   2   6   0  386.42    9.13   4
   2   6   0  391.37    8.08   2
   2   6   0  407.80    9.51   3
  -2   6   0  377.59    8.99   2
  -3  -6   0  177.55    5.29   3
   3   6   0  184.07    5.18   4
  -3   6   0  178.29    4.93   2
  -4  -6   0   72.51    3.20   3
  -4   6   0   68.61    2.86   2
   4   6   0   69.90    3.06   4
  -4   6   0   65.16    1.55   1
  -4   6   0   64.10    1.54   1
  -5  -6   0   21.24    1.92   3
  -5   6   0   18.89    1.26   3
  -5   6   0   20.32    1.72   2
   5   6   0   18.35    2.10   4
  -6  -6   0    1.20    1.38   3
  -6   6   0    1.80    1.06   2
  -6   6   0    1.48    0.69   3
   6   6   0    0.13    1.40   4
  -7  -6   0   -1.51    0.98   3
  -7   6   0    1.93    1.49   2
   7   6   0    0.84    1.35   4
  -8  -6   0    1.53    1.65   3
  -8   6   0    0.64    1.68   2
  -9  -6   0    1.30    1.74   3
  -9   6   0    1.00    1.83   2
   0   7   0   -0.46    0.51   4
   0   7   0    0.16    0.45   2
   0   7   0   -0.89    0.54   3
  -1  -7   0  109.79    3.38   4
  -1   7   0  109.92    3.41   3
   1   7   0  108.43    2.81   2
  -1   7   0  112.41    3.35   4
  -1   7   0  111.77    3.25   2
   1   7   0  112.24    3.43   4
  -2  -7   0   69.64    2.68   4
   2   7   0   68.16    1.75   2
  -2   7   0   71.40    2.62   2
   2   7   0   74.65    2.76   4
  -3  -7   0   30.71    2.03   3
  -3   7   0   31.47    1.76   2
   3   7   0   28.91    2.01   4
  -4  -7   0   -0.69    0.78   3
  -4   7   0   -0.85    0.98   2
   4   7   0    0.36    1.03   4
  -4   7   0   -0.43    0.35   1
  -5  -7   0   88.77    4.11   3
  -5   7   0   92.44    3.82   2
   5   7   0   90.33    4.03   4
  -6  -7   0   28.44    2.93   3
   6   7   0   34.72    2.98   4
  -6   7   0   24.45    2.24   2
  -6   7   0   27.88    1.57   3
  -7  -7   0   12.12    2.20   3
   7   7   0   11.17    1.97   4
  -7   7   0   15.48    2.23   2
  -8  -7   0    5.47    1.72   3
  -8   7   0    4.49    1.77   2
   0   8   0  337.81    8.23   4
   0   8   0  346.50    7.85   2
  -1  -8   0  378.47    9.16   4
  -1   8   0  382.93    9.14   4
   1   8   0  389.42    9.25   4
  -1   8   0  390.64    8.96   2
  -1   8   0  394.59    9.30   3
   1   8   0  376.08    8.44   2
   2   8   0  241.92    5.35   2
  -2   8   0  242.46    6.35   2
  -2   8   0  252.47    6.34   3
   2   8   0  247.15    6.54   4
   3   8   0  120.46    4.16   4
  -3   8   0  122.74    4.05   2
  -4  -8   0   -0.66    1.28   3
  -4   8   0    0.00    0.49   1
   4   8   0   -1.75    0.79   4
  -4   8   0   -0.22    0.81   2
  -5  -8   0    2.14    1.19   3
  -5   8   0    4.08    1.47   2
   5   8   0    2.20    1.45   4
  -6  -8   0    2.03    1.32   3
   6   8   0    1.66    1.59   4
  -6   8   0    1.60    1.16   2
  -6   8   0    1.51    0.79   3
  -7  -8   0   17.07    2.65   3
   7   8   0   16.40    2.54   4
  -7   8   0   16.66    2.34   2
  -8   8   0   15.36    2.54   2
   8   8   0   11.42    2.64   4
   0   9   0    0.70    0.72   4
   0   9   0    0.66    0.56   2
  -1   9   0   28.60    1.84   4
   1   9   0   26.59    1.81   4
   1   9   0   26.57    1.29   2
  -1   9   0   29.09    1.63   2
  -2   9   0   53.99    2.42   2
   2   9   0   50.31    1.49   2
   2   9   0   46.49    2.44   4
   3   9   0    1.99    1.20   4
  -3   9   0    1.63    1.18   2
  -3   9   0    3.83    0.97   3
   4   9   0   17.81    2.09   4
  -4   9   0   17.63    1.53   3
  -4   9   0   17.78    1.28   1
  -4   9   0   17.04    2.00   2
   5   9   0    2.25    1.15   4
  -5   9   0    3.11    1.18   2
   6   9   0    5.11    1.53   4
  -6   9   0    4.89    1.66   2
  -7   9   0    1.45    1.33   2
   7   9   0    0.94    1.79   4
   8   9   0   -2.12    1.88   4
   0  10   0  397.87    9.87   4
   0  10   0  410.25    9.36   2
  -1  10   0  370.93    8.77   2
   1  10   0  352.35    9.06   4
   1  10   0  361.24    8.16   2
  -1  10   0  354.99    8.99   4
   2  10   0  237.74    6.64   4
  -2  10   0  226.63    6.37   4
  -2  10   0  225.74    6.30   2
   2  10   0  233.15    5.22   2
   3  10   0  326.95    8.81   4
  -3  10   0  332.90    8.62   2
  -4  10   0   59.75    3.22   2
   4  10   0   60.87    3.37   4
  -4  10   0   63.27    2.29   1
  -5  10   0   -0.24    1.39   2
   5  10   0   -0.80    1.35   4
  -6  10   0    0.60    1.17   2
   6  10   0   -2.47    1.40   4
   7  10   0    4.64    2.19   4
  -7  10   0    9.06    2.14   2
   0  11   0    3.49    0.79   2
   0  11   0    1.94    0.96   4
   1  11   0   56.14    2.03   2
  -1  11   0   55.38    2.71   4
  -1  11   0   53.61    2.41   2
   1  11   0   56.15    2.77   4
  -2  11   0   70.86    3.07   4
   2  11   0   75.08    3.31   4
   2  11   0   67.69    2.03   2
  -2  11   0   65.71    2.96   2
  -3  11   0   43.73    2.47   4
  -3  11   0   39.53    2.56   2
   3  11   0   41.08    2.77   4
  -4  11   0    1.71    1.10   2
   4  11   0    2.67    1.39   4
  -4  11   0    2.46    0.83   1
  -5  11   0   20.94    2.28   2
   5  11   0   23.17    2.61   4
   6  11   0   14.14    2.50   4
  -6  11   0   17.72    2.49   2
   0  12   0    3.36    1.23   4
   0  12   0    4.93    1.00   2
  -1  12   0    2.93    1.10   4
   1  12   0    2.72    1.17   4
  -1  12   0    0.82    0.88   2
   1  12   0    1.10    0.67   2
  -2  12   0    2.78    1.20   4
   2  12   0    1.23    1.15   4
  -2  12   0    1.28    1.09   2
  -3  12   0    0.75    0.99   4
   3  12   0   -0.86    1.16   4
  -3  12   0    0.87    1.21   2
  -4  12   0    1.30    1.45   2
   4  12   0    0.98    1.39   4
   5  12   0   -3.02    1.39   4
  -5  12   0   -0.13    1.48   2
   6  12   0    0.44    1.76   4
  -6  12   0    2.02    1.37   2
   0  13   0   -2.01    0.85   4
   0  13   0   -0.83    0.74   2
   1  13   0    2.82    1.23   4
  -1  13   0    1.23    1.15   4
  -1  13   0    2.55    1.14   2
  -2  13   0   14.24    1.78   2
   2  13   0   12.08    1.84   4
  -2  13   0   11.10    1.73   4
   3  13   0    3.83    1.52   4
  -3  13   0    3.75    1.37   4
  -3  13   0    6.31    1.58   2
  -3  13   0    6.75    1.30   1
   4  13   0   11.22    2.08   4
  -4  13   0   11.36    1.75   4
  -4  13   0   10.06    1.98   2
   5  13   0   21.12    2.72   4
  -5  13   0   25.09    2.83   2
   0  14   0   31.85    2.57   4
  -1  14   0   31.85    2.28   2
   1  14   0   30.81    2.63   4
  -1  14   0   31.04    2.68   4
  -2  14   0    8.19    1.61   2
  -2  14   0    8.87    1.71   4
   2  14   0    9.06    1.79   4
  -3  14   0    1.14    1.19   4
   3  14   0   -0.14    1.32   4
  -3  14   0    0.17    1.25   2
  -4  14   0   -0.11    1.38   2
   4  14   0    0.02    1.40   4
  -4  14   0    2.99    2.39   4
   0  15   0   -0.56    1.21   4
   1  15   0    0.63    1.28   4
  -1  15   0    1.63    1.26   4
  -2  15   0    7.39    1.62   2
   2  15   0    6.02    1.79   4
 -10   0   1   -1.90    1.45   2
  -9   0   1    0.37    1.12   3
  -9   0   1    1.71    1.29   2
  -8   0   1    3.51    1.28   2
  -8   0   1    1.04    1.19   3
   7   0  -1   -0.40    0.54   1
  -7   0   1    0.89    1.15   3
  -7   0   1   -0.82    0.97   2
  -6   0   1   -0.04    0.78   3
   6   0  -1   -1.23    0.50   1
   6   0  -1   -1.58    0.65   3
  -6   0   1   -2.07    0.74   2
   5   0  -1    0.95    0.46   1
  -5   0   1   -0.09    0.66   2
  -5   0   1    0.12    0.64   3
   5   0  -1    0.10    0.57   3
   5   0  -1   -0.02    0.58   2
   4   0  -1   -0.44    0.51   2
  -4   0   1    0.15    0.66   4
  -4   0   1    0.35    0.58   2
   4   0  -1   -0.42    0.36   1
   4   0  -1    0.25    0.50   3
  -4   0   1   -0.22    0.57   3
   3   0  -1   -0.53    0.36   2
   3   0  -1   -0.27    0.39   3
  -3   0   1    0.16    0.37   4
  -3   0   1    0.23    0.43   2
   3   0  -1   -0.17    0.28   1
  -3   0   1   -0.23    0.43   3
   2   0  -1   -0.68    0.24   1
   2   0  -1    0.13    0.38   2
   2   0  -1    0.43    0.38   3
  -2   0   1    0.46    0.32   3
   0   0  -1   -4.20    0.09   1
   1   0   1   -0.72    0.31   4
   1   0   1   -0.93    0.22   3
   1   0   1   -0.37    0.32   1
   2   0   1   -0.20    0.29   1
  -2   0  -1   -0.20    0.27   3
  -2   0  -1    0.00    0.41   4
   2   0   1   -0.21    0.45   4
   2   0   1    0.37    0.29   3
  -3   0  -1    0.05    0.46   2
   3   0   1    0.75    0.43   3
   3   0   1    0.69    0.40   1
  -3   0  -1    0.57    0.48   4
   3   0   1    1.00    0.55   4
  -3   0  -1   -0.04    0.42   3
  -4   0  -1    1.56    0.64   2
   4   0   1    1.02    0.50   3
   4   0   1    1.49    0.45   1
  -4   0  -1    0.66    0.56   4
  -4   0  -1    1.06    0.53   3
   5   0   1    0.39    0.47   1
   5   0   1   -0.28    0.56   3
  -5   0  -1    0.55    0.71   2
  -5   0  -1   -0.02    0.62   3
  -6   0  -1   -1.05    0.86   2
   6   0   1   -0.41    0.52   1
  -6   0  -1    0.04    0.74   3
   6   0   1   -0.55    0.72   3
  -7   0  -1    1.77    0.96   3
  -7   0  -1    0.90    1.16   2
  -8   0  -1   -0.44    0.93   3
  -8   0  -1   -1.64    1.06   2
  -9   0  -1    0.96    1.25   2
 -10   1   1   -0.43    1.48   2
  -9  -1   1   10.84    1.69   2
  -9  -1   1    8.20    1.78   3
  -9   1   1   10.37    1.73   3
  -9   1   1   10.29    1.83   2
  -8  -1   1  104.10    3.86   2
  -8  -1   1  103.27    4.20   3
  -8   1   1  104.95    4.06   3
  -8   1   1  101.74    4.08   2
  -7  -1   1   87.23    3.58   3
   7  -1  -1   84.56    2.29   1
  -7  -1   1   87.92    3.28   2
  -7   1   1   82.91    3.27   2
  -7   1   1   86.64    3.46   3
   7   1  -1   87.82    2.87   1
  -6  -1   1   86.88    2.97   2
  -6  -1   1   84.47    3.27   3
   6  -1  -1   79.48    2.21   1
  -6   1   1   87.41    3.09   3
  -6   1   1   84.90    3.15   2
   5  -1  -1  231.33    5.24   1
  -5  -1   1  240.94    5.88   2
  -5  -1   1  235.07    6.21   3
  -5   1   1  245.26    6.09   2
   5   1  -1  234.56    6.10   3
   5   1  -1  235.17    5.81   2
  -5   1   1  243.30    6.02   3
   4  -1  -1 1095.22   22.58   2
   4  -1  -1 1036.26   22.36   1
  -4  -1   1 1071.77   22.39   2
  -4  -1   1 1077.30   22.77   3
  -4  -1   1 1076.95   22.90   4
   4   1  -1 1066.98   22.68   3
  -4   1   1 1071.69   22.58   2
  -4   1   1 1070.01   22.55   3
   4   1  -1 1076.15   22.36   2
   3  -1  -1  194.12    4.64   2
  -3  -1   1  193.27    4.81   4
  -3  -1   1  192.22    4.50   2
  -3  -1   1  194.55    4.80   3
   3  -1  -1  187.42    4.17   1
   3   1  -1  197.22    4.77   3
  -3   1   1  194.23    4.64   3
  -3   1   1  189.32    4.64   2
   3   1  -1  195.77    4.49   2
   2  -1  -1  961.32   19.57   2
  -2  -1   1  943.38   19.69   3
  -2  -1   1  953.03   19.65   4
   2  -1  -1  908.07   20.03   1
  -2   1   1  958.08   19.58   2
   2   1  -1  954.45   19.69   3
   2   1  -1  957.23   19.42   2
  -2   1   1  927.87   20.06   1
   1  -1  -1  112.92    2.64   2
  -1  -1   1  107.21    2.65   1
  -1  -1   1  113.80    2.58   4
   1  -1  -1  111.84    2.55   1
  -1  -1   1  112.44    2.72   3
  -1   1   1  112.87    2.55   1
   1   1  -1  107.95    2.67   1
  -1   1   1  111.25    2.63   2
   1   1  -1  109.97    2.71   3
   0  -1   1 1313.89   27.21   1
   0  -1  -1 1333.28   27.18   4
   0  -1   1 1257.75   26.84   3
   0   1   1 1088.24   26.74   4
   0   1   1 1345.78   27.67   1
   1  -1   1    6.79    0.55   4
  -1  -1  -1    9.50    0.73   4
   1  -1   1    7.69    0.45   1
   1   1   1    9.33    0.61   3
  -1   1  -1    7.19    0.54   4
  -1   1  -1    8.03    0.48   1
   1   1   1    8.29    0.63   4
   1   1   1    8.47    0.63   1
   2  -1   1 1210.53   25.41   3
  -2  -1  -1 1215.07   26.38   3
   2  -1   1 1157.98   25.88   1
  -2  -1  -1 1216.32   25.11   4
  -2  -1  -1 1204.49   25.65   2
  -2   1  -1 1210.85   25.67   3
   2   1   1 1252.94   25.17   4
   2   1   1 1221.91   25.36   3
  -2   1  -1 1179.58   24.95   4
  -2   1  -1 1178.97   25.64   1
  -3  -1  -1  436.28   10.04   4
  -3  -1  -1  435.43    9.51   2
   3  -1   1  448.46    9.31   1
   3  -1   1  447.12    9.33   3
  -3  -1  -1  431.17    9.71   3
  -3   1  -1  432.30    9.92   4
  -3   1  -1  444.32    9.35   3
  -3   1  -1  429.83    9.73   2
   3   1   1  447.93    9.72   3
   3   1   1  446.21   10.11   4
   4  -1   1  255.96    5.64   1
  -4  -1  -1  250.16    5.97   2
   4  -1   1  251.05    5.78   3
  -4  -1  -1  255.40    6.17   3
  -4   1  -1  254.04    6.22   2
   4   1   1  247.90    6.66   4
  -4   1  -1  256.47    6.50   4
   4   1   1  252.18    6.11   3
  -4   1  -1  250.52    5.81   3
  -5  -1  -1  170.48    4.53   2
   5  -1   1  169.87    4.06   1
  -5  -1  -1  169.29    4.69   3
   5  -1   1  170.91    4.33   3
   5   1   1  165.50    5.21   4
  -5   1  -1  171.14    4.78   2
   5   1   1  168.17    4.40   1
   5   1   1  167.37    4.62   3
  -5   1  -1  176.54    4.41   3
  -6  -1  -1  187.87    5.30   3
  -6  -1  -1  190.12    5.18   2
   6  -1   1  189.06    4.50   1
  -6   1  -1  189.58    4.96   3
   6   1   1  181.22    5.22   3
  -6   1  -1  196.02    5.45   2
   6   1   1  182.53    4.88   1
  -7  -1  -1   14.13    1.66   3
  -7  -1  -1   12.19    1.52   2
  -7   1  -1   12.42    1.33   3
  -7   1  -1   12.76    1.69   2
  -8  -1  -1    7.28    1.45   2
  -8  -1  -1    6.93    1.41   3
  -8   1  -1    6.44    1.53   2
  -9   1  -1    1.34    1.43   2
 -10  -2   1    1.72    1.73   3
 -10   2   1    2.58    1.82   2
  -9  -2   1    0.19    1.51   3
  -9   2   1    3.10    1.49   3
  -9   2   1    3.55    1.65   2
  -8  -2   1   -0.93    1.02   2
  -8  -2   1   -0.75    1.21   3
  -8   2   1   -0.71    1.21   2
   8   2  -1    0.85    0.81   1
  -8   2   1    0.37    1.05   3
  -7  -2   1   -0.73    1.02   3
  -7  -2   1   -0.93    0.83   2
  -7   2   1   -1.08    0.81   3
  -7   2   1   -1.53    1.14   2
  -6  -2   1    4.14    0.93   2
  -6  -2   1    4.46    1.01   3
  -6   2   1    5.01    1.22   2
  -6   2   1    4.99    0.99   3
   6   2  -1    5.04    0.88   2
  -5  -2   1   31.35    1.93   3
   5  -2  -1   26.64    0.69   1
  -5  -2   1   29.94    1.52   2
   5   2  -1   29.54    1.78   3
  -5   2   1   29.83    1.63   2
  -5   2   1   26.17    1.61   3
   5   2  -1   31.08    1.45   2
  -4  -2   1   72.78    2.56   3
   4  -2  -1   68.57    1.55   1
  -4  -2   1   71.20    2.55   4
   4  -2  -1   67.72    2.35   2
  -4  -2   1   74.90    2.19   2
   4   2  -1   72.42    2.11   2
  -4   2   1   67.53    2.45   2
   4   2  -1   75.35    2.54   3
  -4   2   1   65.67    2.26   3
  -3  -2   1   82.61    2.60   3
   3  -2  -1   81.68    1.83   1
   3  -2  -1   79.77    2.46   2
  -3  -2   1   84.96    2.57   4
   3   2  -1   85.84    2.59   3
   3   2  -1   85.27    2.19   2
  -3   2   1   78.88    2.36   3
   3   2  -1   84.50    2.59   4
  -3   2   1   78.49    2.44   2
   2  -2  -1  310.31    7.15   2
  -2  -2   1  329.10    7.20   4
   2  -2  -1  322.15    6.78   1
  -2  -2   1  330.59    7.38   3
  -2   2   1  321.90    7.19   2
   2   2  -1  330.12    7.22   4
  -2   2   1  320.90    6.76   1
   2   2  -1  332.36    7.34   3
  -1  -2   1 3078.45   63.82   3
   1  -2  -1 2755.65   62.15   2
  -1  -2   1 3135.82   62.27   4
   1   2  -1 3097.08   63.26   3
  -1   2   1 2855.94   62.29   1
  -1   2   1 2912.83   62.57   2
   1   2  -1 3033.88   62.32   4
   0  -2  -1   78.30    1.82   2
   0  -2   1   77.55    1.95   3
   0  -2  -1   78.86    2.14   4
   0   2   1   80.62    2.13   4
   0   2  -1   79.68    1.94   3
   0   2  -1   79.36    2.01   1
  -1  -2  -1  223.74    5.09   4
   1  -2   1  210.61    4.71   1
   1   2   1  220.64    5.05   3
  -1   2  -1  217.11    4.71   1
   1   2   1  217.94    5.07   4
  -1   2  -1  213.98    4.59   3
  -2  -2  -1 1250.18   27.70   2
  -2  -2  -1 1300.36   27.11   4
  -2  -2  -1 1312.35   27.01   3
   2  -2   1 1311.95   27.31   1
  -2   2  -1 1305.00   26.87   4
   2   2   1 1322.88   26.99   3
   2   2   1 1329.91   27.17   4
  -2   2  -1 1265.32   27.50   1
  -2   2  -1 1300.86   26.91   3
  -3  -2  -1   23.19    1.33   3
  -3  -2  -1   25.43    1.01   2
  -3  -2  -1   24.79    1.40   4
   3  -2   1   23.94    0.83   1
  -3   2  -1   23.04    1.37   2
  -3   2  -1   23.46    1.34   4
   3   2   1   26.39    1.48   4
   3   2   1   26.65    1.34   3
  -3   2  -1   22.75    0.83   3
   4  -2   1   78.28    1.93   1
  -4  -2  -1   74.50    2.67   3
  -4  -2  -1   77.05    2.27   2
  -4   2  -1   78.90    2.13   3
   4   2   1   78.14    2.65   3
  -4   2  -1   77.02    2.63   2
  -4   2  -1   78.14    2.81   4
   4   2   1   72.71    3.02   4
  -5  -2  -1    0.67    0.63   2
  -5  -2  -1   -0.49    0.77   3
   5  -2   1    0.01    0.32   1
   5   2   1    0.26    0.81   4
  -5   2  -1    0.96    0.84   2
  -5   2  -1    0.06    0.46   3
   5   2   1    0.33    0.64   3
  -6  -2  -1   17.42    1.41   2
  -6  -2  -1   16.53    1.78   3
   6  -2   1   13.79    0.71   1
  -6   2  -1   18.32    1.30   3
  -6   2  -1   15.83    1.75   2
   6   2   1   15.13    1.54   1
  -7  -2  -1   42.78    2.30   2
  -7  -2  -1   44.42    2.77   3
  -7   2  -1   45.36    2.03   3
  -7   2  -1   46.31    2.80   2
  -8  -2  -1    3.59    1.32   3
  -8  -2  -1    2.63    1.15   2
  -8   2  -1    5.58    1.58   2
  -9   2  -1   -0.75    1.34   2
  -9  -3   1   -0.14    1.42   3
  -9   3   1    0.75    1.51   2
  -8  -3   1    6.92    1.74   3
  -8   3   1    8.42    1.72   2
  -8   3   1    7.31    1.30   3
  -7  -3   1   82.65    3.73   3
  -7   3   1   79.54    3.53   2
  -7   3   1   79.07    3.10   3
  -6  -3   1  127.25    4.47   3
  -6   3   1  132.81    4.34   2
   6   3  -1  129.21    3.65   2
  -6   3   1  131.59    3.91   3
  -5  -3   1  295.93    7.75   3
   5   3  -1  304.80    6.93   2
  -5   3   1  301.94    7.54   2
  -5   3   1  303.22    7.21   3
  -4  -3   1   12.58    1.09   4
   4  -3  -1   13.74    1.22   2
  -4  -3   1   11.03    1.11   3
   4   3  -1   11.35    0.78   2
  -4   3   1   10.90    0.97   3
   4   3  -1   10.29    1.04   3
   4   3  -1   11.21    1.23   4
  -4   3   1   10.76    1.02   2
  -3  -3   1  221.62    5.48   4
  -3  -3   1  213.37    5.61   3
   3  -3  -1  221.42    5.39   2
   3   3  -1  215.49    4.89   2
  -3   3   1  217.69    4.60   1
   3   3  -1  226.18    5.53   4
   3   3  -1  224.94    5.60   3
  -3   3   1  218.55    5.40   2
  -2  -3   1  769.93   16.26   4
  -2  -3   1  797.42   16.57   3
   2  -3  -1  760.98   16.26   2
   2   3  -1  782.12   16.28   4
  -2   3   1  766.32   15.86   1
   2   3  -1  771.04   16.48   3
  -2   3   1  754.46   16.26   2
  -1  -3   1  711.76   14.47   4
  -1  -3   1  709.91   14.80   3
   1  -3  -1  662.46   14.51   2
  -1   3   1  674.53   14.53   2
   1   3  -1  713.15   14.79   3
   1   3  -1  707.33   14.47   4
   0  -3  -1   47.47    1.54   4
   0  -3   1   41.12    1.37   3
   0  -3  -1   48.44    1.21   2
   0   3   1   48.20    1.55   4
   0   3  -1   40.17    1.17   4
   0   3  -1   41.89    1.37   3
   0   3   1   46.13    1.19   2
  -1  -3  -1   43.99    1.64   4
   1   3   1   45.37    1.67   4
  -1   3  -1   43.30    1.21   3
  -1   3  -1   41.21    1.31   1
   1   3   1   46.91    1.64   3
  -2  -3  -1   13.65    0.99   4
  -2  -3  -1   13.37    0.45   2
  -2  -3  -1   13.12    1.08   3
  -2   3  -1   12.63    0.89   2
  -2   3  -1   13.70    0.62   1
   2   3   1   13.18    1.15   4
   2   3   1   13.87    1.05   3
  -3  -3  -1  774.60   16.95   4
  -3  -3  -1  792.04   15.96   2
  -3  -3  -1  783.12   16.86   3
   3   3   1  790.63   17.04   4
  -3   3  -1  765.14   16.65   4
  -3   3  -1  752.72   16.15   3
  -3   3  -1  761.97   16.71   2
  -3   3  -1  756.69   16.31   1
   3   3   1  785.77   16.83   3
  -4  -3  -1   89.46    2.39   2
  -4  -3  -1   88.20    3.11   3
   4   3   1   88.06    3.35   4
   4   3   1   86.25    3.03   3
  -4   3  -1   86.33    3.02   4
  -4   3  -1   83.22    2.20   3
  -4   3  -1   89.25    3.06   2
  -5  -3  -1  172.05    4.34   2
  -5  -3  -1  173.53    5.12   3
   5   3   1  172.21    5.40   4
  -5   3  -1  175.37    5.07   2
  -5   3  -1  169.13    4.11   3
  -6  -3  -1   36.74    2.41   3
  -6  -3  -1   32.75    1.77   2
  -6   3  -1   33.85    2.42   2
  -6   3  -1   35.14    1.49   3
   6   3   1   40.84    2.99   4
  -7  -3  -1    3.60    1.34   3
  -7  -3  -1    5.11    1.05   2
  -7   3  -1    3.70    0.76   3
  -7   3  -1    4.99    1.22   2
  -8  -3  -1    2.90    1.54   3
  -8   3  -1    6.99    1.76   2
  -9   3  -1   -0.12    1.54   2
  -9  -4   1    0.41    1.54   3
  -9   4   1    0.47    1.19   2
  -8  -4   1    1.37    1.54   3
  -8   4   1    1.54    1.45   2
  -8   4   1    1.10    0.98   3
  -7  -4   1   38.19    2.80   3
  -7   4   1   31.90    2.06   3
  -7   4   1   35.87    2.33   2
   7   4  -1   33.04    1.93   2
  -6  -4   1    9.42    1.55   3
  -6   4   1   11.98    1.59   2
  -6   4   1    8.77    1.08   3
   6   4  -1   10.41    1.03   2
  -5  -4   1    5.35    1.23   3
  -5   4   1    5.42    0.88   3
   5   4  -1    6.35    0.73   2
  -5   4   1    6.23    1.13   2
   5   4  -1    4.71    1.24   4
  -4  -4   1   25.30    1.63   4
  -4  -4   1   26.59    1.64   3
   4   4  -1   27.67    1.74   4
   4   4  -1   26.44    1.07   2
  -4   4   1   23.55    1.57   2
   3  -4  -1  244.49    5.93   2
  -3  -4   1  232.90    6.16   3
  -3  -4   1  236.82    5.97   4
   3   4  -1  246.26    6.04   4
  -3   4   1  241.86    5.17   1
  -3   4   1  238.72    5.93   2
   3   4  -1  248.20    6.21   3
   3   4  -1  243.21    5.31   2
   2  -4  -1  604.33   12.96   2
  -2  -4   1  587.54   13.25   3
  -2  -4   1  605.61   12.95   4
   2   4  -1  596.13   13.24   3
  -2   4   1  606.04   12.97   2
   2   4  -1  609.28   12.97   4
  -1  -4   1  484.07   10.79   3
  -1  -4   1  484.60   10.41   4
   1  -4  -1  490.24   10.48   2
   1   4  -1  488.63   10.42   4
   1   4  -1  490.35   10.78   3
  -1   4   1  495.51   10.47   2
   0  -4   1 1998.94   43.60   3
   0  -4  -1 1936.06   41.72   2
   0   4   1 1920.24   41.52   2
   0   4  -1 2023.26   42.71   3
   0   4  -1 2017.06   42.13   4
   0   4   1 1943.40   41.17   4
  -1  -4  -1 1337.68   27.76   4
  -1   4  -1 1335.78   28.05   3
  -1   4  -1 1327.09   27.81   1
   1   4   1 1312.11   27.75   4
   1   4   1 1338.59   27.85   3
  -2  -4  -1  108.18    3.25   4
   2   4   1  104.89    3.24   3
  -2   4  -1  108.74    2.58   3
   2   4   1  109.31    3.33   4
  -2   4  -1  106.67    3.15   2
  -2   4  -1  105.82    2.64   1
  -3  -4  -1  243.25    6.39   4
  -3  -4  -1  237.77    6.32   3
  -3   4  -1  252.21    6.20   2
  -3   4  -1  250.23    5.26   3
   3   4   1  248.64    6.44   4
  -3   4  -1  241.18    5.24   1
   3   4   1  234.49    6.23   3
  -4  -4  -1  316.58    7.08   2
  -4  -4  -1  331.82    8.33   3
  -4   4  -1  329.30    8.07   4
  -4   4  -1  332.55    8.15   2
   4   4   1  337.71    8.52   4
  -4   4  -1  330.61    7.05   3
  -5  -4  -1   29.19    2.16   3
  -5  -4  -1   31.35    1.30   2
   5   4   1   28.43    2.13   4
  -5   4  -1   30.48    1.14   3
  -5   4  -1   28.33    1.84   2
  -6  -4  -1   17.01    1.91   3
  -6  -4  -1   15.32    1.22   2
  -6   4  -1   21.95    2.14   2
   6   4   1   17.59    2.02   4
  -6   4  -1   17.04    0.98   3
  -7  -4  -1    0.75    1.28   3
  -7   4  -1    2.14    1.44   2
   7   4   1    3.07    1.73   4
  -8  -4  -1    5.59    1.73   3
  -8   4  -1   10.81    1.78   2
  -9   4  -1    1.48    1.65   2
  -9  -5   1    1.61    1.69   3
  -9   5   1   -1.54    1.63   2
  -8  -5   1   21.77    2.55   3
  -8   5   1   23.25    2.09   3
  -8   5   1   18.82    2.14   2
  -7  -5   1   31.15    2.50   3
  -7   5   1   30.83    2.63   2
  -7   5   1   24.66    1.92   3
  -6  -5   1   80.79    3.57   3
  -6   5   1   85.08    3.39   2
   6   5  -1   82.71    3.88   4
  -6   5   1   79.26    2.87   3
   6   5  -1   83.71    2.53   2
  -5  -5   1    0.19    1.01   3
  -5   5   1    0.36    0.67   3
   5   5  -1    0.07    0.43   2
   5   5  -1   -0.12    0.71   4
  -5   5   1   -0.52    0.68   2
  -4  -5   1    8.29    1.27   3
   4   5  -1    7.22    1.16   4
  -4   5   1    8.36    0.35   1
   4   5  -1    8.74    0.65   2
  -4   5   1    8.89    1.10   2
  -3  -5   1  181.43    4.77   4
  -3  -5   1  173.08    5.04   3
   3  -5  -1  175.60    4.68   2
   3   5  -1  171.67    4.71   4
  -3   5   1  172.29    4.65   2
  -3   5   1  177.73    4.03   1
   3   5  -1  180.55    5.02   3
   2  -5  -1  148.37    3.87   2
  -2  -5   1  140.86    4.13   3
  -2  -5   1  146.88    3.84   4
   2   5  -1  141.36    3.84   4
   2   5  -1  145.47    4.11   3
  -2   5   1  145.35    3.85   2
   1  -5  -1   23.40    1.09   2
  -1  -5   1   18.19    1.28   3
  -1  -5   1   21.81    1.04   4
   1   5  -1   22.09    1.22   3
  -1   5   1   23.22    1.09   2
   1   5  -1   20.54    1.07   4
   0  -5   1   27.73    1.34   3
   0   5   1   24.10    0.97   2
   0   5  -1   24.94    1.23   3
   0   5  -1   24.90    1.07   4
   0   5   1   24.92    1.41   4
  -1  -5  -1    4.61    0.71   4
   1   5   1    4.60    0.73   4
  -1   5  -1    6.60    0.68   3
   1   5   1    5.04    0.82   3
  -2  -5  -1    7.42    0.92   4
  -2   5  -1    6.10    0.65   1
  -2   5  -1    5.89    0.91   2
   2   5   1    7.68    1.05   4
   2   5   1    6.42    0.88   3
  -2   5  -1    5.80    0.57   3
  -3  -5  -1   77.02    3.00   3
   3   5   1   82.41    3.03   4
  -3   5  -1   81.03    2.83   2
  -3   5  -1   85.15    2.11   1
  -4  -5  -1  132.10    4.39   3
  -4   5  -1  135.00    3.18   3
   4   5   1  134.84    4.46   4
  -4   5  -1  139.17    4.30   2
  -5  -5  -1   19.19    2.05   3
   5   5   1   17.69    2.07   4
  -5   5  -1   19.94    0.87   3
  -5   5  -1   20.09    1.65   2
  -6  -5  -1   12.52    1.70   3
  -6   5  -1    9.65    0.73   3
  -6   5  -1   13.29    1.83   2
   6   5   1   11.34    1.80   4
  -7  -5  -1    1.10    1.45   3
   7   5   1   -1.21    1.61   4
  -7   5  -1   -0.46    1.41   2
  -8   5  -1   -2.12    1.52   2
  -9  -6   1    8.04    2.18   3
  -9   6   1    8.56    2.14   2
  -8  -6   1    8.74    2.14   3
  -8   6   1    9.73    2.04   2
  -7  -6   1   13.22    2.25   3
  -7   6   1   14.24    1.89   2
  -7   6   1   16.26    1.60   3
  -6  -6   1    6.00    1.65   3
   6   6  -1    6.74    1.46   4
   6   6  -1    5.70    0.72   2
  -6   6   1    5.10    1.25   2
  -6   6   1    6.51    1.08   3
  -5  -6   1  112.53    4.35   3
   5   6  -1  107.14    4.09   4
  -5   6   1  107.75    3.93   2
   5   6  -1  106.36    2.75   2
  -4  -6   1   18.71    1.96   3
   4   6  -1   20.93    1.75   4
  -4   6   1   18.70    1.69   2
  -4   6   1   18.85    0.80   1
   4   6  -1   21.36    0.87   2
  -3  -6   1   10.58    1.17   4
  -3  -6   1    9.15    1.21   3
  -3   6   1    9.17    1.05   2
  -3   6   1   10.83    0.75   1
   3   6  -1    8.91    1.10   4
  -2  -6   1  123.97    4.01   3
   2  -6  -1  130.31    3.64   2
  -2  -6   1  130.80    3.62   4
  -2   6   1  132.51    3.66   2
   2   6  -1  125.85    3.61   4
   2   6  -1  128.30    3.93   3
  -1  -6   1  247.62    5.81   4
  -1  -6   1  251.42    6.28   3
   1   6  -1  242.97    6.21   3
   1   6  -1  244.17    5.81   4
  -1   6   1  239.09    5.73   2
  -1   6   1  241.08    6.09   4
   0   6   1  530.93   11.27   2
   0   6   1  522.20   11.91   4
   0   6   1  529.14   12.06   3
   0   6  -1  535.11   11.48   4
   0   6  -1  535.64   11.80   3
  -1  -6  -1  301.23    7.36   4
   1   6   1  293.82    6.35   2
   1   6   1  295.22    7.35   4
   1   6   1  303.32    7.52   3
  -1   6  -1  312.92    7.03   3
  -2  -6  -1  124.67    3.94   4
  -2   6  -1  129.82    3.34   3
   2   6   1  119.55    3.91   4
  -2   6  -1  127.78    3.34   1
  -2   6  -1  128.88    3.74   2
  -3   6  -1  307.78    6.93   3
  -3   6  -1  309.24    6.86   1
  -3   6  -1  314.48    7.80   2
   3   6   1  312.58    8.03   4
   4   6   1   34.74    2.23   4
  -4   6  -1   35.70    1.05   1
  -4   6  -1   36.59    2.04   2
  -5  -6  -1    0.45    0.92   3
  -5   6  -1   -0.29    0.36   3
  -5   6  -1    0.36    0.88   2
   5   6   1   -1.09    1.21   4
  -6  -6  -1    3.72    1.23   3
   6   6   1    3.51    1.64   4
  -6   6  -1    1.92    1.43   2
  -7   6  -1    2.84    1.62   2
   7   6   1    0.84    1.77   4
  -8   6  -1   -0.63    1.62   2
  -9  -7   1    0.52    1.40   3
  -9   7   1    3.12    1.58   2
  -8  -7   1    7.50    1.81   3
  -8   7   1   11.19    2.15   2
  -7  -7   1   47.70    3.24   3
  -7   7   1   51.59    3.04   2
  -7   7   1   49.87    2.36   3
   7   7  -1   51.77    3.69   4
  -6  -7   1   67.93    3.82   3
   6   7  -1   60.38    3.27   4
  -6   7   1   62.46    2.60   3
  -6   7   1   63.35    3.42   2
  -5  -7   1  202.76    6.48   3
   5   7  -1  196.99    6.16   4
  -5   7   1  209.44    6.07   2
   5   7  -1  193.23    4.44   2
  -4  -7   1  428.03   10.58   3
  -4   7   1  400.42    8.76   1
   4   7  -1  394.69    9.94   4
   4   7  -1  397.11    8.58   2
  -4   7   1  421.11    9.98   2
  -3  -7   1  241.38    6.31   4
  -3  -7   1  243.01    6.79   3
   3   7  -1  237.09    6.28   4
  -3   7   1  236.51    6.20   2
  -2  -7   1  431.96    9.78   4
  -2  -7   1  417.55   10.27   3
  -2   7   1  425.81    9.74   2
   2   7  -1  420.65    9.75   4
  -1  -7   1    5.68    1.03   3
  -1  -7   1    6.86    0.81   4
   1   7  -1    7.14    1.03   3
  -1   7   1    6.37    0.81   2
   1   7  -1    7.27    0.86   4
  -1   7   1    6.11    0.90   4
   0   7  -1  268.30    6.63   3
   0   7  -1  268.90    6.29   4
   0   7   1  259.89    6.68   4
   0   7   1  258.53    6.01   2
   0   7   1  269.83    6.94   3
  -1  -7  -1  420.43    9.89   4
  -1   7  -1  422.19    9.54   3
  -1   7  -1  410.34    9.57   2
   1   7   1  412.47    9.87   4
  -1   7  -1  423.77    9.39   4
   1   7   1  410.90    8.77   2
  -2   7  -1  432.94    9.65   3
   2   7   1  418.73   10.26   4
  -2   7  -1  433.58    9.62   1
  -2   7  -1  430.34   10.06   2
  -3   7  -1   78.20    2.30   1
  -3   7  -1   72.44    2.99   2
  -3   7  -1   74.68    2.31   3
   3   7   1   72.10    3.05   4
  -4   7  -1  158.68    5.01   2
  -4   7  -1  153.80    3.57   1
  -4   7  -1  151.92    3.82   3
   4   7   1  149.08    5.07   4
  -5   7  -1  266.36    7.50   2
   5   7   1  280.23    7.96   4
  -5   7  -1  255.22    5.86   3
  -5   7  -1  251.11    5.81   3
  -6   7  -1  141.69    5.23   2
   6   7   1  136.21    5.36   4
   7   7   1   20.91    2.82   4
  -7   7  -1   21.75    2.56   2
  -8   7  -1    2.57    1.80   2
   8   7   1    0.36    2.09   4
  -8  -8   1    9.95    2.35   3
  -8   8   1   12.04    2.26   2
  -7  -8   1    8.57    2.14   3
  -7   8   1    8.61    1.68   2
   7   8  -1   10.89    2.21   4
  -6  -8   1   12.20    1.98   3
  -6   8   1   10.30    1.32   3
  -6   8   1   11.87    1.74   2
   6   8  -1   12.44    2.01   4
  -5  -8   1    5.87    1.46   3
  -5   8   1    7.49    1.60   2
  -5   8   1    6.11    0.42   1
   5   8  -1    5.60    1.55   4
  -5   8   1    6.90    0.43   1
  -4  -8   1   -1.12    1.12   3
   4   8  -1   -0.88    0.27   2
   4   8  -1   -0.58    0.90   4
  -4   8   1   -0.58    0.46   1
  -4   8   1    0.86    1.12   2
  -3  -8   1   93.83    3.77   3
  -3   8   1   96.88    3.42   2
   3   8  -1   98.28    3.44   4
  -2  -8   1   51.39    2.55   3
  -2  -8   1   52.47    2.21   4
  -2   8   1   49.06    2.08   2
   2   8  -1   54.69    2.26   4
   1   8  -1   75.82    2.63   4
  -1   8   1   79.72    2.57   2
  -1   8   1   76.56    2.95   4
   0   8  -1    0.90    0.63   4
   0   8   1    1.30    0.81   4
   0   8  -1   -0.36    0.58   2
   0   8  -1    0.13    0.62   3
   0   8   1    0.42    0.51   2
   1   8   1    8.79    0.67   2
  -1   8  -1    8.53    1.09   3
   1   8   1    9.27    1.32   4
  -1   8  -1    8.85    0.96   4
  -1   8  -1    9.31    1.19   2
  -2   8  -1   53.23    2.19   3
  -2   8  -1   59.29    2.58   2
  -2   8  -1   58.81    2.20   1
   2   8   1   58.02    2.76   4
  -3   8  -1    2.97    0.72   3
  -3   8  -1    3.88    0.99   2
  -3   8  -1    2.73    0.72   1
   3   8   1    2.12    1.22   4
  -4   8  -1   50.03    2.61   2
  -4   8  -1   50.77    1.89   3
  -4   8  -1   52.08    1.71   1
   4   8   1   48.09    3.11   4
   5   8   1    2.54    1.24   4
  -5   8  -1    1.74    0.57   3
  -5   8  -1    3.23    1.21   2
  -6   8  -1   12.86    2.17   2
   6   8   1   12.24    2.25   4
  -7   8  -1   -1.63    1.52   2
   7   8   1   -2.40    1.19   4
   8   8   1   -1.42    2.06   4
  -8   8  -1    2.19    1.89   2
  -8  -9   1   15.49    2.81   3
  -8   9   1   16.17    2.62   2
  -7  -9   1   57.24    3.77   3
   7   9  -1   61.01    3.99   4
  -7   9   1   54.62    3.29   2
  -6  -9   1   99.73    4.92   3
  -6   9   1   86.44    3.96   2
   6   9  -1   97.90    4.49   4
  -5  -9   1  211.05    7.15   3
   5   9  -1  219.89    6.69   4
  -5   9   1  211.77    6.39   2
  -5   9   1  205.55    4.91   1
  -4  -9   1   61.28    3.27   3
   4   9  -1   57.60    1.42   2
   4   9  -1   59.66    3.03   4
  -4   9   1   62.29    2.85   2
  -4   9   1   59.01    2.07   1
  -3  -9   1   60.64    3.11   3
  -3   9   1   60.66    2.76   2
   3   9  -1   58.39    2.79   4
  -2   9   1   27.54    1.79   4
   2   9  -1   29.05    1.89   4
  -2   9   1   30.35    1.80   2
  -1   9   1   26.00    1.52   2
   1   9  -1   21.56    1.57   4
  -1   9   1   23.06    1.80   4
   1   9  -1   21.71    1.31   2
   0   9  -1    3.20    0.77   4
   0   9   1    3.80    1.01   4
   0   9  -1    3.35    0.81   2
   0   9   1    3.33    0.68   2
  -1   9  -1   -0.53    0.73   2
   1   9   1    0.40    0.41   2
  -1   9  -1   -0.02    0.64   4
   1   9   1    0.73    0.94   4
   2   9   1   49.48    2.72   4
  -2   9  -1   50.91    2.18   3
  -2   9  -1   51.90    2.54   2
  -2   9  -1   47.05    2.25   1
  -3   9  -1  422.39    9.82   3
  -3   9  -1  415.02   10.46   2
   3   9   1  440.76   10.93   4
  -3   9  -1  421.74    9.69   1
  -4   9  -1   66.36    3.30   2
   4   9   1   62.79    3.25   4
  -4   9  -1   60.49    2.09   1
  -5   9  -1   33.46    2.77   2
   5   9   1   29.65    3.00   4
  -6   9  -1    9.06    1.75   2
   6   9   1    5.80    2.05   4
  -7   9  -1    5.62    1.65   2
   7   9   1    9.90    2.39   4
  -7 -10   1    0.08    1.92   3
  -7  10   1    3.92    1.84   2
   7  10  -1   -1.37    1.63   4
  -6 -10   1   -0.44    1.31   3
  -6  10   1    1.29    1.53   2
   6  10  -1    1.00    1.41   4
  -5 -10   1    7.16    1.68   3
   5  10  -1    7.52    1.66   4
  -5  10   1    6.62    1.73   2
  -4 -10   1    1.34    1.50   3
  -4  10   1    4.92    1.46   2
   4  10  -1    4.78    1.29   4
   3  10  -1   15.37    0.90   2
   3  10  -1   14.88    1.67   4
  -3  10   1   12.90    1.65   2
   2  10  -1    6.53    0.88   2
   2  10  -1    5.92    1.24   4
  -2  10   1    7.51    1.24   2
  -2  10   1    6.62    1.35   4
  -1  10   1   38.86    2.00   2
   1  10  -1   39.54    1.85   2
   1  10  -1   39.80    2.12   4
  -1  10   1   42.30    2.47   4
   0  10  -1   27.96    1.76   4
   0  10   1   25.03    1.54   2
   0  10   1   27.29    2.17   4
   0  10  -1   23.02    1.69   2
  -1  10  -1   40.02    2.22   2
   1  10   1   37.99    1.51   2
   1  10   1   36.36    2.51   4
  -1  10  -1   39.22    2.14   4
  -2  10  -1    3.33    1.24   2
  -2  10  -1    4.66    1.12   1
   2  10   1    1.93    1.00   4
  -2  10  -1    4.00    0.99   4
  -3  10  -1    7.88    1.40   2
  -3  10  -1    7.57    1.14   3
   3  10   1    7.30    1.58   4
  -3  10  -1    7.02    1.12   1
  -4  10  -1   26.98    2.50   2
  -4  10  -1   28.23    1.55   1
   4  10   1   28.99    2.41   4
  -5  10  -1    8.33    1.62   2
   5  10   1    5.89    1.93   4
   6  10   1    0.27    1.78   4
  -6  10  -1    0.93    1.67   2
   7  10   1   -0.40    1.92   4
  -7  10  -1    0.28    1.81   2
  -7  11   1   -0.65    1.68   2
   7  11  -1    1.03    1.87   4
  -6  11   1   -0.53    1.57   2
   6  11  -1    0.32    1.50   4
   5  11  -1   43.75    3.04   4
  -5  11   1   41.56    2.77   2
   4  11  -1   46.25    2.88   4
  -4  11   1   50.60    3.00   2
  -3  11   1    1.14    1.06   2
   3  11  -1    0.87    0.45   2
   3  11  -1    1.30    1.02   4
  -3  11   1    2.27    1.17   4
   2  11  -1    1.70    1.00   4
  -2  11   1   -0.54    0.87   4
  -2  11   1    0.38    0.96   2
   2  11  -1    0.29    0.58   2
   1  11  -1    0.55    0.78   4
  -1  11   1   -0.51    0.93   4
   1  11  -1    1.88    0.74   2
  -1  11   1   -0.76    0.65   2
   0  11   1   -1.20    0.93   4
   0  11  -1   -1.87    0.72   4
   0  11   1   -1.21    0.55   2
   0  11  -1    0.53    0.81   2
   1  11   1    0.65    1.05   4
  -1  11  -1    1.47    0.87   4
  -1  11  -1    0.38    0.88   2
   1  11   1    0.56    0.53   2
  -2  11  -1   49.20    2.44   4
  -2  11  -1   46.51    2.65   2
  -2  11  -1   45.59    2.41   1
   2  11   1   52.69    3.05   4
  -3  11  -1   29.97    2.17   2
  -3  11  -1   33.44    1.98   1
   3  11   1   30.49    2.71   4
  -4  11  -1    1.23    1.42   2
   4  11   1    1.20    1.48   4
   5  11   1    9.51    2.13   4
  -5  11  -1    9.14    2.00   2
   6  11   1    9.24    2.38   4
  -6  11  -1    7.41    2.05   2
  -6  12   1    0.48    1.68   2
   6  12  -1    1.31    1.66   4
   5  12  -1    3.09    1.74   4
  -5  12   1    2.49    1.63   2
   4  12  -1    0.47    1.38   4
  -4  12   1    0.89    1.05   2
   3  12  -1    6.64    1.47   4
  -3  12   1    6.05    1.46   4
  -3  12   1    4.80    1.42   2
  -2  12   1   40.51    2.36   2
   2  12  -1   38.00    2.40   4
  -2  12   1   44.35    2.83   4
   2  12  -1   39.97    1.77   2
   1  12  -1   44.12    2.05   2
  -1  12   1   40.30    2.18   2
   1  12  -1   37.43    2.34   4
  -1  12   1   40.95    2.63   4
   0  12   1   14.49    1.31   2
   0  12  -1   12.54    1.47   4
   0  12  -1   14.80    1.56   2
   0  12   1   12.90    1.79   4
   1  12   1   13.43    1.86   4
  -1  12  -1   13.05    1.59   2
  -1  12  -1   14.16    1.54   4
  -2  12  -1   22.16    1.95   1
  -2  12  -1   21.00    1.82   2
  -2  12  -1   25.19    1.93   4
   2  12   1   23.90    2.45   4
  -3  12  -1   34.53    2.13   1
  -3  12  -1   34.32    2.28   4
   3  12   1   36.46    2.97   4
  -3  12  -1   28.95    2.24   2
  -4  12  -1    0.75    1.38   2
   4  12   1    1.10    1.16   4
   5  12   1    1.98    1.79   4
  -5  12  -1   -1.40    1.53   2
   5  13  -1   -0.78    1.26   4
  -5  13   1   -0.09    1.50   2
  -4  13   1    0.31    1.31   2
  -4  13   1   -1.11    1.35   4
   4  13  -1   -1.36    1.17   4
  -3  13   1    0.58    1.21   4
   3  13  -1    0.60    1.35   4
  -3  13   1    1.26    1.21   2
  -2  13   1   21.77    2.27   4
  -2  13   1   21.75    2.11   2
   2  13  -1   22.07    2.19   4
  -1  13   1    3.24    1.08   2
   1  13  -1    3.82    0.98   2
  -1  13   1    3.37    1.31   4
   1  13  -1    4.51    1.27   4
   0  13  -1    0.78    0.84   2
   0  13   1    0.60    0.73   2
   0  13   1    0.14    1.15   4
   0  13  -1   -0.87    0.87   4
   1  13   1   13.56    1.96   4
  -1  13  -1    9.83    1.43   4
  -1  13  -1   10.74    1.58   2
  -2  13  -1    9.90    1.64   2
   2  13   1   13.57    2.06   4
  -2  13  -1   13.77    1.59   4
  -2  13  -1   14.46    1.83   1
  -3  13  -1    0.35    0.98   4
  -3  13  -1    2.62    1.33   2
  -3  13  -1    1.87    1.18   1
   3  13   1    1.30    1.42   4
   4  13   1    1.22    1.63   4
  -4  13  -1    1.52    1.45   2
   5  13   1   -1.55    1.65   4
  -5  13  -1    1.63    1.78   2
   4  14  -1    2.00    1.45   4
  -4  14   1    3.96    1.51   4
  -4  14   1    3.08    1.64   2
  -3  14   1   19.83    2.21   2
   3  14  -1   21.07    2.27   4
  -3  14   1   24.33    2.49   4
  -2  14   1   45.10    3.11   4
  -2  14   1   39.32    2.73   2
   2  14  -1   45.10    3.00   4
   1  14  -1   67.99    3.36   4
  -1  14   1   63.39    2.95   2
  -1  14   1   61.06    3.57   4
   0  14  -1  106.91    3.89   2
   0  14   1  111.86    4.86   4
   0  14  -1  110.71    4.22   4
  -1  14  -1   75.91    3.40   2
  -1  14  -1   75.80    3.95   4
  -1  14  -1   78.71    3.78   1
   1  14   1   80.36    4.07   4
  -2  14  -1   32.78    2.53   2
  -2  14  -1   29.79    2.54   1
   2  14   1   31.24    2.93   4
   3  14   1   37.69    3.30   4
  -3  14  -1   34.35    2.88   2
  -2  15   1    8.82    1.84   2
  -2  15   1   11.70    1.96   4
  -1  15   1    3.47    1.38   4
   0  15   1    1.24    1.28   4
  -1  15  -1   -0.27    1.17   2
  -1  15  -1    3.56    1.50   1
   1  15   1    3.56    1.58   4
   2  15   1   14.08    2.36   4
  -2  15  -1   15.31    2.06   2
  -2  15  -1   18.64    2.18   1
 -10   0   2   17.94    2.40   3
  -9   0   2   46.11    2.97   2
  -9   0   2   45.99    3.35   3
  -8   0   2   44.57    2.52   2
  -8   0   2   52.89    3.06   3
   7   0  -2    7.67    0.91   1
  -7   0   2    7.47    1.43   3
  -7   0   2    8.55    1.47   2
  -6   0   2   85.95    3.29   3
   6   0  -2   83.11    2.55   1
  -6   0   2   80.78    2.93   2
   5   0  -2   15.42    1.36   3
  -5   0   2   17.24    1.21   2
   5   0  -2   16.70    1.27   2
  -5   0   2   17.01    1.47   3
   5   0  -2   16.85    1.04   1
   4   0  -2  231.15    5.82   3
   4   0  -2  230.26    5.36   1
  -4   0   2  241.63    5.71   2
   4   0  -2  231.21    5.61   2
  -4   0   2  227.63    5.85   3
  -3   0   2 1269.57   26.26   3
  -3   0   2 1270.06   25.88   1
   3   0  -2 1276.69   26.03   2
   3   0  -2 1211.07   25.84   1
  -2   0   2 9999.99  202.16   3
  -2   0   2 9540.29  200.24   1
  -1   0   2  272.59    5.99   1
   1   0  -2  269.14    5.99   1
   0   0  -2 2905.97   61.52   4
   0   0   2 2968.03   62.06   1
   0   0   2 2922.69   61.18   4
   0   0  -2 2901.16   61.91   1
   1   0   2  631.86   13.53   4
  -1   0  -2  640.34   13.51   1
  -1   0  -2  639.15   13.53   4
   1   0   2  650.67   13.53   1
   2   0   2 1103.44   23.68   3
  -2   0  -2 1142.50   24.12   4
  -2   0  -2 1162.37   23.91   1
   2   0   2 1182.64   24.19   4
   2   0   2 1173.69   23.91   1
   3   0   2  740.02   15.65   3
   3   0   2  736.38   16.30   4
  -3   0  -2  748.62   16.25   4
   3   0   2  751.90   15.81   1
  -4   0  -2  204.86    5.26   2
   4   0   2  207.65    5.10   1
   4   0   2  211.03    5.85   4
   4   0   2  206.68    5.01   3
   5   0   2    0.75    0.58   3
   5   0   2    0.02    0.56   1
  -5   0  -2    0.73    0.74   2
  -6   0  -2  190.49    5.43   2
  -7   0  -2    5.43    1.31   2
  -8   0  -2    9.68    1.55   2
 -10  -1   2    0.16    1.61   3
 -10   1   2    1.01    1.50   3
 -10   1   2    0.90    1.60   2
  -9  -1   2    2.79    1.49   3
  -9   1   2    1.75    1.50   2
  -9   1   2    2.42    1.34   3
  -8  -1   2    3.77    1.40   3
  -8  -1   2    2.22    1.23   2
  -8   1   2    2.97    1.31   3
  -8   1   2    3.08    1.39   2
   8   1  -2    1.76    0.90   1
  -7  -1   2   73.27    3.37   3
   7  -1  -2   67.16    2.08   1
  -7  -1   2   72.25    2.99   2
  -7   1   2   70.54    3.17   2
   7   1  -2   70.10    2.54   1
  -7   1   2   71.54    3.24   3
  -6  -1   2  190.54    5.03   2
   6  -1  -2  169.98    4.21   1
  -6  -1   2  182.00    5.38   3
  -6   1   2  173.51    5.01   2
   6   1  -2  175.62    4.65   1
  -6   1   2  178.29    5.18   3
  -5  -1   2    5.59    0.82   2
  -5  -1   2    7.34    1.14   3
   5  -1  -2    5.06    0.60   1
   5   1  -2    6.44    0.86   2
  -5   1   2    4.20    0.79   2
   5   1  -2    6.03    0.80   1
   5   1  -2    3.64    0.88   3
  -5   1   2    6.38    1.00   3
   4  -1  -2  166.28    4.23   2
   4  -1  -2  161.17    3.75   1
  -4  -1   2  153.27    4.36   3
  -4  -1   2  153.02    4.33   4
   4   1  -2  152.20    4.00   1
  -4   1   2  157.37    4.31   3
  -4   1   2  160.83    4.25   2
   4   1  -2  159.41    4.06   2
   4   1  -2  162.34    4.34   3
   3  -1  -2  271.07    5.86   1
   3  -1  -2  276.56    6.19   2
  -3  -1   2  257.09    6.34   3
  -3   1   2  268.15    5.87   1
   3   1  -2  256.32    6.28   3
   3   1  -2  258.09    6.07   1
  -3   1   2  272.34    6.22   2
   3   1  -2  262.42    6.03   2
  -3   1   2  270.29    6.31   3
  -2  -1   2 7334.09  145.55   3
  -2  -1   2 7116.38  143.94   1
   2  -1  -2 6800.50  142.91   1
   2  -1  -2 6596.56  143.22   2
   2   1  -2 7354.74  145.30   3
  -2   1   2 6337.25  142.11   1
   2   1  -2 6993.53  143.54   1
  -1  -1   2 2383.73   50.87   1
  -1  -1   2 2442.04   51.35   3
   1  -1  -2 2369.05   50.83   1
   1   1  -2 2311.24   50.72   1
   1   1  -2 2407.01   50.91   3
  -1   1   2 2333.97   50.59   1
   0  -1   2   63.63    1.53   4
   0  -1   2   63.81    1.76   1
   0  -1  -2   58.40    1.80   1
   0  -1  -2   56.81    1.76   4
   0   1  -2   66.40    1.81   1
   0   1   2   57.90    1.82   1
   0   1   2   54.04    1.74   4
   0   1  -2   66.19    1.54   4
  -1  -1  -2  201.51    4.67   1
   1  -1   2  191.06    4.49   4
   1  -1   2  192.68    4.51   1
  -1  -1  -2  200.99    4.72   4
   1   1   2  209.50    4.71   1
   1   1   2  196.60    4.72   4
  -1   1  -2  188.95    4.47   4
  -1   1  -2  190.85    4.50   1
   2  -1   2    8.25    0.73   1
   2  -1   2    8.64    0.48   3
  -2  -1  -2    9.27    0.86   4
   2  -1   2    8.87    0.89   4
  -2   1  -2   10.06    0.88   4
  -2   1  -2   11.56    0.82   1
   2   1   2    9.71    1.01   4
   2   1   2    9.94    0.85   1
   2   1   2    8.79    0.80   3
   3  -1   2   85.99    2.88   4
   3  -1   2   90.85    2.51   1
   3  -1   2   88.19    2.25   3
  -3  -1  -2   89.82    2.96   4
  -3   1  -2   91.08    2.92   4
   3   1   2   87.31    2.66   3
   3   1   2   90.22    3.11   4
   3   1   2   93.11    2.71   1
   4  -1   2   51.86    1.80   1
   4  -1   2   51.13    1.64   3
  -4  -1  -2   55.14    2.04   2
  -4   1  -2   53.65    2.21   2
   4   1   2   49.76    2.56   4
   4   1   2   49.50    1.94   3
   4   1   2   54.05    2.03   1
   5  -1   2    3.82    0.65   3
   5  -1   2    4.11    0.72   1
  -5  -1  -2    3.10    0.86   2
   5   1   2    2.30    1.33   4
   5   1   2    4.22    0.86   1
  -5   1  -2    3.82    0.86   2
   5   1   2    4.22    0.85   3
  -6  -1  -2    0.66    0.89   2
   6   1   2    0.04    0.82   3
  -6   1  -2    2.09    1.16   2
   6   1   2    0.03    0.74   1
  -7  -1  -2   12.59    1.50   2
  -7   1  -2    9.24    1.58   2
  -8  -1  -2    1.84    1.15   2
  -8   1  -2    3.24    1.47   2
 -10  -2   2   13.62    2.31   3
 -10   2   2   14.87    2.40   2
  -9  -2   2    4.08    1.65   3
  -9   2   2    4.06    1.62   2
  -9   2   2    3.07    1.49   3
  -8  -2   2    5.39    1.55   3
  -8   2   2    3.78    1.18   2
  -8   2   2    0.65    1.19   3
   8   2  -2    2.87    1.00   1
   7  -2  -2   -0.13    0.24   1
  -7  -2   2   -0.79    1.07   3
   7   2  -2   -0.19    0.81   1
  -7   2   2   -0.90    0.91   3
  -7   2   2   -0.51    0.86   2
  -6  -2   2   28.34    2.20   3
   6  -2  -2   26.76    0.99   1
  -6   2   2   30.22    1.91   3
   6   2  -2   27.43    1.64   1
  -6   2   2   27.04    1.97   2
   5  -2  -2  144.42    3.37   1
  -5  -2   2  141.46    4.46   3
  -5   2   2  144.06    4.18   2
   5   2  -2  143.72    4.05   1
  -5   2   2  145.64    4.20   3
   5   2  -2  147.74    3.90   2
  -4  -2   2  248.88    6.28   4
   4  -2  -2  255.84    6.19   2
   4  -2  -2  258.48    5.55   1
  -4  -2   2  250.40    6.41   3
  -4   2   2  254.03    6.22   2
  -4   2   2  255.45    5.54   1
   4   2  -2  253.13    6.37   3
  -4   2   2  251.16    6.18   3
   4   2  -2  242.69    6.06   1
   4   2  -2  249.74    5.89   2
  -3  -2   2   47.22    1.73   4
   3  -2  -2   44.02    1.65   2
  -3  -2   2   41.82    1.78   3
   3  -2  -2   44.15    1.38   1
  -3   2   2   44.40    1.73   2
  -3   2   2   51.09    1.41   1
   3   2  -2   43.47    1.64   1
   3   2  -2   42.76    1.51   2
   3   2  -2   43.86    1.83   3
  -2  -2   2 1591.49   34.39   4
  -2  -2   2 1614.10   33.55   3
   2  -2  -2 1596.56   32.55   2
   2  -2  -2 1590.74   34.41   1
  -2   2   2 1562.91   32.55   2
   2   2  -2 1557.90   33.25   1
  -2   2   2 1559.13   33.28   1
   2   2  -2 1604.55   32.73   3
  -1  -2   2 2886.90   61.34   3
  -1  -2   2 2832.48   60.34   1
   1  -2  -2 2786.03   61.14   1
  -1  -2   2 2956.43   59.11   4
   1  -2  -2 2772.78   60.12   2
   1   2  -2 2856.31   60.65   1
   1   2  -2 2914.50   61.11   3
  -1   2   2 2843.81   61.07   1
   0  -2   2  456.71    9.49   3
   0  -2  -2  438.35    9.77   1
   0  -2   2  459.44    9.70   1
   0  -2  -2  454.69    9.83   4
   0   2   2  439.93    9.82   4
   0   2   2  445.51    9.76   1
   0   2  -2  458.33    9.51   4
   0   2  -2  449.90    9.46   3
   0   2  -2  452.49    9.68   1
   1  -2   2 1204.21   24.12   1
   1  -2   2 1205.01   24.50   3
  -1  -2  -2 1138.19   24.40   4
  -1   2  -2 1155.80   24.07   1
  -1   2  -2 1163.78   25.01   4
   1   2   2 1136.21   24.42   4
   1   2   2 1183.56   24.36   1
  -2  -2  -2   60.73    2.20   4
   2  -2   2   61.75    1.81   1
  -2   2  -2   63.20    1.82   1
  -2   2  -2   62.77    1.99   4
   2   2   2   60.63    2.08   3
   2   2   2   61.22    2.09   1
   2   2   2   61.22    2.31   4
   3  -2   2    1.69    0.44   1
  -3  -2  -2    1.13    0.60   4
  -3  -2  -2    1.19    0.45   2
  -3   2  -2    1.49    0.60   4
   3   2   2    0.72    0.54   1
   3   2   2    0.82    0.63   4
  -3   2  -2    1.94    0.47   1
   3   2   2    1.85    0.59   3
   4  -2   2    2.98    0.54   1
  -4  -2  -2    2.38    0.63   2
   4   2   2    2.88    0.88   4
   4   2   2    3.18    0.74   3
  -4   2  -2    3.21    0.76   2
   4   2   2    2.71    0.70   1
  -5  -2  -2   63.90    2.33   2
   5  -2   2   59.16    1.94   1
  -5   2  -2   64.53    2.77   2
   5   2   2   62.95    3.27   4
   5   2   2   58.89    2.48   3
  -6  -2  -2   -0.39    0.75   2
   6   2   2   -1.32    0.98   4
  -6   2  -2    2.69    1.30   2
  -7  -2  -2    0.13    0.95   2
  -7   2  -2    0.16    1.22   2
  -8   2  -2   10.80    1.81   2
 -10  -3   2    0.47    1.72   3
 -10   3   2    1.59    1.81   2
  -9  -3   2   14.91    2.32   3
  -9   3   2   16.47    2.25   2
  -9   3   2   15.27    1.90   3
  -8  -3   2    3.83    1.55   3
  -8   3   2    4.03    1.29   3
  -8   3   2    2.16    1.18   2
   8   3  -2    4.61    1.19   1
  -7  -3   2   22.82    2.37   3
   7   3  -2   26.32    1.95   1
  -7   3   2   22.01    1.88   2
  -7   3   2   19.43    1.88   3
  -6  -3   2   78.40    3.41   3
  -6   3   2   72.32    2.87   3
   6   3  -2   75.59    2.86   1
  -6   3   2   75.77    2.98   2
   6   3  -2   73.55    2.53   2
  -5  -3   2   47.57    2.42   3
  -5   3   2   42.70    2.14   2
   5   3  -2   42.56    1.75   2
  -5   3   2   43.30    2.03   3
  -4  -3   2  165.07    4.78   3
  -4  -3   2  153.70    4.47   4
   4  -3  -2  164.34    3.73   1
   4  -3  -2  163.49    4.46   2
   4   3  -2  164.60    4.66   3
  -4   3   2  160.91    3.69   1
  -4   3   2  171.99    4.53   2
   4   3  -2  165.11    4.07   2
  -3  -3   2   22.14    1.47   3
  -3  -3   2   23.62    1.25   4
   3  -3  -2   24.53    0.97   1
   3  -3  -2   22.99    1.20   2
   3   3  -2   23.42    1.32   3
  -3   3   2   24.81    0.96   1
  -3   3   2   24.24    1.34   2
   3   3  -2   21.38    1.35   1
   2  -3  -2   29.78    1.20   1
  -2  -3   2   25.55    1.32   3
  -2  -3   2   28.78    1.12   4
   2  -3  -2   30.82    1.31   2
  -2   3   2   29.53    1.22   2
  -2   3   2   30.84    1.17   1
   2   3  -2   28.86    1.33   3
   2   3  -2   29.38    1.34   1
   1  -3  -2  451.45    9.69   2
  -1  -3   2  458.57    9.37   4
  -1  -3   2  446.00    9.91   3
   1   3  -2  458.39    9.89   3
   1   3  -2  448.74    9.94   1
  -1   3   2  458.41    9.84   1
   0  -3  -2   17.05    0.71   2
   0  -3   2   17.45    0.94   1
   0  -3   2   17.72    0.83   3
   0  -3  -2   16.90    1.08   4
   0   3   2   17.08    1.12   4
   0   3   2   16.34    0.92   1
   0   3  -2   17.04    0.96   1
   0   3  -2   16.49    0.78   3
   1  -3   2  150.38    3.24   3
  -1  -3  -2  147.81    3.99   4
   1  -3   2  151.84    3.63   1
   1   3   2  139.61    3.81   1
  -1   3  -2  149.36    3.22   3
   1   3   2  138.13    3.95   4
  -1   3  -2  150.46    3.40   4
  -1   3  -2  148.18    3.60   1
   2  -3   2  179.35    4.21   1
  -2  -3  -2  175.81    4.79   4
   2   3   2  176.40    4.81   4
  -2   3  -2  176.97    4.36   4
   2   3   2  181.38    4.73   3
   2   3   2  178.44    4.65   1
  -2   3  -2  183.46    4.21   1
  -3  -3  -2  165.05    3.91   2
   3  -3   2  167.48    3.97   1
  -3   3  -2  162.73    4.44   4
  -3   3  -2  170.37    3.97   1
   3   3   2  170.30    4.55   1
   3   3   2  167.90    4.62   3
   3   3   2  169.72    4.94   4
  -4  -3  -2  139.94    3.48   2
   4  -3   2  135.80    3.31   1
   4   3   2  131.55    4.40   4
  -4   3  -2  131.13    4.07   2
   4   3   2  138.54    4.14   3
  -5  -3  -2  121.55    3.40   2
   5  -3   2  119.10    2.98   1
   5   3   2  122.93    4.66   4
  -5   3  -2  124.61    4.16   2
  -6  -3  -2  246.98    6.26   2
   6   3   2  257.19    7.83   4
  -6   3  -2  249.95    7.06   2
  -7  -3  -2   27.46    2.02   2
   7   3   2   26.76    2.67   4
  -7   3  -2   26.13    2.18   2
  -8   3  -2   14.35    2.14   2
  -9  -4   2    1.82    1.29   3
  -9   4   2   -0.35    1.60   2
  -9   4   2    1.20    1.24   3
  -8  -4   2    0.00    1.44   3
  -8   4   2   -0.12    0.98   3
  -8   4   2    0.72    1.09   2
   8   4  -2    1.56    1.15   1
  -7  -4   2    0.92    1.30   3
  -7   4   2   -1.11    1.00   3
  -7   4   2   -0.84    0.79   2
   7   4  -2    1.03    0.93   1
  -6  -4   2    3.92    1.32   3
  -6   4   2    3.60    1.07   3
   6   4  -2    3.98    0.74   2
  -6   4   2    4.72    1.06   2
  -5  -4   2   31.68    2.20   3
  -5   4   2   35.98    2.04   2
  -5   4   2   33.67    1.83   3
  -4  -4   2    0.45    0.64   4
  -4  -4   2    0.77    0.84   3
   4   4  -2    0.64    0.46   2
   4   4  -2    0.78    0.60   4
  -4   4   2    1.36    0.77   2
  -4   4   2    1.66    0.35   1
   3  -4  -2  113.83    3.27   2
  -3  -4   2  107.94    3.47   3
  -3  -4   2  110.76    3.17   4
  -3   4   2  108.00    3.18   2
  -3   4   2  116.10    2.80   1
   3   4  -2  104.42    3.15   4
   3   4  -2  107.44    3.39   3
  -2  -4   2   90.40    2.43   4
   2  -4  -2   86.31    2.56   2
  -2  -4   2   89.72    2.89   3
   2   4  -2   90.09    2.44   4
  -2   4   2   82.45    2.50   2
   2   4  -2   86.58    2.74   1
  -2   4   2   85.22    2.42   1
   2   4  -2   88.74    2.80   3
  -1  -4   2  470.13   10.23   3
  -1  -4   2  468.28    9.60   4
   1  -4  -2  447.58    9.88   2
   1   4  -2  454.86   10.23   1
   1   4  -2  461.99    9.60   4
   1   4  -2  470.60   10.17   3
  -1   4   2  446.77   10.06   1
  -1   4   2  453.71    9.87   2
   0  -4  -2   25.63    0.93   2
   0  -4   2   24.48    1.09   3
   0  -4  -2   23.95    1.38   4
   0   4   2   24.17    1.19   1
   0   4  -2   22.82    1.21   1
   0   4  -2   24.78    1.08   3
   0   4  -2   25.26    0.73   4
   0   4   2   23.00    1.30   4
  -1  -4  -2  248.07    6.21   4
  -1  -4  -2  252.38    5.34   2
  -1   4  -2  248.58    5.48   3
  -1   4  -2  258.21    5.83   1
   1   4   2  250.05    6.29   4
   2  -4   2   30.99    1.24   1
  -2  -4  -2   30.89    1.79   4
  -2   4  -2   32.10    1.25   1
  -2   4  -2   30.32    1.28   4
   2   4   2   31.58    1.75   3
   2   4   2   34.27    1.90   4
   3  -4   2   61.58    1.85   1
  -3  -4  -2   61.78    1.66   2
   3   4   2   62.21    2.66   4
  -3   4  -2   61.83    2.27   4
  -3   4  -2   63.09    2.44   2
   3   4   2   65.70    2.64   3
  -3   4  -2   63.66    1.88   1
  -4  -4  -2    1.85    0.46   2
  -4   4  -2    0.99    0.89   2
   4   4   2    1.07    1.11   4
  -4   4  -2    1.33    0.40   1
  -5  -4  -2   25.06    1.26   2
   5   4   2   24.42    2.14   4
  -5   4  -2   26.69    2.12   2
  -6  -4  -2   10.51    1.03   2
  -6   4  -2   11.45    1.57   2
   6   4   2    9.24    1.72   4
   7   4   2    0.21    1.62   4
  -7   4  -2   -2.00    1.28   2
  -8   4  -2   -2.00    1.30   2
  -9  -5   2   18.55    2.72   3
  -9   5   2   20.51    2.60   2
   9   5  -2   28.49    2.62   1
  -8  -5   2   11.72    1.92   3
   8   5  -2   15.58    1.94   1
  -8   5   2   14.90    1.74   3
  -8   5   2   14.45    2.16   2
  -7  -5   2   61.27    3.69   3
  -7   5   2   68.93    3.45   2
  -7   5   2   64.10    2.85   3
  -6  -5   2   64.23    3.38   3
  -6   5   2   60.38    3.00   2
   6   5  -2   60.88    2.14   2
  -6   5   2   57.32    2.66   3
  -5  -5   2  244.59    6.89   3
   5   5  -2  237.90    5.58   2
   5   5  -2  233.02    6.47   4
  -5   5   2  228.30    6.32   2
  -4  -5   2  381.73    9.43   3
  -4  -5   2  374.80    8.95   4
  -4   5   2  362.98    8.02   1
   4   5  -2  382.31    9.02   4
  -4   5   2  374.66    8.98   2
   4   5  -2  371.33    8.26   2
   3  -5  -2   54.08    2.13   2
  -3  -5   2   64.58    2.20   4
  -3  -5   2   59.09    2.58   3
   3   5  -2   59.59    2.40   3
  -3   5   2   59.74    1.85   1
  -3   5   2   60.60    2.20   2
   3   5  -2   61.72    2.25   4
  -2  -5   2  558.21   12.67   3
   2  -5  -2  554.07   12.26   2
  -2  -5   2  575.00   12.08   4
  -2   5   2  557.72   12.24   2
   2   5  -2  570.26   12.63   3
  -2   5   2  554.28   12.13   1
   2   5  -2  561.37   12.07   4
  -1  -5   2  614.98   12.76   4
  -1  -5   2  606.74   13.40   3
   1  -5  -2  608.17   13.00   2
  -1   5   2  603.60   13.22   1
   1   5  -2  623.37   13.37   3
   1   5  -2  607.10   12.74   4
   1   5  -2  598.25   13.40   1
  -1   5   2  613.75   13.54   4
  -1   5   2  609.16   12.97   2
   0  -5  -2  127.62    3.07   2
   0  -5   2  127.74    3.43   3
   0   5  -2  127.31    3.50   1
   0   5   2  125.80    3.78   4
   0   5  -2  128.43    3.39   3
   0   5  -2  127.29    2.95   4
  -1  -5  -2  135.84    3.08   2
  -1  -5  -2  136.87    4.02   4
   1   5   2  141.66    4.12   3
  -1   5  -2  144.21    3.44   3
   1   5   2  134.35    4.05   4
  -1   5  -2  142.03    3.67   1
  -2   5  -2   28.41    1.26   1
   2   5   2   25.94    1.82   4
  -2   5  -2   26.09    0.89   3
   2   5   2   26.38    1.58   3
  -3   5  -2   69.52    2.77   2
  -3   5  -2   67.46    2.38   4
  -3   5  -2   67.38    2.02   1
   3   5   2   69.58    3.01   4
  -4  -5  -2    1.54    0.29   2
   4   5   2   -0.14    0.81   4
  -4   5  -2    0.87    0.41   1
  -4   5  -2    1.44    1.02   2
  -5  -5  -2    0.16    0.39   2
   5   5   2   -1.98    1.24   4
  -5   5  -2    0.22    1.12   2
   6   5   2    6.02    1.57   4
  -6   5  -2    6.11    1.39   2
   7   5   2   18.34    2.72   4
  -7   5  -2   20.73    2.42   2
  -8   5  -2    0.54    1.55   2
  -9  -6   2    4.19    2.00   3
   9   6  -2    5.49    1.66   1
  -9   6   2    4.60    1.98   2
  -8  -6   2   -2.43    1.56   3
  -8   6   2    0.02    1.06   3
   8   6  -2    0.82    1.26   1
  -8   6   2   -0.75    1.07   2
  -7  -6   2    4.33    1.75   3
  -7   6   2    3.54    1.30   2
  -7   6   2    3.94    1.15   3
  -6  -6   2   -0.16    1.29   3
  -6   6   2   -1.01    0.83   3
  -6   6   2   -0.96    0.89   2
   6   6  -2    0.69    0.60   2
  -5  -6   2    1.22    0.95   3
   5   6  -2    0.93    1.03   4
   5   6  -2    2.06    0.59   2
  -5   6   2    1.49    0.32   1
  -5   6   2    0.31    1.11   2
  -4  -6   2  101.14    3.70   4
  -4  -6   2   95.19    3.63   3
  -4   6   2   91.75    3.24   2
   4   6  -2   95.29    3.33   4
  -4   6   2   96.87    2.57   1
  -3  -6   2  387.90    9.00   4
  -3  -6   2  393.36    9.63   3
  -3   6   2  384.27    9.11   2
   3   6  -2  390.55    9.01   4
  -3   6   2  384.46    8.62   1
  -2  -6   2  600.10   12.79   4
   2  -6  -2  590.43   12.99   2
  -2  -6   2  582.01   13.46   3
   2   6  -2  592.53   13.39   3
   2   6  -2  602.66   12.81   4
  -2   6   2  577.21   12.86   1
  -2   6   2  597.59   12.97   2
  -1  -6   2    0.22    0.45   3
   1  -6  -2    1.39    0.50   2
   1   6  -2    0.57    0.38   4
   1   6  -2    1.05    0.61   3
  -1   6   2    0.91    0.48   2
  -1   6   2    0.29    0.57   4
   0  -6  -2  113.31    2.84   2
   0  -6   2  111.49    3.25   3
   0   6  -2  110.28    3.36   1
   0   6  -2  112.47    3.22   3
   0   6   2  113.87    3.56   4
   0   6  -2  109.09    2.77   4
   1   6   2   72.27    2.82   4
  -1   6  -2   65.71    2.29   1
  -1   6  -2   65.89    2.11   3
   2   6   2   43.98    2.29   4
  -2   6  -2   38.35    1.35   3
  -2   6  -2   37.60    1.62   1
  -3   6  -2    0.00    0.92   2
   3   6   2    0.90    1.03   4
  -3   6  -2    0.94    0.50   1
  -3   6  -2    0.35    0.19   3
  -4   6  -2    7.17    1.22   2
  -4   6  -2    6.07    0.64   1
   4   6   2    5.83    1.36   4
   5   6   2    3.59    1.59   4
  -5   6  -2    2.21    1.32   2
   6   6   2    9.01    1.81   4
  -6   6  -2    8.64    1.55   2
  -7   6  -2   -0.77    1.48   2
   7   6   2   -2.13    1.66   4
   8   6   2   -1.61    1.99   4
  -8   6  -2   -0.61    1.62   2
  -9  -7   2   -2.72    1.60   3
  -9   7   2    1.55    1.39   2
   9   7  -2    5.04    1.69   1
  -8  -7   2   -1.10    1.20   3
  -8   7   2   -0.67    1.15   2
  -8   7   2    1.57    1.34   3
  -7  -7   2   11.04    1.89   3
  -7   7   2   11.40    2.02   2
  -7   7   2   11.75    1.50   3
  -6  -7   2    7.59    1.87   3
  -6   7   2    5.21    1.32   2
   6   7  -2    5.36    1.59   4
  -5  -7   2   19.10    2.00   3
   5   7  -2   16.11    1.04   2
  -5   7   2   16.62    0.82   1
  -5   7   2   20.87    2.07   2
   5   7  -2   14.22    1.74   4
  -4  -7   2   86.31    3.69   3
  -4   7   2   81.33    2.42   1
  -4   7   2   82.97    3.11   2
   4   7  -2   82.89    3.13   4
  -3  -7   2   60.28    2.30   4
  -3  -7   2   54.80    2.64   3
   3   7  -2   56.21    2.33   4
  -3   7   2   59.07    2.43   2
  -3   7   2   55.38    2.02   1
  -2  -7   2    7.30    1.22   3
   2  -7  -2    6.32    0.90   2
  -2  -7   2    6.25    0.81   4
  -2   7   2    4.75    0.79   1
  -2   7   2    6.18    0.89   2
   2   7  -2    6.99    0.85   4
   1  -7  -2    2.53    0.64   2
  -1  -7   2    2.66    0.83   3
  -1   7   2    1.68    0.88   4
  -1   7   2    2.56    0.60   2
   1   7  -2    2.41    0.77   3
   1   7  -2    3.50    0.56   4
   0  -7  -2   17.93    0.94   2
   0   7  -2   20.01    0.98   4
   0   7   2   17.13    0.92   2
   0   7  -2   17.36    1.42   1
   0   7  -2   20.85    1.28   3
   0   7   2   17.96    1.62   4
   1   7   2   56.07    2.60   4
  -1   7  -2   53.43    2.20   1
  -1   7  -2   55.40    2.02   3
  -2   7  -2    2.61    0.56   3
  -2   7  -2    2.08    0.67   1
   2   7   2    3.56    1.14   4
  -3   7  -2  156.29    3.99   1
  -3   7  -2  156.06    3.64   3
   3   7   2  144.85    4.96   4
  -3   7  -2  156.19    4.88   2
  -4   7  -2   70.81    2.12   1
   4   7   2   67.47    3.35   4
  -4   7  -2   76.65    3.45   2
   5   7   2   85.97    4.23   4
  -5   7  -2   75.92    3.53   2
  -6   7  -2   33.62    2.88   2
   6   7   2   32.36    2.89   4
   7   7   2    3.71    1.74   4
  -7   7  -2    5.75    1.95   2
  -8  -8   2    3.04    1.92   3
  -8   8   2    3.71    1.85   2
  -7  -8   2    3.24    1.87   3
  -7   8   2    3.92    1.72   2
  -7   8   2    3.97    1.27   3
  -6  -8   2   -3.18    1.43   3
   6   8  -2   -0.57    1.25   4
  -6   8   2   -0.18    0.98   2
  -5  -8   2   79.86    3.81   3
  -5   8   2   77.79    2.23   1
   5   8  -2   81.90    3.51   4
   5   8  -2   79.25    2.30   2
  -5   8   2   82.42    3.57   2
  -4  -8   2  157.59    5.49   3
   4   8  -2  159.62    4.83   4
  -4   8   2  154.95    4.05   1
  -4   8   2  153.74    4.79   2
  -3  -8   2  253.29    7.25   3
  -3  -8   2  260.49    6.54   4
  -3   8   2  251.02    6.21   1
   3   8  -2  254.19    6.50   4
  -3   8   2  248.84    6.56   2
  -2  -8   2  430.60    9.79   4
  -2  -8   2  437.47   10.65   3
  -2   8   2  423.76    9.89   2
  -2   8   2  420.82   10.47   4
   2   8  -2  435.51    9.83   4
  -1  -8   2  530.74   12.28   3
  -1   8   2  524.93   11.52   2
  -1   8   2  524.29   12.33   4
   1   8  -2  509.42   11.43   4
   0   8   2  294.75    6.72   2
   0   8  -2  302.11    7.42   3
   0   8   2  296.39    7.82   4
   0   8  -2  295.18    7.51   1
   0   8  -2  302.08    6.89   4
  -1   8  -2  349.91    8.22   3
  -1   8  -2  346.87    7.90   4
  -1   8  -2  351.70    8.39   1
   1   8   2  337.30    8.83   4
  -2   8  -2  103.96    3.63   2
  -2   8  -2  101.53    3.06   3
   2   8   2  105.13    3.91   4
  -2   8  -2  111.63    3.36   1
  -3   8  -2   20.07    1.49   1
  -3   8  -2   23.41    1.19   3
  -3   8  -2   25.47    1.89   2
   3   8   2   28.15    2.55   4
  -4   8  -2    4.00    1.50   2
  -4   8  -2    2.64    0.67   1
   4   8   2    3.87    1.60   4
  -4   8  -2    3.11    0.35   3
  -5   8  -2   -1.10    1.33   2
   5   8   2    1.97    1.63   4
   6   8   2    0.85    1.77   4
  -6   8  -2   -1.02    1.43   2
   7   8   2    6.23    2.31   4
  -7   8  -2    6.75    1.66   2
  -8  -9   2   -0.35    1.35   3
  -8   9   2    1.58    1.74   2
  -7  -9   2    1.62    1.92   3
  -7   9   2    2.09    1.24   3
  -7   9   2    2.57    1.63   2
  -6  -9   2    2.61    1.37   3
   6   9  -2    3.30    1.40   4
  -6   9   2    2.88    1.19   2
  -5  -9   2   12.61    1.90   3
   5   9  -2   16.04    1.84   4
  -5   9   2   12.87    1.93   2
  -4  -9   2   12.01    1.94   3
  -4   9   2   11.73    1.51   2
  -4   9   2   12.88    1.23   1
   4   9  -2   13.84    1.56   4
  -3  -9   2   15.46    1.99   3
  -3   9   2   19.25    1.54   1
  -3   9   2   18.39    1.71   2
   3   9  -2   14.47    1.50   4
  -2  -9   2   10.67    1.44   3
  -2  -9   2   13.59    1.27   4
  -2   9   2   11.95    1.27   2
   2   9  -2   11.78    1.21   4
  -2   9   2   11.14    1.55   4
  -1   9   2   -0.97    0.87   4
   1   9  -2    0.52    0.56   4
  -1   9   2    0.58    0.65   2
   0   9  -2    2.85    0.70   4
   0   9   2    2.54    0.61   2
   0   9  -2    2.21    1.09   1
   0   9   2    3.94    1.24   4
  -1   9  -2   28.51    1.73   3
   1   9   2   29.52    2.35   4
  -1   9  -2   23.72    1.82   1
  -1   9  -2   24.23    1.66   2
  -1   9  -2   24.66    1.42   4
  -2   9  -2   75.28    3.18   2
  -2   9  -2   86.36    3.00   1
   2   9   2   92.69    3.86   4
  -2   9  -2   76.95    2.78   3
   3   9   2    0.95    1.36   4
  -3   9  -2   -0.29    0.78   1
  -3   9  -2    0.85    0.97   2
  -3   9  -2    0.59    0.56   3
  -4   9  -2   -0.03    0.59   1
  -4   9  -2   -1.35    0.88   2
   4   9   2   -0.84    1.43   4
   5   9   2   -2.39    1.42   4
  -5   9  -2   -0.46    0.97   2
   6   9   2    1.48    1.52   4
  -6   9  -2    1.51    1.27   2
  -7   9  -2    2.53    1.82   2
   7   9   2    3.70    2.14   4
  -7 -10   2    4.92    1.84   3
  -7  10   2    8.81    1.86   2
   7  10  -2    7.37    2.01   4
  -6 -10   2   -0.07    1.67   3
  -6  10   2    0.34    1.10   2
   6  10  -2    1.76    1.44   4
  -5 -10   2   27.62    2.93   3
   5  10  -2   29.28    2.47   4
  -5  10   2   30.22    2.60   2
  -4 -10   2    2.58    1.53   3
   4  10  -2    2.35    1.09   4
  -4  10   2    1.49    1.29   2
  -3 -10   2   15.82    2.14   3
   3  10  -2   13.70    1.45   4
  -3  10   2   14.35    1.63   2
  -2 -10   2  109.40    4.29   3
  -2  10   2  110.73    4.16   4
   2  10  -2  112.78    3.65   4
  -2  10   2  117.15    3.72   2
  -1  10   2  336.89    8.94   4
  -1  10   2  332.71    7.91   2
   1  10  -2  328.51    7.95   4
   0  10  -2  341.95    8.08   4
   0  10   2  339.78    7.78   2
   0  10  -2  342.29    8.82   1
   0  10   2  340.75    9.13   4
  -1  10  -2  363.02    8.98   2
  -1  10  -2  351.09    8.34   4
   1  10   2  337.57    9.29   4
  -1  10  -2  360.61    8.90   1
   2  10   2   20.68    2.22   4
  -2  10  -2   23.54    1.61   4
  -2  10  -2   21.82    1.86   1
  -2  10  -2   20.29    1.56   3
  -2  10  -2   19.85    2.07   2
  -3  10  -2   11.24    1.30   1
   3  10   2   13.07    2.07   4
  -3  10  -2   12.07    1.89   2
   4  10   2   23.15    2.59   4
  -4  10  -2   20.92    2.10   2
   5  10   2   -3.05    1.58   4
  -5  10  -2   -1.47    0.93   2
  -6  10  -2    0.17    1.60   2
   6  10   2    1.21    1.99   4
  -7 -11   2    8.82    2.53   3
  -7  11   2    8.58    2.10   2
   7  11  -2    8.43    2.07   4
  -6 -11   2   26.41    3.17   3
  -6  11   2   34.01    3.08   2
   6  11  -2   21.59    2.53   4
  -5 -11   2   96.34    4.94   3
   5  11  -2   88.79    4.02   4
  -5  11   2   95.99    4.00   2
  -4 -11   2  119.09    5.01   3
   4  11  -2  116.74    4.29   4
  -4  11   2  117.28    4.42   2
  -3 -11   2  145.92    5.54   3
  -3  11   2  159.41    4.93   2
  -3  11   2  152.85    5.37   4
   3  11  -2  154.73    4.85   4
  -2  11   2   79.71    3.65   4
  -2  11   2   78.78    3.09   2
   2  11  -2   76.06    2.98   4
  -1  11   2   36.29    1.88   2
   1  11  -2   36.71    1.91   4
  -1  11   2   33.15    2.29   4
   1  11  -2   35.60    1.92   2
   0  11   2   20.94    1.27   2
   0  11  -2   22.23    2.11   1
   0  11  -2   19.42    1.51   4
   0  11   2   17.53    2.04   4
   0  11  -2   19.23    1.68   2
   1  11   2   24.96    2.43   4
  -1  11  -2   24.86    2.00   2
  -1  11  -2   24.68    2.02   1
  -1  11  -2   23.25    1.57   4
  -2  11  -2   18.47    2.08   2
  -2  11  -2   19.40    1.55   4
   2  11   2   19.40    2.28   4
  -2  11  -2   20.15    1.91   1
  -3  11  -2   13.21    2.01   2
   3  11   2   15.00    2.26   4
  -3  11  -2   14.91    1.49   1
  -4  11  -2   21.40    2.29   2
   4  11   2   19.19    2.61   4
   5  11   2   51.67    4.03   4
  -5  11  -2   50.42    3.59   2
   6  11   2    8.14    2.47   4
  -6  11  -2    9.86    2.28   2
  -6 -12   2   -0.57    1.38   3
  -6  12   2   -1.62    1.04   2
   6  12  -2   -1.42    1.23   4
  -5 -12   2    5.40    1.85   3
  -5  12   2   10.60    2.02   2
   5  12  -2    6.95    1.65   4
   4  12  -2    9.24    1.59   4
  -4  12   2   11.01    1.92   4
  -4  12   2    9.27    1.72   2
  -3  12   2    6.10    1.56   4
  -3  12   2    7.30    1.44   2
   3  12  -2    8.96    1.43   4
   2  12  -2   12.84    1.48   4
  -2  12   2   10.69    1.44   2
  -2  12   2   11.17    1.83   4
   2  12  -2   14.56    1.36   2
   1  12  -2    0.17    0.78   4
   1  12  -2    0.97    0.87   2
  -1  12   2   -0.49    0.79   2
  -1  12   2   -0.74    1.19   4
   0  12  -2   -0.50    0.83   2
   0  12   2    0.32    0.66   2
   0  12  -2   -1.04    1.01   1
   0  12  -2   -0.62    0.65   4
   0  12   2   -1.85    1.13   4
   1  12   2    3.14    1.46   4
  -1  12  -2    4.47    1.28   1
  -1  12  -2    2.84    0.91   4
  -1  12  -2    3.91    1.26   2
  -2  12  -2    7.51    1.13   4
  -2  12  -2    8.21    1.34   1
  -2  12  -2    4.92    1.29   2
   2  12   2    6.69    1.87   4
   3  12   2    3.80    1.67   4
  -3  12  -2    2.73    1.08   1
  -3  12  -2    3.44    1.60   2
  -4  12  -2    8.31    1.74   2
   4  12   2    8.05    2.21   4
  -5  12  -2    6.21    2.03   2
   5  12   2    2.54    2.08   4
  -5  13   2    3.71    1.50   4
  -5  13   2    6.44    1.81   2
   5  13  -2    3.67    1.48   4
  -4  13   2   28.32    2.53   2
   4  13  -2   25.77    2.39   4
  -4  13   2   25.32    2.68   4
   3  13  -2   30.57    2.27   4
  -3  13   2   31.29    2.41   2
  -3  13   2   30.09    2.77   4
   2  13  -2   27.08    1.77   2
  -2  13   2   27.37    2.04   2
  -2  13   2   26.35    2.57   4
   2  13  -2   23.77    2.04   4
  -1  13   2    1.48    0.92   2
   1  13  -2    3.11    1.27   1
  -1  13   2    0.24    1.27   4
   1  13  -2    2.13    0.96   4
   1  13  -2    3.93    1.07   2
   0  13  -2    5.58    1.08   4
   0  13   2    5.72    1.68   4
   0  13  -2    4.74    1.60   1
   0  13  -2    4.99    1.25   2
  -1  13  -2    8.32    1.62   1
   1  13   2    9.37    1.91   4
  -1  13  -2   11.24    1.70   2
   2  13   2   11.63    2.03   4
  -2  13  -2   13.14    1.94   2
  -2  13  -2   11.06    1.69   1
  -3  13  -2   32.04    2.85   2
   3  13   2   36.10    3.42   4
   4  13   2   35.35    3.79   4
  -4  13  -2   39.68    2.93   2
  -4  14   2    9.86    1.89   2
  -4  14   2   11.00    2.04   4
  -3  14   2   21.79    2.47   4
  -3  14   2   15.81    2.04   2
  -2  14   2   14.11    2.19   4
  -2  14   2   12.85    1.68   2
  -1  14   2   28.43    2.86   4
   1  14  -2   25.29    2.00   2
   1  14  -2   35.50    3.14   1
   0  14   2   23.00    2.62   4
   0  14  -2   23.06    2.11   2
   0  14  -2   22.10    2.50   1
  -1  14  -2    9.18    1.64   2
  -1  14  -2    7.45    1.65   1
   1  14   2    4.71    1.80   4
  -2  14  -2    4.97    1.55   2
  -2  14  -2    5.42    1.48   1
   2  14   2    5.99    1.94   4
   3  14   2    2.66    1.85   4
  -3  14  -2   -0.32    1.32   2
  -2  15   2   -1.06    1.37   4
   2  15  -2   -0.18    1.65   1
  -1  15   2    1.77    1.51   4
   1  15  -2    0.19    1.56   1
   0  15   2    1.03    1.49   4
   0  15  -2    2.10    1.53   1
  -1  15  -2    1.54    1.31   1
  -1  15  -2    0.06    1.22   2
   1  15   2    0.68    1.51   4
 -10   0   3    0.21    1.53   3
  -9   0   3    2.63    1.53   3
  -8   0   3    0.99    1.31   3
   8   0  -3   -0.27    0.72   1
  -7   0   3   -0.09    1.10   3
   7   0  -3   -0.80    0.66   1
   6   0  -3    0.43    0.65   1
  -6   0   3    0.66    1.05   3
  -5   0   3    0.45    0.80   3
   5   0  -3    0.33    0.58   1
   4   0  -3   -0.54    0.40   2
  -4   0   3   -1.31    0.52   1
  -4   0   3   -0.64    0.50   3
   4   0  -3   -1.13    0.48   1
  -3   0   3    0.01    0.44   3
  -3   0   3    0.12    0.43   1
   3   0  -3    0.84    0.48   1
   3   0  -3    0.08    0.39   2
  -2   0   3   -0.52    0.46   1
   2   0  -3   -0.50    0.48   1
  -1   0   3   -0.48    0.44   1
   1   0  -3   -0.40    0.47   1
   0   0  -3   -0.38    0.29   4
   0   0   3   -0.27    0.32   4
   0   0  -3   -0.21    0.44   1
   0   0   3    0.16    0.32   1
   1   0   3    0.12    0.49   1
  -1   0  -3    0.14    0.42   4
   1   0   3    0.52    0.45   4
  -1   0  -3    0.29    0.54   1
  -2   0  -3   -0.17    0.54   4
   2   0   3   -0.50    0.40   3
   2   0   3    0.22    0.55   1
   2   0   3    0.37    0.64   4
  -2   0  -3    0.30    0.60   1
  -3   0  -3    1.75    0.62   4
   3   0   3    0.59    0.59   4
   3   0   3    1.08    0.59   1
   3   0   3   -0.34    0.45   3
  -4   0  -3    0.25    0.73   2
   4   0   3    0.45    0.47   3
   4   0   3   -0.36    0.54   1
   4   0   3   -0.93    0.89   4
   5   0   3    1.15    1.36   4
   5   0   3    0.75    0.68   3
  -5   0  -3    2.73    1.00   2
   5   0   3    2.56    0.90   1
  -6   0  -3   -1.13    0.92   2
  -7   0  -3    0.50    1.01   2
  -8   0  -3   -2.06    1.02   2
 -10  -1   3   21.26    2.64   3
 -10   1   3   29.87    3.21   3
  -9  -1   3   32.11    3.02   3
  -9   1   3   36.81    2.98   3
  -8  -1   3   32.81    2.81   3
  -8   1   3   35.46    2.70   3
  -8   1   3   31.23    2.61   2
   8   1  -3   29.69    1.86   1
  -7  -1   3   96.25    3.82   3
   7  -1  -3   91.93    2.77   1
  -7   1   3   92.97    3.54   2
  -7   1   3   98.52    3.88   3
   7   1  -3   96.75    3.18   1
   6  -1  -3  348.71    7.85   1
  -6  -1   3  348.81    8.97   3
  -6   1   3  333.93    8.53   2
  -6   1   3  344.55    8.76   3
   6   1  -3  360.12    8.22   1
  -5  -1   3  179.97    5.16   3
   5  -1  -3  182.43    4.42   1
  -5   1   3  180.73    5.10   3
   5   1  -3  180.48    4.66   1
   5   1  -3  168.88    4.67   2
  -5   1   3  177.78    4.88   2
   4  -1  -3  566.58   12.15   1
  -4  -1   3  555.39   12.79   3
   4  -1  -3  574.76   12.51   2
   4   1  -3  569.11   12.39   2
  -4   1   3  568.73   12.17   1
   4   1  -3  572.89   12.38   1
   4   1  -3  573.62   12.74   3
  -4   1   3  540.08   12.66   3
   3  -1  -3   21.02    1.21   2
  -3  -1   3   20.70    1.09   1
  -3  -1   3   19.30    1.22   3
   3  -1  -3   18.93    1.05   1
   3   1  -3   20.56    1.21   1
  -3   1   3   19.02    1.05   1
   3   1  -3   20.24    1.20   3
   2  -1  -3  660.50   13.90   1
  -2  -1   3  634.59   14.06   3
  -2  -1   3  647.32   13.96   1
  -2   1   3  654.65   13.88   1
   2   1  -3  661.17   13.97   1
   1  -1  -3   34.56    1.45   1
  -1  -1   3   35.98    1.40   1
  -1  -1   3   38.03    1.44   3
   1   1  -3   36.62    1.47   1
  -1   1   3   35.43    1.44   1
   0  -1   3   12.85    0.72   4
   0  -1  -3   14.53    0.86   4
   0  -1   3   14.13    0.95   1
   0  -1  -3   13.74    1.04   1
   0   1   3   15.56    0.97   4
   0   1  -3   13.56    0.72   4
   0   1   3   14.97    0.92   1
   0   1  -3   13.52    0.86   1
  -1  -1  -3  330.49    7.61   4
   1  -1   3  332.72    7.49   1
  -1  -1  -3  333.78    7.64   1
   1  -1   3  327.43    7.36   4
  -1   1  -3  322.68    7.33   4
   1   1   3  329.45    7.61   4
   1   1   3  331.37    7.60   1
  -1   1  -3  328.84    7.47   1
   2  -1   3  636.14   13.15   3
  -2  -1  -3  629.08   13.95   4
   2  -1   3  636.99   13.64   1
   2  -1   3  642.95   13.79   4
   2   1   3  633.87   13.80   1
   2   1   3  618.62   13.95   4
  -2   1  -3  631.03   13.63   1
   2   1   3  624.10   13.58   3
  -2   1  -3  632.71   13.72   4
   3  -1   3  217.46    4.92   3
   3  -1   3  223.44    5.82   4
   3  -1   3  224.96    5.43   1
   3   1   3  216.11    5.37   3
  -3   1  -3  224.94    5.41   1
  -3   1  -3  219.84    5.71   4
   3   1   3  209.08    5.85   4
   3   1   3  218.34    5.58   1
   4  -1   3  192.97    4.45   3
  -4  -1  -3  186.38    4.98   2
   4  -1   3  193.70    5.60   4
   4  -1   3  188.02    4.87   1
  -4   1  -3  192.27    5.26   2
   4   1   3  191.43    5.64   4
   4   1   3  188.76    5.07   1
   4   1   3  189.51    4.93   3
   5  -1   3   -1.58    0.65   1
   5  -1   3    0.05    0.49   3
  -5  -1  -3    0.98    0.84   2
   5   1   3   -1.67    1.27   4
   5   1   3   -0.72    0.71   3
  -5   1  -3    1.88    1.04   2
  -6  -1  -3   17.67    1.65   2
  -6   1  -3   14.73    1.71   2
   6   1   3   14.13    1.94   4
  -7  -1  -3   13.38    1.58   2
  -7   1  -3   11.75    1.71   2
  -8   1  -3   -1.33    1.14   2
 -10  -2   3    3.54    1.87   3
 -10   2   3    3.33    1.73   2
 -10   2   3    3.01    1.54   3
  -9  -2   3    2.63    1.69   3
  -9   2   3    4.01    1.63   2
  -9   2   3    2.15    1.44   3
  -8  -2   3    0.19    1.43   3
   8   2  -3    0.30    0.92   1
  -8   2   3   -0.41    0.93   2
  -8   2   3   -0.80    1.19   3
   7  -2  -3    1.77    0.57   1
  -7  -2   3    0.22    1.26   3
  -7   2   3    0.94    1.21   2
  -7   2   3    1.28    1.06   3
   7   2  -3    1.72    0.86   1
  -6  -2   3    3.10    1.20   3
   6  -2  -3    2.29    0.60   1
  -6   2   3    2.34    1.02   3
  -6   2   3    2.62    1.08   2
   6   2  -3    3.16    0.91   1
   5  -2  -3    4.31    0.62   1
  -5  -2   3    3.97    0.90   3
  -5   2   3    3.34    0.80   3
  -5   2   3    4.83    0.60   1
   5   2  -3    4.83    0.82   2
  -5   2   3    3.18    0.81   2
   5   2  -3    3.92    0.83   1
   4  -2  -3  102.29    3.18   2
   4  -2  -3  104.25    2.88   1
  -4  -2   3  108.94    3.50   3
  -4  -2   3  105.49    3.26   4
  -4   2   3  106.00    2.87   1
   4   2  -3  107.48    3.24   1
  -4   2   3  105.73    3.42   3
  -4   2   3  105.64    3.23   2
   4   2  -3  109.44    3.48   3
   4   2  -3  107.61    3.08   2
  -3  -2   3   38.77    1.63   1
   3  -2  -3   45.41    1.68   2
   3  -2  -3   41.43    1.58   1
  -3  -2   3   37.49    1.77   3
   3   2  -3   39.77    1.75   1
   3   2  -3   41.55    1.85   3
  -3   2   3   42.79    1.52   1
  -2  -2   3  701.88   15.03   1
   2  -2  -3  695.09   14.88   2
   2  -2  -3  701.14   14.88   1
  -2  -2   3  707.92   15.11   3
   2   2  -3  684.88   14.99   1
   2   2  -3  704.38   15.03   3
  -2   2   3  695.14   14.84   1
  -1  -2   3  258.91    6.06   3
  -1  -2   3  269.52    6.17   1
   1  -2  -3  260.73    6.14   1
  -1   2   3  257.65    6.21   4
  -1   2   3  262.41    6.11   1
   1   2  -3  261.15    6.13   1
   0  -2  -3 1294.62   26.74   1
   0  -2   3 1284.32   26.71   3
   0  -2   3 1301.44   26.61   1
   0  -2   3 1277.18   27.20   4
   0  -2  -3 1280.07   26.71   4
   0   2   3 1261.22   26.71   4
   0   2  -3 1268.59   26.57   1
   0   2  -3 1251.84   27.08   4
   0   2   3 1296.54   26.70   1
   1  -2   3   41.00    1.41   4
   1  -2   3   40.77    1.57   1
   1  -2   3   41.16    1.19   3
  -1  -2  -3   40.51    1.78   1
  -1  -2  -3   40.99    1.71   4
   1   2   3   39.15    1.64   1
   1   2   3   39.45    1.82   4
  -1   2  -3   39.56    1.36   4
  -1   2  -3   39.60    1.56   1
   2  -2   3    1.13    0.17   3
   2  -2   3    1.06    0.16   3
  -2  -2  -3    1.30    0.73   4
   2  -2   3    0.50    0.57   4
   2  -2   3    0.77    0.53   1
   2   2   3    1.83    0.58   3
  -2   2  -3    0.01    0.55   1
  -2   2  -3    0.84    0.54   4
   2   2   3    1.34    0.78   4
   2   2   3    0.67    0.63   1
   3  -2   3    6.09    0.81   1
   3   2   3    6.75    0.97   1
   3   2   3    4.45    1.15   4
   3   2   3    6.30    0.86   3
  -3   2  -3    6.27    0.89   4
  -3   2  -3    5.02    0.76   1
  -4  -2  -3   56.58    2.11   2
   4  -2   3   53.37    2.00   1
   4   2   3   54.22    2.88   4
  -4   2  -3   54.18    2.49   2
   4   2   3   52.31    2.22   3
   5  -2   3   91.31    2.89   1
  -5  -2  -3   97.57    3.18   2
  -5   2  -3   89.43    3.42   2
   5   2   3   96.07    3.40   3
   5   2   3   96.70    4.20   4
  -6  -2  -3    5.29    1.04   2
   6   2   3    3.71    1.65   4
  -6   2  -3    2.64    1.36   2
  -7  -2  -3    0.89    1.00   2
  -7   2  -3    0.05    1.25   2
  -8   2  -3    7.45    1.81   2
 -10  -3   3   -1.58    1.57   3
 -10   3   3    0.84    1.59   3
 -10   3   3    0.18    1.64   2
  -9  -3   3   -0.31    1.64   3
  -9   3   3    1.17    1.41   3
  -9   3   3    4.95    1.72   2
  -8  -3   3    3.54    1.72   3
   8   3  -3    5.62    1.24   1
  -8   3   3    2.91    1.44   3
  -8   3   3    7.31    1.48   2
   7  -3  -3   33.05    1.11   1
  -7  -3   3   34.18    2.77   3
  -7   3   3   33.09    2.37   3
  -7   3   3   38.96    2.58   2
   7   3  -3   35.59    2.14   1
  -6  -3   3   22.20    2.12   3
   6  -3  -3   18.01    0.98   1
   6   3  -3   18.18    1.63   1
  -6   3   3   19.91    1.62   2
  -6   3   3   18.97    1.81   3
   5  -3  -3   47.10    1.59   1
  -5  -3   3   44.83    2.31   3
  -5   3   3   44.48    2.23   3
   5   3  -3   45.09    2.13   1
   5   3  -3   43.56    1.84   2
  -5   3   3   44.60    2.23   2
  -5   3   3   44.32    1.52   1
  -4  -3   3  146.47    4.57   3
   4  -3  -3  154.22    3.81   1
  -4  -3   3  155.23    4.23   4
  -4   3   3  156.09    4.32   2
  -4   3   3  151.14    3.74   1
   4   3  -3  143.26    4.27   1
  -3  -3   3  882.55   18.45   4
   3  -3  -3  864.65   18.61   2
   3  -3  -3  884.45   18.39   1
  -3  -3   3  859.81   18.92   3
   3   3  -3  880.20   18.76   1
  -3   3   3  871.16   18.30   1
   3   3  -3  866.66   18.83   3
  -3   3   3  870.28   18.63   2
  -2  -3   3  270.36    6.49   1
  -2  -3   3  269.36    5.94   4
   2  -3  -3  268.05    6.33   1
  -2  -3   3  269.35    6.54   3
   2  -3  -3  264.89    6.27   2
   2   3  -3  274.92    6.48   3
   2   3  -3  270.39    6.50   1
  -2   3   3  267.27    6.26   1
  -1  -3   3   46.55    1.13   4
  -1  -3   3   53.13    1.86   1
  -1  -3   3   53.83    1.83   3
   1  -3  -3   46.65    1.64   2
   1   3  -3   53.30    1.78   3
   1   3  -3   51.15    1.86   1
  -1   3   3   48.87    1.84   1
  -1   3   3   46.63    1.97   4
   0  -3  -3  138.22    3.82   4
   0  -3   3  133.38    3.34   3
   0  -3   3  129.10    3.59   1
   0   3   3  139.94    3.87   4
   0   3  -3  135.08    3.30   3
   0   3   3  133.59    3.72   1
   0   3  -3  135.14    3.61   1
   1  -3   3  271.73    6.41   1
  -1  -3  -3  283.85    6.82   4
   1  -3   3  278.09    5.89   3
   1   3   3  280.70    6.71   1
   1   3   3  275.13    6.81   4
  -1   3  -3  267.58    6.01   4
  -1   3  -3  263.75    6.35   1
  -2  -3  -3  191.36    5.26   4
   2  -3   3  196.78    4.69   1
   2   3   3  183.92    5.00   3
   2   3   3  178.41    5.20   4
   2   3   3  177.09    4.95   1
  -2   3  -3  196.29    4.66   1
  -2   3  -3  187.67    4.62   4
   3  -3   3   35.32    1.51   1
   3   3   3   35.19    2.21   4
  -3   3  -3   34.45    1.66   4
  -3   3  -3   33.91    1.51   1
   3   3   3   36.38    1.85   3
  -4  -3  -3   53.64    1.98   2
   4  -3   3   53.37    1.97   1
   4   3   3   51.09    2.72   4
  -4   3  -3   57.32    1.99   1
  -4   3  -3   60.87    2.74   2
  -5  -3  -3   52.13    2.23   2
  -5   3  -3   53.44    2.67   2
   5   3   3   60.60    3.51   4
  -6  -3  -3   13.48    1.30   2
   6   3   3   13.01    2.19   4
  -6   3  -3   16.27    1.94   2
   7   3   3    3.61    1.89   4
  -7   3  -3    2.35    1.47   2
  -8   3  -3    2.16    1.50   2
 -10  -4   3    7.87    1.94   3
 -10   4   3    6.53    1.77   2
  -9  -4   3   58.24    3.66   3
  -9   4   3   62.71    3.54   3
   9   4  -3   60.48    3.09   1
  -9   4   3   53.67    3.31   2
  -8  -4   3   80.40    4.28   3
  -8   4   3   74.68    3.54   2
   8   4  -3   72.05    3.29   1
  -8   4   3   75.10    3.54   3
  -7  -4   3   22.55    2.45   3
   7   4  -3   24.53    2.05   1
  -7   4   3   22.27    2.11   3
  -7   4   3   21.49    2.20   2
  -6  -4   3    1.62    1.23   3
   6   4  -3    2.52    1.05   1
  -6   4   3    0.79    0.96   3
  -6   4   3    0.95    0.83   2
  -5  -4   3    9.63    1.34   3
   5   4  -3    9.40    1.30   1
  -5   4   3   10.37    1.25   2
  -5   4   3    9.89    0.80   1
   5   4  -3   10.49    1.05   2
   4  -4  -3    1.62    0.55   1
  -4  -4   3    0.76    0.65   4
  -4  -4   3    1.12    0.77   3
  -4   4   3    1.62    0.68   2
  -4   4   3    2.18    0.52   1
   4   4  -3   -0.04    0.82   1
  -3  -4   3    8.12    0.83   4
  -3  -4   3    5.77    1.10   3
   3  -4  -3    6.29    0.87   1
   3  -4  -3    7.70    0.90   2
   3   4  -3    6.76    0.95   3
  -3   4   3    8.89    1.00   2
   3   4  -3    7.67    1.00   1
  -3   4   3    7.12    0.78   1
  -2  -4   3  503.99   10.71   4
  -2  -4   3  505.76   11.45   3
   2  -4  -3  510.57   11.15   2
   2   4  -3  495.75   11.34   3
  -2   4   3  507.75   11.14   1
   2   4  -3  516.15   11.46   1
   1  -4  -3  872.12   18.30   2
  -1  -4   3  902.10   18.62   3
  -1   4   3  821.15   18.80   4
   1   4  -3  883.18   18.70   1
  -1   4   3  878.86   18.63   1
   1   4  -3  878.46   18.50   3
   0  -4   3  396.86    8.62   3
   0  -4  -3  399.95    8.48   2
   0  -4  -3  388.28    9.15   4
   0  -4   3  382.85    8.87   1
   0   4   3  391.62    9.21   4
   0   4  -3  387.05    8.86   1
   0   4  -3  387.70    8.53   3
   0   4   3  385.05    9.01   1
   1  -4   3 1234.66   26.57   3
  -1  -4  -3 1257.40   26.73   4
   1  -4   3 1261.94   26.27   1
  -1   4  -3 1294.97   26.25   1
  -1   4  -3 1244.80   26.57   4
   1   4   3 1228.69   26.74   4
   1   4   3 1275.09   26.62   1
   2  -4   3  828.43   17.51   1
   2   4   3  818.73   18.10   3
   2   4   3  804.79   18.22   4
  -2   4  -3  837.88   17.48   1
  -2   4  -3  826.89   17.38   4
   3  -4   3  210.58    5.16   1
   3   4   3  209.68    6.08   4
  -3   4  -3  216.05    5.15   1
  -3   4  -3  213.20    5.41   4
   4  -4   3  134.57    3.63   1
  -4  -4  -3  137.97    3.54   2
  -4   4  -3  138.07    4.45   2
   4   4   3  140.83    5.00   4
  -4   4  -3  145.57    3.70   1
  -5  -4  -3    9.36    0.94   2
  -5   4  -3    8.81    1.39   2
   5   4   3    7.33    1.60   4
   6   4   3    2.33    1.68   4
  -6   4  -3    1.69    1.04   2
   7   4   3    1.00    1.74   4
  -7   4  -3   -1.19    0.96   2
  -8   4  -3    0.27    1.56   2
  -9  -5   3    4.53    1.98   3
   9   5  -3    1.74    1.47   1
  -9   5   3    5.40    1.90   2
  -9   5   3    1.91    1.32   3
  -8  -5   3    1.01    1.28   3
  -8   5   3    1.54    1.59   2
   8   5  -3    2.44    1.30   1
  -8   5   3    0.05    1.37   3
  -7  -5   3   12.94    2.17   3
  -7   5   3   14.97    1.76   3
   7   5  -3   14.75    1.79   1
  -7   5   3   15.80    2.09   2
  -6  -5   3   28.24    2.64   3
  -6   5   3   30.82    2.19   3
   6   5  -3   29.55    1.61   2
   6   5  -3   31.52    2.32   1
  -6   5   3   26.22    2.26   2
  -5  -5   3  101.04    4.04   3
   5   5  -3  100.06    3.01   2
   5   5  -3  104.66    3.75   1
  -5   5   3   97.78    2.67   1
  -5   5   3  107.00    3.70   2
  -4  -5   3   59.61    2.74   3
  -4  -5   3   63.78    2.40   4
  -4   5   3   64.09    2.01   1
  -4   5   3   63.48    2.47   2
   4   5  -3   59.33    2.69   1
  -3  -5   3   11.91    1.26   3
  -3  -5   3   13.58    1.06   4
   3  -5  -3   15.26    1.09   2
   3   5  -3   12.32    1.21   1
  -3   5   3   15.85    1.30   2
  -3   5   3   12.02    1.01   1
  -2  -5   3   16.01    0.83   4
   2  -5  -3   12.83    1.05   2
  -2  -5   3   15.06    1.36   3
  -2   5   3   12.27    1.07   2
   2   5  -3   15.40    1.22   1
   2   5  -3   14.37    1.25   3
  -2   5   3   10.87    1.08   1
   1  -5  -3   -0.56    0.38   2
  -1  -5   3   -0.09    0.50   3
  -1   5   3   -0.22    0.57   1
  -1   5   3   -0.35    0.69   4
   1   5  -3   -0.14    0.48   3
   1   5  -3   -0.23    0.66   1
   0  -5  -3   67.82    2.00   2
   0  -5   3   74.22    2.28   3
   0   5  -3   70.97    2.19   3
   0   5   3   66.11    2.51   1
   0   5  -3   73.60    2.50   1
   0   5   3   65.55    2.71   4
   1  -5   3   18.02    0.94   3
  -1  -5  -3   19.75    0.85   2
  -1   5  -3   20.51    0.90   3
   1   5   3   19.47    1.70   4
  -1   5  -3   19.44    1.27   1
  -1   5  -3   18.15    0.81   4
   2  -5   3   16.89    1.09   1
  -2   5  -3   14.90    1.16   1
   2   5   3   15.00    1.46   4
  -2   5  -3   15.18    0.99   4
   3  -5   3    4.85    0.74   1
  -3  -5  -3    6.04    0.50   2
  -3   5  -3    5.18    0.78   1
  -3   5  -3    5.32    0.85   4
   3   5   3    5.28    1.16   4
  -4  -5  -3    3.54    0.48   2
  -4   5  -3    1.69    0.68   1
   4   5   3    3.19    1.45   4
  -4   5  -3    5.60    1.28   2
   5   5   3    0.83    1.15   4
  -5   5  -3    2.04    1.31   2
  -6   5  -3    1.57    1.13   2
   6   5   3    1.29    1.62   4
   7   5   3   -1.31    1.27   4
  -7   5  -3   -2.25    1.40   2
  -9  -6   3   -0.18    1.74   3
  -9   6   3    1.11    1.77   3
   9   6  -3    2.99    1.68   1
  -9   6   3    2.30    1.81   2
  -8  -6   3    0.04    1.56   3
   8   6  -3    1.16    1.29   1
  -8   6   3   -0.61    1.32   3
  -8   6   3    0.59    1.18   2
  -7  -6   3    1.89    1.57   3
  -7   6   3    2.13    1.25   2
  -7   6   3   -1.15    1.10   3
   7   6  -3   -0.49    1.16   1
  -6  -6   3   83.10    4.04   3
  -6   6   3   71.29    1.89   1
   6   6  -3   75.20    2.53   2
  -6   6   3   79.20    3.57   2
   6   6  -3   76.08    3.58   1
  -5  -6   3    2.09    1.05   3
  -5   6   3    2.63    0.57   1
  -5   6   3    2.26    1.21   2
   5   6  -3    3.41    0.80   2
   5   6  -3    0.33    1.17   1
  -4  -6   3   14.07    1.38   4
  -4  -6   3   16.07    1.63   3
   4   6  -3   15.83    1.67   1
  -4   6   3   16.96    1.10   1
  -4   6   3   15.29    1.35   2
  -3  -6   3   99.53    3.63   3
  -3  -6   3  107.32    3.08   4
   3   6  -3  104.81    3.58   1
  -3   6   3  104.63    3.11   1
  -3   6   3  105.03    3.35   2
   3   6  -3  107.04    3.08   4
   2  -6  -3  454.17   10.23   2
  -2  -6   3  446.78   10.66   3
  -2  -6   3  458.97    9.77   4
   2   6  -3  446.45   10.67   1
   2   6  -3  455.67    9.78   4
   2   6  -3  467.20   10.64   3
  -2   6   3  447.42   10.29   1
  -2   6   3  450.25   10.20   2
  -1  -6   3  718.48   15.70   3
   1  -6  -3  699.97   15.22   2
   1   6  -3  730.61   15.63   3
   1   6  -3  712.91   14.65   4
  -1   6   3  712.55   16.03   4
  -1   6   3  691.22   15.63   1
   1   6  -3  727.26   15.83   1
   0  -6  -3  335.32    7.40   2
   0  -6   3  341.36    7.81   3
   0   6  -3  331.60    7.70   3
   0   6  -3  337.26    6.89   4
   0   6  -3  331.16    7.98   1
   0   6   3  326.83    8.34   4
  -1  -6  -3  238.81    5.35   2
  -1   6  -3  247.59    6.09   1
   1   6   3  245.14    6.64   4
  -1   6  -3  248.56    5.65   3
  -1   6  -3  239.64    5.36   4
  -2  -6  -3  224.18    4.87   2
  -2   6  -3  232.24    5.01   3
  -2   6  -3  225.82    5.45   4
  -2   6  -3  241.27    5.76   1
   2   6   3  238.96    6.65   4
   3   6   3  131.50    4.73   4
  -3   6  -3  131.20    3.58   1
  -3   6  -3  127.82    3.72   4
  -4   6  -3   64.28    3.01   2
  -4   6  -3   67.78    2.23   1
   4   6   3   69.51    3.66   4
   5   6   3   11.37    1.87   4
  -5   6  -3   11.66    1.91   2
  -6   6  -3   -1.14    1.36   2
   6   6   3   -0.91    1.66   4
   7   6   3    1.00    1.95   4
  -7   6  -3    1.68    1.29   2
  -9  -7   3    1.23    1.95   3
  -9   7   3    2.34    1.97   2
   9   7  -3    4.22    1.69   1
  -8  -7   3   21.74    2.92   3
  -8   7   3   17.81    2.02   3
  -8   7   3   20.73    2.54   2
   8   7  -3   20.58    2.44   1
  -7  -7   3  141.96    5.80   3
  -7   7   3  136.57    4.82   3
  -7   7   3  138.52    5.22   2
   7   7  -3  142.89    5.29   1
  -6  -7   3   97.27    4.40   3
   6   7  -3  108.27    4.20   1
   6   7  -3  105.87    3.21   2
  -6   7   3  115.20    4.34   2
  -5  -7   3   45.02    3.05   3
   5   7  -3   42.57    2.79   1
  -5   7   3   49.61    2.71   2
  -5   7   3   44.11    1.66   1
   5   7  -3   43.08    1.82   2
  -4  -7   3  174.16    4.92   4
  -4  -7   3  180.04    5.74   3
   4   7  -3  176.54    4.98   4
   4   7  -3  172.62    5.47   1
  -4   7   3  172.76    4.53   1
  -4   7   3  183.36    5.23   2
  -3  -7   3   54.89    2.08   4
  -3  -7   3   50.59    2.55   3
  -3   7   3   53.38    2.34   2
  -3   7   3   55.73    2.19   1
   3   7  -3   53.58    2.09   4
   3   7  -3   53.95    2.70   1
  -2  -7   3    6.38    0.68   4
   2  -7  -3    6.48    0.93   2
  -2  -7   3    6.58    1.17   3
  -2   7   3    6.53    1.25   4
  -2   7   3    6.84    0.98   1
  -2   7   3    5.93    0.88   2
   2   7  -3    5.95    1.22   1
   2   7  -3    7.27    0.77   4
  -1  -7   3    2.97    0.83   3
   1  -7  -3    4.16    0.70   2
   1   7  -3    3.24    0.80   3
   1   7  -3    1.94    0.95   1
  -1   7   3    3.18    0.87   4
   1   7  -3    3.18    0.41   4
   0  -7   3    4.24    0.77   3
   0  -7  -3    4.89    0.62   2
   0   7  -3    4.49    0.74   3
   0   7   3    2.48    1.04   4
   0   7  -3    4.32    0.43   4
   0   7  -3    3.81    0.96   1
  -1  -7  -3   15.68    0.75   2
  -1   7  -3   16.08    1.05   3
   1   7   3   17.68    1.62   4
  -1   7  -3   13.60    1.35   1
  -2   7  -3  159.16    4.06   4
  -2   7  -3  164.27    4.44   1
  -2   7  -3  161.47    3.81   3
   2   7   3  157.73    5.16   4
  -3   7  -3  184.90    5.68   2
   3   7   3  210.02    6.34   4
  -3   7  -3  187.89    4.85   1
  -3   7  -3  179.63    4.92   4
  -4   7  -3  187.67    6.06   2
   4   7   3  192.47    6.49   4
  -5   7  -3   36.69    2.59   2
   5   7   3   42.00    3.41   4
   6   7   3    8.27    2.34   4
  -6   7  -3    8.54    1.95   2
  -7   7  -3    3.17    1.49   2
   7   7   3    1.01    2.09   4
  -8  -8   3   -0.71    1.73   3
   8   8  -3    2.74    1.68   1
  -8   8   3   -0.18    1.69   2
  -8   8   3   -1.23    1.27   3
  -7  -8   3   -1.57    1.60   3
   7   8  -3    0.58    1.45   1
  -7   8   3   -0.32    1.33   3
  -7   8   3   -1.07    1.37   2
  -6  -8   3    0.98    1.28   3
  -6   8   3    1.42    1.12   2
   6   8  -3    2.79    1.47   1
  -5  -8   3   19.35    2.34   3
  -5   8   3   17.86    1.26   1
   5   8  -3   19.80    1.88   4
  -5   8   3   16.17    1.78   2
   5   8  -3   18.95    2.20   1
  -4  -8   3   63.67    3.40   3
   4   8  -3   70.13    3.37   1
  -4   8   3   61.17    2.31   1
  -4   8   3   59.17    2.88   2
   4   8  -3   63.99    2.64   4
  -3  -8   3   33.99    2.44   3
  -3  -8   3   31.04    1.63   4
  -3   8   3   31.88    1.98   1
   3   8  -3   32.19    2.13   1
   3   8  -3   34.03    1.73   4
  -3   8   3   31.93    1.95   2
  -2  -8   3   31.43    1.96   3
  -2  -8   3   31.60    1.42   4
  -2   8   3   32.37    1.71   2
   2   8  -3   30.59    1.42   4
   2   8  -3   29.44    1.95   1
  -2   8   3   27.85    2.01   4
   1  -8  -3   33.98    1.58   2
  -1  -8   3   33.24    1.97   3
   1   8  -3   34.24    1.95   1
   1   8  -3   28.31    1.22   4
  -1   8   3   30.11    2.04   4
   0  -8   3   80.59    2.90   3
   0  -8  -3   77.86    2.35   2
   0   8   3   83.25    3.52   4
   0   8  -3   78.23    2.78   3
   0   8  -3   78.69    2.13   4
   0   8  -3   81.88    3.14   1
  -1   8  -3   95.62    2.99   3
   1   8   3  102.87    4.11   4
  -1   8  -3   98.41    2.63   4
  -1   8  -3   96.08    3.35   1
  -2   8  -3   20.69    1.68   1
   2   8   3   19.01    2.00   4
  -3   8  -3   31.91    2.22   2
   3   8   3   35.02    2.88   4
  -3   8  -3   32.82    1.70   4
  -3   8  -3   31.27    1.83   1
   4   8   3    8.85    1.99   4
  -4   8  -3    8.40    0.96   1
  -4   8  -3    8.17    1.79   2
   5   8   3   -1.11    1.64   4
  -5   8  -3    2.26    1.51   2
   6   8   3    1.55    1.49   4
  -6   8  -3    1.91    1.28   2
  -7   8  -3    2.78    1.84   2
   7   8   3   -1.13    1.45   4
  -8  -9   3   19.72    2.93   3
   8   9  -3   23.70    2.78   1
  -8   9   3   18.59    2.59   2
  -7  -9   3   42.08    3.38   3
   7   9  -3   50.07    3.50   1
  -7   9   3   52.57    3.52   2
  -6  -9   3   66.47    4.11   3
   6   9  -3   64.48    3.72   1
  -6   9   3   56.61    3.13   2
  -5  -9   3   84.41    4.28   3
  -5   9   3   81.97    3.51   2
   5   9  -3   89.19    4.07   1
   5   9  -3   82.64    3.44   4
  -4  -9   3   56.80    3.19   3
  -4   9   3   59.75    2.67   1
  -4   9   3   62.90    2.99   2
   4   9  -3   62.58    3.39   1
   4   9  -3   59.84    2.60   4
  -3  -9   3   92.02    3.80   3
  -3  -9   3   86.94    2.95   4
   3   9  -3   85.38    3.00   4
  -3   9   3   88.81    3.30   2
   3   9  -3   86.95    3.81   1
  -2  -9   3    9.83    1.60   3
   2   9  -3   10.12    1.08   4
  -2   9   3   10.14    1.74   4
  -2   9   3   12.27    1.30   2
   2   9  -3    9.26    1.60   1
   1  -9  -3    1.07    0.67   2
  -1  -9   3    1.91    0.99   3
   1   9  -3    1.10    0.54   4
  -1   9   3   -1.57    1.11   4
   1   9  -3    0.28    1.11   1
   0   9  -3   77.95    3.21   1
   0   9   3   75.31    3.39   4
   0   9  -3   74.56    2.21   4
  -1   9  -3  218.91    5.79   3
  -1   9  -3  220.11    5.29   4
  -1   9  -3  218.87    6.12   1
   1   9   3  247.04    7.06   4
  -2   9  -3   -1.20    0.77   1
  -2   9  -3    0.09    0.56   3
   2   9   3    0.63    0.98   4
   3   9   3   21.03    2.24   4
  -3   9  -3   22.72    1.69   1
  -3   9  -3   20.23    1.97   2
   4   9   3    8.71    1.81   4
  -4   9  -3    8.51    1.07   1
  -4   9  -3   10.99    1.96   2
   5   9   3   13.20    2.52   4
  -5   9  -3   14.62    2.24   2
  -6   9  -3   10.23    2.18   2
   6   9   3    8.34    2.51   4
  -8 -10   3   11.49    2.66   3
  -8  10   3   12.53    2.38   2
   8  10  -3   13.66    2.36   1
  -7 -10   3    6.68    2.16   3
   7  10  -3   13.23    2.26   1
  -7  10   3    3.02    1.81   2
  -6 -10   3   -2.49    1.64   3
   6  10  -3   -1.32    1.48   1
  -6  10   3   -1.05    1.36   2
  -5 -10   3    1.22    1.57   3
   5  10  -3    1.19    1.58   1
   5  10  -3    3.86    1.30   4
  -5  10   3    1.89    1.37   2
  -4 -10   3   -0.18    1.01   3
  -4  10   3    0.17    1.10   2
   4  10  -3   -0.20    1.34   1
   4  10  -3    0.28    0.93   4
  -3 -10   3    4.38    1.27   3
  -3  10   3    4.99    1.18   2
   3  10  -3    1.36    1.46   1
  -3  10   3    4.12    1.47   4
   3  10  -3    4.88    0.98   4
  -2 -10   3    2.81    1.28   3
   2  10  -3    0.88    1.26   1
  -2  10   3    3.76    0.95   2
   2  10  -3    1.29    0.68   4
  -2  10   3    0.76    1.29   4
   1  10  -3   10.20    1.63   1
   1  10  -3    8.86    0.89   4
  -1  10   3    8.12    1.74   4
   0  10   3    6.34    1.59   4
   0  10  -3    7.43    1.42   1
   0  10  -3    6.29    0.76   4
  -1  10  -3   80.55    3.30   1
   1  10   3   81.98    3.75   4
  -1  10  -3   82.03    2.50   4
  -2  10  -3   36.84    2.41   2
   2  10   3   43.26    3.16   4
  -2  10  -3   42.14    2.26   1
  -3  10  -3    4.25    1.02   1
  -3  10  -3    4.88    1.39   2
   3  10   3    8.65    1.98   4
   4  10   3   -0.54    1.63   4
  -4  10  -3    2.19    1.21   2
   5  10   3    0.90    1.49   4
  -5  10  -3   -0.95    1.10   2
  -6  10  -3    0.51    1.76   2
   6  10   3   -1.04    2.05   4
  -7 -11   3   28.91    3.50   3
  -7  11   3   31.34    2.80   2
   7  11  -3   38.35    3.60   1
  -6 -11   3    9.12    2.35   3
   6  11  -3   10.50    1.84   4
   6  11  -3   15.02    2.49   1
  -6  11   3   14.00    2.25   2
  -5 -11   3    2.00    1.78   3
  -5  11   3    0.33    1.35   2
   5  11  -3   -0.12    1.05   4
   5  11  -3   -0.28    1.58   1
  -4 -11   3   16.76    2.23   3
   4  11  -3   17.35    2.39   1
  -4  11   3   20.80    2.12   2
   4  11  -3   20.27    1.90   4
  -3 -11   3    6.15    1.43   3
  -3  11   3   13.81    1.63   2
   3  11  -3    9.45    1.66   1
  -3  11   3   10.80    1.71   4
   3  11  -3    7.47    1.16   4
  -2 -11   3   -1.40    1.07   3
   2  11  -3    1.17    0.70   4
  -2  11   3    0.52    0.82   2
   2  11  -3    0.80    1.25   1
  -2  11   3    2.80    1.39   4
   1  11  -3    2.41    0.67   4
   1  11  -3    0.12    1.18   1
  -1  11   3    3.86    1.55   4
   0  11   3   -1.09    1.20   4
   0  11  -3    0.41    1.08   1
   0  11  -3   -0.70    0.52   4
  -1  11  -3   13.04    1.63   1
   1  11   3   10.65    2.00   4
  -1  11  -3   12.91    1.82   2
   2  11   3   14.78    2.28   4
  -2  11  -3   15.80    1.75   1
  -2  11  -3   16.06    2.08   2
   3  11   3    6.70    2.02   4
  -3  11  -3    9.12    1.32   1
  -3  11  -3   11.61    1.95   2
   4  11   3    6.78    2.27   4
  -4  11  -3    8.74    1.73   2
  -5  11  -3    7.80    1.81   2
   5  11   3    7.98    2.01   4
  -6 -12   3    7.50    1.94   3
   6  12  -3    8.31    1.73   4
  -6  12   3    9.00    2.09   2
   6  12  -3    6.11    1.75   1
  -5 -12   3    5.30    2.20   3
   5  12  -3    3.45    1.39   4
   5  12  -3    4.77    1.96   1
  -5  12   3    4.01    1.66   2
  -4 -12   3   46.66    3.32   3
  -4  12   3   47.07    2.94   2
   4  12  -3   43.20    2.59   4
   4  12  -3   47.95    3.54   1
  -4  12   3   53.37    3.51   4
  -3 -12   3   48.67    3.22   3
   3  12  -3   51.59    3.49   1
  -3  12   3   52.15    2.77   2
  -3  12   3   53.75    3.52   4
   3  12  -3   52.63    2.50   4
  -2  12   3   37.31    3.01   4
  -2  12   3   41.09    2.29   2
   2  12  -3   32.27    2.54   1
   2  12  -3   33.77    1.88   4
  -1  12   3   68.83    3.80   4
   1  12  -3   64.16    3.53   1
   0  12  -3   99.03    4.16   1
   0  12   3  103.52    4.70   4
   0  12  -3   99.87    3.89   2
  -1  12  -3   99.36    4.11   2
  -1  12  -3  106.10    4.20   1
   1  12   3  104.10    4.83   4
   2  12   3   49.58    3.31   4
  -2  12  -3   49.50    3.17   2
  -2  12  -3   50.95    2.72   1
   3  12   3   24.39    2.97   4
  -3  12  -3   24.40    2.60   2
  -4  12  -3    4.58    1.47   2
   4  12   3    4.51    1.80   4
  -5 -13   3    0.11    1.30   3
   5  13  -3    0.00    1.24   1
  -5  13   3    0.02    1.46   2
  -5  13   3    1.03    1.48   4
  -4  13   3    1.44    1.68   4
  -4  13   3    2.30    1.38   2
   4  13  -3    3.03    1.56   1
  -3  13   3    9.19    1.89   4
  -3  13   3    7.43    1.50   2
   3  13  -3    4.24    1.90   1
  -2  13   3   11.56    2.04   4
   2  13  -3   12.47    2.13   1
   2  13  -3    9.17    1.37   2
  -2  13   3   11.75    1.55   2
   1  13  -3   26.07    2.03   2
  -1  13   3   22.85    2.53   4
   1  13  -3   26.70    2.77   1
   0  13  -3    9.78    1.60   2
   0  13   3   10.02    2.09   4
   0  13  -3    7.62    1.81   1
  -1  13  -3    5.50    1.57   1
   1  13   3    7.23    1.95   4
  -1  13  -3    5.42    1.54   2
   2  13   3   16.96    2.62   4
  -2  13  -3   11.12    1.65   1
  -2  13  -3   10.54    1.89   2
  -3  13  -3    1.13    1.60   2
   3  13   3    2.27    1.51   4
  -4  14   3   -1.02    1.34   2
   4  14  -3    1.74    1.91   1
  -4  14   3   -0.90    1.47   4
  -3  14   3   11.95    1.79   2
   3  14  -3    9.87    1.97   1
  -3  14   3    9.57    2.02   4
  -2  14   3   31.06    3.09   4
   2  14  -3   35.46    3.24   1
   1  14  -3   33.64    2.30   2
  -1  14   3   26.26    2.93   4
   1  14  -3   30.33    2.97   1
   0  14  -3   22.16    2.50   1
   0  14  -3   24.83    2.25   2
   0  14   3   20.26    2.69   4
   1  14   3   51.77    3.55   4
  -1  14  -3   55.90    3.24   1
  -1  14  -3   62.13    3.38   2
  -2  14  -3   36.89    3.05   2
   2  14   3   40.57    3.83   4
  -1  15   3   -1.02    1.54   4
   1  15  -3   -0.20    1.56   1
   0  15   3    4.73    1.97   4
 -10   0   4    6.09    1.99   3
  -9   0   4   34.62    3.21   3
  -8   0   4  107.46    4.50   3
   8   0  -4   92.84    3.23   1
   7   0  -4   -1.12    0.70   1
  -7   0   4    0.04    0.88   3
   6   0  -4    6.41    1.01   1
  -6   0   4   10.33    1.40   3
  -5   0   4   -1.01    0.53   1
   5   0  -4    0.43    0.62   1
  -5   0   4    0.64    0.69   3
  -4   0   4    0.13    0.55   1
   4   0  -4    1.61    0.75   2
   4   0  -4    0.05    0.69   1
  -4   0   4    1.70    0.95   3
   3   0  -4  116.53    3.33   1
  -3   0   4  118.26    3.60   3
  -3   0   4  117.67    3.38   1
  -2   0   4  726.25   15.61   1
   2   0  -4  719.78   15.60   1
   1   0  -4  170.70    4.53   1
  -1   0   4  176.28    4.33   4
   0   0   4  403.03    8.97   4
   0   0   4  402.81    9.19   1
   0   0  -4  412.20    8.99   4
   0   0  -4  389.28    9.16   1
  -1   0  -4  107.15    3.18   4
   1   0   4  117.29    3.40   1
  -1   0  -4  108.78    3.35   1
   1   0   4  109.68    3.22   4
  -2   0  -4  319.29    7.66   1
   2   0   4  316.38    7.70   4
   2   0   4  323.88    7.67   1
  -2   0  -4  306.29    7.62   4
   3   0   4    2.17    0.76   4
   3   0   4    1.82    0.77   1
   3   0   4    1.94    0.55   3
   4   0   4  140.16    3.82   3
   4   0   4  145.87    4.86   4
  -5   0  -4   24.80    1.94   2
   5   0   4   20.95    2.26   4
  -6   0  -4    4.66    1.26   2
  -7   0  -4   -1.13    1.07   2
 -10  -1   4    6.77    1.96   3
 -10   1   4    4.00    1.85   3
  -9  -1   4   -1.32    1.52   3
  -9   1   4   -0.10    1.48   3
  -8  -1   4   -0.56    1.40   3
   8  -1  -4   -0.35    0.70   1
   8   1  -4    1.62    0.96   1
  -8   1   4    0.52    1.32   3
   7  -1  -4    3.04    0.81   1
  -7  -1   4    3.43    1.42   3
   7   1  -4    2.70    0.99   1
  -7   1   4    4.24    1.41   3
   6  -1  -4   14.10    1.25   1
  -6  -1   4   17.38    1.88   3
   6   1  -4   17.22    1.43   1
  -6   1   4   16.04    1.81   3
  -5  -1   4   77.93    3.08   3
   5  -1  -4   78.70    2.55   1
  -5   1   4   80.56    3.05   3
  -5   1   4   76.18    2.55   1
   5   1  -4   76.56    2.71   1
  -4  -1   4  606.87   13.26   1
  -4  -1   4  606.94   13.66   3
   4  -1  -4  591.89   13.05   1
  -4   1   4  590.13   13.56   3
   4   1  -4  584.39   13.18   1
  -4   1   4  583.72   13.05   1
   4   1  -4  612.32   13.21   2
  -3  -1   4   36.83    1.91   3
   3  -1  -4   36.92    1.60   2
   3  -1  -4   38.11    1.69   1
  -3  -1   4   34.80    1.68   1
  -3   1   4   35.01    1.61   1
   3   1  -4   31.69    1.69   1
  -2  -1   4   52.65    2.11   3
   2  -1  -4   52.68    1.95   1
  -2  -1   4   49.87    1.93   1
  -2   1   4   53.42    1.93   1
   2   1  -4   51.51    2.05   1
   1  -1  -4    1.22    0.71   1
  -1  -1   4    0.32    0.41   4
  -1  -1   4    1.34    0.53   1
  -1  -1   4    0.13    0.52   3
  -1   1   4    1.64    0.60   4
  -1   1   4    1.50    0.54   1
   1   1  -4    0.32    0.49   1
   0  -1   4    5.54    0.78   1
   0  -1  -4    3.98    0.70   4
   0  -1  -4    3.62    0.85   1
   0  -1   4    5.18    0.62   4
   0   1  -4    5.81    0.87   1
   0   1  -4    5.27    0.60   4
   0   1   4    4.43    0.75   4
   0   1   4    5.75    0.82   1
  -1  -1  -4  208.78    5.46   1
   1  -1   4  209.92    5.34   1
   1  -1   4  210.45    5.14   4
  -1  -1  -4  208.10    5.37   4
  -1   1  -4  208.12    5.32   1
  -1   1  -4  203.57    5.07   4
   1   1   4  216.20    5.46   1
   1   1   4  209.49    5.39   4
  -2  -1  -4    1.88    0.76   4
   2  -1   4    1.84    0.71   1
  -2  -1  -4    1.66    0.82   1
   2  -1   4    1.43    0.73   4
  -2   1  -4    3.28    0.71   4
   2   1   4    1.21    0.84   4
  -2   1  -4    1.48    0.73   1
   2   1   4    2.16    0.79   1
   3  -1   4    6.17    0.98   1
   3  -1   4    4.00    0.55   3
   3  -1   4    4.42    1.00   4
   3   1   4    5.36    0.85   3
  -3   1  -4    4.38    0.90   1
   3   1   4    7.17    1.24   4
   4  -1   4  185.07    5.43   1
   4  -1   4  178.44    5.53   4
   4  -1   4  169.31    4.19   3
   4   1   4  175.72    4.80   3
   4   1   4  184.67    5.72   4
  -5  -1  -4   54.81    2.49   2
  -5   1  -4   50.98    2.71   2
   5   1   4   49.95    3.21   4
  -6  -1  -4   -0.53    0.88   2
  -6   1  -4    0.69    1.12   2
   6   1   4    0.98    1.56   4
  -7  -1  -4    2.77    1.19   2
  -7   1  -4    5.16    1.54   2
 -10  -2   4    0.03    1.69   3
 -10   2   4   -0.80    1.55   3
  -9  -2   4   -3.13    1.32   3
  -9   2   4   -1.73    1.32   3
  -8  -2   4   -0.55    1.44   3
  -8   2   4    0.06    1.34   3
   8   2  -4    0.55    1.01   1
  -7  -2   4   -0.10    1.30   3
   7  -2  -4   -0.75    0.62   1
   7   2  -4   -0.52    0.90   1
  -7   2   4    0.32    1.16   3
  -6  -2   4   18.17    1.97   3
   6  -2  -4   18.51    1.32   1
   6   2  -4   20.46    1.64   1
  -6   2   4   20.13    1.98   3
  -5  -2   4   80.00    3.23   3
   5  -2  -4   84.49    2.68   1
  -5   2   4   85.92    3.18   3
   5   2  -4   81.03    2.93   1
  -5   2   4   83.75    2.64   1
  -4  -2   4 1507.49   32.45   3
  -4  -2   4 1565.50   32.13   1
   4  -2  -4 1547.93   31.80   1
   4   2  -4 1487.89   32.03   1
  -4   2   4 1535.76   31.77   1
   3  -2  -4  702.41   15.42   2
   3  -2  -4  708.75   15.38   1
  -3  -2   4  708.03   15.75   3
  -3  -2   4  711.14   15.57   1
   3   2  -4  721.33   15.58   1
  -3   2   4  715.97   15.34   1
   2  -2  -4  117.87    3.40   1
  -2  -2   4  119.51    3.50   1
  -2  -2   4  115.12    3.50   3
   2   2  -4  119.64    3.51   1
  -2   2   4  119.26    3.40   1
  -1  -2   4 1142.57   23.81   1
  -1  -2   4 1123.73   23.09   4
  -1  -2   4 1124.48   23.64   3
   1  -2  -4 1126.79   23.83   1
   1   2  -4 1107.87   23.76   1
  -1   2   4 1142.24   23.81   1
  -1   2   4 1114.17   23.81   4
   0  -2   4  351.20    8.09   1
   0  -2  -4  349.21    8.25   1
   0  -2   4  344.77    7.49   4
   0  -2   4  355.02    7.77   3
   0  -2  -4  343.93    8.13   4
   0   2   4  337.05    8.13   4
   0   2   4  342.24    8.16   1
   0   2  -4  344.01    8.07   1
  -1  -2  -4  160.44    4.52   4
  -1  -2  -4  156.92    4.48   1
   1  -2   4  167.80    4.39   1
   1  -2   4  163.51    4.04   4
   1  -2   4  161.04    3.85   3
   1   2   4  159.49    4.55   4
  -1   2  -4  162.66    4.34   1
  -1   2  -4  156.96    3.98   4
   1   2   4  160.93    4.47   1
   2  -2   4  114.50    3.37   1
   2  -2   4  112.08    3.33   4
  -2   2  -4  115.33    3.27   4
  -2   2  -4  111.35    3.34   1
   2   2   4  101.32    3.54   4
   3  -2   4   26.58    1.81   4
   3  -2   4   23.55    0.65   3
   3  -2   4   23.88    1.54   1
   3   2   4   22.69    1.76   4
  -3   2  -4   25.11    1.54   1
  -3   2  -4   24.34    1.55   4
   3   2   4   25.25    1.62   3
   4  -2   4   52.05    2.27   1
   4   2   4   52.26    3.06   4
   4   2   4   46.90    2.24   3
  -5  -2  -4    4.00    0.99   2
  -5   2  -4    4.75    1.35   2
   5   2   4    0.67    1.50   4
  -6  -2  -4    1.79    1.01   2
  -6   2  -4    1.05    1.29   2
   6   2   4   -1.16    1.54   4
  -7   2  -4    2.05    1.30   2
 -10  -3   4   -0.26    1.69   3
 -10   3   4    0.01    1.72   3
  -9  -3   4   12.08    2.35   3
  -9   3   4   14.02    2.20   3
   9   3  -4   10.25    1.56   1
  -8  -3   4   82.97    4.37   3
   8   3  -4   81.40    3.41   1
  -8   3   4   80.83    3.67   2
  -8   3   4   87.45    3.98   3
  -7  -3   4   56.15    3.14   3
   7  -3  -4   58.65    2.07   1
  -7   3   4   59.58    3.12   3
  -7   3   4   55.27    2.83   2
   7   3  -4   58.84    2.79   1
  -6  -3   4  151.31    5.13   3
   6  -3  -4  151.51    4.05   1
  -6   3   4  156.19    5.00   3
  -6   3   4  149.44    3.97   1
  -6   3   4  153.54    4.77   2
   6   3  -4  155.14    4.68   1
   5  -3  -4   64.84    2.25   1
  -5  -3   4   65.26    3.06   3
   5   3  -4   69.23    2.76   1
  -5   3   4   65.60    2.78   3
  -5   3   4   64.47    2.21   1
   4  -3  -4  520.87   11.57   1
  -4  -3   4  542.53   11.74   4
  -4  -3   4  523.42   12.30   3
   4   3  -4  507.51   11.92   1
  -4   3   4  514.77   11.50   1
  -3  -3   4 2201.88   46.53   1
  -3  -3   4 2262.30   47.14   4
  -3  -3   4 2236.02   46.72   3
   3  -3  -4 2248.33   47.34   1
   3  -3  -4 2255.21   46.35   2
  -3   3   4 2248.25   46.21   1
   3   3  -4 2201.39   46.57   3
   3   3  -4 2323.65   46.60   1
  -2  -3   4  249.57    6.38   1
  -2  -3   4  262.17    6.44   3
   2  -3  -4  251.99    6.29   1
   2  -3  -4  258.08    6.16   2
   2   3  -4  253.82    6.31   3
  -2   3   4  263.42    6.29   1
   2   3  -4  252.45    6.37   1
  -1  -3   4   82.37    2.63   3
  -1  -3   4   78.81    1.85   4
  -1  -3   4   78.63    2.72   1
   1  -3  -4   81.43    2.83   1
  -1   3   4   84.68    2.77   1
   1   3  -4   79.85    2.75   1
  -1   3   4   81.15    2.85   4
   0  -3  -4   29.06    1.73   1
   0  -3   4   28.79    1.29   3
   0  -3   4   28.70    0.92   4
   0  -3   4   27.90    1.53   1
   0  -3  -4   28.99    1.67   4
   0   3  -4   28.60    1.56   1
   0   3   4   30.33    1.67   1
   0   3   4   28.20    1.72   4
  -1  -3  -4    6.54    1.03   4
   1  -3   4    3.21    0.48   3
   1  -3   4    3.47    0.77   1
  -1   3  -4    4.98    0.86   1
   1   3   4    4.27    1.02   4
  -1   3  -4    2.92    0.53   4
   2  -3   4   51.65    2.07   1
  -2   3  -4   44.06    1.79   4
   2   3   4   49.41    2.21   3
  -2   3  -4   50.18    2.01   1
   2   3   4   44.55    2.44   4
   3  -3   4  132.21    3.84   1
  -3   3  -4  127.50    3.89   4
  -3   3  -4  132.19    3.83   1
   3   3   4  133.93    4.63   4
   3   3   4  134.64    4.58   3
   4  -3   4  190.52    5.16   1
   4   3   4  196.62    6.31   4
  -4   3  -4  202.19    5.21   1
  -5  -3  -4   29.64    1.78   2
  -5   3  -4   30.15    2.45   2
   5   3   4   31.83    2.54   4
  -6   3  -4   29.84    2.62   2
   6   3   4   27.32    2.94   4
   7   3   4   13.83    2.36   4
  -7   3  -4   18.17    2.25   2
 -10  -4   4   -0.75    1.81   3
 -10   4   4   -1.72    1.41   3
  -9  -4   4    2.97    1.95   3
  -9   4   4    1.60    1.59   3
   9   4  -4    1.50    1.33   1
  -9   4   4    1.44    1.74   2
  -8  -4   4   -0.98    1.54   3
  -8   4   4    0.38    1.13   2
   8   4  -4   -0.63    1.13   1
  -8   4   4    0.70    1.41   3
  -7  -4   4    6.56    1.52   3
   7   4  -4    6.21    1.37   1
  -7   4   4    6.41    1.36   2
  -7   4   4    6.35    1.32   3
   6  -4  -4    1.22    0.66   1
  -6  -4   4    1.99    1.36   3
  -6   4   4    1.02    1.08   3
  -6   4   4    2.79    1.00   2
  -6   4   4    0.96    0.60   1
   6   4  -4    4.43    1.04   1
   5  -4  -4    0.41    0.63   1
  -5  -4   4   -0.02    0.78   3
   5   4  -4    0.12    0.89   1
  -5   4   4    0.25    0.53   1
  -5   4   4   -0.83    0.92   2
   4  -4  -4  120.49    3.50   1
  -4  -4   4  116.08    4.00   3
  -4  -4   4  115.69    3.45   4
   4   4  -4  116.77    3.79   1
  -4   4   4  118.12    3.37   1
   3  -4  -4    7.84    1.05   1
  -3  -4   4    7.77    0.81   4
   3  -4  -4    7.46    1.14   2
  -3  -4   4    6.76    1.04   3
   3   4  -4    8.14    1.16   3
   3   4  -4    8.45    1.22   1
  -3   4   4    5.61    0.99   1
  -2  -4   4   19.85    1.44   3
  -2  -4   4   21.66    1.56   1
   2  -4  -4   19.15    1.24   2
  -2  -4   4   19.45    0.80   4
   2  -4  -4   19.92    1.48   1
  -2   4   4   18.47    1.35   1
   2   4  -4   19.26    1.22   3
   2   4  -4   18.74    1.51   1
  -1  -4   4    3.23    0.74   3
   1  -4  -4    2.63    0.62   2
  -1  -4   4    3.06    0.77   1
   1  -4  -4    1.17    0.79   1
  -1   4   4    1.64    0.74   4
   1   4  -4    1.92    0.55   3
  -1   4   4    1.95    0.76   1
   1   4  -4    2.57    0.83   1
   0  -4   4   88.24    2.93   1
   0  -4   4   89.60    2.62   3
   0   4   4   88.00    3.14   4
   0   4  -4   89.41    2.96   1
   1  -4   4   55.95    2.16   1
   1  -4   4   52.18    1.61   3
   1   4   4   57.98    2.68   4
  -1   4  -4   53.51    2.13   1
  -1   4  -4   49.07    1.55   4
   2  -4   4   14.18    1.23   1
  -2   4  -4   13.68    1.03   4
  -2   4  -4   14.18    1.23   1
   2   4   4   17.28    1.81   4
   3  -4   4   32.12    1.66   1
   3   4   4   35.10    2.28   4
  -3   4  -4   34.81    1.82   1
  -3   4  -4   32.50    1.72   4
  -4  -4  -4   10.42    1.01   2
   4  -4   4   11.19    1.18   1
   4   4   4   11.17    1.74   4
  -4   4  -4    9.81    1.19   1
  -5  -4  -4   -0.45    0.65   2
  -5   4  -4    0.81    1.29   2
   5   4   4    2.21    1.57   4
  -6   4  -4    0.10    1.44   2
   6   4   4    0.16    1.20   4
   7   4   4    5.95    1.84   4
  -7   4  -4    7.66    1.99   2
  -9  -5   4   22.79    2.91   3
   9   5  -4   26.18    2.76   1
  -9   5   4   19.56    2.34   2
  -9   5   4   17.17    2.30   3
  -8  -5   4    6.09    1.99   3
   8   5  -4    4.40    1.53   1
  -8   5   4    4.73    1.83   2
  -8   5   4    7.41    1.73   3
  -7  -5   4   47.50    3.40   3
   7   5  -4   43.64    2.56   1
  -7   5   4   45.13    2.85   3
  -7   5   4   40.99    2.69   2
  -6  -5   4  198.46    6.43   3
  -6   5   4  202.61    6.02   2
  -6   5   4  201.24    4.94   1
   6   5  -4  211.78    6.21   1
  -5  -5   4  225.02    6.78   3
  -5   5   4  227.06    5.62   1
  -5   5   4  237.34    6.48   2
   5   5  -4  238.78    6.62   1
  -4  -5   4  185.46    5.75   3
  -4  -5   4  199.15    5.16   4
   4   5  -4  208.16    5.76   1
  -4   5   4  194.51    5.01   1
  -4   5   4  199.03    5.43   2
  -3  -5   4   41.11    1.54   4
  -3  -5   4   38.69    2.21   3
   3   5  -4   39.70    2.21   1
  -3   5   4   40.56    1.84   1
  -2  -5   4   30.04    1.68   3
   2  -5  -4   33.07    1.60   2
  -2  -5   4   32.73    1.01   4
  -2   5   4   33.41    1.92   4
   2   5  -4   31.98    1.94   1
  -2   5   4   29.40    1.67   1
   2   5  -4   33.00    1.72   3
   1  -5  -4   75.85    2.39   2
  -1  -5   4   74.52    2.62   3
   1   5  -4   74.16    2.72   1
  -1   5   4   74.40    2.90   4
   1   5  -4   75.80    2.52   3
   0  -5   4    6.56    0.84   3
   0  -5   4    6.62    0.99   1
   0  -5  -4    7.97    0.75   2
   0   5   4    7.52    1.10   4
   0   5  -4    6.23    1.03   1
   0   5  -4    6.24    0.73   3
   1  -5   4  181.54    4.94   1
   1  -5   4  188.46    4.33   3
   1   5   4  174.33    5.35   4
  -1   5  -4  189.13    4.95   1
  -1   5  -4  181.55    4.06   4
   2  -5   4   63.80    2.45   1
  -2   5  -4   67.24    2.50   1
  -2   5  -4   63.34    2.06   4
   2   5   4   65.60    3.17   4
   3  -5   4   10.52    1.12   1
   3   5   4   10.91    1.59   4
  -3   5  -4   12.13    1.24   4
  -3   5  -4   13.00    1.27   1
  -4  -5  -4   54.41    1.86   2
  -4   5  -4   59.18    2.32   1
   4   5   4   57.89    3.20   4
  -5   5  -4   53.25    3.22   2
   5   5   4   59.81    3.80   4
  -6   5  -4   11.65    2.06   2
   6   5   4   10.81    2.08   4
   7   5   4   11.96    2.58   4
  -7   5  -4   15.48    2.40   2
  -9  -6   4    0.57    1.38   3
   9   6  -4   -0.39    1.55   1
  -9   6   4    1.41    1.81   2
  -9   6   4   -1.90    1.52   3
  -8  -6   4    9.36    2.32   3
  -8   6   4    8.69    1.80   3
  -8   6   4    6.92    1.97   2
   8   6  -4    9.94    1.92   1
  -7  -6   4    3.37    1.83   3
  -7   6   4    7.71    1.66   3
  -7   6   4    3.58    1.64   2
   7   6  -4    4.70    1.53   1
  -6  -6   4    4.55    1.67   3
  -6   6   4    6.32    0.81   1
   6   6  -4    7.94    1.70   1
  -6   6   4    6.41    1.65   2
  -5  -6   4   57.87    3.30   3
  -5   6   4   60.58    2.74   2
   5   6  -4   59.05    3.09   1
  -5   6   4   57.84    2.14   1
  -4  -6   4   62.11    2.96   3
  -4  -6   4   66.31    2.38   4
   4   6  -4   62.20    2.82   1
  -4   6   4   63.54    2.63   2
  -4   6   4   63.11    2.33   1
  -3  -6   4   -0.10    0.43   4
  -3  -6   4   -1.03    0.79   3
   3   6  -4   -1.48    0.55   1
  -3   6   4   -0.27    0.60   1
  -2  -6   4   15.23    1.46   3
  -2  -6   4   15.62    0.68   4
   2  -6  -4   17.60    1.25   2
   2   6  -4   15.59    1.61   1
  -2   6   4   19.06    1.57   4
  -1  -6   4    1.16    0.68   3
   1  -6  -4    0.22    0.54   2
   1   6  -4   -0.10    0.81   1
   1   6  -4    2.20    0.67   3
  -1   6   4    0.18    0.92   4
   0  -6  -4   18.92    1.04   2
   0  -6   4   17.96    1.20   3
   0   6  -4   14.67    1.47   1
   0   6  -4   15.62    1.09   3
   0   6   4   15.01    1.66   4
   1  -6   4    2.07    0.55   3
  -1  -6  -4    3.75    0.56   2
  -1   6  -4    2.93    0.87   1
   1   6   4    6.46    1.36   4
  -1   6  -4    2.92    0.31   4
  -2  -6  -4   23.11    1.03   2
   2   6   4   25.29    2.34   4
  -2   6  -4   25.89    1.19   4
  -2   6  -4   28.08    1.65   1
  -3   6  -4   62.78    2.34   4
  -3   6  -4   66.95    2.53   1
   3   6   4   68.02    3.56   4
  -4   6  -4   42.10    2.92   2
  -4   6  -4   35.76    1.87   1
   4   6   4   41.80    3.18   4
  -5   6  -4   -0.95    1.29   2
   5   6   4   -0.28    1.61   4
   6   6   4    2.76    1.61   4
  -6   6  -4    3.33    1.38   2
  -7   6  -4    4.10    1.86   2
   7   6   4    1.59    1.73   4
  -9  -7   4   -1.49    1.87   3
  -9   7   4    0.32    1.30   2
   9   7  -4    0.05    1.68   1
  -9   7   4    0.79    1.50   3
  -8  -7   4   -1.29    1.74   3
  -8   7   4    1.70    1.68   2
  -8   7   4   -1.21    1.28   3
   8   7  -4    0.94    1.47   1
  -7  -7   4   44.03    3.59   3
  -7   7   4   44.61    3.06   3
  -7   7   4   42.04    2.79   2
   7   7  -4   39.29    3.04   1
  -6  -7   4   91.89    4.47   3
  -6   7   4   88.65    3.72   2
   6   7  -4   93.50    4.14   1
  -5  -7   4   46.96    2.86   3
   5   7  -4   50.47    2.98   1
  -5   7   4   43.66    2.71   2
  -5   7   4   44.52    1.92   1
  -4  -7   4   30.11    2.21   3
  -4  -7   4   31.66    1.70   4
  -4   7   4   28.92    2.12   2
   4   7  -4   28.22    2.08   1
  -4   7   4   29.72    1.76   1
  -3  -7   4  132.18    4.58   3
  -3  -7   4  134.96    3.52   4
   3   7  -4  129.88    4.40   1
  -2  -7   4   42.92    2.32   3
   2   7  -4   43.78    2.45   1
  -2   7   4   42.43    2.58   4
  -1  -7   4   28.96    1.78   3
   1  -7  -4   30.11    1.47   2
   1   7  -4   30.08    1.67   3
   1   7  -4   32.81    2.07   1
  -1   7   4   29.02    2.23   4
   0  -7  -4   95.23    2.73   2
   0  -7   4   90.34    3.00   3
   0   7  -4   96.42    3.43   1
   0   7  -4   96.20    2.99   3
   0   7   4   95.55    3.84   4
  -1  -7  -4   16.85    0.94   2
  -1   7  -4   18.48    0.55   4
  -1   7  -4   16.85    1.11   3
  -1   7  -4   17.91    0.56   4
  -1   7  -4   20.17    1.65   1
   1   7   4   19.63    2.10   4
  -2  -7  -4    8.16    0.55   2
  -2   7  -4    6.53    1.18   1
  -2   7  -4    6.11    0.70   4
   2   7   4    9.01    1.71   4
   3   7   4   17.30    2.25   4
  -3   7  -4   16.20    1.32   4
  -3   7  -4   21.17    1.60   1
  -4   7  -4    7.85    1.04   1
  -4   7  -4    9.41    1.70   2
   4   7   4    5.00    1.88   4
   5   7   4    4.37    1.54   4
  -5   7  -4    6.01    1.78   2
  -6   7  -4    7.39    2.03   2
   6   7   4    8.28    2.41   4
   9   8  -4   -1.64    1.56   1
  -8  -8   4   -2.16    1.20   3
  -8   8   4   -0.63    1.22   2
   8   8  -4   -0.79    1.48   1
  -8   8   4   -3.94    1.41   3
  -7  -8   4    9.62    2.28   3
  -7   8   4   15.54    2.27   2
   7   8  -4   11.01    2.07   1
  -6  -8   4   10.18    2.10   3
  -6   8   4   11.10    1.97   2
   6   8  -4   11.65    1.79   1
  -5  -8   4   50.21    3.31   3
  -5   8   4   49.10    2.63   2
   5   8  -4   45.59    2.78   1
  -5   8   4   47.79    2.06   1
  -4  -8   4  172.82    4.78   4
  -4  -8   4  172.40    5.88   3
  -4   8   4  166.65    5.14   2
   4   8  -4  183.24    5.82   1
  -3  -8   4  193.00    4.90   4
  -3  -8   4  193.14    6.02   3
  -3   8   4  203.56    5.56   2
   3   8  -4  205.88    6.16   1
  -2  -8   4  161.57    5.10   3
  -2   8   4  155.89    5.26   4
   2   8  -4  160.31    5.16   1
  -1  -8   4  426.01   10.31   3
   1  -8  -4  414.47    9.69   2
   1   8  -4  434.77   10.53   1
  -1   8   4  431.59   10.93   4
   0  -8  -4  208.71    5.23   2
   0  -8   4  219.01    5.79   3
   0   8   4  219.36    6.69   4
   0   8  -4  225.98    6.19   1
   0   8  -4  218.31    5.65   3
  -1  -8  -4   82.87    2.24   2
  -1   8  -4   90.14    3.27   1
  -1   8  -4   76.31    1.74   4
   1   8   4   81.41    3.67   4
  -1   8  -4   85.22    2.61   3
   2   8   4   60.49    3.49   4
  -2   8  -4   60.66    2.68   1
  -3   8  -4    9.63    1.21   1
   3   8   4    9.50    2.00   4
   4   8   4    9.03    1.86   4
  -4   8  -4    7.49    1.60   2
  -4   8  -4    9.64    1.15   1
  -5   8  -4   -0.58    1.44   2
   5   8   4   -1.73    1.73   4
  -6   8  -4   -1.51    1.16   2
   6   8   4   -2.89    1.83   4
  -8  -9   4    0.20    1.89   3
   8   9  -4   -0.58    1.55   1
  -8   9   4   -0.76    1.48   3
  -8   9   4    1.37    1.45   2
  -7  -9   4    0.85    1.33   3
   7   9  -4   -1.33    1.49   1
  -7   9   4   -0.17    1.56   2
  -6  -9   4    5.67    1.98   3
  -6   9   4    6.10    1.78   2
   6   9  -4    3.56    1.73   1
  -5  -9   4   16.64    2.34   3
   5   9  -4   16.62    2.22   1
  -5   9   4   17.79    1.88   2
  -4  -9   4   18.03    2.08   3
   4   9  -4   20.37    2.04   1
  -4   9   4   21.52    2.02   2
  -3  -9   4    4.53    1.40   3
  -3   9   4    2.68    1.06   2
  -3   9   4    4.08    1.21   4
   3   9  -4    2.61    1.17   1
  -2  -9   4   -0.26    1.00   3
   2   9  -4   -0.19    0.90   1
  -2   9   4   -0.57    0.91   4
   1  -9  -4    1.70    0.73   2
  -1  -9   4    2.30    1.08   3
   1   9  -4    4.04    1.10   1
  -1   9   4   -0.21    1.28   4
   0  -9  -4    0.50    0.58   2
   0   9  -4    0.74    1.08   1
   0   9   4    0.95    1.03   4
  -1   9  -4    1.27    1.05   1
  -1   9  -4    1.66    0.71   3
  -1   9  -4    1.74    0.19   4
   1   9   4    2.25    1.13   4
  -1   9  -4    2.09    0.22   4
  -2   9  -4    0.22    0.90   1
  -2   9  -4    0.80    0.44   4
   2   9   4   -0.46    1.36   4
   3   9   4   -0.91    1.47   4
  -3   9  -4    0.41    1.38   2
  -3   9  -4   -0.86    0.78   1
  -4   9  -4    0.02    1.46   2
   4   9   4    1.65    1.43   4
  -5   9  -4    0.09    1.21   2
   5   9   4    6.40    2.18   4
  -8 -10   4    5.37    2.40   3
  -8  10   4    5.48    1.80   2
   8  10  -4    5.13    2.13   1
  -8  10   4    1.21    1.61   3
  -7 -10   4   -0.93    1.29   3
   7  10  -4    1.33    1.38   1
  -7  10   4    1.43    1.75   2
  -6 -10   4    5.30    2.08   3
   6  10  -4    8.11    2.12   1
  -6  10   4    4.38    1.75   2
  -5 -10   4   11.16    2.27   3
   5  10  -4   10.07    2.08   1
  -5  10   4    9.69    1.59   2
  -4 -10   4    1.17    1.10   3
  -4  10   4    1.28    1.17   2
   4  10  -4    3.26    1.32   1
  -3 -10   4   61.82    3.25   3
   3  10  -4   66.94    3.58   1
  -3  10   4   63.81    3.66   4
  -3  10   4   63.86    2.87   2
  -2 -10   4   86.60    3.83   3
  -2  10   4   88.36    4.22   4
   2  10  -4   95.07    4.02   1
  -1 -10   4   86.34    3.55   3
  -1  10   4   89.28    4.18   4
   1  10  -4   85.06    3.75   1
   0  10  -4    0.72    0.86   1
   0  10   4   -1.50    1.35   4
  -1  10  -4   19.03    1.93   1
   1  10   4   16.53    2.32   4
   2  10   4   77.08    4.20   4
  -2  10  -4   64.77    2.91   1
  -3  10  -4   28.64    1.98   1
  -3  10  -4   32.56    2.87   2
   3  10   4   37.70    3.42   4
  -4  10  -4    2.65    1.70   2
   4  10   4    3.70    2.16   4
   5  10   4   -1.48    1.42   4
  -5  10  -4    0.42    1.22   2
  -7 -11   4   12.87    2.66   3
   7  11  -4   15.40    2.38   1
  -7  11   4   14.65    2.48   2
  -6 -11   4   19.30    2.92   3
   6  11  -4   18.22    2.57   1
  -6  11   4   19.38    2.46   2
  -5 -11   4   38.51    3.56   3
   5  11  -4   37.60    3.34   1
  -5  11   4   31.54    2.43   2
  -4 -11   4   45.94    3.43   3
   4  11  -4   41.96    3.23   1
  -4  11   4   42.93    3.06   4
  -4  11   4   43.32    2.73   2
  -3 -11   4  101.57    4.56   3
  -3  11   4   95.70    3.71   2
  -3  11   4   99.71    4.68   4
   3  11  -4  104.50    4.58   1
  -2 -11   4  100.17    4.32   3
  -2  11   4  104.54    4.74   4
   2  11  -4  112.50    4.59   1
   1  11  -4   55.91    3.21   1
  -1  11   4   55.81    3.62   4
   0  11   4    3.81    1.71   4
   0  11  -4    3.99    1.41   1
   1  11   4   15.34    2.14   4
  -1  11  -4   12.80    1.76   1
  -2  11  -4   14.13    2.11   2
  -2  11  -4   12.87    1.64   1
   2  11   4   12.90    2.31   4
   3  11   4   43.31    3.89   4
  -3  11  -4   48.82    3.42   2
  -4  11  -4   18.24    2.57   2
   4  11   4   14.21    2.73   4
  -6 -12   4    3.76    2.16   3
  -6  12   4    6.78    1.66   2
   6  12  -4    8.41    2.28   1
  -5 -12   4    2.49    1.91   3
  -5  12   4    0.23    1.67   4
   5  12  -4    1.13    1.88   1
  -5  12   4    3.70    1.63   2
  -4 -12   4    6.17    1.89   3
   4  12  -4    4.42    1.58   1
  -4  12   4    6.25    1.88   4
  -4  12   4    7.94    1.60   2
  -3 -12   4    2.85    1.60   3
  -3  12   4    4.09    1.79   4
   3  12  -4    3.07    1.73   1
  -3  12   4    2.07    1.16   2
   2  12  -4   18.42    2.36   1
  -2  12   4   14.21    2.11   4
  -1  12   4   42.67    3.54   4
   1  12  -4   49.25    3.18   1
   0  12  -4   34.91    2.75   1
   0  12   4   33.31    3.29   4
   1  12   4    9.85    2.25   4
  -1  12  -4   10.77    1.76   1
  -1  12  -4    9.54    1.82   2
  -2  12  -4   17.56    2.15   2
   2  12   4   14.76    2.65   4
  -2  12  -4   16.84    1.92   1
  -3  12  -4    0.10    1.54   2
   3  12   4   -0.64    1.88   4
  -5 -13   4   67.97    4.58   3
  -5  13   4   61.86    3.69   2
  -5  13   4   56.70    3.82   4
   5  13  -4   61.45    3.87   1
  -4 -13   4   48.38    3.83   3
  -4  13   4   53.22    3.94   4
  -4  13   4   51.19    3.13   2
   4  13  -4   41.83    3.24   1
   3  13  -4   24.89    2.90   1
  -3  13   4   24.44    2.82   4
  -2  13   4   10.94    2.20   4
   2  13  -4   12.33    2.24   1
  -1  13   4    6.79    1.98   4
   1  13  -4    2.82    1.70   1
   0  13   4    4.99    1.67   4
   0  13  -4    3.29    1.34   2
   0  13  -4    1.61    1.51   1
  -1  13  -4    1.43    1.33   1
   1  13   4    7.50    2.11   4
  -1  13  -4    3.81    1.57   2
  -2  13  -4    8.19    2.16   1
  -2  13  -4   13.85    2.25   2
   2  13   4    8.75    2.40   4
  -4  14   4   -2.45    1.50   4
  -3  14   4    8.68    2.32   4
   3  14  -4    8.45    2.01   1
   2  14  -4   25.59    2.87   1
  -2  14   4   24.90    3.01   4
   1  14  -4   19.90    2.19   2
  -1  14   4   12.62    2.45   4
   1  14  -4   16.98    2.45   1
   0  14  -4    8.75    1.88   1
   0  14  -4    8.49    1.66   2
   0  14   4    8.77    2.05   4
   1  14   4    3.30    2.08   4
  -1  14  -4    0.31    1.45   2
  -1  14  -4    5.12    1.59   1
 -10   0   5   -0.82    1.32   3
  -9   0   5   -0.58    1.64   3
  -8   0   5   -1.73    1.41   3
   8   0  -5    0.66    0.89   1
  -7   0   5   -1.39    0.89   3
   7   0  -5   -0.38    0.86   1
  -6   0   5   -0.39    0.87   3
   6   0  -5   -1.34    0.84   1
  -5   0   5   -1.08    0.66   3
   5   0  -5   -0.74    0.70   1
  -4   0   5   -2.60    0.79   3
   4   0  -5   -0.55    0.52   1
  -3   0   5   -1.56    0.52   3
  -3   0   5   -0.62    0.61   1
   3   0  -5   -0.32    0.53   1
   2   0  -5   -1.27    0.68   1
  -2   0   5   -0.38    0.47   1
  -1   0   5    0.55    0.52   4
  -1   0   5    0.47    0.61   1
   1   0  -5   -0.28    0.70   1
   0   0  -5   -0.58    0.73   1
   0   0   5   -0.56    0.53   4
  -1   0  -5    1.55    0.87   1
  -1   0  -5    0.43    0.56   4
   1   0   5    1.06    0.72   4
   2   0   5    0.25    0.82   4
  -2   0  -5   -0.83    0.78   1
   3   0   5   -1.29    1.01   4
  -3   0  -5   -0.36    0.96   1
   3   0   5   -0.27    0.61   3
   4   0   5    2.12    1.27   4
   5   0   5   -1.69    1.24   4
  -5   0  -5   -0.38    0.99   2
  -6   0  -5   -0.83    0.99   2
 -10  -1   5    7.17    2.31   3
 -10   1   5    2.01    1.87   3
  -9  -1   5   17.20    2.33   3
  -9   1   5   18.99    2.57   3
  -8  -1   5   76.22    4.16   3
   8  -1  -5   77.49    2.91   1
   8   1  -5   76.62    3.17   1
  -8   1   5   76.03    4.06   3
  -7  -1   5   61.94    3.26   3
   7  -1  -5   66.59    2.63   1
  -7   1   5   64.56    3.49   3
   7   1  -5   64.87    2.77   1
  -6  -1   5  210.67    6.48   3
   6  -1  -5  206.64    5.57   1
  -6   1   5  215.85    6.42   3
   6   1  -5  207.04    5.73   1
   5  -1  -5   33.91    1.84   1
  -5  -1   5   34.03    2.12   3
  -5   1   5   37.43    2.37   3
   5   1  -5   38.06    1.99   1
  -5   1   5   35.45    1.80   1
  -4  -1   5   -1.06    0.90   3
   4  -1  -5    0.27    0.74   1
  -4   1   5    0.49    0.72   3
  -4   1   5    0.24    0.72   1
   4   1  -5   -0.98    0.79   1
   3  -1  -5  111.52    3.48   1
  -3  -1   5  118.16    3.75   3
   3   1  -5  117.69    3.66   1
  -3   1   5  112.39    3.51   1
   2  -1  -5   73.51    2.75   1
  -2  -1   5   78.93    2.81   3
  -2   1   5   76.96    2.74   1
   2   1  -5   72.51    2.65   1
   1  -1  -5   17.16    1.48   1
  -1  -1   5   17.73    1.10   4
  -1   1   5   17.41    1.30   4
   1   1  -5   16.01    1.24   1
   0  -1   5  149.47    3.93   4
   0  -1  -5  158.50    4.51   1
   0   1  -5  142.58    4.26   1
   0   1   5  153.11    4.27   4
  -1  -1  -5   77.88    2.97   1
  -1  -1  -5   74.37    2.74   4
   1  -1   5   76.65    2.55   4
   1   1   5   74.39    2.80   4
  -1   1  -5   73.62    2.48   4
  -1   1  -5   72.11    2.69   1
   2  -1   5  106.67    3.49   4
  -2  -1  -5  112.23    3.67   1
  -2   1  -5  110.15    3.62   1
  -2   1  -5  102.97    3.38   4
   2   1   5  112.15    3.79   4
   3  -1   5   13.51    1.06   3
   3  -1   5   21.96    1.93   4
   3   1   5   23.40    2.10   4
   3   1   5   16.05    1.49   3
  -3   1  -5   21.74    1.82   1
   4  -1   5   14.21    1.83   4
   4   1   5   15.99    1.84   4
  -5  -1  -5   23.27    1.91   2
  -5   1  -5   23.33    1.91   2
   5   1   5   22.41    2.45   4
  -6  -1  -5    4.19    1.32   2
  -6   1  -5    4.19    1.40   2
   6   1   5    3.40    1.78   4
  -7   1  -5    1.05    1.35   2
 -10  -2   5   10.43    2.33   3
 -10   2   5    7.00    2.02   3
  -9  -2   5    1.57    1.76   3
   9   2  -5    0.96    1.19   1
  -9   2   5   -0.72    1.54   3
  -8  -2   5   13.17    2.27   3
  -8   2   5   13.27    2.15   3
   8   2  -5   11.85    1.66   1
  -7  -2   5   12.28    2.06   3
   7  -2  -5   16.84    1.52   1
  -7   2   5   13.83    2.03   3
   7   2  -5   12.73    1.58   1
  -6  -2   5   -1.15    1.15   3
   6  -2  -5   -0.68    0.78   1
  -6   2   5    0.01    0.88   3
  -6   2   5   -0.26    0.68   1
   6   2  -5   -0.71    0.92   1
  -5  -2   5   18.43    1.73   3
   5  -2  -5   21.64    1.53   1
   5   2  -5   19.68    1.49   1
  -5   2   5   20.84    1.99   3
  -5   2   5   20.17    1.44   1
  -4  -2   5  507.81   12.09   3
   4  -2  -5  502.07   11.58   1
   4   2  -5  521.16   11.81   1
  -4   2   5  506.01   11.54   1
   3  -2  -5  184.68    5.07   1
  -3  -2   5  191.27    5.30   3
  -3   2   5  183.81    5.01   1
   3   2  -5  188.47    5.14   1
  -2  -2   5  161.31    4.58   3
   2  -2  -5  165.79    4.68   1
   2   2  -5  165.96    4.68   1
  -1  -2   5   63.12    1.92   4
  -1  -2   5   64.20    2.35   3
   1  -2  -5   67.17    2.64   1
  -1   2   5   65.69    2.56   4
   1   2  -5   63.55    2.52   1
   0  -2   5  537.38   11.53   4
   0  -2   5  546.22   11.84   3
   0  -2  -5  532.87   12.34   1
   0   2   5  542.82   12.28   4
   0   2  -5  522.14   12.18   1
   1  -2   5  146.64    3.77   3
   1  -2   5  146.99    3.93   4
  -1  -2  -5  148.44    4.54   1
   1   2   5  145.17    4.46   4
  -1   2  -5  146.94    3.87   4
  -1   2  -5  144.67    4.29   1
   2  -2   5   75.03    2.68   4
   2   2   5   75.99    3.14   4
  -2   2  -5   72.42    2.61   4
  -2   2  -5   72.33    2.82   1
   3  -2   5   38.91    1.19   3
   3  -2   5   42.97    2.42   4
   3  -2   5   40.58    1.21   3
  -3   2  -5   42.81    2.29   1
   3   2   5   43.76    2.69   4
   3   2   5   41.97    2.12   3
   4   2   5    6.94    1.46   4
  -5  -2  -5    2.49    0.95   2
  -5   2  -5    1.48    1.04   2
   5   2   5    0.76    1.51   4
   6   2   5   12.53    2.37   4
  -6   2  -5   14.54    2.03   2
  -7   2  -5    2.22    1.45   2
 -10  -3   5    4.99    2.10   3
 -10   3   5    1.46    1.86   3
  -9  -3   5    0.22    1.75   3
   9   3  -5   -1.16    1.12   1
  -9   3   5    0.48    1.60   3
  -8  -3   5    5.67    1.93   3
   8   3  -5    4.20    1.34   1
  -8   3   5    7.09    1.80   3
   7  -3  -5    2.08    0.87   1
  -7  -3   5   -1.35    1.37   3
   7   3  -5    2.08    1.09   1
  -7   3   5   -2.01    1.19   3
   6  -3  -5   11.51    1.26   1
  -6  -3   5    8.97    1.52   3
  -6   3   5    9.52    1.09   1
   6   3  -5    9.70    1.33   1
  -6   3   5    8.73    1.60   3
  -5  -3   5   78.52    3.38   3
   5  -3  -5   81.77    2.87   1
   5   3  -5   85.65    3.32   1
  -5   3   5   79.83    2.78   1
   4  -3  -5   21.97    1.59   1
  -4  -3   5   20.00    1.92   3
   4   3  -5   21.91    1.84   1
  -4   3   5   19.45    1.45   1
   3  -3  -5   52.75    2.38   1
  -3  -3   5   56.69    2.47   3
  -3   3   5   58.55    2.64   1
   3   3  -5   57.66    2.53   1
   2  -3  -5   -1.28    0.75   1
  -2  -3   5   -0.49    0.65   3
   2   3  -5    0.42    0.79   1
  -2   3   5   -0.07    0.82   4
  -1  -3   5    2.24    0.36   4
   1  -3  -5    0.42    0.66   1
  -1  -3   5    2.18    0.72   3
   1   3  -5    1.05    0.86   1
  -1   3   5    1.38    0.87   4
   0  -3   5  282.31    6.51   3
   0  -3   5  276.39    6.02   4
   0  -3  -5  262.34    7.08   1
   0   3   5  263.12    7.04   4
   0   3  -5  274.55    6.91   1
   1  -3   5    4.07    0.69   4
   1  -3   5    4.63    0.64   3
  -1   3  -5    4.85    1.01   1
  -1   3  -5    4.29    0.63   4
   1   3   5    3.81    1.18   4
   2  -3   5    4.48    0.44   3
   2   3   5    4.65    1.27   4
  -2   3  -5    3.54    0.98   1
  -2   3  -5    4.60    0.83   4
  -3   3  -5   61.26    2.71   1
   3   3   5   56.56    3.25   4
  -4   3  -5   11.82    1.40   1
   4   3   5    7.24    1.81   4
  -5  -3  -5    5.05    1.10   2
  -5   3  -5    4.67    1.32   2
   5   3   5    5.60    1.53   4
   6   3   5    1.68    1.82   4
  -6   3  -5    1.56    1.48   2
   7   3   5    1.84    1.58   4
 -10  -4   5   15.78    2.77   3
 -10   4   5   13.28    2.33   3
  -9  -4   5    5.02    2.10   3
   9   4  -5    3.46    1.49   1
  -9   4   5    4.35    1.86   3
  -8  -4   5   17.28    2.61   3
  -8   4   5   20.70    2.37   3
   8   4  -5   19.20    2.10   1
   7  -4  -5   40.88    1.98   1
  -7  -4   5   36.24    2.82   3
  -7   4   5   43.81    3.03   3
   7   4  -5   40.52    2.65   1
   6  -4  -5   11.92    1.26   1
  -6  -4   5    9.50    1.90   3
  -6   4   5   12.54    1.26   1
   6   4  -5    8.82    1.45   1
  -6   4   5   12.79    1.85   3
  -5  -4   5   75.81    3.42   3
   5  -4  -5   80.00    2.93   1
  -5  -4   5   83.27    3.36   4
  -5   4   5   77.70    2.72   1
   5   4  -5   77.91    3.40   1
   4  -4  -5   49.51    2.28   1
  -4  -4   5   54.63    2.10   4
  -4  -4   5   53.19    2.77   3
   4   4  -5   50.32    2.60   1
  -4   4   5   50.72    2.44   1
  -3  -4   5  327.38    8.20   3
  -3  -4   5  315.36    7.17   4
   3  -4  -5  318.64    7.91   1
   3   4  -5  311.35    8.00   1
  -2  -4   5  489.24   10.19   4
   2  -4  -5  492.27   11.43   1
  -2  -4   5  493.25   11.37   3
   2  -4  -5  507.35   11.53   2
   2   4  -5  474.93   11.36   1
  -2   4   5  470.26   11.55   4
   1  -4  -5  794.34   17.61   1
  -1  -4   5  801.98   17.21   3
   1   4  -5  774.81   17.41   1
  -1   4   5  788.88   17.68   4
   0  -4   5  308.30    7.18   3
   0   4  -5  304.57    7.61   1
   0   4   5  304.58    7.97   4
   1  -4   5  244.33    5.57   3
   1   4   5  244.89    6.82   4
  -1   4  -5  240.34    6.30   1
  -1   4  -5  236.65    5.46   4
  -2   4  -5  281.75    7.19   1
   2   4   5  290.85    7.93   4
  -2   4  -5  279.43    6.68   4
  -3   4  -5  101.05    3.38   4
  -3   4  -5  107.02    3.55   1
   3   4   5  111.97    4.51   4
  -4   4  -5    3.95    1.03   1
   4   4   5    3.72    1.68   4
   5   4   5    0.27    1.65   4
  -5   4  -5    1.78    1.44   2
   6   4   5    0.02    1.32   4
  -6   4  -5    1.10    1.59   2
  -9  -5   5    0.94    1.51   3
  -9   5   5    1.15    1.61   3
   9   5  -5    0.28    1.53   1
  -8  -5   5   22.05    2.89   3
   8   5  -5   20.25    2.21   1
  -8   5   5   19.81    2.42   3
  -7  -5   5    7.47    1.69   3
  -7   5   5   12.02    1.92   3
   7   5  -5   10.47    1.84   1
   6  -5  -5    6.81    1.05   1
  -6  -5   5    6.54    1.51   3
  -6   5   5    7.10    1.00   1
   6   5  -5    3.74    1.54   1
  -5  -5   5    1.10    1.34   3
   5  -5  -5    2.03    0.95   1
  -5  -5   5    1.57    0.81   4
  -5   5   5    2.56    0.87   1
   5   5  -5    1.43    1.31   1
  -4  -5   5   32.25    2.14   3
   4  -5  -5   33.21    2.05   1
  -4  -5   5   32.18    1.60   4
   4   5  -5   35.26    2.37   1
  -3  -5   5    3.48    1.11   3
   3  -5  -5    2.87    0.96   1
  -3  -5   5    2.35    0.50   4
   3   5  -5    3.82    0.96   1
   2  -5  -5    8.58    1.19   1
  -2  -5   5    7.84    1.21   3
   2   5  -5    9.39    1.23   1
   2   5  -5   11.42    1.37   3
  -2   5   5    7.94    1.41   4
  -1  -5   5   42.93    1.99   3
   1  -5  -5   44.13    1.84   2
  -1   5   5   41.87    2.28   4
   1   5  -5   42.75    2.28   1
   0  -5   5    5.17    0.83   3
   0   5   5    7.00    1.40   4
   0   5  -5    9.28    1.29   1
   1  -5   5   19.99    1.06   3
  -1   5  -5   21.57    1.74   1
   1   5   5   24.38    1.96   4
  -1   5  -5   21.96    0.84   4
  -2   5  -5    4.89    0.73   4
  -2   5  -5    7.14    1.19   1
   2   5   5    5.03    1.27   4
   3   5   5    3.49    1.54   4
  -3   5  -5    1.02    0.74   4
  -3   5  -5    2.27    1.01   1
  -4   5  -5    1.95    0.90   1
   4   5   5    3.28    1.61   4
   5   5   5    4.29    1.87   4
  -5   5  -5    5.07    1.72   2
  -6   5  -5    7.39    1.96   2
   6   5   5    1.43    1.50   4
  -9  -6   5   22.43    2.89   3
   9   6  -5   31.95    3.02   1
  -9   6   5   30.59    3.17   3
  -8  -6   5   42.85    3.86   3
   8   6  -5   44.64    3.22   1
  -8   6   5   44.71    3.32   3
  -7  -6   5   -0.27    1.58   3
   7   6  -5   -3.13    1.28   1
  -7   6   5    0.04    1.08   3
  -6  -6   5   -0.53    1.33   3
  -6   6   5   -1.43    0.62   1
   6   6  -5   -1.60    1.19   1
  -5  -6   5    5.69    1.10   4
  -5  -6   5    4.93    1.54   3
   5   6  -5    3.71    1.50   1
  -4  -6   5   28.27    1.53   4
  -4  -6   5   26.80    2.08   3
   4   6  -5   27.15    2.02   1
  -3  -6   5  151.30    4.87   3
  -3  -6   5  150.89    3.68   4
   3   6  -5  154.18    4.97   1
  -2  -6   5   44.83    2.33   3
   2   6  -5   45.78    2.52   1
  -2   6   5   44.35    2.74   4
  -1  -6   5  172.38    4.89   3
   1  -6  -5  170.06    4.57   2
  -1   6   5  174.01    5.51   4
   1   6  -5  171.94    4.70   3
   1   6  -5  164.15    5.02   1
   0  -6   5  403.81    9.40   3
   0  -6  -5  396.67    9.24   2
   0   6   5  417.38   10.49   4
   0   6  -5  420.79    9.97   1
   1  -6   5  172.86    4.30   3
  -1  -6  -5  171.73    4.43   2
   1   6   5  181.66    5.85   4
  -1   6  -5  181.06    5.13   1
  -2   6  -5  167.95    4.19   4
  -2   6  -5  179.05    5.08   1
   2   6   5  174.33    5.95   4
   3   6   5   58.02    3.59   4
  -3   6  -5   56.56    2.57   1
  -4   6  -5    2.99    1.00   1
   4   6   5    1.59    1.61   4
  -5   6  -5    2.63    1.30   2
   5   6   5    4.26    1.61   4
   6   6   5   -0.98    1.40   4
  -6   6  -5   -0.30    1.18   2
  -9  -7   5   10.55    2.64   3
  -9   7   5    8.77    2.12   3
   9   7  -5    7.40    1.99   1
  -8  -7   5    7.74    2.29   3
  -8   7   5    6.62    1.66   2
   8   7  -5    6.36    1.83   1
  -8   7   5    8.64    2.03   3
  -7  -7   5   10.18    2.30   3
  -7   7   5   13.95    1.94   2
   7   7  -5   12.85    2.16   1
  -6  -7   5   29.40    3.06   3
   6   7  -5   27.62    2.69   1
  -5  -7   5   31.04    2.47   3
   5   7  -5   31.18    2.65   1
  -4  -7   5  119.11    3.44   4
  -4  -7   5  121.00    4.65   3
   4   7  -5  115.36    4.31   1
  -3  -7   5  155.90    5.17   3
  -3  -7   5  148.62    3.67   4
  -3   7   5  162.75    5.45   4
   3   7  -5  156.09    5.17   1
  -2  -7   5   81.30    3.36   3
   2   7  -5   87.59    3.44   1
  -2   7   5   89.22    3.88   4
  -1  -7   5    4.70    1.15   3
   1  -7  -5    7.05    1.05   2
   1   7  -5    8.31    1.48   1
  -1   7   5    8.53    1.61   4
   1   7  -5    7.30    1.14   3
   0  -7   5    6.13    1.01   3
   0  -7  -5    5.25    0.84   2
   0   7   5    7.70    1.47   4
   0   7  -5    5.08    0.95   3
   0   7  -5    5.05    1.31   1
   1  -7   5   -0.13    0.52   3
  -1  -7  -5    0.58    0.56   2
  -1   7  -5   -2.64    0.81   1
   1   7   5   -1.23    1.30   4
   2   7   5    7.09    1.57   4
  -2   7  -5    6.94    1.33   1
  -3   7  -5    2.11    0.95   1
   3   7   5    4.11    1.45   4
   4   7   5    9.89    2.21   4
  -4   7  -5   12.80    1.39   1
  -4   7  -5   13.32    2.00   2
   5   7   5    1.01    1.81   4
  -5   7  -5    5.60    1.83   2
  -6   7  -5    1.16    1.79   2
   6   7   5   -1.11    2.10   4
  -8  -8   5   -2.36    1.67   3
  -8   8   5   -2.12    1.51   3
   8   8  -5   -0.73    1.53   1
  -8   8   5   -0.87    1.23   2
  -7  -8   5   -0.96    1.63   3
  -7   8   5   -0.69    1.08   2
   7   8  -5   -1.87    1.41   1
  -6  -8   5   25.80    2.87   3
   6   8  -5   27.07    2.80   1
  -5  -8   5    6.26    1.81   3
   5   8  -5    6.10    1.70   1
  -4  -8   5   -0.06    1.23   3
   4   8  -5    1.48    1.37   1
  -3  -8   5   -0.13    1.01   3
  -3   8   5   -1.82    1.23   4
   3   8  -5    1.27    1.35   1
  -2  -8   5    0.94    1.05   3
  -2   8   5    2.75    1.45   4
   2   8  -5    0.99    1.01   1
   1  -8  -5  115.96    3.56   2
  -1  -8   5  115.81    3.99   3
   1   8  -5  132.14    4.48   1
  -1   8   5  117.85    4.55   4
   0  -8  -5    1.18    0.90   2
   0  -8   5    0.41    0.71   3
   0   8   5   -0.84    1.34   4
   0   8  -5   -1.44    0.61   3
   0   8  -5    1.06    1.05   1
  -1   8  -5   29.63    2.15   1
   1   8   5   33.23    2.93   4
  -2   8  -5   21.97    1.80   1
   2   8   5   21.34    2.38   4
  -3   8  -5    4.15    1.11   1
   3   8   5    4.37    1.79   4
   4   8   5    3.24    1.97   4
  -4   8  -5    2.46    1.60   2
  -5   8  -5   -2.47    1.49   2
   5   8   5   -1.44    1.92   4
  -8  -9   5   15.57    2.53   3
  -8   9   5   20.31    2.80   2
  -8   9   5   14.04    2.39   3
   8   9  -5   20.19    2.75   1
  -7  -9   5   18.59    2.81   3
   7   9  -5   18.69    2.54   1
  -7   9   5   14.97    2.39   2
  -6  -9   5   43.86    3.27   3
   6   9  -5   44.90    3.08   1
  -6   9   5   45.72    2.85   2
  -5  -9   5   86.73    4.42   3
   5   9  -5   85.06    3.98   1
  -4  -9   5    4.63    1.33   3
   4   9  -5    5.22    1.70   1
  -3  -9   5   -2.33    0.98   3
   3   9  -5   -0.62    1.28   1
  -3   9   5    0.01    1.07   4
  -2  -9   5   12.94    1.76   3
   2   9  -5   14.84    1.97   1
  -2   9   5   14.29    2.06   4
  -1  -9   5    1.77    1.04   3
   1   9  -5    1.76    1.26   1
  -1   9   5   -0.20    1.32   4
   0  -9   5   11.47    1.31   3
   0   9  -5   12.17    1.62   3
   0   9  -5   14.69    1.80   1
   0   9   5   13.66    1.90   4
  -1   9  -5   38.27    2.44   1
   1   9   5   38.33    2.81   4
   2   9   5   27.48    2.64   4
  -2   9  -5   29.63    2.21   1
  -3   9  -5   31.42    2.13   1
   3   9   5   29.34    3.15   4
   4   9   5   11.28    2.22   4
  -4   9  -5    9.41    2.11   2
   5   9   5    3.52    2.26   4
  -5   9  -5    7.32    1.85   2
  -7 -10   5    8.52    2.30   3
   7  10  -5    6.47    2.09   1
  -7  10   5    2.33    1.90   2
  -6 -10   5   -0.58    1.23   3
   6  10  -5    0.49    1.70   1
  -6  10   5    0.05    1.12   2
  -5 -10   5   -0.72    1.07   3
   5  10  -5   -0.77    1.12   1
  -4 -10   5   -1.38    1.27   3
  -4  10   5    0.93    1.27   4
   4  10  -5   -0.99    1.37   1
  -3 -10   5   24.45    2.54   3
  -3  10   5   17.87    2.46   4
   3  10  -5   18.37    2.30   1
  -2 -10   5   62.24    3.28   3
   2  10  -5   73.43    3.68   1
  -2  10   5   70.37    3.68   4
  -1 -10   5   99.61    3.86   3
   1  10  -5  103.75    4.27   1
  -1  10   5  105.52    4.78   4
   0  10   5   15.90    2.41   4
   0  10  -5   13.70    1.84   1
  -1  10  -5   17.43    1.91   1
   1  10   5   18.61    2.59   4
  -2  10  -5   18.13    1.91   1
   2  10   5   13.02    2.16   4
  -3  10  -5   -1.61    1.41   2
   3  10   5   -1.26    1.82   4
  -4  10  -5    1.27    1.72   2
   4  10   5    0.37    1.46   4
  -7 -11   5    5.20    1.89   3
  -7  11   5    3.21    1.99   2
   7  11  -5    4.73    2.23   1
  -6 -11   5   29.77    3.07   3
   6  11  -5   35.08    3.53   1
  -6  11   5   28.11    2.54   2
  -5 -11   5   28.82    2.84   3
  -5  11   5   23.11    2.72   4
   5  11  -5   26.38    2.99   1
  -4 -11   5   18.37    2.46   3
  -4  11   5   18.30    2.63   4
   4  11  -5   17.13    2.23   1
  -3 -11   5   29.41    2.83   3
  -3  11   5   37.81    3.35   4
   3  11  -5   27.90    2.50   1
  -2 -11   5   15.16    2.01   3
  -2  11   5   13.30    2.02   4
   2  11  -5   14.77    2.20   1
  -1 -11   5    0.67    1.02   3
  -1  11   5    1.42    1.63   4
   1  11  -5   -0.66    1.28   1
   0  11   5    1.72    1.36   4
   0  11  -5   -0.11    1.25   1
   1  11   5    0.51    1.71   4
  -1  11  -5    0.24    1.27   1
  -2  11  -5    3.42    1.35   1
   2  11   5    3.40    2.13   4
   3  11   5    2.24    2.12   4
  -3  11  -5    0.07    1.62   2
  -6 -12   5   -0.01    1.86   3
   6  12  -5    2.01    2.02   1
  -5 -12   5    9.66    2.29   3
  -5  12   5   11.58    2.45   4
   5  12  -5   12.25    2.48   1
  -4 -12   5   20.32    2.72   3
  -4  12   5   20.77    2.58   4
   4  12  -5   19.53    2.50   1
  -3 -12   5   34.45    3.03   3
   3  12  -5   37.75    2.88   1
  -3  12   5   34.94    3.06   4
  -2 -12   5   50.26    3.38   3
   2  12  -5   50.52    3.49   1
  -2  12   5   46.90    3.41   4
  -1  12   5  118.86    5.50   4
   1  12  -5  104.73    4.49   1
   0  12  -5  138.23    5.14   1
   0  12   5  123.74    5.51   4
   1  12   5   36.87    3.78   4
  -1  12  -5   36.39    2.75   1
  -2  12  -5    5.00    1.87   2
  -2  12  -5    3.32    1.50   1
   2  12   5    4.71    2.27   4
   3  12   5    6.72    2.03   4
  -5  13   5    0.52    1.80   4
   5  13  -5   -0.47    1.79   1
  -4 -13   5    3.48    1.77   3
  -4  13   5   -0.62    1.81   4
   4  13  -5    1.27    1.81   1
  -3 -13   5    2.92    1.60   3
  -3  13   5    3.83    1.99   4
   3  13  -5    4.36    1.54   1
  -2  13   5    0.57    1.78   4
   2  13  -5    0.96    1.69   1
  -1  13   5    1.94    1.92   4
   1  13  -5    0.39    1.53   1
   0  13  -5    2.94    1.55   1
   0  13   5    3.45    2.13   4
  -1  13  -5    0.81    1.51   2
  -1  13  -5   -2.30    1.25   1
   1  13   5   -0.89    1.33   4
  -2  14   5   11.42    2.47   4
   2  14  -5   13.35    2.46   1
   1  14  -5   39.68    3.30   1
  -1  14   5   37.39    3.89   4
 -10   0   6    6.03    1.84   3
  -9   0   6   -2.51    1.66   3
   8   0  -6   -1.31    0.94   1
  -8   0   6   -1.55    1.05   3
  -7   0   6    7.53    1.83   3
   7   0  -6   12.33    1.49   1
   6   0  -6    1.10    1.00   1
  -6   0   6    1.70    1.38   3
  -5   0   6    3.39    1.09   3
   5   0  -6    1.73    0.99   1
  -4   0   6   26.14    2.14   3
   4   0  -6   22.40    1.83   1
   3   0  -6  144.29    4.48   1
  -3   0   6  147.35    4.61   3
  -2   0   6  476.08   10.63   4
   2   0  -6  450.85   10.91   1
  -1   0   6    4.23    0.92   4
   1   0  -6    5.29    1.15   1
   0   0   6   79.38    2.83   4
   0   0  -6   78.47    3.16   1
  -1   0  -6   11.58    1.22   4
  -1   0  -6   12.33    1.44   1
   1   0   6   10.34    1.25   4
  -2   0  -6   79.67    3.50   1
   2   0   6   82.93    3.28   4
   3   0   6  238.54    6.97   4
  -3   0  -6  252.25    6.97   1
   4   0   6   -1.09    1.18   4
  -5   0  -6   11.11    1.71   2
   5   0   6    9.41    1.95   4
  -6   0  -6    0.04    1.17   2
 -10  -1   6    1.66    1.96   3
 -10   1   6   -1.15    1.83   3
  -9  -1   6   -0.75    1.73   3
  -9   1   6   -1.19    1.69   3
   9   1  -6   -1.48    0.94   1
  -8  -1   6    6.96    1.66   3
   8  -1  -6    4.92    1.16   1
   8   1  -6    5.03    1.27   1
  -8   1   6    3.73    1.51   3
  -7  -1   6   -1.09    1.39   3
   7  -1  -6    0.71    1.04   1
   7   1  -6   -1.33    0.92   1
  -7   1   6   -1.98    1.26   3
  -6  -1   6    1.56    1.06   3
   6  -1  -6    1.37    1.04   1
   6   1  -6    0.18    0.99   1
  -6   1   6   -2.12    1.26   3
   5  -1  -6   -0.01    0.88   1
  -5  -1   6   -0.33    0.79   3
   5   1  -6    0.72    0.98   1
  -5   1   6   -1.25    1.05   3
  -4  -1   6   45.14    2.61   3
   4  -1  -6   50.99    2.41   1
  -4   1   6   48.41    2.71   3
   4   1  -6   48.67    2.45   1
  -3  -1   6    0.24    0.88   3
   3  -1  -6    0.97    0.74   1
   3   1  -6    1.64    1.00   1
   2  -1  -6   -0.41    0.60   1
  -2  -1   6   -0.81    0.50   3
  -2  -1   6    0.28    0.57   4
  -2   1   6   -0.32    0.68   4
   2   1  -6    0.47    0.90   1
  -1  -1   6   41.95    1.80   4
   1  -1  -6   42.13    2.33   1
  -1   1   6   43.33    2.08   4
   1   1  -6   40.07    2.24   1
   0  -1  -6    0.45    1.02   1
   0  -1   6    1.85    0.71   4
   0   1   6    1.53    0.84   4
   0   1  -6    0.74    0.96   1
  -1  -1  -6    5.27    1.33   1
   1  -1   6    5.97    1.01   4
  -1   1  -6    3.78    0.90   4
  -1   1  -6    4.78    1.23   1
   1   1   6    6.04    1.18   4
   2  -1   6  289.32    7.29   4
  -2  -1  -6  272.93    7.50   1
  -2   1  -6  285.99    7.51   1
   2   1   6  269.25    7.50   4
   3  -1   6   15.98    1.77   4
   3   1   6   16.35    1.90   4
  -3   1  -6   15.36    1.80   1
   4  -1   6    2.71    1.31   4
   4   1   6    2.08    1.42   4
  -5  -1  -6    1.68    1.11   2
   5   1   6    1.32    1.53   4
  -5   1  -6    3.03    1.39   2
   6   1   6    1.37    1.72   4
  -6   1  -6    2.05    1.49   2
 -10  -2   6   16.65    2.77   3
 -10   2   6    9.66    2.29   3
  -9  -2   6   10.06    2.02   3
   9   2  -6    8.52    1.53   1
  -9   2   6    7.88    2.10   3
   8  -2  -6    0.07    0.93   1
  -8  -2   6    0.48    1.27   3
   8   2  -6    1.86    1.32   1
  -8   2   6   -1.34    1.46   3
   7  -2  -6    0.94    1.00   1
  -7  -2   6    0.68    1.53   3
   7   2  -6    0.96    1.09   1
  -7   2   6    2.12    1.21   3
  -6  -2   6   62.57    3.49   3
   6  -2  -6   57.14    2.75   1
   6   2  -6   55.46    2.86   1
  -6   2   6   54.77    3.05   3
  -5  -2   6   15.69    1.96   3
   5  -2  -6   17.83    1.77   1
  -5   2   6   13.53    1.67   3
   5   2  -6   19.89    2.00   1
  -4  -2   6   -1.12    0.91   3
   4  -2  -6    0.89    0.89   1
   4   2  -6    0.43    0.99   1
  -3  -2   6   87.77    3.31   3
   3  -2  -6   91.80    3.37   1
   3   2  -6   88.42    3.37   1
  -2  -2   6   12.00    1.00   4
   2  -2  -6   11.76    1.47   1
  -2  -2   6   13.44    1.43   3
  -2   2   6   11.51    1.40   4
   2   2  -6   12.86    1.32   1
  -1  -2   6   70.79    2.72   3
   1  -2  -6   72.08    3.07   1
  -1  -2   6   68.70    2.23   4
  -1   2   6   76.07    2.95   4
   1   2  -6   75.24    3.01   1
   0  -2  -6  133.37    4.47   1
   0  -2   6  134.21    3.65   4
   0  -2   6  133.84    3.90   3
   0   2  -6  136.81    4.25   1
   0   2   6  136.75    4.35   4
   1  -2   6   60.38    2.30   4
  -1  -2  -6   55.57    2.89   1
   1  -2   6   56.47    2.17   3
   1   2   6   58.19    2.82   4
  -1   2  -6   59.82    2.25   4
  -1   2  -6   59.99    2.77   1
   2  -2   6    1.61    0.61   3
   2  -2   6    1.84    0.92   4
  -2   2  -6    0.49    1.14   1
   2   2   6    1.31    0.93   4
  -2   2  -6    1.95    0.89   4
   3  -2   6   -0.07    1.08   4
  -3   2  -6   -0.98    0.99   1
   3   2   6   -0.62    1.22   4
   4   2   6    5.61    1.66   4
  -5  -2  -6    0.08    0.93   2
   5   2   6    0.67    1.59   4
  -5   2  -6   -0.70    1.24   2
  -6   2  -6    0.66    1.41   2
   6   2   6   -1.54    1.72   4
 -10  -3   6   11.92    2.55   3
 -10   3   6    6.08    2.17   3
  -9  -3   6    1.52    1.89   3
   9   3  -6    2.55    1.45   1
  -9   3   6    0.05    1.73   3
  -8  -3   6   32.56    2.93   3
   8   3  -6   37.04    2.69   1
  -8   3   6   40.67    3.37   3
   7  -3  -6   78.12    3.07   1
  -7  -3   6   75.33    3.87   3
  -7   3   6   80.95    4.04   3
   7   3  -6   75.86    3.49   1
   6  -3  -6  470.90   10.92   1
  -6  -3   6  443.38   11.80   3
  -6   3   6  442.43   11.65   3
   6   3  -6  477.24   11.39   1
   5  -3  -6  694.95   15.82   1
  -5  -3   6  711.63   16.68   3
   5   3  -6  704.97   16.14   1
   4  -3  -6  137.14    4.38   1
  -4  -3   6  137.61    4.66   3
   4   3  -6  140.21    4.58   1
  -3  -3   6  241.07    6.69   3
   3  -3  -6  238.03    6.47   1
   3   3  -6  242.36    6.56   1
  -2  -3   6  139.14    4.31   3
  -2  -3   6  133.40    3.41   4
   2  -3  -6  137.39    4.43   1
   2   3  -6  137.31    4.39   1
  -2   3   6  131.42    4.29   4
   1  -3  -6   65.08    2.82   1
  -1  -3   6   63.73    2.55   3
  -1  -3   6   62.35    1.87   4
   1   3  -6   61.57    2.66   1
  -1   3   6   68.30    2.80   4
   0  -3   6    2.98    0.82   3
   0  -3   6    3.81    0.64   4
   0  -3  -6    2.55    0.98   1
   0   3   6    3.94    1.00   4
   0   3  -6    4.46    1.19   1
  -1  -3  -6    2.25    0.97   1
   1  -3   6    0.55    0.57   3
   1  -3   6   -0.23    0.61   4
  -1   3  -6   -0.97    0.53   4
  -1   3  -6    0.30    1.00   1
   1   3   6   -1.27    1.00   4
   2  -3   6   46.26    2.16   4
   2  -3   6   42.23    1.49   3
  -2   3  -6   45.18    2.53   1
   2   3   6   47.73    2.95   4
  -3   3  -6   43.25    2.58   1
   3   3   6   37.80    2.61   4
  -4   3  -6   18.86    2.00   1
   4   3   6   18.44    2.32   4
  -5   3  -6    8.26    1.89   2
   5   3   6    6.66    2.04   4
  -6   3  -6    7.77    1.93   2
   6   3   6    5.97    2.29   4
  -9  -4   6    7.04    2.33   3
   9   4  -6    4.97    1.64   1
  -9   4   6    4.70    1.68   3
  -8  -4   6    2.91    1.44   3
   8   4  -6    3.48    1.49   1
  -8   4   6    3.24    1.78   3
  -7  -4   6    6.98    1.88   3
   7  -4  -6    4.01    1.13   1
   7   4  -6    3.70    1.52   1
  -7   4   6    3.77    1.78   3
   6  -4  -6    2.37    1.03   1
  -6  -4   6    3.40    1.63   3
  -6   4   6    1.58    1.16   3
   6   4  -6   -0.51    1.28   1
  -5  -4   6  163.05    4.83   4
   5  -4  -6  176.48    5.16   1
  -5  -4   6  175.19    5.87   3
   5   4  -6  168.89    5.36   1
  -4  -4   6   23.12    1.92   3
  -4  -4   6   23.88    1.44   4
   4  -4  -6   21.99    1.90   1
   4   4  -6   24.74    2.14   1
  -3  -4   6   13.48    1.62   3
   3  -4  -6   13.56    1.59   1
  -3  -4   6   12.42    0.93   4
   3   4  -6   11.35    1.41   1
  -2  -4   6    1.29    0.33   4
   2  -4  -6    1.44    0.81   1
  -2  -4   6    1.81    0.91   3
   2   4  -6    0.71    0.76   1
  -2   4   6    0.76    1.11   4
   1  -4  -6   15.42    1.61   1
  -1  -4   6   14.49    1.40   3
  -1   4   6   13.42    1.55   4
   1   4  -6   17.87    1.79   1
   0  -4   6   20.30    1.43   3
   0  -4  -6   21.23    1.83   1
   0   4  -6   19.18    1.64   1
   0   4   6   23.48    2.21   4
   1  -4   6    5.38    0.74   3
  -1   4  -6    4.22    1.19   1
   1   4   6    6.72    1.54   4
  -2   4  -6    1.91    0.71   4
   2   4   6    5.10    1.62   4
  -3   4  -6    1.76    1.15   1
   3   4   6   -0.32    1.39   4
   4   4   6    0.10    1.53   4
  -4   4  -6    1.15    1.04   1
  -5   4  -6    2.06    1.57   2
   5   4   6    0.91    1.36   4
  -6   4  -6    0.48    1.54   2
   6   4   6    1.66    2.01   4
  -9  -5   6   14.05    2.71   3
   9   5  -6   10.55    1.99   1
  -9   5   6   14.59    2.52   3
  -8  -5   6   64.64    3.97   3
  -8   5   6   68.81    4.07   3
   8   5  -6   68.66    3.73   1
   7  -5  -6  100.41    3.53   1
  -7  -5   6  108.09    5.03   3
   7   5  -6  102.07    4.40   1
  -7   5   6  106.09    4.75   3
  -6  -5   6   84.62    4.01   3
   6  -5  -6   88.03    3.29   1
   6   5  -6   85.61    3.70   1
  -5  -5   6   99.51    3.42   4
   5  -5  -6  106.81    3.81   1
  -5  -5   6  103.31    4.26   3
   5   5  -6  111.88    4.32   1
  -4  -5   6   72.80    3.42   3
   4  -5  -6   60.22    2.90   1
  -4  -5   6   62.86    2.27   4
   4   5  -6   67.27    3.28   1
   3  -5  -6   19.49    1.94   1
  -3  -5   6   18.53    1.90   3
  -3  -5   6   20.01    0.97   4
   3   5  -6   17.80    1.74   1
  -3   5   6   20.11    2.10   4
   2  -5  -6   24.77    1.91   1
  -2  -5   6   31.79    2.03   3
   2   5  -6   25.31    1.88   1
  -2   5   6   22.23    1.95   4
  -1  -5   6   31.25    1.87   3
   1   5  -6   29.08    2.24   1
  -1   5   6   29.38    2.42   4
   0  -5   6   80.73    2.77   3
   0   5   6   80.02    3.69   4
   0   5  -6   74.63    3.20   1
   1  -5   6  111.65    3.12   3
  -1   5  -6  117.06    4.06   1
   1   5   6  118.17    4.63   4
  -2   5  -6  153.64    4.94   1
   2   5   6  163.95    5.78   4
  -3   5  -6   50.80    2.71   1
   3   5   6   47.35    3.42   4
   4   5   6   34.61    3.30   4
  -4   5  -6   30.50    2.09   1
  -5   5  -6   52.58    3.30   2
   5   5   6   56.28    3.75   4
  -9  -6   6   -1.89    1.76   3
  -9   6   6    1.36    1.87   3
   9   6  -6   -1.80    1.47   1
  -8  -6   6    1.36    1.84   3
   8   6  -6   -0.83    1.47   1
  -8   6   6    0.01    1.72   3
  -7  -6   6    2.74    1.79   3
  -7   6   6   -1.45    1.54   3
   7   6  -6    1.36    1.57   1
  -6  -6   6   18.29    2.41   3
   6   6  -6   16.14    2.17   1
  -5  -6   6   30.51    2.75   3
   5   6  -6   27.58    2.24   1
  -4  -6   6   21.93    1.53   4
  -4  -6   6   22.71    2.34   3
   4   6  -6   24.33    2.06   1
  -3  -6   6   15.43    1.81   3
  -3  -6   6   14.51    0.64   4
   3   6  -6   15.13    1.94   1
  -3   6   6   13.66    1.95   4
  -2  -6   6  117.17    4.18   3
  -2   6   6  120.24    4.48   4
   2   6  -6  130.31    4.52   1
  -1  -6   6   73.09    2.99   3
  -1   6   6   86.14    3.84   4
   1   6  -6   69.54    3.11   1
   0  -6   6   10.28    1.14   3
   0  -6  -6   11.27    1.27   2
   0   6  -6    7.95    1.28   1
   0   6   6    7.95    1.79   4
   1  -6   6    1.03    0.58   3
   1   6   6    2.17    1.22   4
  -1   6  -6    3.21    1.25   1
  -2   6  -6    0.25    1.09   1
   2   6   6    1.96    1.22   4
  -3   6  -6   13.98    1.68   1
   3   6   6    9.56    1.85   4
   4   6   6    0.81    1.64   4
  -4   6  -6    0.22    1.06   1
  -5   6  -6    1.02    1.68   2
   5   6   6    0.42    1.92   4
  -9  -7   6    8.97    2.26   3
   9   7  -6   11.89    2.31   1
  -9   7   6   11.88    2.35   3
  -8  -7   6   21.47    3.03   3
   8   7  -6   19.94    2.63   1
  -8   7   6   20.20    2.77   3
  -7  -7   6   14.54    2.50   3
   7   7  -6   11.64    2.23   1
  -6  -7   6   15.68    2.21   3
   6   7  -6   14.65    2.22   1
  -5  -7   6   72.70    3.86   3
   5   7  -6   62.78    3.30   1
  -4  -7   6   57.08    3.23   3
   4   7  -6   52.45    2.93   1
  -3  -7   6  124.21    4.64   3
   3   7  -6  127.70    4.76   1
  -3   7   6  126.54    5.02   4
  -2  -7   6  130.21    4.53   3
   2   7  -6  128.50    4.60   1
  -2   7   6  136.77    5.09   4
  -1  -7   6    0.15    0.77   3
   1   7  -6    0.93    1.21   1
  -1   7   6    0.02    1.02   4
   0  -7   6    7.38    1.02   3
   0   7  -6    8.12    1.52   1
   0   7   6    5.80    1.69   4
  -1   7  -6    6.02    1.44   1
   1   7   6    5.28    1.77   4
  -2   7  -6    3.96    1.23   1
   2   7   6    3.06    1.63   4
   3   7   6    0.99    1.68   4
  -3   7  -6    4.21    1.28   1
   4   7   6    0.07    1.83   4
  -5   7  -6    2.56    1.46   2
   5   7   6   -0.45    2.04   4
  -8  -8   6    7.01    2.40   3
   8   8  -6    6.19    1.78   1
  -8   8   6    7.98    2.26   3
  -7  -8   6    4.06    2.04   3
   7   8  -6    3.63    1.95   1
  -6  -8   6   -1.81    1.43   3
   6   8  -6   -2.72    1.46   1
  -5  -8   6    5.77    1.53   3
   5   8  -6    4.03    1.37   1
  -4  -8   6   12.58    1.85   3
   4   8  -6    9.96    1.68   1
  -4   8   6   11.68    1.88   4
  -3  -8   6   67.93    3.48   3
  -3   8   6   70.01    3.90   4
   3   8  -6   68.11    3.59   1
  -2  -8   6   12.50    1.67   3
   2   8  -6   12.87    1.70   1
  -2   8   6   11.38    2.03   4
  -1  -8   6   26.55    1.98   3
   1   8  -6   27.90    2.43   1
  -1   8   6   28.84    2.89   4
   0  -8   6   57.65    2.43   3
   0   8  -6   58.34    3.05   1
   0   8   6   61.25    3.72   4
  -1   8  -6   15.52    1.79   1
   1   8   6   15.90    2.32   4
  -2   8  -6   10.66    1.56   1
   2   8   6   12.28    2.29   4
  -3   8  -6    4.84    1.34   1
   3   8   6    5.07    2.07   4
   4   8   6    0.90    2.00   4
  -4   8  -6    4.07    1.58   2
  -8  -9   6    0.66    2.00   3
   8   9  -6    2.12    2.04   1
  -8   9   6    1.63    1.99   3
  -7  -9   6   20.94    2.92   3
   7   9  -6   19.83    2.70   1
  -6  -9   6   23.60    2.94   3
   6   9  -6   27.13    2.65   1
  -5  -9   6    5.03    1.83   3
   5   9  -6    8.71    2.11   1
  -4  -9   6    4.14    1.57   3
  -4   9   6    1.28    1.64   4
   4   9  -6    0.00    1.48   1
  -3  -9   6    6.79    1.64   3
   3   9  -6    4.42    1.70   1
  -3   9   6    4.46    1.73   4
  -2  -9   6   15.73    1.92   3
  -2   9   6   12.69    2.13   4
   2   9  -6   13.50    1.81   1
  -1  -9   6    4.71    1.17   3
  -1   9   6    7.27    1.62   4
   1   9  -6    3.12    1.50   1
   0  -9   6    1.77    0.98   3
   0   9  -6    2.09    1.07   1
   0   9   6    2.42    1.32   4
   1   9   6    7.49    1.77   4
  -1   9  -6    7.69    1.55   1
  -2   9  -6    2.51    1.18   1
   2   9   6    6.28    2.13   4
  -3   9  -6   -1.45    1.26   1
   3   9   6   -1.22    1.29   4
  -4   9  -6   -0.96    1.25   2
   4   9   6    0.73    2.13   4
  -7 -10   6    3.66    2.06   3
   7  10  -6   -0.33    1.77   1
  -6 -10   6   -0.06    1.70   3
   6  10  -6    0.76    1.81   1
  -5 -10   6    2.60    1.75   3
  -5  10   6    2.12    1.57   4
   5  10  -6    0.63    1.32   1
  -4 -10   6    3.26    1.27   3
  -4  10   6    1.34    1.38   4
   4  10  -6    4.15    1.78   1
  -3 -10   6   17.16    2.18   3
   3  10  -6   20.43    2.32   1
  -3  10   6   21.36    2.50   4
  -2 -10   6    6.34    1.49   3
   2  10  -6    4.38    1.70   1
  -2  10   6    7.85    2.03   4
  -1 -10   6   33.31    2.22   3
   1  10  -6   32.55    2.83   1
  -1  10   6   32.44    2.86   4
   0  10   6   71.23    4.43   4
   0  10  -6   75.97    3.67   1
  -1  10  -6   74.53    3.55   1
   1  10   6   70.81    4.12   4
   2  10   6   20.68    2.98   4
  -2  10  -6   25.31    2.20   1
   3  10   6    2.44    1.62   4
  -6 -11   6   13.72    2.62   3
   6  11  -6   14.79    2.69   1
  -5 -11   6   54.32    4.00   3
  -5  11   6   51.42    4.20   4
   5  11  -6   46.06    3.75   1
  -4 -11   6   54.03    3.80   3
   4  11  -6   58.12    3.93   1
  -4  11   6   59.65    4.24   4
  -3 -11   6   20.48    2.48   3
   3  11  -6   20.74    2.67   1
  -3  11   6   15.48    2.31   4
  -2 -11   6   -0.42    1.15   3
   2  11  -6    0.73    1.17   1
  -2  11   6    1.12    1.80   4
  -1 -11   6    3.43    1.20   3
  -1  11   6    2.79    1.97   4
   1  11  -6    2.48    1.26   1
   0  11  -6    3.50    1.58   1
   0  11   6    1.04    1.46   4
   1  11   6    4.08    2.13   4
  -1  11  -6    6.13    1.63   1
   2  11   6    4.19    1.84   4
  -2  11  -6    4.54    1.41   1
  -5 -12   6    3.32    1.57   3
  -5  12   6    2.13    1.66   4
   5  12  -6    1.95    1.95   1
  -4 -12   6   10.12    2.20   3
   4  12  -6    8.52    2.28   1
  -4  12   6    7.95    2.37   4
  -3 -12   6   15.57    2.34   3
   3  12  -6   12.71    2.38   1
  -3  12   6   12.81    2.68   4
  -2 -12   6    2.85    1.54   3
   2  12  -6    5.29    1.95   1
  -2  12   6    5.43    2.18   4
  -1  12   6    4.82    2.18   4
   1  12  -6    1.01    1.61   1
   0  12  -6    6.79    1.76   1
   0  12   6    9.38    2.46   4
   1  12   6   -1.03    1.42   4
  -1  12  -6   -0.35    1.40   1
  -3 -13   6   53.49    3.74   3
   3  13  -6   47.10    3.90   1
  -3  13   6   55.14    4.32   4
   2  13  -6   31.84    3.35   1
  -2  13   6   36.53    3.86   4
  -1  13   6    0.65    2.09   4
   1  13  -6    1.03    1.67   1
 -10   0   7   -2.07    1.90   3
  -9   0   7   -0.62    1.32   3
   8   0  -7   -2.02    1.14   1
  -8   0   7   -3.93    1.57   3
   7   0  -7   -1.25    1.08   1
  -7   0   7   -0.91    1.49   3
   6   0  -7   -0.74    0.80   1
  -6   0   7   -0.99    1.01   3
   5   0  -7   -2.09    1.13   1
  -5   0   7   -2.84    1.16   3
  -4   0   7   -0.34    1.13   3
   4   0  -7   -0.87    0.78   1
  -3   0   7    0.46    0.75   4
  -3   0   7   -0.51    0.69   3
   3   0  -7   -1.28    1.01   1
  -2   0   7   -0.69    0.65   4
   2   0  -7   -1.89    0.97   1
   1   0  -7   -0.72    0.77   1
  -1   0   7    0.56    0.83   4
   0   0  -7   -0.40    0.85   1
   0   0   7   -0.24    0.83   4
   1   0   7    7.31    1.29   4
  -1   0  -7    4.18    1.17   1
   3   0   7    0.33    1.29   4
  -3   0  -7    0.16    1.19   1
   4   0   7   -1.58    1.26   4
   5   0   7   -2.50    1.34   4
 -10  -1   7    5.89    2.32   3
 -10   1   7    3.03    1.78   3
  -9  -1   7    5.05    1.83   3
  -9   1   7    5.31    2.14   3
   9   1  -7    3.21    1.35   1
  -8  -1   7   34.29    3.50   3
   8  -1  -7   35.22    2.56   1
   8   1  -7   34.95    2.69   1
  -8   1   7   35.55    2.95   3
  -7  -1   7   38.77    3.28   3
   7  -1  -7   35.99    2.42   1
   7   1  -7   34.51    2.48   1
  -7   1   7   35.65    3.17   3
  -6  -1   7   47.94    3.26   3
   6  -1  -7   49.85    2.70   1
  -6   1   7   47.03    3.28   3
   6   1  -7   46.25    2.81   1
   5  -1  -7  131.51    4.44   1
  -5  -1   7  121.40    4.62   3
   5   1  -7  121.69    4.27   1
  -5   1   7  122.70    4.64   3
  -4  -1   7   91.21    3.68   3
   4  -1  -7   81.41    3.35   1
  -4   1   7   90.52    3.93   3
   4   1  -7   92.25    3.68   1
  -3  -1   7   14.45    1.57   3
   3  -1  -7   18.13    1.89   1
  -3   1   7   15.51    1.59   4
   3   1  -7   13.84    1.55   1
   2  -1  -7   14.83    1.80   1
  -2  -1   7   17.08    1.79   3
  -2  -1   7   19.81    1.47   4
  -2   1   7   17.75    1.78   4
   2   1  -7   16.91    1.65   1
   1  -1  -7    6.87    1.28   1
  -1  -1   7    7.57    1.28   3
  -1  -1   7    6.80    1.02   4
   1   1  -7    8.61    1.50   1
  -1   1   7    7.90    1.24   4
   0  -1   7   14.92    1.45   4
   0  -1  -7   14.53    1.89   1
   0   1   7   15.29    1.59   4
   0   1  -7   14.57    1.84   1
   1  -1   7   25.15    1.91   4
  -1  -1  -7   23.41    2.42   1
   1   1   7   19.48    2.02   4
  -1   1  -7   20.71    2.16   1
   2  -1   7    8.77    1.49   4
  -2  -1  -7   11.52    1.90   1
   2   1   7    6.22    1.48   4
  -2   1  -7   10.64    1.78   1
   3  -1   7   19.71    2.10   4
   3   1   7   18.15    2.18   4
  -3   1  -7   19.93    2.20   1
   4  -1   7    8.82    1.89   4
   4   1   7   13.29    2.09   4
  -5  -1  -7    7.29    2.33   2
   5   1   7    4.42    1.81   4
  -9  -2   7   21.15    2.98   3
   9   2  -7   16.55    2.11   1
  -9   2   7   17.62    2.69   3
  -8  -2   7    9.01    2.25   3
   8  -2  -7   11.92    1.57   1
  -8   2   7   10.34    1.94   3
   8   2  -7    9.50    1.75   1
  -7  -2   7   -0.46    1.53   3
   7  -2  -7   -0.14    0.95   1
   7   2  -7   -0.68    1.22   1
  -7   2   7   -0.70    1.48   3
  -6  -2   7   61.49    3.66   3
   6  -2  -7   62.46    2.98   1
   6   2  -7   62.58    3.23   1
  -6   2   7   52.92    3.53   3
  -5  -2   7   40.77    2.95   3
   5  -2  -7   46.67    2.63   1
   5   2  -7   41.47    2.77   1
  -5   2   7   41.26    2.69   3
   4  -2  -7   24.71    1.93   1
  -4  -2   7   25.81    2.05   3
   4   2  -7   27.26    2.26   1
   3  -2  -7   48.72    2.77   1
  -3  -2   7   52.78    2.78   3
  -3  -2   7   49.74    2.10   4
   3   2  -7   51.21    2.80   1
  -3   2   7   45.68    2.59   4
   2  -2  -7  388.69    9.79   1
  -2  -2   7  388.55    8.79   4
  -2  -2   7  378.36    9.57   3
   2   2  -7  389.80    9.76   1
  -2   2   7  369.27    9.50   4
   1  -2  -7  205.17    6.16   1
  -1  -2   7  202.40    5.70   3
  -1  -2   7  198.05    5.09   4
   1   2  -7  200.84    5.99   1
  -1   2   7  201.96    5.88   4
   0  -2  -7  122.30    4.41   1
   0  -2   7  123.66    3.63   4
   0  -2   7  122.59    3.92   3
   0   2  -7  123.31    4.40   1
   0   2   7  125.66    4.36   4
  -1  -2  -7    8.58    1.74   1
   1  -2   7    6.43    1.08   4
   1  -2   7    7.23    1.05   3
   1   2   7    6.65    1.45   4
  -1   2  -7    5.52    1.54   1
   2  -2   7    4.09    1.16   4
  -2   2  -7    5.57    1.51   1
   2   2   7    5.30    1.42   4
   3  -2   7    7.45    1.54   4
  -3   2  -7    6.51    1.47   1
   3   2   7    4.66    1.57   4
   4   2   7   -0.59    1.37   4
   5   2   7   -1.21    1.61   4
  -9  -3   7   -0.44    1.85   3
  -9   3   7    1.09    1.91   3
   9   3  -7   -1.47    1.40   1
  -8  -3   7    1.37    1.86   3
   8  -3  -7   -0.08    1.06   1
  -8   3   7    0.29    1.75   3
   8   3  -7    0.44    1.41   1
   7  -3  -7    1.70    1.09   1
  -7  -3   7    1.12    1.63   3
  -7   3   7    1.58    1.68   3
   7   3  -7   -2.23    1.20   1
  -6  -3   7    1.63    1.17   3
   6  -3  -7    2.84    1.18   1
  -6   3   7   -0.32    1.42   3
   6   3  -7    0.22    1.30   1
   5  -3  -7   27.32    2.25   1
  -5  -3   7   28.96    2.72   3
   5   3  -7   29.59    2.53   1
  -4  -3   7   41.08    2.53   3
   4  -3  -7   40.75    2.63   1
   4   3  -7   41.36    2.69   1
   3  -3  -7   28.71    2.42   1
  -3  -3   7   31.53    2.30   3
  -3  -3   7   30.57    1.58   4
   3   3  -7   30.79    2.37   1
  -3   3   7   31.36    2.35   4
  -2  -3   7   33.75    2.20   3
   2  -3  -7   27.36    2.09   1
  -2  -3   7   28.13    1.37   4
  -2   3   7   29.25    2.01   4
   2   3  -7   29.74    2.38   1
  -1  -3   7    8.08    0.79   4
  -1  -3   7    8.70    1.27   3
   1  -3  -7    8.63    1.46   1
   1   3  -7    8.07    1.33   1
  -1   3   7    7.32    1.45   4
   0  -3   7   10.58    1.25   3
   0  -3  -7    9.55    1.85   1
   0  -3   7   11.94    1.08   4
   0   3  -7    9.67    1.47   1
   0   3   7    9.76    1.57   4
   1  -3   7    1.03    0.69   3
   1  -3   7    0.46    0.69   4
  -1  -3  -7    2.42    1.38   1
   1   3   7    1.84    1.00   4
  -1   3  -7   -0.64    1.13   1
   2  -3   7    0.23    0.80   4
   2   3   7    2.24    1.43   4
  -2   3  -7   -0.84    1.11   1
  -3   3  -7    1.44    1.21   1
   3   3   7    0.83    1.46   4
  -4   3  -7    6.35    1.51   1
   4   3   7    3.93    1.82   4
   5   3   7    0.24    1.78   4
  -9  -4   7   19.83    3.00   3
  -9   4   7   19.29    2.80   3
   9   4  -7   18.62    2.36   1
  -8  -4   7    7.89    2.22   3
   8   4  -7   10.36    2.02   1
  -8   4   7   11.71    2.12   3
   7  -4  -7   22.60    1.99   1
  -7  -4   7   16.61    2.28   3
  -7   4   7   17.73    2.32   3
   7   4  -7   19.36    2.34   1
   6  -4  -7   15.02    1.76   1
  -6  -4   7   18.86    2.40   3
  -6   4   7   16.08    2.19   3
   6   4  -7   14.47    2.03   1
   5  -4  -7   64.55    3.18   1
  -5  -4   7   65.26    3.61   3
   5   4  -7   70.11    3.50   1
   4  -4  -7   92.55    3.83   1
  -4  -4   7   92.89    3.87   3
   4   4  -7   93.36    3.94   1
   3  -4  -7   97.43    4.00   1
  -3  -4   7   93.82    2.70   4
  -3  -4   7   96.97    3.90   3
   3   4  -7   92.90    3.90   1
  -3   4   7   98.79    4.09   4
  -2  -4   7   87.54    2.26   4
  -2  -4   7   89.20    3.56   3
   2  -4  -7   88.11    3.67   1
   2   4  -7   91.24    3.79   1
  -2   4   7   95.74    3.94   4
  -1  -4   7  143.43    3.34   4
  -1  -4   7  157.29    4.71   3
   1  -4  -7  153.69    5.28   1
   1   4  -7  142.77    4.83   1
  -1   4   7  152.33    5.22   4
   0  -4  -7  199.86    6.30   1
   0  -4   7  196.20    5.32   3
   0   4   7  194.19    6.25   4
   0   4  -7  192.75    5.84   1
   1   4   7  159.80    5.52   4
  -1   4  -7  151.70    5.12   1
   2   4   7   17.29    2.28   4
  -2   4  -7   19.55    2.05   1
  -3   4  -7   15.51    1.87   1
   3   4   7   15.19    2.28   4
   4   4   7    3.24    1.83   4
  -4   4  -7    4.29    1.37   1
   5   4   7   -0.07    1.82   4
  -5   4  -7    2.73    1.73   2
  -9  -5   7    2.14    1.66   3
   9   5  -7    0.82    1.68   1
  -9   5   7   -0.89    1.84   3
  -8  -5   7    1.36    1.91   3
  -8   5   7   -2.71    1.63   3
   8   5  -7    0.09    1.45   1
  -7  -5   7    7.26    1.74   3
   7  -5  -7    9.76    1.46   1
   7   5  -7    8.35    1.66   1
  -7   5   7   11.30    2.26   3
   6  -5  -7    1.78    1.26   1
  -6  -5   7    3.34    1.36   3
   6   5  -7    2.79    1.47   1
   5  -5  -7    8.72    1.53   1
  -5  -5   7    8.07    1.57   3
   5   5  -7    9.61    1.57   1
   4  -5  -7   24.89    2.41   1
  -4  -5   7   26.93    2.41   3
   4   5  -7   20.20    2.02   1
  -3  -5   7   46.03    1.40   4
  -3  -5   7   44.32    2.76   3
   3  -5  -7   48.43    3.05   1
  -3   5   7   49.78    2.87   4
   3   5  -7   48.91    3.01   1
   2  -5  -7   23.29    2.32   1
  -2  -5   7   22.94    2.02   3
  -2   5   7   23.84    2.51   4
   2   5  -7   23.52    2.41   1
  -1  -5   7    4.92    1.07   3
   1   5  -7    2.93    1.06   1
  -1   5   7    3.24    1.52   4
   0  -5   7   -0.05    0.75   3
   0   5  -7    2.31    1.04   1
   0   5   7   -0.31    1.07   4
  -1   5  -7    5.90    1.45   1
   1   5   7    6.42    1.78   4
   2   5   7    0.45    1.50   4
  -2   5  -7    0.67    1.15   1
  -3   5  -7    3.26    1.42   1
   3   5   7    2.93    1.80   4
   4   5   7    4.03    2.00   4
  -9  -6   7    0.69    1.97   3
  -9   6   7   -0.41    1.92   3
   9   6  -7   -0.91    1.67   1
  -8  -6   7   -0.91    1.82   3
  -8   6   7   -1.69    1.63   3
   8   6  -7    0.32    1.74   1
  -7  -6   7    2.86    1.91   3
  -7   6   7   -0.40    1.29   3
   7   6  -7   -0.46    1.61   1
  -6  -6   7   15.43    2.43   3
   6  -6  -7   15.30    1.79   1
   6   6  -7   14.82    1.98   1
  -5  -6   7    1.67    1.41   3
   5  -6  -7   -0.89    1.06   1
   5   6  -7   -1.70    1.37   1
   4  -6  -7   -0.12    1.21   1
  -4  -6   7    1.94    1.02   3
  -4   6   7    1.07    1.17   4
   4   6  -7    0.40    1.35   1
  -3  -6   7  140.82    4.96   3
  -3   6   7  138.61    5.12   4
   3   6  -7  135.25    4.87   1
  -2  -6   7  160.98    5.14   3
   2   6  -7  159.29    5.27   1
  -2   6   7  151.80    5.43   4
  -1  -6   7   15.83    1.69   3
   1   6  -7   15.04    1.96   1
  -1   6   7   10.66    2.11   4
   0  -6   7   64.02    2.60   3
   0   6   7   68.57    3.55   4
   0   6  -7   68.79    3.37   1
  -1   6  -7   44.76    2.78   1
   1   6   7   39.05    2.91   4
  -2   6  -7   15.00    1.85   1
   2   6   7   14.27    2.35   4
  -3   6  -7    1.47    1.33   1
   3   6   7    3.35    1.57   4
   4   6   7    1.41    2.07   4
  -8  -7   7    2.57    2.12   3
   8   7  -7   -2.36    1.69   1
  -8   7   7   -2.09    1.23   3
  -7  -7   7    4.56    2.11   3
   7   7  -7    4.68    2.06   1
  -6  -7   7   32.72    3.30   3
   6   7  -7   30.64    3.06   1
  -5  -7   7   56.34    3.60   3
   5   7  -7   58.25    3.64   1
  -4  -7   7   28.20    2.37   3
  -4   7   7   34.65    3.05   4
   4   7  -7   29.29    2.87   1
  -3  -7   7   -1.01    1.03   3
  -3   7   7    2.51    1.30   4
   3   7  -7    0.58    1.36   1
  -2  -7   7   33.38    2.35   3
   2   7  -7   42.93    2.91   1
  -2   7   7   36.97    3.09   4
  -1  -7   7   44.71    2.45   3
  -1   7   7   49.30    3.40   4
   1   7  -7   45.11    2.70   1
   0   7  -7   20.37    2.14   1
   0   7   7   23.68    2.45   4
   1   7   7    7.89    1.74   4
  -1   7  -7    9.03    1.69   1
  -2   7  -7    2.71    1.39   1
   2   7   7    3.98    1.88   4
  -3   7  -7    0.75    1.33   1
   3   7   7    0.29    1.89   4
   4   7   7    4.13    1.83   4
  -8  -8   7    1.49    2.05   3
   8   8  -7   -1.80    1.74   1
  -8   8   7    1.36    1.62   3
  -7  -8   7   -2.88    1.70   3
   7   8  -7    0.89    1.84   1
  -6  -8   7    1.62    1.37   3
   6   8  -7    0.07    1.31   1
  -5  -8   7   20.97    2.64   3
   5   8  -7   21.89    2.69   1
  -4  -8   7   14.47    2.15   3
  -4   8   7   13.73    2.32   4
   4   8  -7   16.09    2.33   1
  -3  -8   7   13.42    1.95   3
  -3   8   7   15.07    2.31   4
   3   8  -7   15.47    2.24   1
  -2  -8   7   -0.19    0.96   3
   2   8  -7   -0.85    1.39   1
  -2   8   7    0.26    1.43   4
  -1  -8   7    1.61    1.07   3
  -1   8   7    3.99    1.73   4
   1   8  -7    3.65    1.56   1
   0   8   7   -0.60    1.18   4
   0   8  -7   -1.27    1.26   1
   1   8   7    3.13    1.52   4
  -1   8  -7    1.99    1.33   1
  -2   8  -7    2.05    1.50   1
   2   8   7    1.28    1.89   4
   3   8   7    1.48    1.59   4
  -7  -9   7   41.19    4.02   3
   7   9  -7   35.51    3.09   1
  -6  -9   7   10.24    2.27   3
   6   9  -7   10.73    2.28   1
  -5  -9   7   20.02    2.59   3
   5   9  -7   20.74    2.69   1
  -5   9   7   18.96    2.84   4
  -4  -9   7   30.79    2.94   3
  -4   9   7   33.76    3.51   4
   4   9  -7   33.11    3.13   1
  -3  -9   7   49.77    3.17   3
   3   9  -7   41.35    2.96   1
  -3   9   7   49.08    3.70   4
  -2  -9   7   23.33    2.34   3
  -2   9   7   25.17    2.59   4
   2   9  -7   21.91    2.52   1
  -1  -9   7    1.66    0.96   3
  -1   9   7    0.13    1.68   4
   1   9  -7    0.28    1.40   1
   0   9  -7    4.14    1.60   1
   0   9   7    7.23    2.17   4
   1   9   7   19.79    2.53   4
  -1   9  -7   15.95    2.05   1
   2   9   7    4.66    2.18   4
  -2   9  -7    1.30    1.31   1
   3   9   7    2.78    1.72   4
  -6 -10   7    2.42    1.88   3
   6  10  -7    2.01    1.96   1
  -5 -10   7   19.55    2.73   3
   5  10  -7   19.73    2.75   1
  -5  10   7   25.61    2.92   4
  -4 -10   7   45.15    3.37   3
  -4  10   7   45.78    3.99   4
   4  10  -7   41.77    3.10   1
  -3 -10   7   27.75    2.86   3
  -3  10   7   27.47    3.09   4
   3  10  -7   25.35    2.79   1
  -2 -10   7    9.99    1.78   3
  -2  10   7    8.37    1.98   4
   2  10  -7    8.71    1.76   1
   1  10  -7   44.92    3.00   1
  -1  10   7   52.92    4.06   4
   0  10   7   21.95    3.05   4
   0  10  -7   29.16    2.86   1
   1  10   7    9.23    2.37   4
  -1  10  -7    9.78    1.79   1
   2  10   7    5.06    2.33   4
  -2  10  -7    2.41    1.42   1
  -5 -11   7    5.28    1.99   3
   5  11  -7   11.88    2.44   1
  -5  11   7    7.93    2.43   4
  -4 -11   7    1.99    1.60   3
  -4  11   7    0.13    1.48   4
   4  11  -7   -0.05    1.79   1
  -3 -11   7    0.14    1.33   3
  -3  11   7    2.54    2.04   4
   3  11  -7    1.85    1.74   1
  -2 -11   7   27.03    2.88   3
   2  11  -7   23.17    2.79   1
  -2  11   7   23.88    3.06   4
  -1  11   7    6.54    1.87   4
   1  11  -7    0.07    1.64   1
   0  11  -7    2.33    1.68   1
   0  11   7    1.61    2.09   4
  -1  11  -7    0.23    1.39   1
   1  11   7   -2.49    1.93   4
  -4 -12   7   13.10    2.38   3
   4  12  -7   12.14    2.58   1
  -4  12   7   14.50    2.54   4
  -3 -12   7   63.41    3.89   3
   3  12  -7   64.77    4.30   1
  -3  12   7   61.12    4.62   4
  -2  12   7   72.30    4.82   4
   2  12  -7   57.83    3.66   1
  -1  12   7   17.60    3.04   4
   1  12  -7   19.91    2.39   1
   9   0  -8    2.16    1.76   1
  -9   0   8   -1.30    1.83   3
   8   0  -8   -0.05    1.31   1
  -8   0   8   -0.65    1.36   3
   7   0  -8    6.21    1.66   1
  -7   0   8    4.86    1.95   3
   6   0  -8   12.83    1.89   1
  -6   0   8    9.50    2.02   3
  -5   0   8   24.46    2.67   3
   5   0  -8   23.87    2.10   1
   4   0  -8   66.03    3.18   1
  -4   0   8   69.88    3.63   3
   3   0  -8   -1.41    1.25   1
  -3   0   8    2.37    1.06   4
  -3   0   8    0.43    1.17   3
  -2   0   8   19.17    1.72   4
   2   0  -8   19.89    2.20   1
   1   0  -8   30.97    2.74   1
  -1   0   8   32.49    2.22   4
   0   0   8  259.58    7.09   4
   0   0  -8  269.10    7.79   1
  -1   0  -8  220.56    6.79   1
   1   0   8  219.51    6.36   4
   2   0   8    6.22    1.54   4
  -2   0  -8    7.89    1.77   1
   3   0   8   13.79    2.04   4
   4   0   8    2.57    1.61   4
  -9  -1   8   -0.40    1.56   3
   9   1  -8   -2.16    1.22   1
  -9   1   8   -1.50    1.89   3
  -8  -1   8   -1.93    1.70   3
   8  -1  -8    0.68    1.30   1
  -8   1   8   -0.14    1.36   3
   8   1  -8    1.75    1.44   1
  -7  -1   8   10.53    2.29   3
   7  -1  -8   12.99    1.93   1
  -7   1   8   14.99    2.45   3
   7   1  -8   13.21    1.95   1
   6  -1  -8   19.66    2.19   1
  -6  -1   8   17.96    2.38   3
  -6   1   8   17.13    2.40   3
   6   1  -8   19.68    2.20   1
   5  -1  -8   12.39    1.93   1
  -5  -1   8   10.62    1.74   3
   5   1  -8    8.42    1.78   1
  -5   1   8   12.53    1.86   3
  -4  -1   8   50.82    2.94   3
   4  -1  -8   63.93    3.33   1
  -4   1   8   58.06    3.15   3
   4   1  -8   57.63    3.24   1
  -3  -1   8   10.98    1.74   3
   3  -1  -8   13.42    1.74   1
  -3  -1   8   13.81    1.42   4
  -3   1   8   12.17    1.60   4
   3   1  -8   13.42    1.92   1
  -2  -1   8   -0.02    1.01   3
  -2  -1   8    2.03    0.92   4
   2  -1  -8    1.07    1.07   1
  -2   1   8    0.63    1.00   4
   2   1  -8   -0.31    1.23   1
  -1  -1   8   -0.10    0.84   4
  -1  -1   8   -1.17    0.89   3
   1  -1  -8   -1.17    0.94   1
  -1   1   8   -0.34    1.00   4
   1   1  -8   -1.84    1.27   1
   0  -1  -8    7.58    1.78   1
   0  -1   8    5.58    1.10   4
   0  -1   8    4.10    1.22   3
   0   1  -8    5.77    1.64   1
   0   1   8    4.13    1.27   4
  -1  -1  -8   16.76    2.08   1
   1  -1   8   14.67    1.64   4
  -1   1  -8   14.98    2.08   1
   1   1   8   21.79    2.17   4
  -2  -1  -8    2.54    1.24   1
   2  -1   8    0.48    1.15   4
   2   1   8    1.84    1.40   4
  -2   1  -8   -0.74    1.29   1
   3  -1   8   -1.05    1.04   4
   3   1   8    1.14    1.43   4
  -3   1  -8    1.18    1.38   1
   4   1   8    0.94    1.58   4
  -9  -2   8    7.36    2.48   3
   9   2  -8    8.40    1.86   1
  -9   2   8    7.22    1.96   3
   8  -2  -8    9.59    1.72   1
  -8  -2   8   16.91    2.75   3
   8   2  -8   16.79    2.24   1
  -8   2   8    9.99    2.49   3
   7  -2  -8   42.64    2.86   1
  -7  -2   8   41.40    3.58   3
   7   2  -8   42.34    2.72   1
  -7   2   8   42.39    3.17   3
  -6  -2   8    1.93    1.28   3
   6  -2  -8    3.49    1.47   1
  -6   2   8    0.76    1.59   3
   6   2  -8    3.42    1.56   1
  -5  -2   8   -0.31    1.32   3
   5  -2  -8   -0.16    1.26   1
  -5   2   8   -2.35    0.83   3
   5   2  -8   -0.78    1.27   1
  -4  -2   8    0.90    1.25   3
   4  -2  -8    2.12    1.41   1
   4   2  -8    0.11    1.37   1
   3  -2  -8   26.22    2.60   1
  -3  -2   8   24.38    1.72   4
  -3  -2   8   25.70    2.33   3
   3   2  -8   20.62    2.03   1
  -3   2   8   23.93    2.23   4
   2  -2  -8   44.46    3.07   1
  -2  -2   8   45.21    2.02   4
  -2  -2   8   40.32    2.57   3
   2   2  -8   40.21    2.57   1
  -2   2   8   47.37    2.71   4
  -1  -2   8   13.00    1.37   4
   1  -2  -8   11.01    1.93   1
  -1  -2   8    9.68    1.43   3
  -1   2   8   11.10    1.65   4
   1   2  -8   10.98    1.86   1
   0  -2   8    0.89    0.85   4
   0  -2  -8    1.43    1.58   1
   0  -2   8    0.28    0.92   3
   0   2   8    2.42    1.27   4
   0   2  -8    0.53    1.42   1
   1  -2   8   21.67    2.35   3
   1  -2   8   25.27    1.89   4
  -1  -2  -8   23.63    2.43   1
   1   2   8   28.25    2.50   4
  -1   2  -8   21.30    2.40   1
   2   2   8   10.34    1.87   4
  -2   2  -8   11.78    1.96   1
  -3   2  -8    1.17    1.36   1
   3   2   8   -0.47    1.30   4
   4   2   8    4.75    1.81   4
  -9  -3   8   21.03    3.09   3
   9   3  -8   18.89    2.38   1
  -9   3   8   21.40    3.11   3
  -8  -3   8   72.98    4.63   3
   8  -3  -8   57.76    3.37   1
  -8   3   8   57.44    3.83   3
   8   3  -8   62.64    3.36   1
   7  -3  -8   35.77    2.73   1
  -7  -3   8   32.37    2.97   3
   7   3  -8   30.22    2.50   1
  -7   3   8   37.60    3.53   3
  -6  -3   8   12.32    2.21   3
   6  -3  -8   12.33    1.86   1
   6   3  -8    9.96    1.91   1
  -6   3   8    9.55    2.07   3
   5  -3  -8   46.15    2.71   1
  -5  -3   8   39.85    2.83   3
   5   3  -8   50.02    3.12   1
   4  -3  -8   21.76    2.13   1
  -4  -3   8   24.66    2.50   3
   4   3  -8   25.98    2.57   1
  -4   3   8   21.46    2.25   4
  -3  -3   8   26.62    2.41   3
   3  -3  -8   27.34    2.66   1
  -3  -3   8   28.04    1.59   4
   3   3  -8   27.44    2.26   1
  -3   3   8   30.38    2.22   4
   2  -3  -8    6.14    1.43   1
  -2  -3   8    5.13    1.32   3
  -2  -3   8    4.70    0.78   4
   2   3  -8    2.57    1.21   1
  -2   3   8    4.62    1.43   4
  -1  -3   8    4.59    0.83   4
   1  -3  -8    4.77    1.71   1
  -1  -3   8    5.36    1.18   3
  -1   3   8    5.58    1.48   4
   1   3  -8    6.13    1.64   1
   0  -3  -8   47.06    3.34   1
   0  -3   8   44.03    2.38   3
   0   3  -8   52.22    3.19   1
   0   3   8   53.28    3.13   4
  -1  -3  -8   40.35    2.87   1
  -1   3  -8   43.73    3.04   1
   1   3   8   41.91    3.08   4
  -2   3  -8    4.49    1.59   1
   2   3   8    4.53    1.66   4
  -3   3  -8   10.92    1.90   1
   3   3   8   10.55    2.10   4
   4   3   8    4.54    1.97   4
  -9  -4   8    1.06    1.58   3
   9   4  -8    1.33    1.65   1
  -9   4   8    1.60    2.09   3
  -8  -4   8    4.80    2.20   3
   8   4  -8    6.39    1.88   1
  -8   4   8    6.60    2.32   3
  -7  -4   8   37.33    3.20   3
   7  -4  -8   38.26    2.80   1
  -7   4   8   41.56    3.77   3
   7   4  -8   46.48    3.33   1
  -6  -4   8    4.36    1.81   3
   6  -4  -8    2.72    1.39   1
  -6   4   8    4.30    1.53   3
   6   4  -8    4.66    1.65   1
   5  -4  -8   12.87    1.74   1
  -5  -4   8   13.39    2.16   3
   5   4  -8   15.71    2.15   1
   4  -4  -8   -0.52    1.34   1
  -4  -4   8   -0.80    1.27   3
  -4   4   8   -0.58    1.32   4
   4   4  -8    1.30    1.46   1
   3  -4  -8   10.87    1.67   1
  -3  -4   8   10.26    1.75   3
   3   4  -8   11.47    1.95   1
  -3   4   8    7.29    1.75   4
   2  -4  -8   61.66    3.53   1
  -2  -4   8   54.15    2.93   3
  -2   4   8   55.08    3.32   4
   2   4  -8   52.02    3.26   1
  -1  -4   8   33.15    2.29   3
   1  -4  -8   29.75    2.53   1
   1   4  -8   38.05    2.85   1
  -1   4   8   30.84    2.85   4
   0  -4  -8   12.21    1.84   1
   0  -4   8   11.40    1.37   3
   0   4   8   12.12    1.96   4
   0   4  -8   11.45    1.93   1
  -1   4  -8   -1.24    1.29   1
   1   4   8    0.42    1.44   4
   2   4   8    0.49    1.49   4
  -2   4  -8    1.26    1.42   1
   3   4   8    2.87    1.85   4
  -3   4  -8    4.75    1.69   1
   4   4   8    0.70    1.74   4
  -8  -5   8   63.21    4.55   3
  -8   5   8   53.71    3.81   3
   8   5  -8   61.47    3.90   1
   7  -5  -8  158.12    5.47   1
  -7  -5   8  141.01    6.01   3
  -7   5   8  154.58    6.36   3
   7   5  -8  159.09    5.90   1
  -6  -5   8   89.37    4.46   3
   6  -5  -8   97.29    4.17   1
   6   5  -8   98.84    4.48   1
   5  -5  -8   61.40    3.41   1
  -5  -5   8   54.73    3.31   3
   5   5  -8   56.40    3.22   1
   4  -5  -8  138.42    5.17   1
  -4  -5   8  139.45    5.27   3
   4   5  -8  125.38    4.86   1
  -4   5   8  126.67    5.02   4
   3  -5  -8   30.25    2.92   1
  -3  -5   8   31.70    2.53   3
  -3   5   8   31.86    2.89   4
   3   5  -8   36.00    2.88   1
   2  -5  -8   -1.56    1.38   1
  -2  -5   8   -0.33    0.97   3
   2   5  -8    0.67    1.41   1
  -2   5   8   -1.47    0.98   4
  -1  -5   8   11.79    1.57   3
  -1   5   8    7.95    1.92   4
   1   5  -8   10.39    1.70   1
   0   5  -8   33.03    2.81   1
   0   5   8   35.73    3.10   4
   1   5   8    7.78    1.66   4
  -1   5  -8    6.81    1.63   1
  -2   5  -8   12.17    1.94   1
   2   5   8   10.06    1.91   4
  -3   5  -8   34.04    2.79   1
   3   5   8   34.36    3.57   4
  -8  -6   8    2.03    2.06   3
  -8   6   8    0.80    2.04   3
   8   6  -8    0.08    1.77   1
  -7  -6   8    0.41    1.83   3
   7  -6  -8    1.41    1.34   1
   7   6  -8    2.62    1.87   1
  -7   6   8    2.12    1.65   3
   6  -6  -8   -0.07    1.27   1
  -6  -6   8   -0.09    1.60   3
   6   6  -8    0.89    1.27   1
   5  -6  -8   16.20    2.15   1
  -5  -6   8   18.40    2.49   3
   5   6  -8   13.14    2.21   1
  -4  -6   8   54.62    3.44   3
   4  -6  -8   52.77    3.39   1
  -4   6   8   55.94    3.74   4
   4   6  -8   51.73    3.47   1
   3  -6  -8   17.84    2.18   1
  -3  -6   8   17.14    2.08   3
   3   6  -8   20.43    2.35   1
  -3   6   8   19.80    2.49   4
  -2  -6   8   33.78    2.51   3
  -2   6   8   33.28    3.11   4
   2   6  -8   31.50    2.47   1
  -1  -6   8   32.98    2.25   3
   1   6  -8   32.88    2.88   1
  -1   6   8   35.78    3.22   4
   0   6   8   47.14    3.56   4
   0   6  -8   44.52    3.10   1
  -1   6  -8   23.58    2.47   1
   1   6   8   24.28    2.80   4
  -2   6  -8    6.28    1.64   1
   2   6   8    2.46    2.03   4
   3   6   8    7.46    1.98   4
  -3   6  -8    7.04    1.68   1
  -8  -7   8    1.31    2.00   3
  -8   7   8   -3.32    1.85   3
   8   7  -8   -1.90    1.84   1
  -7  -7   8    2.73    1.95   3
   7   7  -8    3.57    2.01   1
  -6  -7   8   11.01    2.31   3
   6   7  -8   10.00    2.20   1
  -5  -7   8   27.99    3.01   3
  -5   7   8   22.85    2.84   4
   5   7  -8   24.19    2.79   1
  -4  -7   8    4.19    1.67   3
  -4   7   8    6.81    1.99   4
   4   7  -8    4.21    1.87   1
  -3  -7   8    6.65    1.63   3
   3   7  -8    8.39    1.71   1
  -3   7   8    8.83    1.80   4
  -2  -7   8    1.85    1.16   3
  -2   7   8    3.86    1.80   4
   2   7  -8    3.44    1.35   1
  -1  -7   8    4.12    1.34   3
  -1   7   8    5.03    1.94   4
   1   7  -8    5.75    1.66   1
   0   7   8    2.12    1.80   4
   0   7  -8    2.75    1.52   1
   1   7   8    5.12    1.96   4
  -1   7  -8    0.84    1.39   1
   2   7   8    2.05    1.55   4
  -2   7  -8   -0.50    1.28   1
  -7  -8   8   -1.51    1.89   3
   7   8  -8   -0.55    1.90   1
  -6  -8   8    1.28    1.35   3
   6   8  -8   -0.63    1.27   1
  -5  -8   8   -0.61    1.48   3
   5   8  -8   -2.39    1.56   1
  -5   8   8   -0.85    1.72   4
  -4  -8   8    0.48    1.39   3
  -4   8   8   -1.10    1.68   4
   4   8  -8    2.37    1.78   1
  -3  -8   8    8.58    1.80   3
  -3   8   8   10.58    2.23   4
   3   8  -8    7.94    1.74   1
  -2  -8   8   30.84    2.60   3
   2   8  -8   29.05    2.97   1
  -2   8   8   31.43    3.29   4
  -1   8   8   15.84    2.28   4
   1   8  -8   12.45    1.86   1
   0   8   8   13.70    2.53   4
   0   8  -8   11.86    2.07   1
   1   8   8    9.27    2.33   4
  -1   8  -8    9.96    1.86   1
   2   8   8   10.01    2.55   4
  -2   8  -8    5.93    1.75   1
  -6  -9   8    0.90    1.83   3
   6   9  -8    1.69    1.51   1
  -6   9   8    0.98    2.08   4
  -5  -9   8    2.56    1.75   3
  -5   9   8    0.10    1.94   4
   5   9  -8    1.68    1.89   1
  -4  -9   8   -2.06    1.37   3
   4   9  -8   -0.64    1.70   1
  -4   9   8    2.67    1.97   4
  -3  -9   8    0.11    1.29   3
  -3   9   8    0.25    1.76   4
   3   9  -8   -0.30    1.28   1
  -2  -9   8    2.87    1.57   3
   2   9  -8    1.03    1.25   1
  -2   9   8    3.65    1.63   4
  -1   9   8   26.91    3.10   4
   1   9  -8   22.57    2.60   1
   0   9   8   12.07    2.50   4
   0   9  -8    8.93    1.95   1
   1   9   8   -0.16    1.94   4
  -1   9  -8    1.60    1.49   1
  -5 -10   8   -1.43    1.56   3
  -5  10   8   -0.17    1.53   4
   5  10  -8    1.59    1.83   1
  -4 -10   8    0.65    1.54   3
  -4  10   8    0.52    2.04   4
   4  10  -8    4.50    1.72   1
  -3 -10   8   10.38    1.98   3
  -3  10   8   11.40    2.54   4
   3  10  -8   12.57    2.44   1
  -2  10   8   27.27    3.26   4
   2  10  -8   26.23    2.91   1
  -1  10   8   23.71    3.17   4
   1  10  -8   19.74    2.57   1
   0  10  -8   10.06    1.97   1
   0  10   8    9.20    2.20   4
  -4 -11   8    5.70    2.01   3
   4  11  -8    5.53    2.26   1
  -4  11   8    7.76    2.49   4
   3  11  -8    2.23    1.58   1
  -3  11   8    4.10    2.12   4
  -2  11   8    2.93    2.18   4
   2  11  -8    2.50    1.95   1
  -9   0   9   -2.11    1.98   3
   9   0  -9    0.02    1.79   1
  -8   0   9   -0.52    1.95   3
   8   0  -9    1.81    1.60   1
   7   0  -9   -1.04    1.43   1
  -7   0   9    2.49    1.91   3
  -6   0   9   -0.59    1.59   3
   6   0  -9   -2.03    0.91   1
   5   0  -9   -0.09    1.45   1
  -5   0   9   -1.21    1.42   3
  -4   0   9   -0.51    0.98   3
   4   0  -9   -1.51    0.98   1
  -4   0   9   -0.08    1.00   4
  -3   0   9   -1.67    1.10   4
   3   0  -9   -0.34    1.53   1
  -3   0   9    1.08    1.35   3
  -2   0   9   -2.31    1.03   4
   2   0  -9   -2.38    1.38   1
  -2   0   9   -2.64    1.07   3
   1   0  -9    5.32    1.83   1
  -1   0   9    1.81    1.17   4
   0   0   9    6.20    1.39   4
   0   0  -9    4.01    1.76   1
  -1   0  -9   -0.33    1.59   1
   1   0   9   -1.05    1.16   4
  -2   0  -9    0.57    1.50   1
  -9  -1   9    0.28    2.05   3
   9   1  -9    4.84    1.80   1
  -9   1   9    3.25    1.85   3
  -8  -1   9   14.74    2.71   3
   8  -1  -9   14.65    2.22   1
  -8   1   9   13.08    2.67   3
   8   1  -9   14.96    2.31   1
   7  -1  -9   52.16    3.34   1
  -7  -1   9   59.35    4.19   3
  -7   1   9   60.96    4.20   3
   7   1  -9   56.58    3.63   1
   6  -1  -9   58.39    3.54   1
  -6  -1   9   53.82    3.88   3
  -6   1   9   57.23    3.96   3
   6   1  -9   56.50    3.55   1
  -5  -1   9   30.53    2.64   3
   5  -1  -9   31.52    2.51   1
  -5   1   9   35.37    3.21   3
   5   1  -9   36.65    3.05   1
  -4  -1   9   65.90    3.75   3
   4  -1  -9   64.69    3.67   1
  -4  -1   9   67.32    2.99   4
  -4   1   9   61.97    3.23   4
   4   1  -9   63.27    3.37   1
  -4   1   9   66.25    3.85   3
  -3  -1   9   60.29    3.26   3
  -3  -1   9   64.44    2.93   4
   3  -1  -9   69.17    3.87   1
   3   1  -9   69.41    3.80   1
  -3   1   9   66.25    3.21   4
   2  -1  -9    9.43    2.03   1
  -2  -1   9    8.77    1.36   4
  -2  -1   9    8.41    1.70   3
   2   1  -9    9.31    1.97   1
  -2   1   9    8.36    1.53   4
  -1  -1   9   15.42    1.97   3
   1  -1  -9   19.01    2.48   1
  -1  -1   9   18.63    1.83   4
   1   1  -9   19.01    2.46   1
  -1   1   9   17.06    1.91   4
   0  -1  -9    4.57    1.89   1
   0  -1   9    4.02    1.22   3
   0  -1   9    4.65    1.80   4
   0   1  -9    2.45    1.75   1
   0   1   9    6.67    1.49   4
  -1  -1  -9    7.29    1.74   1
  -1   1  -9    3.26    1.76   1
   1   1   9    4.43    1.62   4
  -2  -1  -9    5.12    1.83   1
   2   1   9    3.90    1.53   4
  -2   1  -9    2.36    1.71   1
  -3   1  -9    6.72    1.82   1
  -8  -2   9   -1.73    1.30   3
   8  -2  -9    1.74    1.53   1
  -8   2   9   -0.61    1.38   3
   8   2  -9   -0.50    1.60   1
   7  -2  -9   -0.58    1.44   1
  -7  -2   9    0.42    1.84   3
   7   2  -9   -0.43    1.60   1
  -7   2   9    3.10    1.58   3
   6  -2  -9    1.94    1.59   1
  -6  -2   9   -0.08    1.63   3
   6   2  -9   -1.04    1.53   1
  -6   2   9   -0.21    1.69   3
  -5  -2   9    7.96    1.97   3
   5  -2  -9    7.98    1.96   1
   5   2  -9    7.23    1.94   1
  -5   2   9    8.87    2.08   3
  -4  -2   9   63.80    2.81   4
   4  -2  -9   70.68    3.83   1
  -4  -2   9   58.18    3.32   3
   4   2  -9   59.95    3.35   1
  -4   2   9   67.95    3.52   4
  -3  -2   9   64.68    3.52   3
  -3  -2   9   63.59    2.73   4
   3  -2  -9   55.14    3.28   1
  -3   2   9   61.45    3.27   4
   3   2  -9   64.63    3.73   1
   2  -2  -9   87.38    4.40   1
  -2  -2   9   86.85    3.98   3
  -2   2   9   88.97    4.02   4
   2   2  -9   87.59    4.24   1
   1  -2  -9   10.86    2.21   1
  -1  -2   9    9.57    1.53   3
   1   2  -9   11.68    2.15   1
  -1   2   9    9.08    1.82   4
   0  -2   9    0.43    0.86   3
   0  -2  -9    1.65    1.75   1
   0   2  -9    0.59    1.21   1
   0   2   9    0.65    1.39   4
  -1  -2  -9   12.23    2.21   1
   1   2   9   11.68    1.94   4
  -1   2  -9   11.32    2.19   1
   2   2   9    4.49    1.72   4
  -2   2  -9    5.26    1.79   1
  -3   2  -9    4.94    1.74   1
   3   2   9    1.53    1.65   4
   8  -3  -9   -1.36    1.32   1
  -8  -3   9    0.19    1.51   3
   8   3  -9   -0.54    1.61   1
  -8   3   9    1.90    2.14   3
  -7  -3   9    5.30    2.15   3
   7  -3  -9    5.56    1.74   1
  -7   3   9    2.46    2.00   3
   7   3  -9    7.52    2.04   1
  -6  -3   9   12.40    2.12   3
   6  -3  -9   10.43    2.11   1
  -6   3   9   12.68    2.15   3
   6   3  -9   11.97    1.90   1
  -5  -3   9    1.05    1.58   3
   5  -3  -9    4.09    1.43   1
   5   3  -9    3.74    1.40   1
   4  -3  -9    2.91    1.30   1
  -4  -3   9   -0.52    1.37   3
   4   3  -9    1.93    1.34   1
  -4   3   9    0.33    1.41   4
   3  -3  -9    3.62    1.43   1
  -3  -3   9    1.72    1.41   3
   3   3  -9    1.96    1.65   1
  -3   3   9   -0.08    1.27   4
  -2  -3   9    5.74    1.46   3
   2  -3  -9    6.27    1.96   1
   2   3  -9    6.60    1.89   1
  -2   3   9    6.10    1.66   4
   1  -3  -9   17.02    2.47   1
  -1  -3   9   14.82    1.81   3
  -1   3   9   15.11    2.08   4
   1   3  -9   15.46    2.30   1
   0  -3  -9   11.17    2.32   1
   0   3   9    9.54    1.87   4
   0   3  -9    9.99    2.06   1
  -1   3  -9   -2.16    1.41   1
   1   3   9   -1.53    1.31   4
   2   3   9    3.14    1.70   4
  -2   3  -9    1.64    1.63   1
  -8  -4   9    0.25    1.96   3
   8   4  -9    4.25    1.88   1
  -8   4   9   -0.88    1.99   3
  -7  -4   9   -0.76    1.80   3
   7  -4  -9    0.90    1.37   1
   7   4  -9    1.21    1.61   1
  -7   4   9   -1.19    1.84   3
   6  -4  -9   -1.68    1.38   1
  -6  -4   9    0.61    1.62   3
   6   4  -9   -1.42    1.51   1
  -6   4   9   -0.25    1.88   3
   5  -4  -9   -0.59    1.51   1
  -5  -4   9   -0.34    1.42   3
   5   4  -9    0.56    1.51   1
  -5   4   9    2.51    1.62   4
   4  -4  -9   45.58    3.40   1
  -4  -4   9   42.87    3.30   3
  -4   4   9   48.07    3.35   4
   4   4  -9   45.35    3.41   1
   3  -4  -9   53.39    3.63   1
  -3  -4   9   49.22    3.21   3
   3   4  -9   49.22    3.11   1
  -3   4   9   51.81    3.37   4
  -2  -4   9   47.25    2.91   3
   2  -4  -9   44.45    3.10   1
  -2   4   9   49.18    3.38   4
   2   4  -9   48.80    3.08   1
  -1  -4   9   49.28    2.85   3
   1  -4  -9   54.31    3.78   1
   1   4  -9   45.48    3.04   1
  -1   4   9   54.62    3.50   4
   0   4  -9    2.61    1.67   1
   0   4   9    3.54    1.58   4
   1   4   9   13.80    2.35   4
  -1   4  -9   12.75    2.21   1
   2   4   9   -0.39    1.55   4
  -2   4  -9    0.69    1.71   1
  -8  -5   9    2.75    2.13   3
   8   5  -9    5.32    1.94   1
  -8   5   9    4.19    1.91   3
   7  -5  -9   19.33    2.41   1
  -7  -5   9   17.08    2.83   3
  -7   5   9   17.08    2.86   3
   7   5  -9   21.24    2.72   1
   6  -5  -9   18.88    2.37   1
  -6  -5   9   13.19    2.46   3
   6   5  -9   16.70    2.24   1
  -5  -5   9    3.60    1.75   3
   5  -5  -9    1.98    1.53   1
   5   5  -9    0.98    1.66   1
  -5   5   9    0.01    1.67   4
  -4  -5   9    7.78    1.85   3
   4  -5  -9    8.60    1.98   1
  -4   5   9    9.84    2.06   4
   4   5  -9   10.01    1.77   1
   3  -5  -9    1.56    1.64   1
  -3  -5   9    3.77    1.58   3
   3   5  -9    5.56    1.87   1
  -3   5   9    4.62    1.81   4
   2  -5  -9    4.63    1.52   1
  -2  -5   9    2.97    1.26   3
   2   5  -9    2.03    1.73   1
  -2   5   9    2.61    1.68   4
   1   5  -9   15.26    2.37   1
  -1   5   9   12.87    2.21   4
   0   5  -9   -0.34    1.61   1
   0   5   9   -0.08    1.56   4
   1   5   9    0.68    1.74   4
  -1   5  -9   -1.32    1.45   1
  -2   5  -9   -0.03    1.58   1
   2   5   9   -1.72    1.68   4
  -7  -6   9   -2.39    1.77   3
   7  -6  -9    0.54    1.47   1
   7   6  -9    0.10    1.78   1
  -7   6   9   -0.77    1.98   3
  -6  -6   9    1.23    1.77   3
   6  -6  -9    3.00    1.62   1
   6   6  -9    1.34    1.87   1
  -5  -6   9   48.83    3.71   3
   5  -6  -9   50.69    3.58   1
  -5   6   9   54.30    3.90   4
   5   6  -9   55.77    3.83   1
  -4  -6   9    6.77    1.78   3
   4  -6  -9    7.12    1.97   1
   4   6  -9   12.62    2.21   1
  -4   6   9    7.84    2.12   4
  -3  -6   9    0.67    1.38   3
  -3   6   9   -0.20    1.60   4
   3   6  -9    1.33    1.31   1
  -2  -6   9   10.06    1.73   3
   2   6  -9    6.48    1.63   1
  -2   6   9    9.30    2.23   4
  -1   6   9   11.29    2.34   4
   1   6  -9   14.13    2.31   1
   0   6  -9   12.79    2.16   1
   0   6   9   16.02    2.58   4
   1   6   9   -1.13    1.68   4
  -1   6  -9    6.88    1.85   1
  -7  -7   9    0.39    1.85   3
   7   7  -9   -0.59    1.82   1
  -6  -7   9    4.83    1.98   3
  -6   7   9    6.40    2.24   4
   6   7  -9    3.51    2.05   1
  -5  -7   9   11.61    2.33   3
   5   7  -9   14.85    2.55   1
  -5   7   9   13.14    2.20   4
  -4  -7   9   38.36    3.25   3
   4   7  -9   42.42    3.56   1
  -4   7   9   38.29    3.15   4
  -3  -7   9   10.17    1.84   3
   3   7  -9   10.89    1.97   1
  -3   7   9   14.33    2.44   4
   2   7  -9   17.72    2.48   1
  -2   7   9   14.95    2.50   4
  -1   7   9   11.75    2.36   4
   1   7  -9    9.00    1.83   1
   0   7   9   -1.29    1.71   4
   0   7  -9   -1.66    1.53   1
   1   7   9    1.79    2.00   4
  -1   7  -9    1.23    1.63   1
  -6  -8   9   -2.01    1.59   3
  -6   8   9   -1.12    1.94   4
   6   8  -9   -1.41    1.84   1
  -5  -8   9   -1.69    1.42   3
  -5   8   9    1.83    1.60   4
   5   8  -9    0.41    1.91   1
  -4  -8   9   -0.36    1.41   3
  -4   8   9    1.96    1.89   4
   4   8  -9   -2.09    1.67   1
  -3  -8   9    5.23    1.62   3
   3   8  -9    4.09    1.55   1
  -3   8   9    4.79    1.71   4
  -2   8   9    7.57    2.20   4
   2   8  -9    4.76    1.97   1
   1   8  -9   14.41    2.17   1
  -1   8   9   12.82    2.65   4
   0   8  -9    1.20    1.75   1
   0   8   9    2.95    2.04   4
  -5  -9   9   36.53    3.55   3
  -5   9   9   24.58    3.01   4
   5   9  -9   35.05    3.67   1
  -4  -9   9   31.68    3.22   3
   4   9  -9   36.43    3.62   1
  -4   9   9   39.90    4.07   4
  -3   9   9   21.80    3.10   4
   3   9  -9   20.64    2.79   1
  -2   9   9    4.90    2.25   4
   2   9  -9    1.94    1.48   1
  -1   9   9    2.51    1.63   4
   1   9  -9   -0.51    1.52   1
   8   0 -10   16.95    2.52   1
  -8   0  10   18.17    2.93   3
  -7   0  10    0.28    1.87   3
   7   0 -10    1.66    1.84   1
  -6   0  10    3.24    1.97   3
   6   0 -10    2.64    1.75   1
  -5   0  10    2.83    1.37   4
   5   0 -10    6.99    2.03   1
  -5   0  10    4.30    1.57   3
   4   0 -10    6.47    2.03   1
  -4   0  10    7.08    1.49   4
  -4   0  10    6.50    1.93   3
  -3   0  10    5.83    1.53   4
   3   0 -10    7.84    1.86   1
  -3   0  10    7.83    1.88   3
   2   0 -10   28.89    2.82   1
  -2   0  10   30.51    2.84   3
   1   0 -10   30.52    3.19   1
  -1   0  10   28.31    2.69   3
   0   0 -10    9.91    2.00   1
  -1   0 -10    2.60    1.97   1
  -8  -1  10    0.31    1.53   3
   8  -1 -10    1.83    1.72   1
  -8   1  10    2.20    2.15   3
   8   1 -10   -1.58    1.59   1
  -7  -1  10    2.26    1.96   3
   7  -1 -10    3.52    1.98   1
   7   1 -10    3.16    1.96   1
  -7   1  10    2.16    2.03   3
  -6  -1  10    8.98    2.27   3
   6  -1 -10   10.20    1.93   1
   6   1 -10   12.36    2.04   1
  -6   1  10    9.66    2.08   3
   5  -1 -10   -0.60    1.65   1
  -5  -1  10    0.72    1.54   3
   5   1 -10   -3.09    1.50   1
  -5   1  10   -0.31    1.22   3
  -5   1  10   -0.30    1.28   4
  -4  -1  10    1.38    1.19   3
   4  -1 -10    3.29    1.86   1
  -4   1  10    0.37    1.43   4
  -4   1  10    0.16    1.60   3
   4   1 -10    1.61    1.35   1
   3  -1 -10    2.80    1.53   1
  -3  -1  10    3.64    1.58   3
  -3   1  10    1.60    1.49   4
   3   1 -10    1.56    1.81   1
  -3   1  10    2.72    1.54   3
  -2  -1  10   14.82    2.17   3
   2  -1 -10   12.18    2.38   1
   2   1 -10    9.55    1.97   1
  -2   1  10   12.14    1.94   4
  -1  -1  10   11.24    1.80   3
   1  -1 -10   13.28    2.49   1
  -1   1  10   16.17    2.04   4
   1   1 -10   12.24    2.16   1
   0  -1 -10    0.23    1.84   1
   0   1 -10   -0.98    1.70   1
  -1  -1 -10   -0.70    1.63   1
  -1   1 -10   -0.57    1.23   1
   7  -2 -10   -2.86    1.48   1
  -7  -2  10   -0.60    1.79   3
   7   2 -10   -2.93    1.67   1
  -7   2  10    0.06    1.49   3
   6  -2 -10    5.60    2.01   1
  -6  -2  10    3.90    2.03   3
   6   2 -10    6.01    1.68   1
  -6   2  10    3.76    1.72   3
  -5  -2  10    0.08    1.60   3
   5  -2 -10    1.34    1.70   1
  -5   2  10    2.89    1.89   3
  -5   2  10    2.02    1.44   4
   5   2 -10    0.54    1.34   1
  -4  -2  10    5.64    1.80   3
   4  -2 -10    4.89    1.58   1
  -4   2  10    4.10    1.91   3
   4   2 -10    5.72    1.65   1
  -4   2  10    4.38    1.69   4
  -3  -2  10    5.78    1.71   3
   3  -2 -10    4.19    1.61   1
   3   2 -10    7.17    2.10   1
  -3   2  10    6.89    1.67   4
   2  -2 -10   22.23    2.85   1
  -2  -2  10   19.97    2.37   3
   2   2 -10   19.15    2.68   1
  -2   2  10   16.28    2.27   4
   1  -2 -10   82.58    4.66   1
   1   2 -10   82.19    4.56   1
  -1   2  10   74.82    3.87   4
   0  -2 -10   14.55    2.65   1
   0   2  10   16.38    2.30   4
   0   2 -10   11.02    2.37   1
  -1  -2 -10    6.67    2.20   1
  -1   2 -10   14.80    2.48   1
   1   2  10    8.25    2.22   4
  -7  -3  10    5.30    2.16   3
   7  -3 -10    3.41    1.87   1
   7   3 -10    3.72    1.98   1
  -7   3  10    1.78    2.27   3
  -6  -3  10   15.97    2.42   3
   6  -3 -10   21.38    2.75   1
  -6   3  10   14.94    2.76   3
   6   3 -10   15.01    2.61   1
  -5  -3  10   25.63    3.01   3
   5  -3 -10   24.61    2.62   1
  -5   3  10   26.57    3.22   3
   5   3 -10   27.10    3.00   1
  -5   3  10   30.64    2.96   4
   4  -3 -10    0.60    1.34   1
  -4  -3  10   -1.45    1.34   3
  -4   3  10    0.59    1.63   4
   4   3 -10   -1.00    1.69   1
  -3  -3  10   -2.21    1.16   3
   3  -3 -10   -0.09    1.63   1
   3   3 -10    0.51    1.30   1
  -3   3  10    0.92    1.37   4
   2  -3 -10   21.90    2.90   1
  -2  -3  10   22.37    2.44   3
   2   3 -10   19.42    2.71   1
  -2   3  10   20.89    2.41   4
   1  -3 -10   -0.39    1.83   1
   1   3 -10   -0.42    1.25   1
  -1   3  10    1.09    1.49   4
   0  -3 -10   -2.03    1.67   1
   0   3  10    0.67    1.61   4
   0   3 -10   -2.09    1.70   1
  -1   3 -10    6.42    1.83   1
   1   3  10    1.42    1.77   4
   7  -4 -10    0.61    1.61   1
  -7  -4  10   -1.27    1.69   3
  -7   4  10   -1.73    1.42   3
   7   4 -10    1.12    1.90   1
  -6  -4  10    9.33    2.07   3
   6  -4 -10    4.75    1.85   1
   6   4 -10    9.46    1.96   1
  -6   4  10    7.47    2.02   3
  -6   4  10    6.96    2.06   4
   5  -4 -10    0.52    1.70   1
  -5  -4  10   -1.26    1.53   3
   5   4 -10   -2.06    1.70   1
  -5   4  10   -0.40    1.57   4
  -4  -4  10    6.88    2.04   3
   4  -4 -10   11.82    2.33   1
   4   4 -10    8.92    1.90   1
  -4   4  10   11.81    2.14   4
  -3  -4  10    8.11    1.88   3
   3  -4 -10   12.58    2.48   1
   3   4 -10    8.70    2.28   1
  -3   4  10    7.32    2.00   4
   2  -4 -10    2.09    1.88   1
  -2  -4  10   -2.16    1.11   3
   2   4 -10   -2.43    1.66   1
  -2   4  10   -0.91    1.30   4
   1  -4 -10    4.11    2.05   1
  -1   4  10    4.06    1.69   4
   1   4 -10    2.09    1.91   1
   0   4 -10   -0.22    1.75   1
   0   4  10    0.67    1.60   4
   7  -5 -10   30.66    3.16   1
   7   5 -10   32.22    3.02   1
   6  -5 -10   56.09    3.88   1
  -6  -5  10   52.27    4.20   3
   6   5 -10   67.36    4.31   1
  -6   5  10   59.03    4.22   4
   5  -5 -10   21.90    2.83   1
  -5  -5  10   17.77    2.63   3
   5   5 -10   19.19    2.69   1
  -5   5  10   14.54    2.49   4
   4  -5 -10   26.37    2.98   1
  -4  -5  10   21.62    2.64   3
   4   5 -10   24.84    2.98   1
  -4   5  10   23.12    2.82   4
  -3  -5  10   15.57    2.23   3
   3  -5 -10   20.51    2.82   1
  -3   5  10   15.41    2.34   4
   3   5 -10   17.86    2.38   1
   2  -5 -10   -0.18    1.87   1
   2   5 -10   -0.67    1.27   1
  -2   5  10    2.29    1.75   4
   1   5 -10   -0.87    1.31   1
  -1   5  10   -1.52    1.59   4
   0   5 -10   -2.64    1.66   1
   0   5  10   -0.78    1.68   4
   6  -6 -10    0.40    1.62   1
  -6  -6  10   -0.86    1.70   3
  -6   6  10   -0.33    1.34   4
   6   6 -10    3.61    2.03   1
  -5  -6  10    0.34    1.54   3
   5  -6 -10    4.16    1.81   1
  -5   6  10    3.08    1.96   4
   5   6 -10    1.09    1.77   1
  -4  -6  10    1.06    1.65   3
   4  -6 -10    3.99    1.91   1
   4   6 -10    2.08    1.96   1
  -4   6  10    2.09    1.84   4
  -3  -6  10   12.93    2.09   3
   3   6 -10   11.55    2.43   1
  -3   6  10   10.02    2.32   4
   2   6 -10   20.35    2.84   1
  -2   6  10   21.18    2.83   4
  -1   6  10   14.09    2.50   4
   1   6 -10   12.22    2.43   1
  -5  -7  10   -1.22    1.57   3
   5   7 -10    1.42    1.52   1
  -5   7  10   -1.49    1.90   4
  -4  -7  10    0.99    1.64   3
   4   7 -10    1.99    1.96   1
  -4   7  10   -0.47    1.82   4
  -3   7  10    2.94    2.07   4
   3   7 -10    1.51    1.90   1
  -2   7  10    2.56    1.55   4
   2   7 -10    0.08    1.91   1
  -6   0  11   -2.41    1.67   3
   6   0 -11    0.69    1.94   1
  -5   0  11    0.83    1.82   3
   5   0 -11    0.49    2.07   1
   4   0 -11   -2.03    1.92   1
  -4   0  11   -1.00    1.57   3
   3   0 -11   -1.87    1.42   1
  -3   0  11    1.22    1.62   3
  -2   0  11   -0.03    1.50   3
   2   0 -11   -1.90    1.96   1
   1   0 -11   -3.62    1.82   1
   6  -1 -11   36.96    3.73   1
  -6  -1  11   21.10    2.80   3
  -6   1  11   24.97    3.21   3
   6   1 -11   27.11    3.18   1
   5  -1 -11   47.94    4.04   1
  -5  -1  11   43.98    3.84   3
  -5   1  11   41.58    3.43   3
   5   1 -11   48.58    4.01   1
   4  -1 -11   30.26    3.40   1
  -4  -1  11   21.78    2.78   3
   4   1 -11   26.17    3.15   1
  -4   1  11   18.13    2.85   3
  -3  -1  11   17.40    2.47   3
   3  -1 -11   21.92    3.02   1
  -3   1  11   14.50    2.47   3
   3   1 -11   17.55    2.82   1
  -2  -1  11    0.42    1.33   3
   2  -1 -11    0.70    1.93   1
  -2   1  11   -1.53    1.47   3
   2   1 -11    0.69    1.55   1
   1  -1 -11   -2.89    1.18   1
   1   1 -11   -0.42    1.98   1
   6  -2 -11   -0.55    1.88   1
  -6  -2  11    0.59    1.52   3
  -6   2  11    1.40    1.80   4
  -6   2  11   -0.08    1.94   3
   6   2 -11   -3.30    1.75   1
  -5  -2  11    0.97    1.39   3
   5  -2 -11    3.01    2.11   1
  -5   2  11    2.29    1.96   3
  -5   2  11    1.75    1.61   4
   5   2 -11    0.90    1.63   1
  -4  -2  11   11.12    2.19   3
   4  -2 -11    5.52    2.21   1
  -4   2  11    3.90    2.09   3
  -4   2  11    7.97    1.92   4
   4   2 -11   12.25    2.53   1
   3  -2 -11    6.25    2.35   1
  -3  -2  11    5.94    1.87   3
  -3   2  11    7.25    2.27   4
  -3   2  11    7.47    2.17   3
   3   2 -11    5.19    2.25   1
   2  -2 -11    5.91    1.86   1
   2   2 -11    5.40    2.26   1
   1  -2 -11   10.32    2.51   1
   1   2 -11    6.83    2.46   1
  -5  -3  11    0.77    1.73   3
   5  -3 -11   -1.65    1.83   1
  -5   3  11    0.03    1.51   4
  -5   3  11   -0.37    1.93   3
   5   3 -11   -1.29    1.98   1
   4  -3 -11   -1.79    1.79   1
  -4  -3  11   -2.74    1.45   3
  -4   3  11   -0.54    1.41   4
  -4   3  11   -1.02    1.40   3
   4   3 -11    0.43    1.99   1
   3  -3 -11    7.39    2.46   1
  -3  -3  11    4.12    1.70   3
   3   3 -11    6.56    1.96   1
  -3   3  11    6.54    1.97   4
   2  -3 -11    6.85    2.41   1
  -2   3  11    5.02    1.95   4
   2   3 -11    7.10    1.92   1
  -5  -4  11    4.29    2.04   3
   5  -4 -11   -0.87    1.80   1
   5   4 -11    2.02    1.67   1
  -5   4  11    3.14    1.78   3
  -5   4  11    2.98    1.81   4
  -4  -4  11    0.65    1.85   3
   4  -4 -11    2.09    1.98   1
  -4   4  11    4.53    1.80   4
   4   4 -11   -0.05    2.09   1
   3  -4 -11    1.28    2.04   1
  -3   4  11    0.92    1.68   4
   3   4 -11   -4.01    1.80   1
   2  -4 -11    0.71    2.10   1
  -2   4  11   -2.06    1.48   4
   2   4 -11   -3.58    1.83   1
   0   0   0    0.00    0.00
;
_shelx_hkl_checksum              15427
loop_
_symmetry_equiv_pos_as_xyz
'x, y, z'
'-x, y+1/2, -z+1/2'
'-x, -y, -z'
'x, -y-1/2, z-1/2'
loop_
_atom_site_label
_atom_site_type_symbol
_atom_site_fract_x
_atom_site_fract_y
_atom_site_fract_z
_atom_site_U_iso_or_equiv
_atom_site_adp_type
_atom_site_occupancy
_atom_site_site_symmetry_order
_atom_site_calc_flag
_atom_site_refinement_flags_posn
_atom_site_refinement_flags_adp
_atom_site_refinement_flags_occupancy
_atom_site_disorder_assembly
_atom_site_disorder_group
C1 C 0.1912(2) -0.10091(15) 0.9800(2) 0.0424(4) Uani 1 1 d . . . . .
C2 C 0.1491(3) -0.21077(15) 1.0012(2) 0.0462(4) Uani 1 1 d . . . . .
C3 C 0.2604(3) -0.27096(19) 1.1315(3) 0.0630(6) Uani 1 1 d . . . . .
H3 H 0.2361 -0.3447 1.1478 0.076 Uiso 1 1 calc R U . . .
C4 C 0.4069(3) -0.2182(2) 1.2352(3) 0.0774(7) Uani 1 1 d . . . . .
H4 H 0.4822 -0.2569 1.3237 0.093 Uiso 1 1 calc R U . . .
C5 C 0.4463(3) -0.1089(3) 1.2119(3) 0.0755(7) Uani 1 1 d . . . . .
H5 H 0.5476 -0.0763 1.2847 0.091 Uiso 1 1 calc R U . . .
C6 C 0.3393(3) -0.04739(18) 1.0838(2) 0.0591(5) Uani 1 1 d . . . . .
H6 H 0.3651 0.0261 1.0679 0.071 Uiso 1 1 calc R U . . .
C7 C -0.0589(2) -0.15449(15) 0.7863(2) 0.0454(4) Uani 1 1 d . . . . .
C8 C -0.2160(3) -0.14778(19) 0.6357(2) 0.0636(6) Uani 1 1 d . . . . .
H8A H -0.1784 -0.1463 0.5449 0.095 Uiso 1 1 calc R U . . .
H8B H -0.2813 -0.0813 0.6367 0.095 Uiso 1 1 calc R U . . .
H8C H -0.2902 -0.2114 0.628 0.095 Uiso 1 1 calc R U . . .
N1 N 0.0555(2) -0.06702(11) 0.84222(18) 0.0440(3) Uani 1 1 d . . . . .
N2 N -0.0075(2) -0.24165(12) 0.87987(19) 0.0509(4) Uani 1 1 d . . . . .
Cl1 Cl 0.04317(6) 0.05847(3) 0.75290(6) 0.05082(18) Uani 1 1 d . . . . .
loop_
_atom_site_aniso_label
_atom_site_aniso_U_11
_atom_site_aniso_U_22
_atom_site_aniso_U_33
_atom_site_aniso_U_23
_atom_site_aniso_U_13
_atom_site_aniso_U_12
C1 0.0486(10) 0.0421(9) 0.0417(9) -0.0016(7) 0.0224(8) 0.0028(8)
C2 0.0567(11) 0.0417(9) 0.0481(10) 0.0024(8) 0.0285(9) 0.0043(8)
C3 0.0740(14) 0.0598(12) 0.0643(13) 0.0193(10) 0.0359(12) 0.0156(11)
C4 0.0683(15) 0.102(2) 0.0589(14) 0.0218(13) 0.0184(12) 0.0227(14)
C5 0.0564(14) 0.104(2) 0.0574(13) -0.0010(13) 0.0094(11) -0.0031(13)
C6 0.0591(12) 0.0613(13) 0.0579(12) -0.0067(10) 0.0223(10) -0.0085(10)
C7 0.0506(10) 0.0415(9) 0.0482(9) -0.0078(8) 0.0227(8) -0.0023(8)
C8 0.0576(12) 0.0711(14) 0.0562(12) -0.0089(10) 0.0133(10) -0.0059(10)
N1 0.0533(9) 0.0330(7) 0.0465(8) 0.0014(6) 0.0190(7) 0.0005(6)
N2 0.0623(10) 0.0379(8) 0.0574(9) -0.0027(7) 0.0273(8) -0.0050(7)
Cl1 0.0659(3) 0.0352(2) 0.0579(3) 0.00498(18) 0.0301(2) 0.00540(19)
loop_
_atom_type_symbol
_atom_type_description
_atom_type_scat_dispersion_real
_atom_type_scat_dispersion_imag
_atom_type_scat_source
C C 0.0033 0.0016 'International Tables Vol C Tables 4.2.6.8 and 6.1.1.4'
H H 0 0 'International Tables Vol C Tables 4.2.6.8 and 6.1.1.4'
N N 0.0061 0.0033 'International Tables Vol C Tables 4.2.6.8 and 6.1.1.4'
Cl Cl 0.1484 0.1585 'International Tables Vol C Tables 4.2.6.8 and 6.1.1.4'
loop_
_geom_angle_atom_site_label_1
_geom_angle_atom_site_label_2
_geom_angle_atom_site_label_3
_geom_angle
_geom_angle_site_symmetry_1
_geom_angle_site_symmetry_3
_geom_angle_publ_flag
N1 C1 C6 132.74(18) . . ?
N1 C1 C2 104.14(15) . . ?
C6 C1 C2 123.11(18) . . ?
N2 C2 C3 130.36(18) . . ?
N2 C2 C1 110.32(16) . . ?
C3 C2 C1 119.32(19) . . ?
C4 C3 C2 117.8(2) . . ?
C4 C3 H3 121.1 . . ?
C2 C3 H3 121.1 . . ?
C3 C4 C5 121.9(2) . . ?
C3 C4 H4 119 . . ?
C5 C4 H4 119 . . ?
C6 C5 C4 121.6(2) . . ?
C6 C5 H5 119.2 . . ?
C4 C5 H5 119.2 . . ?
C5 C6 C1 116.2(2) . . ?
C5 C6 H6 121.9 . . ?
C1 C6 H6 121.9 . . ?
N2 C7 N1 111.29(16) . . ?
N2 C7 C8 126.31(17) . . ?
N1 C7 C8 122.38(17) . . ?
C7 C8 H8A 109.5 . . ?
C7 C8 H8B 109.5 . . ?
H8A C8 H8B 109.5 . . ?
C7 C8 H8C 109.5 . . ?
H8A C8 H8C 109.5 . . ?
H8B C8 H8C 109.5 . . ?
C7 N1 C1 108.33(14) . . ?
C7 N1 Cl1 126.49(13) . . ?
C1 N1 Cl1 125.05(12) . . ?
C7 N2 C2 105.90(15) . . ?
loop_
_geom_bond_atom_site_label_1
_geom_bond_atom_site_label_2
_geom_bond_distance
_geom_bond_site_symmetry_2
_geom_bond_publ_flag
C1 N1 1.382(2) . ?
C1 C6 1.383(3) . ?
C1 C2 1.394(2) . ?
C2 N2 1.389(2) . ?
C2 C3 1.390(3) . ?
C3 C4 1.370(4) . ?
C3 H3 0.93 . ?
C4 C5 1.385(4) . ?
C4 H4 0.93 . ?
C5 C6 1.374(3) . ?
C5 H5 0.93 . ?
C6 H6 0.93 . ?
C7 N2 1.310(2) . ?
C7 N1 1.372(2) . ?
C7 C8 1.483(3) . ?
C8 H8A 0.96 . ?
C8 H8B 0.96 . ?
C8 H8C 0.96 . ?
N1 Cl1 1.6916(14) . ?
loop_
_geom_torsion_atom_site_label_1
_geom_torsion_atom_site_label_2
_geom_torsion_atom_site_label_3
_geom_torsion_atom_site_label_4
_geom_torsion
_geom_torsion_site_symmetry_1
_geom_torsion_site_symmetry_2
_geom_torsion_site_symmetry_3
_geom_torsion_site_symmetry_4
_geom_torsion_publ_flag
N1 C1 C2 N2 -0.14(18) . . . . ?
C6 C1 C2 N2 179.34(16) . . . . ?
N1 C1 C2 C3 -179.99(16) . . . . ?
C6 C1 C2 C3 -0.5(3) . . . . ?
N2 C2 C3 C4 -179.1(2) . . . . ?
C1 C2 C3 C4 0.8(3) . . . . ?
C2 C3 C4 C5 -0.7(3) . . . . ?
C3 C4 C5 C6 0.4(4) . . . . ?
C4 C5 C6 C1 -0.2(3) . . . . ?
N1 C1 C6 C5 179.51(19) . . . . ?
C2 C1 C6 C5 0.2(3) . . . . ?
N2 C7 N1 C1 0.9(2) . . . . ?
C8 C7 N1 C1 -177.47(17) . . . . ?
N2 C7 N1 Cl1 177.00(12) . . . . ?
C8 C7 N1 Cl1 -1.4(3) . . . . ?
C6 C1 N1 C7 -179.85(19) . . . . ?
C2 C1 N1 C7 -0.44(18) . . . . ?
C6 C1 N1 Cl1 4.0(3) . . . . ?
C2 C1 N1 Cl1 -176.58(12) . . . . ?
N1 C7 N2 C2 -1.0(2) . . . . ?
C8 C7 N2 C2 177.34(18) . . . . ?
C3 C2 N2 C7 -179.48(19) . . . . ?
C1 C2 N2 C7 0.70(19) . . . . ?
