#------------------------------------------------------------------------------
#$Date: 2022-07-26 00:53:15 +0300 (Tue, 26 Jul 2022) $
#$Revision: 276922 $
#$URL: file:///home/coder/svn-repositories/cod/cif/7/13/03/7130388.cif $
#------------------------------------------------------------------------------
#
# This file is available in the Crystallography Open Database (COD),
# http://www.crystallography.net/
#
# All data on this site have been placed in the public domain by the
# contributors.
#
data_7130388
loop_
_publ_author_name
'Li, Yang'
'Chen, Xinglong'
'Ok, Kang Min'
_publ_section_title
;
 KF&#x00B7;B(OH)3: a KBBF-type material with large birefringence and
 remarkable deep-ultraviolet transparency
;
_journal_name_full               'Chemical Communications'
_journal_paper_doi               10.1039/D2CC03495F
_journal_year                    2022
_chemical_formula_moiety         'B H3 O3. F. K'
_chemical_formula_sum            'B F H3 K O3'
_chemical_formula_weight         119.93
_space_group_crystal_system      orthorhombic
_space_group_IT_number           57
_space_group_name_Hall           '-P 2c 2b'
_space_group_name_H-M_alt        'P b c m'
_atom_sites_solution_hydrogens   difmap
_atom_sites_solution_primary     dual
_audit_creation_date             2022-05-17
_audit_creation_method
;
Olex2 1.5
(compiled 2022.04.07 svn.rca3783a0 for OlexSys, GUI svn.r6498)
;
_audit_update_record
;
2022-05-17 deposited with the CCDC.	2022-07-15 downloaded from the CCDC.
;
_cell_angle_alpha                90
_cell_angle_beta                 90
_cell_angle_gamma                90
_cell_formula_units_Z            4
_cell_length_a                   5.4454(3)
_cell_length_b                   10.6284(7)
_cell_length_c                   7.0024(4)
_cell_measurement_reflns_used    7511
_cell_measurement_temperature    297.15
_cell_measurement_theta_max      28.31
_cell_measurement_theta_min      3.74
_cell_volume                     405.27(4)
_computing_cell_refinement       'SAINT V8.38A (Bruker, 2018)'
_computing_data_reduction        'SAINT V8.38A (Bruker, 2018)'
_computing_molecular_graphics    'Olex2 1.5 (Dolomanov et al., 2009)'
_computing_publication_material  'Olex2 1.5 (Dolomanov et al., 2009)'
_computing_structure_refinement  'SHELXL 2018/3 (Sheldrick, 2015)'
_computing_structure_solution    'SHELXT 2014/5 (Sheldrick, 2014)'
_diffrn_ambient_temperature      297.15
_diffrn_measured_fraction_theta_full 0.993
_diffrn_measured_fraction_theta_max 0.995
_diffrn_measurement_device_type  'Bruker APEX-II CCD'
_diffrn_measurement_method       '\f and \w scans'
_diffrn_radiation_type           MoK\a
_diffrn_radiation_wavelength     0.71073
_diffrn_reflns_av_R_equivalents  0.0343
_diffrn_reflns_av_unetI/netI     0.0110
_diffrn_reflns_Laue_measured_fraction_full 0.993
_diffrn_reflns_Laue_measured_fraction_max 0.995
_diffrn_reflns_limit_h_max       7
_diffrn_reflns_limit_h_min       -7
_diffrn_reflns_limit_k_max       14
_diffrn_reflns_limit_k_min       -14
_diffrn_reflns_limit_l_max       9
_diffrn_reflns_limit_l_min       -9
_diffrn_reflns_number            15066
_diffrn_reflns_point_group_measured_fraction_full 0.993
_diffrn_reflns_point_group_measured_fraction_max 0.995
_diffrn_reflns_theta_full        25.242
_diffrn_reflns_theta_max         28.381
_diffrn_reflns_theta_min         3.742
_diffrn_source_current           30.0
_diffrn_source_power             1.5
_diffrn_source_voltage           50.0
_diffrn_standards_number         0
_exptl_absorpt_coefficient_mu    1.192
_exptl_absorpt_correction_T_max  0.7457
_exptl_absorpt_correction_T_min  0.6712
_exptl_absorpt_correction_type   multi-scan
_exptl_absorpt_process_details
;
SADABS-2016/2 (Bruker,2016/2) was used for absorption correction.
wR2(int) was 0.0604 before and 0.0490 after correction.
The Ratio of minimum to maximum transmission is 0.9001.
The \l/2 correction factor is Not present.
;
_exptl_crystal_colour            'clear light colourless'
_exptl_crystal_colour_lustre     clear
_exptl_crystal_colour_modifier   light
_exptl_crystal_colour_primary    colourless
_exptl_crystal_density_diffrn    1.966
_exptl_crystal_description       block
_exptl_crystal_F_000             240
_exptl_crystal_size_max          0.156
_exptl_crystal_size_mid          0.147
_exptl_crystal_size_min          0.042
_refine_diff_density_max         0.290
_refine_diff_density_min         -0.427
_refine_diff_density_rms         0.063
_refine_ls_extinction_method     none
_refine_ls_goodness_of_fit_ref   1.297
_refine_ls_hydrogen_treatment    refU
_refine_ls_matrix_type           full
_refine_ls_number_parameters     39
_refine_ls_number_reflns         547
_refine_ls_number_restraints     0
_refine_ls_restrained_S_all      1.297
_refine_ls_R_factor_all          0.0262
_refine_ls_R_factor_gt           0.0236
_refine_ls_shift/su_max          0.000
_refine_ls_shift/su_mean         0.000
_refine_ls_structure_factor_coef Fsqd
_refine_ls_weighting_details
'w=1/[\s^2^(Fo^2^)+(0.0201P)^2^+0.1742P] where P=(Fo^2^+2Fc^2^)/3'
_refine_ls_weighting_scheme      calc
_refine_ls_wR_factor_gt          0.0546
_refine_ls_wR_factor_ref         0.0556
_reflns_Friedel_coverage         0.000
_reflns_number_gt                511
_reflns_number_total             547
_reflns_threshold_expression     'I > 2\s(I)'
_cod_data_source_file            d2cc03495f2.cif
_cod_data_source_block           1_pl
_cod_database_code               7130388
_shelx_shelxl_version_number     2018/3
_shelx_space_group_comment
;
The symmetry employed for this shelxl refinement is uniquely defined
by the following loop, which should always be used as a source of
symmetry information in preference to the above space-group names.
They are only intended as comments.
;
_shelx_estimated_absorpt_t_max   0.952
_shelx_estimated_absorpt_t_min   0.836
_olex2_refinement_description
;
1.a Riding coordinates:
 O1(H1), O3(H3), O2(H2)
;
_shelx_res_file
;
TITL 1_a.res in P-1 New: Pbcm
    1_pl.res
    created by SHELXL-2018/3 at 23:02:25 on 17-May-2022
CELL 0.71073 5.4454 10.6284 7.0024 90 90 90
ZERR 4 0.0003 0.0007 0.0004 0 0 0
LATT 1
SYMM -X,-Y,0.5+Z
SYMM +X,0.5-Y,-Z
SYMM -X,0.5+Y,0.5-Z
SFAC B F H K O
UNIT 4 4 12 4 12
EQIV $1 1-X,0.5+Y,0.5-Z
EQIV $2 -X,0.5+Y,0.5-Z

L.S. 50
PLAN  5
SIZE 0.156 0.147 0.042
TEMP 24
CONF
HTAB O1 F1_$1
HTAB O3 F1
HTAB O2 F1_$2
MORE -1
BOND $H
HTAB 3.2
fmap 2
acta
REM <olex2.extras>
REM <HklSrc "%.\\1.hkl">
REM </olex2.extras>

WGHT    0.020100    0.174200
FVAR       1.03597
O1    5    0.457577    0.428254    0.250000    10.50000    0.01509    0.01304 =
         0.04357    0.00000    0.00000   -0.00024
AFIX   3
H1    3    0.528877    0.495604    0.250000    10.50000    0.04925
AFIX   0
O3    5    0.056964    0.343434    0.250000    10.50000    0.01466    0.01375 =
         0.05005    0.00000    0.00000    0.00097
AFIX   3
H3    3    0.133694    0.286304    0.250000    10.50000    0.04711
AFIX   0
O2    5    0.120750    0.565372    0.250000    10.50000    0.01379    0.01503 =
         0.05874    0.00000    0.00000    0.00236
AFIX   3
H2    3   -0.019720    0.579342    0.250000    10.50000    0.05503
AFIX   0
B1    1    0.208702    0.445046    0.250000    10.50000    0.01504    0.01566 =
         0.02825    0.00000    0.00000    0.00000
F1    2    0.327726    0.141995    0.250000    10.50000    0.01692    0.01611 =
         0.05544    0.00000    0.00000    0.00101
K1    4    0.662508    0.250000    0.000000    10.50000    0.02340    0.02257 =
         0.02220   -0.00009    0.00000    0.00000
HKLF 4 1 1 0 0 0 0 1 0 -1 0




REM  1_a.res in P-1 New: Pbcm
REM wR2 = 0.0556, GooF = S = 1.297, Restrained GooF = 1.297 for all data
REM R1 = 0.0236 for 511 Fo > 4sig(Fo) and 0.0262 for all 547 data
REM 39 parameters refined using 0 restraints

END

WGHT      0.0201      0.1742

REM Instructions for potential hydrogen bonds
EQIV $13 -x+1, y+1/2, z
HTAB O1 F1_$13
EQIV $14 -x, y-1/2, z
HTAB O3 O2_$14
HTAB O3 F1
EQIV $15 -x, y+1/2, z
HTAB O2 F1_$15

REM Highest difference peak  0.290,  deepest hole -0.427,  1-sigma level  0.063
Q1    1   0.2721  0.1290  0.1512  11.00000  0.05    0.29
Q2    1   0.1606  0.5020  0.2500  10.50000  0.05    0.19
Q3    1   0.3425  0.4340  0.1990  11.00000  0.05    0.18
Q4    1  -0.0618  0.3640  0.1541  11.00000  0.05    0.16
Q5    1   0.4067  0.1784  0.0964  11.00000  0.05    0.15
;
_shelx_res_checksum              79654
_shelx_hkl_file
;
  -1   0   0  666.73   16.40
  -1   0   0  658.83   15.80
  -1   0   0  679.63   15.90
  -1   0   0  670.83   16.90
  -1   0   0  682.53   16.80
  -1   0   0  690.63   16.80
  -1   0   0  682.03   17.10
  -1   0   0  681.53   15.40
   1   0   0  680.73   16.50
   1   0   0  675.23   15.80
   1   0   0  692.83   15.20
   1   0   0  684.03   15.40
   1   0   0  692.73   17.10
   1   0   0  710.23   15.20
   1   0   0  683.83   17.20
   1   0   0  680.63   16.80
  -2   0   0   54.89    3.60
  -2   0   0   57.69    4.80
  -2   0   0   62.49    3.00
  -2   0   0   61.59    4.20
  -2   0   0   68.19    5.10
  -2   0   0   59.49    3.40
   2   0   0   63.19    4.70
   2   0   0   58.99    5.30
   2   0   0   59.89    4.80
   2   0   0   55.99    2.90
   2   0   0   64.79    2.90
   2   0   0   62.29    2.90
   2   0   0   64.69    5.10
  -3   0   0 1612.04   37.30
  -3   0   0 1601.84   37.10
  -3   0   0 1618.54   42.40
  -3   0   0 1610.04   40.50
  -3   0   0 1634.54   37.90
  -3   0   0 1689.03   41.80
   3   0   0 1662.53   37.30
   3   0   0 1641.24   38.20
   3   0   0 1612.44   41.50
   3   0   0 1648.24   43.00
   3   0   0 1619.94   40.70
   3   0   0 1625.94   42.30
   3   0   0 1579.84   37.80
  -4   0   0  640.14   22.40
  -4   0   0  651.13   19.30
  -4   0   0  652.73   17.10
  -4   0   0  616.74   16.80
   4   0   0  628.84   17.20
   4   0   0  682.43   21.70
   4   0   0  651.63   17.50
   4   0   0  644.64   23.20
   4   0   0  641.54   23.80
  -5   0   0  465.85   20.00
  -5   0   0  449.86   13.20
  -5   0   0  462.55   13.40
  -5   0   0  460.75   16.00
   5   0   0  443.96   20.90
   5   0   0  443.36   14.20
   5   0   0  469.45   14.40
   5   0   0  427.86   18.30
   5   0   0  458.25   20.80
  -6   0   0  415.66   16.30
  -6   0   0  423.16   20.60
   6   0   0  422.56   21.90
   6   0   0  406.16   14.50
   6   0   0  414.86   21.70
   6   0   0  441.16   19.50
   6   0   0  415.26   14.70
  -7   0   0  185.58   15.00
  -7   0   0  163.68   10.70
   7   0   0  191.98   16.30
   7   0   0  166.18   13.50
   7   0   0  172.48   15.80
   7  -1   0   -7.00    3.90
   7  -1   0    9.10    5.30
   7  -1   0    3.00    6.90
   7  -1   0    3.70    6.00
  -7   1   0   12.10    6.40
  -7   1   0    4.20    5.10
   6  -1   0    2.60    3.10
   6  -1   0    3.50    5.80
   6  -1   0    4.60    2.90
  -6   1   0    0.00    4.10
  -6   1   0   -5.20    3.40
  -6   1   0   -0.60    2.70
   5  -1   0    5.60    5.70
   5  -1   0   -1.80    2.20
   5  -1   0    0.10    3.80
   5  -1   0   -2.50    4.60
   5  -1   0   -4.80    4.60
   5  -1   0   -2.50    2.30
  -5   1   0   -1.80    2.60
  -5   1   0    0.70    3.70
  -5   1   0   -2.10    4.30
   4  -1   0   -2.80    4.90
   4  -1   0    0.00    1.90
   4  -1   0   -1.00    3.40
   4  -1   0   -0.20    2.40
  -4   1   0    1.20    2.40
  -4   1   0    3.80    3.70
  -4   1   0   -1.90    3.10
  -4   1   0   -1.20    2.70
   3  -1   0   -1.00    3.50
   3  -1   0    0.00    1.60
   3  -1   0    0.40    1.40
   3  -1   0    5.10    3.80
   3  -1   0    0.60    3.20
   3  -1   0   -0.10    2.60
  -3   1   0   -0.50    1.90
  -3   1   0    1.60    2.20
  -3   1   0   -3.70    2.20
   2  -1   0   -0.20    2.00
   2  -1   0    0.50    1.00
   2  -1   0   -0.40    1.60
   2  -1   0    1.70    1.70
   2  -1   0    1.30    2.40
   2  -1   0   -3.80    2.60
   2  -1   0    2.20    2.00
   2  -1   0    0.40    1.20
  -2   1   0    0.30    1.70
  -2   1   0    2.10    2.10
  -2   1   0   -1.70    1.90
  -2   1   0   -2.70    1.40
  -2   1   0   -3.90    1.90
  -2   1   0    2.60    2.50
  -2   1   0   -1.50    2.70
   1  -1   0    0.60    1.40
   1  -1   0    1.30    1.90
   1  -1   0    1.30    1.90
   1  -1   0    3.50    1.50
   1  -1   0   -0.60    2.20
   1  -1   0   -4.40    2.20
   1  -1   0    1.30    1.80
  -1   1   0   -0.40    1.70
  -1   1   0   -0.70    2.10
  -1   1   0   -1.60    1.90
  -1   1   0   -0.50    1.90
  -1   1   0   -1.30    2.20
  -1   1   0    2.20    0.80
  -1   1   0    1.40    1.90
  -1   1   0    0.30    1.40
  -1   1   0   -0.60    2.00
  -1   1   0    0.10    1.10
   0  -1   0    1.00    1.30
   0  -1   0    3.60    1.10
   0  -1   0    2.90    0.70
   0  -1   0    1.80    1.00
   0  -1   0    3.00    1.30
   0  -1   0    5.30    1.30
   0  -1   0    2.90    1.20
   0  -1   0    2.70    1.00
   0  -1   0    3.80    0.80
   0   1   0    2.70    1.30
   0   1   0    1.70    0.80
   0   1   0    2.20    1.40
   0   1   0    2.40    0.90
   0   1   0    0.40    0.90
  -1  -1   0    0.70    1.70
  -1  -1   0   -2.90    2.60
  -1  -1   0    0.70    1.80
  -1  -1   0    2.20    1.30
  -1  -1   0    0.30    2.70
  -1  -1   0   -1.50    1.90
  -1  -1   0   -0.70    1.60
  -1  -1   0    0.00    2.20
   1   1   0   -3.60    2.50
   1   1   0    0.50    1.50
   1   1   0   -1.30    2.00
   1   1   0   -0.40    1.30
   1   1   0   -0.80    2.80
   1   1   0    5.30    2.10
   1   1   0    0.10    2.60
  -2  -1   0   -1.50    1.00
  -2  -1   0    1.50    1.60
  -2  -1   0    0.60    1.50
  -2  -1   0    0.20    1.60
  -2  -1   0    1.10    2.80
  -2  -1   0    0.90    2.00
  -2  -1   0   -4.50    2.70
  -2  -1   0   -4.70    3.00
   2   1   0    2.00    1.60
   2   1   0   -1.10    3.20
   2   1   0    1.10    1.80
   2   1   0   -1.80    1.30
   2   1   0    2.60    3.60
   2   1   0    0.00    1.80
   2   1   0   -0.40    2.60
  -3  -1   0    0.10    1.30
  -3  -1   0    2.80    4.60
  -3  -1   0   -4.00    2.10
  -3  -1   0    0.40    1.10
  -3  -1   0    0.20    1.60
  -3  -1   0   -6.40    2.90
  -3  -1   0    4.20    4.00
  -3  -1   0    1.80    1.20
  -3  -1   0   -3.10    1.40
   3   1   0    0.70    2.00
   3   1   0    0.60    3.10
   3   1   0    2.00    2.10
   3   1   0    0.60    1.80
   3   1   0   -3.30    3.70
   3   1   0   -3.00    3.80
  -4  -1   0   -0.40    1.80
  -4  -1   0    0.40    2.20
  -4  -1   0   -9.00    4.00
  -4  -1   0   -0.80    3.10
   4   1   0   -3.00    3.50
   4   1   0    1.90    3.20
   4   1   0    0.70    2.70
   4   1   0   -2.90    2.00
   4   1   0   -2.10    4.90
   4   1   0   -4.90    2.60
  -5  -1   0    1.40    2.20
  -5  -1   0    0.80    2.10
  -5  -1   0    4.30    2.10
  -5  -1   0   -0.60    2.70
  -5  -1   0   -7.20    4.00
   5   1   0   -5.00    4.00
   5   1   0    0.30    5.70
   5   1   0    2.40    2.90
   5   1   0    1.10    3.00
   5   1   0   -0.30    5.70
  -6  -1   0   14.30    4.40
  -6  -1   0    2.70    5.30
  -6  -1   0   -2.40    2.50
   6   1   0   -1.50    4.70
   6   1   0    0.60    3.10
   6   1   0   -4.90    5.50
   6   1   0    7.30    6.40
   6   1   0   -2.00    3.50
  -7  -1   0   -6.70    3.70
  -7  -1   0    5.60    5.90
   7   1   0    6.80    7.20
   7   1   0    1.10    5.00
   7   1   0   17.10    7.20
   7  -2   0   18.40    8.10
   7  -2   0   10.80    5.90
   7  -2   0    6.50    6.70
   7  -2   0   20.60    4.90
  -7   2   0   24.80    7.60
  -7   2   0   24.60    6.20
   6  -2   0  201.98   12.40
   6  -2   0  223.78   15.60
   6  -2   0  219.48   15.30
   6  -2   0  207.08   14.50
   6  -2   0  210.38    9.10
  -6   2   0  215.88   15.00
  -6   2   0  204.58   12.10
   5  -2   0    2.30    5.40
   5  -2   0    0.00    4.50
   5  -2   0   -2.00    3.50
   5  -2   0    1.80    2.80
   5  -2   0   -0.10    2.20
  -5   2   0    1.30    4.80
  -5   2   0    3.30    3.50
  -5   2   0    1.20    3.90
   4  -2   0  139.29    8.90
   4  -2   0  134.09   10.20
   4  -2   0  141.09   10.60
   4  -2   0  140.79   10.50
   4  -2   0  147.29    6.60
   4  -2   0  147.29    6.10
  -4   2   0  146.89    7.90
  -4   2   0  119.59    7.00
  -4   2   0  147.89    9.10
   3  -2   0 1574.74   38.20
   3  -2   0 1624.74   36.00
   3  -2   0 1579.74   39.30
   3  -2   0 1511.45   40.30
   3  -2   0 1594.74   40.00
   3  -2   0 1536.45   37.70
   3  -2   0 1591.74   41.50
   3  -2   0 1575.24   36.30
  -3   2   0 1554.04   39.70
  -3   2   0 1555.74   39.20
  -3   2   0 1528.05   40.30
  -3   2   0 1598.74   38.10
  -3   2   0 1575.04   37.90
  -3   2   0 1541.25   38.10
   2  -2   0 1211.98   31.50
   2  -2   0 1236.08   29.40
   2  -2   0 1286.17   29.10
   2  -2   0 1226.48   30.60
   2  -2   0 1312.87   31.60
   2  -2   0 1281.07   32.90
  -2   2   0 1270.67   32.00
  -2   2   0 1258.37   31.30
  -2   2   0 1274.47   30.90
  -2   2   0 1284.07   30.70
  -2   2   0 1246.88   29.70
  -2   2   0 1272.77   32.60
   1  -2   0 1441.76   34.10
   1  -2   0 1459.15   31.50
   1  -2   0 1458.25   33.20
   1  -2   0 1460.95   35.30
   1  -2   0 1466.65   33.50
   1  -2   0 1510.15   34.30
   1  -2   0 1444.76   31.70
   1  -2   0 1442.06   33.70
  -1   2   0 1437.96   31.50
  -1   2   0 1440.16   33.90
  -1   2   0 1448.36   34.10
  -1   2   0 1472.45   33.20
  -1   2   0 1467.55   32.80
  -1   2   0 1418.76   34.00
  -1   2   0 1422.36   35.10
  -1   2   0 1438.56   34.20
  -1   2   0 1430.26   31.70
  -1  -2   0 1449.76   33.70
  -1  -2   0 1455.05   33.90
  -1  -2   0 1439.76   33.40
  -1  -2   0 1480.05   35.20
  -1  -2   0 1447.26   34.00
  -1  -2   0 1423.66   34.40
  -1  -2   0 1425.26   32.10
  -1  -2   0 1445.26   35.00
   1   2   0 1449.55   35.20
   1   2   0 1409.26   32.10
   1   2   0 1413.26   31.70
   1   2   0 1457.35   34.00
   1   2   0 1484.35   34.30
   1   2   0 1421.56   34.50
   1   2   0 1422.06   34.90
   1   2   0 1379.76   34.60
   1   2   0 1466.55   33.50
  -2  -2   0 1284.47   30.30
  -2  -2   0 1276.47   29.90
  -2  -2   0 1274.17   32.90
  -2  -2   0 1239.58   28.80
  -2  -2   0 1259.57   32.30
  -2  -2   0 1245.68   33.90
   2   2   0 1303.07   32.40
   2   2   0 1225.98   28.70
   2   2   0 1281.27   30.80
   2   2   0 1297.87   31.20
   2   2   0 1233.38   34.90
   2   2   0 1279.87   29.90
   2   2   0 1274.27   34.10
  -3  -2   0 1604.34   36.20
  -3  -2   0 1531.05   36.40
  -3  -2   0 1501.05   36.20
  -3  -2   0 1544.55   41.10
   3   2   0 1583.64   38.30
   3   2   0 1560.74   36.40
   3   2   0 1585.14   40.60
   3   2   0 1562.24   43.00
   3   2   0 1560.34   39.50
   3   2   0 1504.15   35.80
   3   2   0 1609.64   42.10
  -4  -2   0  140.69    6.40
  -4  -2   0  151.08   10.30
   4   2   0  145.19    8.00
   4   2   0  150.88   10.40
   4   2   0  169.18   12.20
   4   2   0  134.49    7.50
   4   2   0  140.89   11.90
   4   2   0  143.09    6.40
  -5  -2   0    9.30    3.40
  -5  -2   0    6.00    2.60
  -5  -2   0    4.10    4.30
   5   2   0    3.20    2.20
   5   2   0    6.90    3.70
   5   2   0    9.50    6.30
   5   2   0    7.10    3.60
   5   2   0    4.60    4.90
   5   2   0   -4.40    5.20
  -6  -2   0  199.38   14.80
  -6  -2   0  190.88    8.20
  -6  -2   0  196.38   10.00
   6   2   0  198.18   10.60
   6   2   0  219.68   16.40
   6   2   0  185.28   13.60
   6   2   0  212.78   16.60
   6   2   0  226.98   11.40
  -7  -2   0   33.20    8.10
  -7  -2   0    3.50    7.40
  -7  -2   0   19.60    7.70
   7   2   0   23.40    5.30
   7   2   0   16.90    7.10
   7   2   0   20.70    7.80
   7   2   0   32.20    9.40
   6  -3   0    0.00    3.10
   6  -3   0   -5.00    2.10
   6  -3   0   -3.10    4.30
   6  -3   0    0.40    5.20
   6  -3   0    4.90    4.30
   6  -3   0    2.40    5.70
  -6   3   0   -5.30    3.30
  -6   3   0    2.30    4.70
  -6   3   0    3.70    5.00
   5  -3   0   -6.40    4.50
   5  -3   0   -1.40    4.20
   5  -3   0   -4.00    3.70
   5  -3   0   -2.70    4.90
   5  -3   0    1.90    2.80
   5  -3   0    1.00    3.20
  -5   3   0   -1.30    3.00
  -5   3   0   -4.40    3.60
   4  -3   0    3.90    3.30
   4  -3   0   -3.40    2.00
   4  -3   0    0.50    5.40
   4  -3   0    2.30    2.90
   4  -3   0   -3.10    3.90
   4  -3   0   -4.00    4.40
  -4   3   0   -0.30    3.20
  -4   3   0    1.00    4.30
   3  -3   0   -5.90    2.80
   3  -3   0   -3.20    2.60
   3  -3   0   -0.40    3.80
   3  -3   0    1.00    3.10
   3  -3   0   -2.10    1.80
   3  -3   0   -1.90    2.40
   3  -3   0    1.10    4.20
   3  -3   0   -3.90    3.40
  -3   3   0   -0.80    3.30
  -3   3   0    3.90    3.70
  -3   3   0    3.30    2.80
  -3   3   0   -4.10    3.60
  -3   3   0   -1.00    3.30
   2  -3   0   -2.00    2.50
   2  -3   0    0.00    2.70
   2  -3   0   -0.60    1.60
   2  -3   0   -1.40    1.50
   2  -3   0   -1.20    1.90
   2  -3   0    1.50    3.10
   2  -3   0    0.00    1.30
   2  -3   0   -5.10    3.10
  -2   3   0   -5.40    2.70
  -2   3   0    1.50    2.40
  -2   3   0    0.70    1.70
  -2   3   0    4.10    3.20
  -2   3   0   -0.20    1.50
   1  -3   0    2.50    2.60
   1  -3   0   -0.50    2.60
   1  -3   0    0.00    1.80
   1  -3   0    2.40    2.70
   1  -3   0    0.90    1.90
  -1   3   0    0.50    3.10
  -1   3   0    0.80    2.40
  -1   3   0   -0.70    1.80
  -1   3   0    0.50    2.70
   0  -3   0   -1.10    1.80
   0  -3   0    3.80    2.90
   0  -3   0   -1.10    2.30
   0  -3   0    0.40    2.60
   0  -3   0   -3.30    2.10
   0   3   0   -1.20    2.00
   0   3   0   -0.40    1.90
   0   3   0    1.00    1.30
   0   3   0   -1.10    2.10
   0   3   0    0.10    2.30
   0   3   0   -0.50    1.90
   0   3   0    2.30    1.70
   0   3   0    2.80    2.00
  -1  -3   0    1.00    2.40
  -1  -3   0    0.80    1.60
  -1  -3   0    2.40    2.80
  -1  -3   0    0.90    2.00
  -1  -3   0    1.30    3.00
  -1  -3   0   -1.30    1.90
  -1  -3   0    4.00    2.60
  -1  -3   0    2.20    2.40
  -1  -3   0   -0.90    2.40
   1   3   0   -1.10    2.80
   1   3   0   -0.50    1.40
   1   3   0   -1.10    2.70
   1   3   0   -2.50    1.50
   1   3   0   -0.20    1.90
   1   3   0    0.20    2.10
   1   3   0    1.20    2.60
  -2  -3   0   -1.60    2.80
  -2  -3   0   -2.10    3.30
  -2  -3   0   -0.70    1.50
  -2  -3   0    0.70    2.80
  -2  -3   0    2.40    2.40
  -2  -3   0    1.60    4.20
  -2  -3   0   -1.40    2.10
  -2  -3   0    3.50    3.70
   2   3   0    3.20    3.10
   2   3   0   -3.90    2.30
   2   3   0    0.00    2.50
   2   3   0   -1.00    3.30
   2   3   0    1.30    3.00
   2   3   0    0.00    3.60
   2   3   0   -0.40    1.50
  -3  -3   0   -5.90    4.60
  -3  -3   0   -0.70    2.70
  -3  -3   0    0.70    2.70
  -3  -3   0   -0.50    1.90
  -3  -3   0    2.90    5.30
   3   3   0    2.60    3.50
   3   3   0   -3.10    4.40
   3   3   0   -0.10    3.70
   3   3   0   -2.20    2.70
   3   3   0    0.50    2.90
   3   3   0   -2.80    4.50
  -4  -3   0    1.70    2.70
  -4  -3   0   -0.10    2.60
  -4  -3   0    3.70    6.90
  -4  -3   0   -4.80    2.80
   4   3   0    3.90    2.90
   4   3   0   -3.30    5.10
   4   3   0   -1.70    3.20
   4   3   0    3.90    4.60
   4   3   0    2.20    3.80
  -5  -3   0    4.60    6.00
  -5  -3   0   -3.00    2.80
  -5  -3   0   -4.00    5.50
  -5  -3   0   -0.50    2.60
   5   3   0   -3.20    3.60
   5   3   0    3.50    2.40
   5   3   0    3.30    6.30
  -6  -3   0   -1.80    2.80
  -6  -3   0    6.30    5.80
   6   3   0    7.70    6.60
   6   3   0    8.30    4.30
   6   3   0    0.00    4.00
   6   3   0    1.20    2.30
   6  -4   0  259.77   13.40
   6  -4   0  251.37   11.70
   6  -4   0  240.78   16.90
   6  -4   0  261.47   10.80
   6  -4   0  259.57   15.40
   6  -4   0  266.97   16.10
  -6   4   0  300.47   13.40
  -6   4   0  239.58   12.80
  -6   4   0  230.78   13.90
   5  -4   0  184.28   13.00
   5  -4   0  170.38    9.00
   5  -4   0  193.08   12.80
   5  -4   0  178.08    8.50
  -5   4   0  181.48   10.90
  -5   4   0  167.98   10.90
   4  -4   0  259.07   13.20
   4  -4   0  267.67   11.60
   4  -4   0  257.77   15.00
   4  -4   0  270.77   10.30
   4  -4   0  263.97   10.90
   4  -4   0  276.27   10.40
  -4   4   0  274.17   11.70
  -4   4   0  268.97   12.90
  -4   4   0  269.87   12.90
  -4   4   0  272.17   12.90
   3  -4   0  724.93   21.20
   3  -4   0  755.52   25.50
   3  -4   0  721.53   22.70
   3  -4   0  775.42   23.90
   3  -4   0  718.33   20.50
  -3   4   0  737.93   23.40
  -3   4   0  724.63   19.50
  -3   4   0  763.92   23.10
  -3   4   0  722.33   18.70
   2  -4   0   84.39    6.70
   2  -4   0   85.79    6.00
   2  -4   0  100.39    8.60
   2  -4   0   82.39    6.30
   2  -4   0   86.89    5.80
  -2   4   0   87.89    7.00
  -2   4   0   94.79    5.50
   1  -4   0  341.07   11.90
   1  -4   0  322.37   13.70
   1  -4   0  327.87   11.40
   1  -4   0  307.17   11.50
   1  -4   0  305.67   11.00
  -1   4   0  318.27   12.10
  -1   4   0  322.07   11.30
  -1   4   0  299.97   10.90
  -1   4   0  311.07   12.70
   0  -4   0 9999.00  221.28
  -1  -4   0  318.27   12.10
  -1  -4   0  322.57   12.40
  -1  -4   0  316.17   11.90
  -1  -4   0  325.77   12.00
  -1  -4   0  320.47   10.00
  -1  -4   0  300.37   13.20
  -1  -4   0  313.67   10.90
   1   4   0  321.27   12.60
   1   4   0  307.67   11.70
   1   4   0  307.37    9.70
   1   4   0  336.57   12.20
   1   4   0  330.27   10.90
   1   4   0  313.07   12.10
  -2  -4   0   85.19    6.40
  -2  -4   0  106.19    9.60
  -2  -4   0   95.09    9.80
  -2  -4   0   91.39    4.60
  -2  -4   0   88.89    7.80
  -2  -4   0   85.99    7.80
   2   4   0   81.59    6.80
   2   4   0   80.59    6.60
   2   4   0   84.29    4.60
   2   4   0   91.89    6.70
   2   4   0   84.49    7.30
   2   4   0   95.29    8.20
  -3  -4   0  685.63   24.80
  -3  -4   0  725.73   18.20
  -3  -4   0  766.32   26.30
  -3  -4   0  714.03   21.40
   3   4   0  716.43   22.30
   3   4   0  720.33   26.30
   3   4   0  756.92   21.30
   3   4   0  749.62   23.40
   3   4   0  735.13   25.10
   3   4   0  739.83   24.00
  -4  -4   0  243.48   14.30
  -4  -4   0  268.67   14.70
  -4  -4   0  270.07   10.70
  -4  -4   0  258.17   14.70
  -4  -4   0  248.78    8.20
   4   4   0  257.07   12.70
   4   4   0  261.47   12.10
   4   4   0  243.58   13.80
   4   4   0  268.07   14.80
   4   4   0  277.37   16.60
   4   4   0  262.87   10.50
  -5  -4   0  186.28   14.60
  -5  -4   0  165.68    6.70
  -5  -4   0  210.88   15.10
   5   4   0  177.68   10.60
   5   4   0  193.88   11.50
   5   4   0  182.98   12.40
   5   4   0  180.88   14.10
   5   4   0  169.68   13.90
  -6  -4   0  267.07   18.20
  -6  -4   0  261.57   18.10
   6   4   0  290.77   19.10
   6   4   0  252.57   14.30
   6   4   0  248.48   18.80
   6   4   0  275.97   17.00
   6  -5   0    7.20    3.80
   6  -5   0   -5.00    5.30
   6  -5   0   18.00    6.50
  -6   5   0    3.60    5.30
  -6   5   0   -5.00    5.20
   5  -5   0    2.00    5.10
   5  -5   0    3.70    2.80
   5  -5   0    7.20    4.70
  -5   5   0   -2.10    3.80
  -5   5   0   -1.40    4.40
   4  -5   0   -1.90    3.60
   4  -5   0    3.40    3.60
   4  -5   0    2.70    3.00
  -4   5   0    5.20    4.90
  -4   5   0   10.10    5.10
   3  -5   0    0.10    5.10
   3  -5   0    4.10    3.00
   3  -5   0    5.00    4.00
   3  -5   0    1.40    4.50
   3  -5   0    3.00    3.70
  -3   5   0   -2.70    4.50
  -3   5   0   -0.20    4.40
   2  -5   0    3.00    5.50
   2  -5   0   -0.70    4.40
   2  -5   0   -0.10    4.30
   2  -5   0   -1.00    2.80
  -2   5   0    5.20    4.60
  -2   5   0    2.50    3.30
  -2   5   0   -5.40    4.30
   1  -5   0   -3.80    3.60
   1  -5   0   -3.30    3.00
   1  -5   0   -1.80    5.20
   1  -5   0    3.40    3.60
   1  -5   0   -4.20    3.40
  -1   5   0   -1.80    3.40
  -1   5   0   -0.10    3.40
   0  -5   0   -1.20    2.20
   0  -5   0    1.40    2.40
   0  -5   0   -3.10    4.20
   0  -5   0    0.70    3.30
   0  -5   0    0.40    2.90
   0  -5   0    0.80    2.80
   0  -5   0    1.70    3.00
   0  -5   0    1.90    1.90
   0  -5   0   -0.20    4.20
   0   5   0    0.70    4.50
   0   5   0    3.20    4.00
  -1  -5   0   -2.50    2.60
  -1  -5   0    3.80    4.90
  -1  -5   0   -0.10    2.70
  -1  -5   0    6.90    6.20
  -1  -5   0   -0.20    2.80
  -1  -5   0   -2.40    3.40
  -1  -5   0    5.40    4.10
   1   5   0   -1.50    3.30
   1   5   0    2.00    4.60
   1   5   0   -2.50    2.80
   1   5   0   10.80    4.70
  -2  -5   0    8.80    7.20
  -2  -5   0    2.70    3.80
  -2  -5   0   -0.30    2.50
  -2  -5   0    5.70    5.30
   2   5   0    5.80    5.00
   2   5   0    3.00    4.30
   2   5   0    1.30    4.00
   2   5   0    0.60    3.50
   2   5   0   -1.30    1.90
   2   5   0    2.00    4.40
  -3  -5   0    1.90    5.40
  -3  -5   0    1.10    6.60
  -3  -5   0   -0.40    1.90
  -3  -5   0    2.30    3.90
   3   5   0   -1.00    4.70
   3   5   0    1.50    2.00
   3   5   0    0.90    4.00
   3   5   0   -0.70    3.50
   3   5   0    2.10    4.10
   3   5   0    2.40    4.40
  -4  -5   0    4.10    3.40
  -4  -5   0    1.70    5.00
  -4  -5   0    0.10    5.50
  -4  -5   0    1.10    1.70
   4   5   0    0.20    5.20
   4   5   0   -8.10    3.90
   4   5   0   -1.90    3.40
   4   5   0   -5.80    4.50
   4   5   0    3.40    4.50
  -5  -5   0    5.80    5.70
  -5  -5   0    2.60    7.20
   5   5   0   20.10    7.80
   5   5   0    5.40    6.20
   5   5   0    6.00    4.80
   5   5   0    1.50    3.20
   5   5   0    5.10    5.20
  -6  -5   0   -6.70    7.20
  -6  -5   0   16.70    7.80
   6   5   0   -8.10    6.70
   5  -6   0   18.90    4.10
   5  -6   0   13.50    7.30
   5  -6   0   17.90    6.40
  -5   6   0   11.20    5.50
  -5   6   0   18.10    6.50
   4  -6   0   90.29    8.50
   4  -6   0   97.99    7.60
   4  -6   0   89.59   11.90
   4  -6   0  111.49    8.80
  -4   6   0   97.49    9.60
  -4   6   0   94.79   10.70
   3  -6   0  499.45   18.30
   3  -6   0  519.95   22.70
   3  -6   0  520.25   17.80
   3  -6   0  488.85   19.60
  -3   6   0  527.05   20.70
  -3   6   0  499.75   19.70
   2  -6   0  176.18   11.00
   2  -6   0  182.08   10.60
   2  -6   0  178.98    9.80
   2  -6   0  180.98   13.20
   2  -6   0  176.68    8.90
  -2   6   0  190.98   12.10
  -2   6   0  186.38    9.30
  -2   6   0  180.28   10.90
   1  -6   0  209.68   11.00
   1  -6   0  203.68   11.00
   1  -6   0  219.58   11.40
   1  -6   0  243.68   14.60
   1  -6   0  198.38   10.80
  -1   6   0  220.78   12.00
  -1   6   0  217.98   11.30
   0  -6   0    6.20    3.60
   0  -6   0    3.60    2.30
   0  -6   0    4.80    4.30
   0  -6   0    2.00    2.80
   0  -6   0    1.70    5.70
   0  -6   0    1.30    6.60
   0   6   0    7.10    5.60
  -1  -6   0  212.28   11.60
  -1  -6   0  216.98   12.20
  -1  -6   0  204.38   10.50
  -1  -6   0  191.68   12.90
  -1  -6   0  187.18   12.50
  -1  -6   0  230.58    9.80
   1   6   0  231.88   12.60
   1   6   0  209.98   12.10
   1   6   0  221.08   10.80
   1   6   0  211.88    9.30
  -2  -6   0  187.38   12.10
  -2  -6   0  176.08    7.70
  -2  -6   0  175.18   12.60
  -2  -6   0  187.98   10.70
   2   6   0  168.88   11.10
   2   6   0  184.88   10.90
   2   6   0  159.28    7.00
   2   6   0  158.18    9.40
   2   6   0  179.28   13.70
  -3  -6   0  525.75   23.80
  -3  -6   0  543.65   24.70
  -3  -6   0  486.95   14.70
   3   6   0  498.95   22.00
   3   6   0  525.25   20.90
   3   6   0  516.05   19.80
   3   6   0  514.05   18.80
  -4  -6   0  107.19    8.50
  -4  -6   0  102.19   13.60
  -4  -6   0  102.69   11.60
   4   6   0  104.69    7.80
   4   6   0   93.29   12.20
   4   6   0  102.19   11.30
   4   6   0   94.89    9.50
  -5  -6   0   14.70    7.10
  -5  -6   0   12.80    7.10
   5   6   0   10.10    6.40
   5   6   0    9.00    5.30
   5   6   0   16.30    6.00
   5   6   0   12.90    4.70
   4  -7   0    7.70    6.90
   4  -7   0    1.40    3.80
  -4   7   0   -1.30    5.50
  -4   7   0    4.40    4.00
   3  -7   0  -10.80    8.70
   3  -7   0   -4.90    3.90
   3  -7   0    5.10    4.00
   3  -7   0    9.70    4.00
   3  -7   0    0.20    4.40
  -3   7   0    1.60    4.80
  -3   7   0   -8.60    5.10
   2  -7   0   11.30    3.70
   2  -7   0   -2.90    5.50
   2  -7   0    1.50    4.50
   2  -7   0    1.60    4.30
  -2   7   0    4.60    3.70
  -2   7   0    3.00    4.80
  -2   7   0   -5.80    5.10
   1  -7   0   -0.20    3.60
   1  -7   0    2.10    6.10
   1  -7   0    9.60    4.90
   1  -7   0    5.80    4.20
   1  -7   0    0.40    3.80
  -1   7   0   -2.80    3.60
  -1   7   0   -0.60    4.80
  -1   7   0   -1.00    3.80
   0  -7   0   -2.70    3.10
   0  -7   0    0.00    1.40
   0  -7   0    1.10    3.90
   0  -7   0   -5.70    4.70
   0  -7   0   -1.30    4.80
   0   7   0   -7.80    4.90
   0   7   0   -1.90    4.40
  -1  -7   0    3.00    6.40
  -1  -7   0   -4.90    3.30
  -1  -7   0   -5.20    5.60
  -1  -7   0    5.70    4.10
  -1  -7   0   10.00    3.00
  -1  -7   0    2.80    3.20
   1   7   0   -5.30    4.60
   1   7   0   -3.20    4.80
   1   7   0    5.90    3.60
  -2  -7   0    3.10    3.90
  -2  -7   0   -2.50    2.50
  -2  -7   0    4.70    5.80
  -2  -7   0   -0.50    5.40
   2   7   0   -2.10    4.20
   2   7   0   -1.30    5.00
   2   7   0    4.70    3.50
   2   7   0   -3.10    3.30
   2   7   0    3.50    4.90
  -3  -7   0   -0.50    7.40
  -3  -7   0   -0.20    3.70
  -3  -7   0   -8.90    3.90
  -3  -7   0    3.30    5.80
   3   7   0   -6.00    4.00
   3   7   0    0.60    5.00
   3   7   0    2.80    4.30
   3   7   0    3.20    4.90
  -4  -7   0    4.00    7.50
  -4  -7   0    4.50    6.40
   4   7   0   -1.30    3.90
   4   7   0    3.20    5.30
   4   7   0    1.40    4.60
   4   7   0    5.10    6.00
   3  -8   0  146.19   14.70
   3  -8   0  187.68   13.00
   3  -8   0  166.18   11.60
  -3   8   0  158.68   12.70
  -3   8   0  155.78   13.60
   2  -8   0   36.70    8.70
   2  -8   0   59.29    7.80
   2  -8   0   50.19    7.90
  -2   8   0   48.70    9.10
  -2   8   0   56.39    8.40
   1  -8   0   61.49   11.30
   1  -8   0   73.69    7.90
   1  -8   0   74.99    8.20
  -1   8   0   78.99    8.30
  -1   8   0   72.39   10.70
   0  -8   0  896.51   34.10
   0  -8   0  870.71   27.40
   0  -8   0  871.61   29.50
   0  -8   0  848.72   26.30
   0   8   0  937.71   31.60
   0   8   0  888.21   27.40
   0   8   0  930.51   33.90
  -1  -8   0   80.19    8.80
  -1  -8   0   79.29   12.90
  -1  -8   0   99.89    5.90
   1   8   0   75.29   10.20
  -2  -8   0   29.80    4.50
  -2  -8   0   37.00   11.90
  -2  -8   0   31.70    6.80
   2   8   0   49.00    8.70
   2   8   0   63.49    9.20
   2   8   0   34.90    6.00
   2   8   0   42.40    7.40
  -3  -8   0  208.48   12.00
  -3  -8   0  136.29   16.10
  -3  -8   0  182.38   15.30
   3   8   0  177.68   16.00
   3   8   0  160.78   11.70
   3   8   0  186.88   13.90
   3   8   0  144.29   13.00
   1  -9   0    1.50    4.30
   1  -9   0    7.90    5.20
   1  -9   0   -6.90    7.10
  -1   9   0    5.10    4.60
   0  -9   0    2.00    7.60
   0  -9   0    4.30    4.30
   0  -9   0    0.20    4.50
   0   9   0   -3.40    7.00
   0   9   0   11.90    5.00
  -1  -9   0   -4.80    7.60
  -1  -9   0   15.30    4.50
  -1  -9   0   -6.60    4.60
  -1  -9   0  -10.10    6.80
   1   9   0    3.20    3.90
   1   9   0   -1.20    4.40
   2   9   0   -0.80    6.00
   1   9  -1    4.90    6.00
  -1  -9   1   -1.30    5.20
  -1  -9   1   -0.50    5.90
  -1  -9   1  -11.60   10.70
   0   9  -1    7.80    4.60
   0  -9   1   -3.60    7.50
   0  -9   1    6.90    6.30
   0  -9   1   -3.30    4.40
  -1   9  -1    3.90    5.10
  -1   9  -1   12.80    7.60
   1  -9   1    1.00    5.60
   1  -9   1    7.40    5.30
   3   8  -1    3.60    5.80
   3   8  -1   -5.10    5.70
  -3  -8   1   -9.90    7.30
  -3  -8   1    0.60    8.30
   2   8  -1  155.68   11.40
   2   8  -1  179.88    8.40
  -2  -8   1  202.28   11.00
  -2  -8   1  177.88   16.10
  -2  -8   1  139.19   13.90
  -2  -8   1  199.28   10.60
  -2  -8   1  198.68   15.40
   1   8  -1  149.79    8.70
   1   8  -1  125.39   11.30
   1   8  -1  156.98   11.80
  -1  -8   1  143.59   13.20
  -1  -8   1  171.88    8.10
  -1  -8   1  149.39    7.70
  -1  -8   1  148.39   11.00
  -1  -8   1  131.39   12.60
  -1  -8   1  134.69    8.40
   0   8  -1    8.20    5.20
   0   8  -1   11.10    4.60
   0   8  -1    3.60    4.80
   0  -8   1    4.00    6.70
   0  -8   1   -9.40    5.40
   0  -8   1    3.60    4.80
   0  -8   1    6.90    4.30
  -1   8  -1  137.59   11.30
  -1   8  -1  140.09   10.10
   1  -8   1  121.09   13.30
   1  -8   1  123.89   11.80
   1  -8   1  142.89   10.30
   1  -8   1  159.88   10.00
  -2   8  -1  205.08   12.60
  -2   8  -1  178.48   13.80
   2  -8   1  186.08   15.90
   2  -8   1  212.58   10.70
   2  -8   1  171.68   11.60
  -3   8  -1   -2.80    4.60
  -3   8  -1    6.20    5.40
   3  -8   1    1.70    6.40
   3  -8   1    1.00    4.20
   4   7  -1   18.20    7.00
   4   7  -1   25.50    7.50
   4   7  -1   15.00    6.00
   4   7  -1   19.30    6.00
  -4  -7   1   14.60    8.10
  -4  -7   1   10.70    9.10
   3   7  -1    7.90    5.50
   3   7  -1    9.40    5.10
   3   7  -1   12.30    2.00
   3   7  -1    6.70    5.30
  -3  -7   1    7.10    4.50
  -3  -7   1   25.10    5.70
  -3  -7   1    4.90    7.70
  -3  -7   1   26.00    5.70
  -3  -7   1   16.60    7.60
   2   7  -1   48.20    4.40
   2   7  -1   28.50    6.70
   2   7  -1   41.40    5.20
   2   7  -1   19.20    6.50
   2   7  -1   34.40    5.50
   2   7  -1   40.30    7.30
  -2  -7   1   20.80    8.10
  -2  -7   1   35.10    5.10
  -2  -7   1   35.90   10.20
  -2  -7   1   30.40    6.30
  -2  -7   1   34.00    4.10
   1   7  -1   19.90    6.50
   1   7  -1   15.30    3.80
  -1  -7   1   28.20    4.30
  -1  -7   1   21.80    4.20
  -1  -7   1   22.70    6.50
  -1  -7   1   24.60    7.00
  -1  -7   1   13.90    6.60
  -1  -7   1   10.90    5.20
  -1  -7   1   13.40    3.90
   0   7  -1    2.00    6.20
   0   7  -1    6.30    4.70
   0   7  -1    1.00    3.80
   0  -7   1   -7.20    5.60
   0  -7   1   -3.60    6.10
   0  -7   1    3.40    4.20
   0  -7   1    2.10    3.70
  -1   7  -1   38.80    6.80
  -1   7  -1   20.90    7.70
  -1   7  -1   28.70    5.80
   1  -7   1   25.40    6.80
   1  -7   1   10.70    6.40
   1  -7   1   19.80    5.20
   1  -7   1   20.10    5.30
   1  -7   1   28.70    6.20
  -2   7  -1   28.30    5.20
  -2   7  -1   35.90    7.10
  -2   7  -1   33.30    6.10
   2  -7   1   34.70    6.20
   2  -7   1   43.80    9.20
   2  -7   1   21.90    6.00
  -3   7  -1    9.50    6.70
  -3   7  -1    9.60    4.30
   3  -7   1   15.00    5.00
   3  -7   1   11.00    7.00
   3  -7   1   21.20    5.20
  -4   7  -1   13.30    5.20
  -4   7  -1   16.20    7.20
   4  -7   1   12.00    4.00
   4  -7   1   14.20    6.30
   5   6  -1  127.99   12.10
   5   6  -1  118.39    9.20
   5   6  -1   95.09   10.80
   5   6  -1  108.29   12.50
  -5  -6   1  111.09   14.40
   4   6  -1  328.77   14.20
   4   6  -1  308.37   18.20
   4   6  -1  288.57   15.60
  -4  -6   1  292.87   18.90
  -4  -6   1  295.87   18.20
   3   6  -1   20.70    6.30
   3   6  -1   17.00    5.40
   3   6  -1   14.50    1.80
   3   6  -1   12.70    5.80
   3   6  -1   10.40    4.70
  -3  -6   1   26.20    7.50
  -3  -6   1   14.10    6.60
  -3  -6   1   19.10    5.20
   2   6  -1  590.64   19.80
   2   6  -1  576.44   20.70
   2   6  -1  609.34   22.20
   2   6  -1  566.14   15.90
   2   6  -1  585.24   21.90
  -2  -6   1  635.24   17.60
  -2  -6   1  585.24   22.60
  -2  -6   1  574.64   19.50
  -2  -6   1  557.34   20.10
  -2  -6   1  560.34   23.10
  -2  -6   1  557.34   20.70
   1   6  -1  795.12   22.70
   1   6  -1  807.02   25.70
   1   6  -1  802.42   24.60
   1   6  -1  804.02   26.50
  -1  -6   1  820.22   22.80
  -1  -6   1  789.92   22.20
  -1  -6   1  809.92   24.00
  -1  -6   1  871.51   25.70
  -1  -6   1  781.12   24.30
  -1  -6   1  804.12   22.80
  -1  -6   1  820.72   28.80
  -1  -6   1  822.42   26.80
   0   6  -1   -2.50    3.10
   0   6  -1    7.50    4.90
   0   6  -1    1.80    5.20
   0  -6   1   -3.40    2.50
   0  -6   1   -0.60    3.70
   0  -6   1    5.60    6.00
   0  -6   1    2.30    4.30
   0  -6   1    3.00    3.90
   0  -6   1    0.40    3.20
   0  -6   1   -3.00    5.80
   0  -6   1   -0.10    2.00
  -1   6  -1  820.92   26.50
  -1   6  -1  830.22   24.80
  -1   6  -1  773.32   25.00
   1  -6   1  814.92   24.90
   1  -6   1  798.02   25.70
   1  -6   1  816.12   28.70
   1  -6   1  852.31   25.50
   1  -6   1  811.82   24.80
  -2   6  -1  609.94   20.80
  -2   6  -1  587.44   21.60
  -2   6  -1  552.14   18.50
   2  -6   1  582.14   23.70
   2  -6   1  549.74   20.20
   2  -6   1  570.74   20.40
   2  -6   1  586.64   19.50
   2  -6   1  551.24   19.50
  -3   6  -1   24.90    6.80
  -3   6  -1   14.80    5.60
   3  -6   1   21.40    5.20
   3  -6   1   20.20    6.30
   3  -6   1   16.70    5.90
  -4   6  -1  270.97   15.10
  -4   6  -1  313.77   15.60
   4  -6   1  266.77   14.10
   4  -6   1  288.07   13.00
   4  -6   1  306.87   16.60
   4  -6   1  317.57   17.70
  -5   6  -1  129.29   11.30
  -5   6  -1  116.59   10.20
   5  -6   1  136.39   11.30
   5  -6   1   95.89    8.00
   5  -6   1  106.39   12.30
   6   5  -1    6.70    5.10
   6   5  -1   -2.70    3.90
  -6  -5   1   14.90    7.70
  -6  -5   1   -1.70    8.00
   5   5  -1   46.90    7.70
   5   5  -1   58.19    8.70
   5   5  -1   44.90    6.10
   5   5  -1   49.40   10.20
  -5  -5   1   41.90    8.90
  -5  -5   1   61.29   10.90
   4   5  -1   59.89    7.20
   4   5  -1   56.59    9.90
   4   5  -1   60.09    7.70
   4   5  -1   60.09    8.20
   4   5  -1   64.69    8.70
  -4  -5   1   51.99    9.90
  -4  -5   1   63.69   10.50
  -4  -5   1   47.60    6.00
   3   5  -1   69.99    8.30
   3   5  -1   62.59    6.70
   3   5  -1   62.79    2.40
   3   5  -1   64.59    7.60
   3   5  -1   65.39    7.40
   3   5  -1   72.79    9.00
  -3  -5   1   63.69    7.10
  -3  -5   1   55.89    9.30
  -3  -5   1   78.59   10.70
  -3  -5   1   61.49    2.60
   2   5  -1  127.19    9.20
   2   5  -1  146.59    6.00
   2   5  -1  139.99    8.70
   2   5  -1  140.79   10.00
   2   5  -1  142.49   10.20
   2   5  -1  136.09    5.60
  -2  -5   1  146.79    8.90
  -2  -5   1  152.38   12.40
  -2  -5   1  138.49    5.80
  -2  -5   1  146.69   11.60
   1   5  -1   56.79    6.40
   1   5  -1   79.59    7.80
   1   5  -1   70.79    5.90
   1   5  -1   67.69    7.50
   1   5  -1   65.29    7.20
  -1  -5   1   71.49    8.80
  -1  -5   1   59.29    6.00
  -1  -5   1   63.29    5.70
  -1  -5   1   68.39    7.60
  -1  -5   1   74.19    6.60
  -1  -5   1   73.99    7.40
  -1  -5   1   75.99    9.50
  -1  -5   1   64.39    6.50
   0   5  -1   -2.50    4.10
   0   5  -1    0.10    2.90
   0   5  -1    5.70    4.80
   0  -5   1   10.90    5.40
   0  -5   1    2.10    2.40
   0  -5   1    0.30    2.50
   0  -5   1    1.90    4.00
   0  -5   1    0.20    4.10
   0  -5   1   -1.60    1.80
   0  -5   1   -0.30    3.20
   0  -5   1   -0.90    2.70
  -1   5  -1   77.39    8.40
  -1   5  -1   62.99    6.50
  -1   5  -1   63.09    6.30
   1  -5   1   65.79    6.40
   1  -5   1   62.99    6.30
   1  -5   1   67.29    6.60
   1  -5   1   60.99    7.20
   1  -5   1   70.59    8.90
  -2   5  -1  146.49    8.80
  -2   5  -1  162.38    8.50
  -2   5  -1  145.89   10.20
   2  -5   1  136.49    8.50
   2  -5   1  134.09    9.10
   2  -5   1  130.99    9.10
   2  -5   1  155.08    9.70
   2  -5   1  139.59   10.20
  -3   5  -1   64.79    8.00
  -3   5  -1   61.99    7.80
   3  -5   1   72.69    8.10
   3  -5   1   61.69    5.80
   3  -5   1   61.69    7.60
  -4   5  -1   53.19    7.40
  -4   5  -1   73.89    8.50
   4  -5   1   64.19    8.20
   4  -5   1   47.00    4.10
   4  -5   1   55.79    5.10
   4  -5   1   54.69    9.20
   4  -5   1   49.80    5.60
  -5   5  -1   56.59    8.80
  -5   5  -1   40.50    6.80
   5  -5   1   44.30    8.40
   5  -5   1   41.00    6.20
   5  -5   1   46.50    5.80
   5  -5   1   48.50    6.30
   5  -5   1   41.60    7.60
   5  -5   1   48.30    5.30
  -6   5  -1   -1.00    5.00
  -6   5  -1   -1.30    4.60
   6  -5   1    3.30    5.00
   6  -5   1    3.80    3.40
   6  -5   1   -4.10    5.80
   6   4  -1    7.70    4.90
   6   4  -1   -2.90    4.80
   6   4  -1    4.50    4.50
   6   4  -1    5.60    5.60
  -6  -4   1    4.30    4.90
  -6  -4   1    6.80    7.00
   5   4  -1  431.86   17.20
   5   4  -1  445.96   22.20
   5   4  -1  457.35   23.60
   5   4  -1  462.45   18.50
   5   4  -1  468.55   21.00
  -5  -4   1  452.05   22.60
  -5  -4   1  465.25   22.00
   4   4  -1  133.69   12.00
   4   4  -1  158.28    9.80
   4   4  -1  155.98   12.90
   4   4  -1  160.08    8.60
   4   4  -1  168.98   11.50
  -4  -4   1  159.68   12.70
  -4  -4   1  168.18   12.90
   3   4  -1    8.50    4.20
   3   4  -1    6.50    5.90
   3   4  -1    8.60    5.00
   3   4  -1   11.90    4.70
   3   4  -1   11.10    4.60
   3   4  -1    6.50    1.00
  -3  -4   1    7.00    6.30
  -3  -4   1    8.30    3.50
  -3  -4   1    6.90    1.20
  -3  -4   1   -0.80    6.00
   2   4  -1  558.44   14.10
   2   4  -1  556.64   17.90
   2   4  -1  559.14   14.00
   2   4  -1  557.54   18.80
   2   4  -1  571.74   18.50
   2   4  -1  584.24   18.10
   2   4  -1  569.84   20.30
  -2  -4   1  580.64   20.70
  -2  -4   1  563.94   13.90
  -2  -4   1  563.04   17.60
  -2  -4   1  574.04   20.00
   1   4  -1  342.47   10.50
   1   4  -1  358.16   13.30
   1   4  -1  369.96   12.90
   1   4  -1  394.66   13.90
   1   4  -1  364.76   12.00
   1   4  -1  341.77   12.30
   1   4  -1  341.67   10.30
  -1  -4   1  353.66   11.80
  -1  -4   1  349.37   10.40
  -1  -4   1  360.46   14.80
  -1  -4   1  350.06   12.60
  -1  -4   1  349.57   13.10
  -1  -4   1  357.46   13.60
  -1  -4   1  348.17   13.20
   0   4  -1    2.40    2.90
   0   4  -1    0.70    2.70
   0  -4   1   -1.20    2.80
   0  -4   1   -2.60    2.00
   0  -4   1    1.00    2.20
   0  -4   1   -6.80    2.90
   0  -4   1    3.30    4.30
   0  -4   1   -1.10    1.60
   0  -4   1   -0.60    2.20
   0  -4   1    7.20    4.00
  -1   4  -1  355.56   13.40
  -1   4  -1  353.86   12.60
  -1   4  -1  340.07   12.30
   1  -4   1  367.96   12.50
   1  -4   1  368.46   13.30
   1  -4   1  342.27   14.60
   1  -4   1  361.46   12.60
   1  -4   1  354.16   14.60
  -2   4  -1  550.84   12.90
  -2   4  -1  566.94   18.10
  -2   4  -1  564.74   16.60
  -2   4  -1  561.04   12.70
  -2   4  -1  558.24   20.50
   2  -4   1  534.15   12.80
   2  -4   1  575.44   18.30
   2  -4   1  601.74   17.50
   2  -4   1  558.64   18.30
   2  -4   1  585.14   20.50
  -3   4  -1    4.70    4.60
  -3   4  -1    2.40    3.00
  -3   4  -1   10.30    5.10
  -3   4  -1    3.90    2.40
  -3   4  -1    2.90    3.80
   3  -4   1    3.20    3.00
   3  -4   1    5.70    4.80
   3  -4   1    6.20    4.20
   3  -4   1   13.70    3.90
   3  -4   1    6.60    2.90
   3  -4   1    2.70    2.20
  -4   4  -1  145.29    9.10
  -4   4  -1  153.08   10.40
   4  -4   1  153.08    7.70
   4  -4   1  157.78   12.10
   4  -4   1  163.28    8.20
   4  -4   1  150.28   10.50
   4  -4   1  159.68    8.70
   4  -4   1  158.08    9.00
  -5   4  -1  450.05   17.20
  -5   4  -1  473.55   19.50
   5  -4   1  465.05   15.80
   5  -4   1  437.76   21.30
   5  -4   1  465.35   16.60
   5  -4   1  479.05   20.80
  -6   4  -1    5.10    3.90
  -6   4  -1    1.70    4.30
   6  -4   1   10.90    4.80
   6  -4   1    1.80    4.20
   6  -4   1    7.40    5.50
   6  -4   1    0.10    6.20
   6  -4   1    0.10    5.40
   6   3  -1    9.30    5.90
   6   3  -1    7.20    6.80
   6   3  -1   11.50    3.20
   6   3  -1    9.90    4.40
  -6  -3   1    4.80    5.30
   5   3  -1   93.79    6.20
   5   3  -1   84.99    7.10
   5   3  -1   80.39    9.50
  -5  -3   1   91.79    9.90
  -5  -3   1   81.89    4.80
  -5  -3   1   94.49    9.60
   4   3  -1  123.79   13.10
   4   3  -1  134.29   11.90
   4   3  -1  129.29    8.20
   4   3  -1  124.89    7.20
   4   3  -1  131.99   10.20
  -4  -3   1  129.59    6.10
  -4  -3   1  126.69   13.40
  -4  -3   1  118.89    7.10
  -4  -3   1  119.99    4.70
  -4  -3   1  134.59    5.10
   3   3  -1  268.17   10.50
   3   3  -1  257.37   12.30
   3   3  -1  265.17   10.50
   3   3  -1  264.77   14.20
   3   3  -1  262.87   13.60
   3   3  -1  264.87   11.10
  -3  -3   1  265.27    6.90
  -3  -3   1  256.37   13.70
  -3  -3   1  250.27    9.90
  -3  -3   1  269.07   13.40
  -3  -3   1  252.57    6.80
   2   3  -1  581.04   17.60
   2   3  -1  568.74   13.40
   2   3  -1  599.94   20.00
   2   3  -1  574.04   17.90
   2   3  -1  603.44   17.10
  -2  -3   1  560.54   13.30
  -2  -3   1  598.24   16.70
  -2  -3   1  553.64   18.10
  -2  -3   1  571.64   19.50
  -2  -3   1  578.84   18.90
  -2  -3   1  566.44   19.10
  -2  -3   1  581.24   17.90
   1   3  -1  227.28    9.00
   1   3  -1  218.28    8.60
   1   3  -1  218.68    6.80
   1   3  -1  219.98    9.50
   1   3  -1  219.28    6.60
   1   3  -1  228.18    8.50
   1   3  -1  215.68    8.80
  -1  -3   1  230.78    8.70
  -1  -3   1  221.48   10.20
  -1  -3   1  210.78    8.70
  -1  -3   1  224.38    8.80
  -1  -3   1  219.78    9.50
  -1  -3   1  221.58    9.30
  -1  -3   1  218.08    8.30
  -1  -3   1  224.58    6.50
   0   3  -1    1.30    2.60
   0   3  -1    2.80    1.80
   0   3  -1    3.20    3.00
   0   3  -1    2.90    2.40
   0   3  -1    1.60    2.00
   0  -3   1    0.40    3.10
   0  -3   1    0.50    2.30
   0  -3   1    0.00    1.40
   0  -3   1   -1.60    2.40
   0  -3   1    1.40    2.10
   0  -3   1    1.10    3.70
   0  -3   1   -2.10    1.50
   0  -3   1   -1.20    1.70
   0  -3   1    0.00    1.80
   0  -3   1    2.30    1.60
  -1   3  -1  223.58    5.70
  -1   3  -1  223.58    8.50
  -1   3  -1  211.58    5.90
  -1   3  -1  218.88    8.40
  -1   3  -1  205.08    8.80
  -1   3  -1  232.38    8.80
   1  -3   1  220.58    9.50
   1  -3   1  227.58    8.30
   1  -3   1  226.68    9.40
   1  -3   1  222.78    8.50
   1  -3   1  223.88    6.00
   1  -3   1  216.08    5.70
  -2   3  -1  579.84   16.00
  -2   3  -1  585.74   15.60
  -2   3  -1  594.94   17.20
  -2   3  -1  600.84   15.70
  -2   3  -1  560.04   17.30
  -2   3  -1  578.64   14.90
   2  -3   1  569.64   17.00
   2  -3   1  577.54   16.70
   2  -3   1  595.44   16.30
   2  -3   1  565.64   19.00
   2  -3   1  577.64   14.60
   2  -3   1  568.24   17.50
   2  -3   1  567.64   15.30
  -3   3  -1  261.37    9.80
  -3   3  -1  264.57   10.80
  -3   3  -1  266.97   11.10
  -3   3  -1  271.17   11.40
   3  -3   1  251.37   10.00
   3  -3   1  264.17    9.50
   3  -3   1  255.47    9.40
   3  -3   1  251.37   12.70
   3  -3   1  273.07   10.80
   3  -3   1  268.67   13.40
  -4   3  -1  113.99   10.40
  -4   3  -1  132.49    8.30
   4  -3   1  120.19    7.10
   4  -3   1  121.69    6.60
   4  -3   1  120.19   10.10
   4  -3   1  123.19    7.90
   4  -3   1  129.79   10.80
   4  -3   1  129.59    9.30
  -5   3  -1   80.49    8.50
  -5   3  -1   89.99    7.20
   5  -3   1   96.69    6.90
   5  -3   1   96.09    7.60
   5  -3   1   97.49    9.90
   5  -3   1   92.29    8.80
   5  -3   1   90.99    9.40
  -6   3  -1    2.70    3.90
   6  -3   1    1.80    4.10
   6  -3   1   12.10    6.70
   6  -3   1   11.70    5.70
   6  -3   1   10.80    3.80
   6  -3   1    3.40    3.10
   7   2  -1  334.17   21.90
   7   2  -1  359.76   23.00
   7   2  -1  367.26   20.40
   7   2  -1  329.57   15.10
  -7  -2   1  383.26   22.60
  -7  -2   1  357.86   20.50
   6   2  -1   43.10    5.90
   6   2  -1   34.60    5.80
   6   2  -1   46.60    8.40
   6   2  -1   52.79   11.00
   6   2  -1   48.30    4.50
   6   2  -1   30.50    9.10
  -6  -2   1   39.10    8.10
  -6  -2   1   51.29   10.20
  -6  -2   1   28.90    4.60
   5   2  -1  208.68   14.70
   5   2  -1  198.28   10.00
   5   2  -1  226.08   15.80
   5   2  -1  216.38   10.10
   5   2  -1  212.98   13.30
   5   2  -1  230.18    8.90
  -5  -2   1  227.18   14.90
  -5  -2   1  225.28    9.00
  -5  -2   1  210.08   13.80
  -5  -2   1  204.78    8.60
   4   2  -1 1134.99   36.50
   4   2  -1 1162.28   29.70
   4   2  -1 1128.59   28.80
   4   2  -1 1180.08   30.30
   4   2  -1 1137.39   33.50
   4   2  -1 1168.18   35.80
  -4  -2   1 1081.79   27.40
  -4  -2   1 1154.18   27.80
  -4  -2   1 1159.08   29.10
  -4  -2   1 1152.38   35.70
  -4  -2   1 1147.09   34.30
   3   2  -1  129.59    6.80
   3   2  -1  120.89    9.70
   3   2  -1  119.69    6.20
   3   2  -1  120.89    8.40
   3   2  -1  125.49    8.40
   3   2  -1  117.49    6.10
  -3  -2   1  117.19    5.00
  -3  -2   1  121.79    4.70
  -3  -2   1  114.69    8.30
  -3  -2   1  117.09    6.00
  -3  -2   1  118.29    4.40
  -3  -2   1  132.49    8.80
   2   2  -1 3088.29   72.59
   2   2  -1 3111.69   70.49
   2   2  -1 3026.70   68.49
   2   2  -1 2955.70   65.69
   2   2  -1 3074.49   71.69
   2   2  -1 3172.78   69.19
  -2  -2   1 2957.80   68.39
  -2  -2   1 3043.10   71.59
  -2  -2   1 3076.69   70.89
  -2  -2   1 2975.60   65.69
  -2  -2   1 3024.00   68.39
  -2  -2   1 3113.59   67.99
   0   2  -1    1.50    2.20
   0   2  -1   -0.40    1.60
   0   2  -1    3.00    3.20
   0   2  -1    0.60    2.10
   0   2  -1   -1.20    1.60
   0   2  -1    1.60    3.10
   0  -2   1   -1.80    1.70
   0  -2   1    0.60    2.50
   0  -2   1    3.90    2.20
   0  -2   1    0.70    2.00
   0  -2   1    0.10    1.70
   0  -2   1    1.10    2.40
   0  -2   1   10.50    3.80
   0  -2   1    0.30    1.70
  -2   2  -1 3079.99   68.09
  -2   2  -1 3176.68   66.59
  -2   2  -1 3036.00   67.39
  -2   2  -1 3010.60   68.29
  -2   2  -1 3086.09   69.09
  -2   2  -1 2667.43   67.69
   2  -2   1 3113.89   67.39
   2  -2   1 3058.49   67.69
   2  -2   1 3009.40   67.29
   2  -2   1 3055.19   70.69
   2  -2   1 2915.81   67.69
   2  -2   1 3044.20   68.39
   2  -2   1 3030.80   69.99
  -3   2  -1  116.09    6.80
  -3   2  -1  119.59    6.20
  -3   2  -1  132.89    6.60
  -3   2  -1  115.99    6.50
  -3   2  -1  116.29    7.60
   3  -2   1  121.49    6.00
   3  -2   1  120.79    7.40
   3  -2   1  124.59    6.10
   3  -2   1  120.99    6.50
   3  -2   1  120.39    8.40
   3  -2   1  126.19    5.60
   3  -2   1  123.29    8.70
  -4   2  -1 1188.28   29.80
  -4   2  -1 1167.78   32.50
   4  -2   1 1188.38   35.50
   4  -2   1 1146.59   34.80
   4  -2   1 1161.98   34.10
   4  -2   1 1170.78   31.90
   4  -2   1 1152.08   29.60
   4  -2   1 1206.98   29.40
  -5   2  -1  209.08    9.20
  -5   2  -1  208.38   13.60
  -5   2  -1  228.98   12.10
  -5   2  -1  209.48    8.80
   5  -2   1  216.98    9.50
   5  -2   1  209.38    9.00
   5  -2   1  230.98   12.00
   5  -2   1  210.78   13.40
   5  -2   1  217.68   14.00
   5  -2   1  241.58   14.40
  -6   2  -1   36.70    4.60
  -6   2  -1   43.90    7.10
  -6   2  -1   45.50    9.10
   6  -2   1   54.99   10.00
   6  -2   1   44.00    9.80
   6  -2   1   30.00    7.70
   6  -2   1   39.50    7.20
   6  -2   1   49.10    5.30
   6  -2   1   47.50    5.60
  -7   2  -1  363.26   20.80
  -7   2  -1  337.97   17.20
   7  -2   1  318.57   17.30
   7  -2   1  353.96   21.10
   7  -2   1  340.37   20.20
   7  -2   1  324.47   14.70
   7   1  -1    4.60    6.20
   7   1  -1    9.60    5.90
   7   1  -1    7.20    6.40
  -7  -1   1   11.70    7.20
  -7  -1   1   -2.10    3.80
  -7  -1   1    6.30    4.80
   6   1  -1    5.40    3.30
   6   1  -1   16.80    6.20
   6   1  -1    4.20    6.50
   6   1  -1    7.30    3.70
   6   1  -1   14.60    7.50
  -6  -1   1    9.70    5.00
  -6  -1   1    8.50    2.90
  -6  -1   1   13.80    4.20
   5   1  -1  131.09   12.40
   5   1  -1  138.29    7.20
   5   1  -1  129.29   12.00
   5   1  -1  142.29    7.40
   5   1  -1  146.49   11.00
   5   1  -1  132.89    6.80
  -5  -1   1  151.08    7.80
  -5  -1   1  122.09    5.80
  -5  -1   1  131.89   11.00
   4   1  -1  210.48    8.20
   4   1  -1  208.08   13.30
   4   1  -1  212.08    8.40
   4   1  -1  212.98   13.10
   4   1  -1  213.18   11.10
   4   1  -1  207.48    8.20
  -4  -1   1  209.08    7.20
  -4  -1   1  201.08   11.20
  -4  -1   1  200.58    8.00
  -4  -1   1  210.48    8.50
   3   1  -1  618.54   16.70
   3   1  -1  639.44   16.40
   3   1  -1  668.53   22.00
   3   1  -1  635.54   21.00
   3   1  -1  648.04   19.70
   3   1  -1  643.64   16.70
  -3  -1   1  617.44   16.70
  -3  -1   1  618.34   16.20
  -3  -1   1  629.94   15.40
  -3  -1   1  630.44   19.70
  -3  -1   1  594.74   16.00
   2   1  -1 1413.46   36.20
   2   1  -1 1396.96   35.30
   2   1  -1 1402.36   32.10
   2   1  -1 1412.46   34.50
   2   1  -1 1387.86   32.30
   2   1  -1 1400.26   31.90
  -2  -1   1 1387.76   32.30
  -2  -1   1 1371.06   34.20
  -2  -1   1 1391.46   30.70
  -2  -1   1 1363.26   31.10
  -2  -1   1 1357.76   31.10
  -2  -1   1 1376.26   34.20
  -2  -1   1 1389.06   35.80
  -2  -1   1 1396.76   31.00
  -2  -1   1 1414.46   31.10
   1   1  -1  584.44   15.90
   1   1  -1  629.04   15.40
   1   1  -1  580.34   15.00
   1   1  -1  551.74   15.70
   1   1  -1  562.64   16.30
   1   1  -1  583.34   17.80
   1   1  -1  565.34   14.50
  -1  -1   1  573.84   14.20
  -1  -1   1  604.94   14.10
  -1  -1   1  587.44   15.10
  -1  -1   1  565.04   15.80
  -1  -1   1  556.24   15.90
  -1  -1   1  578.94   14.50
  -1  -1   1  563.24   15.20
  -1  -1   1  582.74   16.30
   0   1  -1    5.60    1.70
   0   1  -1    2.60    1.30
   0   1  -1    5.70    1.20
   0   1  -1    4.80    1.40
   0   1  -1    4.10    1.10
   0   1  -1    2.10    1.10
   0   1  -1    7.00    1.70
   0   1  -1    3.60    1.30
   0   1  -1    8.90    2.20
   0  -1   1    6.40    1.10
   0  -1   1    4.90    1.20
   0  -1   1    7.10    1.70
   0  -1   1    7.70    1.50
   0  -1   1    3.20    1.30
   0  -1   1    3.40    1.40
   0  -1   1    3.30    1.30
  -1   1  -1  586.14   14.40
  -1   1  -1  568.04   14.90
  -1   1  -1  585.64   15.70
  -1   1  -1  578.54   16.00
  -1   1  -1  592.84   14.40
  -1   1  -1  585.74   15.00
  -1   1  -1  600.84   14.10
   1  -1   1  584.24   14.40
   1  -1   1  588.54   15.00
   1  -1   1  571.94   14.90
   1  -1   1  615.84   14.40
   1  -1   1  574.34   14.30
   1  -1   1  586.44   15.80
   1  -1   1  572.24   15.90
  -2   1  -1 1423.06   37.40
  -2   1  -1 1397.56   31.40
  -2   1  -1 1451.05   34.10
  -2   1  -1 1414.66   33.80
  -2   1  -1 1416.16   32.40
  -2   1  -1 1444.76   31.60
  -2   1  -1 1435.66   35.00
   2  -1   1 1426.46   35.60
   2  -1   1 1387.66   32.30
   2  -1   1 1377.76   33.70
   2  -1   1 1408.06   35.40
   2  -1   1 1411.96   35.00
   2  -1   1 1425.36   32.70
   2  -1   1 1416.36   32.40
  -3   1  -1  643.14   16.30
  -3   1  -1  648.94   18.60
  -3   1  -1  631.94   16.10
  -3   1  -1  621.24   18.80
  -3   1  -1  617.44   20.40
   3  -1   1  631.84   20.40
   3  -1   1  617.64   18.70
   3  -1   1  659.83   16.60
   3  -1   1  640.94   16.70
   3  -1   1  619.34   20.30
   3  -1   1  610.04   20.10
  -4   1  -1  215.08    7.90
  -4   1  -1  200.98   11.50
  -4   1  -1  213.28    7.50
  -4   1  -1  206.88   10.20
   4  -1   1  222.48   12.90
   4  -1   1  220.58    8.40
   4  -1   1  204.18   11.50
   4  -1   1  209.28    8.50
  -5   1  -1  123.59    5.70
  -5   1  -1  137.99   10.50
  -5   1  -1  134.19    6.30
   5  -1   1  130.19    9.70
   5  -1   1  140.59   11.70
   5  -1   1  140.79    7.50
   5  -1   1  136.19    7.20
   5  -1   1  149.29   10.80
   5  -1   1  129.39   10.70
  -6   1  -1   11.00    6.00
  -6   1  -1    6.80    2.50
  -6   1  -1    7.20    4.90
   6  -1   1    2.40    3.20
   6  -1   1   14.60    6.60
   6  -1   1   12.10    4.00
  -7   1  -1    9.10    6.40
  -7   1  -1    6.20    4.80
   7  -1   1    4.10    5.00
   7  -1   1   -0.90    5.40
   7  -1   1    8.10    7.10
   7   0  -1    7.40    4.60
   7   0  -1    6.40    6.60
   7   0  -1   -2.00    5.10
   7   0  -1   -3.10    3.70
   7   0  -1    2.10    5.90
  -7   0   1    5.00    4.90
  -7   0   1   12.00    6.40
   6   0  -1   -0.30    2.50
   6   0  -1    8.00    5.90
   6   0  -1    4.00    4.50
   6   0  -1    2.20    4.90
   6   0  -1   -0.40    2.70
  -6   0   1    0.20    2.70
  -6   0   1    3.40    4.10
  -6   0   1    5.70    4.20
   5   0  -1  830.02   29.10
   5   0  -1  778.42   26.50
   5   0  -1  784.52   29.40
   5   0  -1  789.92   21.10
   5   0  -1  795.72   20.80
  -5   0   1  792.22   23.30
  -5   0   1  757.82   21.30
  -5   0   1  793.12   27.30
   4   0  -1  142.39   11.10
   4   0  -1  149.29    6.10
   4   0  -1  152.38    6.10
   4   0  -1  155.28   10.20
   4   0  -1  164.78   10.00
   4   0  -1  150.38    6.90
  -4   0   1  142.49    7.00
  -4   0   1  144.19    7.50
  -4   0   1  146.89    7.60
  -4   0   1  154.48    9.60
  -4   0   1  155.98    6.90
   3   0  -1   44.60    5.10
   3   0  -1   39.70    4.60
   3   0  -1   37.00    3.60
   3   0  -1   42.60    2.60
   3   0  -1   41.20    2.60
   3   0  -1   40.90    5.30
   3   0  -1   43.40    6.40
  -3   0   1   43.20    3.70
  -3   0   1   36.20    3.30
  -3   0   1   41.20    4.90
  -3   0   1   39.10    3.30
  -3   0   1   48.40    6.10
  -3   0   1   44.20    4.70
   2   0  -1 1136.29   26.50
   2   0  -1 1130.29   24.60
   2   0  -1 1146.89   29.10
   2   0  -1 1149.29   26.60
   2   0  -1 1157.08   29.70
   2   0  -1 1122.89   24.60
   2   0  -1 1141.59   28.30
   2   0  -1 1120.89   28.10
  -2   0   1 1127.09   29.50
  -2   0   1 1150.08   28.30
  -2   0   1 1114.59   28.00
  -2   0   1 1095.89   26.50
  -2   0   1 1117.39   26.20
  -2   0   1 1117.09   26.50
  -2   0   1 1113.19   26.40
  -2   0   1 1099.59   28.20
   1   0  -1  527.55   13.80
   1   0  -1  506.65   13.00
   1   0  -1  520.95   12.80
   1   0  -1  511.85   14.10
   1   0  -1  520.65   12.40
   1   0  -1  537.95   13.30
   1   0  -1  514.95   12.30
  -1   0   1  520.75   12.80
  -1   0   1  512.25   12.30
  -1   0   1  522.35   13.10
  -1   0   1  507.95   13.30
  -1   0   1  511.95   14.10
  -1   0   1  514.35   13.00
  -1   0   1  521.35   13.70
  -1   0   1  522.85   12.40
  -1   0  -1  523.85   12.50
  -1   0  -1  512.75   12.90
  -1   0  -1  525.45   13.60
  -1   0  -1  512.95   13.30
  -1   0  -1  507.05   11.30
  -1   0  -1  501.95   13.50
  -1   0  -1  502.05   13.70
  -1   0  -1  535.65   14.20
  -1   0  -1  525.45   12.50
   1   0   1  520.35   14.00
   1   0   1  512.05   13.60
   1   0   1  518.65   13.30
   1   0   1  512.95   13.90
   1   0   1  520.25   12.60
   1   0   1  507.35   12.70
  -2   0  -1 1111.19   24.50
  -2   0  -1 1092.69   26.70
  -2   0  -1 1124.09   25.30
  -2   0  -1 1120.79   24.50
  -2   0  -1 1087.89   30.00
  -2   0  -1 1070.29   30.40
  -2   0  -1 1127.29   28.50
  -2   0  -1 1124.49   29.20
  -2   0  -1 1106.99   27.80
   2   0   1 1138.29   29.30
   2   0   1 1116.59   26.00
   2   0   1 1096.19   28.80
   2   0   1 1120.09   27.90
   2   0   1 1072.69   26.50
   2   0   1 1123.69   26.10
   2   0   1 1124.39   28.50
  -3   0  -1   44.60    4.30
  -3   0  -1   38.80    5.70
  -3   0  -1   40.50    6.10
  -3   0  -1   40.70    5.10
  -3   0  -1   44.30    2.20
  -3   0  -1   40.40    2.10
  -3   0  -1   41.20    2.50
   3   0   1   44.30    6.00
   3   0   1   35.60    5.50
   3   0   1   39.80    4.50
   3   0   1   39.60    3.50
   3   0   1   43.30    3.70
   3   0   1   48.00    6.70
  -4   0  -1  147.59    8.20
  -4   0  -1  150.38    5.20
  -4   0  -1  151.88    5.40
  -4   0  -1  138.09    6.80
  -4   0  -1  141.29   10.50
   4   0   1  143.49    9.50
   4   0   1  148.69    7.10
   4   0   1  153.58   11.30
   4   0   1  147.59   11.10
  -5   0  -1  754.62   18.90
  -5   0  -1  798.72   24.10
  -5   0  -1  803.52   28.20
   5   0   1  815.62   22.50
   5   0   1  831.42   22.70
   5   0   1  787.62   26.60
   5   0   1  788.62   28.60
   5   0   1  761.12   29.20
  -6   0  -1    9.70    5.50
  -6   0  -1    3.60    4.00
   6   0   1   -3.30    2.80
   6   0   1    1.90    4.20
   6   0   1    2.10    5.80
   6   0   1   -5.10    3.30
   6   0   1   -2.60    2.90
  -7   0  -1   22.10    7.40
   7   0   1    2.40    6.20
   7   0   1    8.30    5.80
   7   0   1    6.00    6.50
   7  -1  -1   -3.70    4.40
   7  -1  -1    0.40    3.70
   7  -1  -1   -1.30    2.70
   7  -1  -1    0.30    6.00
   7  -1  -1   -4.60    5.70
  -7   1   1    6.40    4.40
  -7   1   1    9.30    6.50
   6  -1  -1   12.40    3.00
   6  -1  -1   10.60    7.20
   6  -1  -1    8.50    3.10
  -6   1   1   22.40    6.40
  -6   1   1    7.20    4.40
   5  -1  -1  137.99    6.10
   5  -1  -1  133.79   11.60
   5  -1  -1  145.19    6.10
   5  -1  -1  141.49   10.00
   5  -1  -1  141.39   11.20
   5  -1  -1  151.28   11.80
  -5   1   1  143.69    7.70
  -5   1   1  142.49    8.80
  -5   1   1  130.79   11.00
  -5   1   1  153.48   10.40
   4  -1  -1  200.88   12.10
   4  -1  -1  207.78    6.60
   4  -1  -1  209.68   11.90
   4  -1  -1  220.68    6.80
  -4   1   1  226.48    9.90
  -4   1   1  203.18    8.80
  -4   1   1  198.18    8.40
  -4   1   1  201.48   11.80
   3  -1  -1  625.04   18.00
   3  -1  -1  646.74   20.50
   3  -1  -1  642.54   18.80
   3  -1  -1  631.44   19.90
   3  -1  -1  642.44   14.30
   3  -1  -1  627.54   19.90
   3  -1  -1  643.74   14.30
  -3   1   1  615.94   17.90
  -3   1   1  641.74   17.60
  -3   1   1  610.44   17.10
  -3   1   1  609.64   20.10
  -3   1   1  610.24   20.10
   2  -1  -1 1383.26   34.20
   2  -1  -1 1441.36   32.90
   2  -1  -1 1370.16   33.00
   2  -1  -1 1410.46   34.30
   2  -1  -1 1408.46   33.20
   2  -1  -1 1386.86   34.50
   2  -1  -1 1388.36   33.10
  -2   1   1 1390.36   34.30
  -2   1   1 1420.36   33.00
  -2   1   1 1365.16   32.70
  -2   1   1 1350.86   33.90
  -2   1   1 1379.26   33.10
  -2   1   1 1382.26   32.90
   1  -1  -1  578.74   14.70
   1  -1  -1  562.64   14.50
   1  -1  -1  589.04   15.60
   1  -1  -1  587.24   14.70
   1  -1  -1  579.44   15.00
   1  -1  -1  581.94   14.40
   1  -1  -1  582.04   14.10
   1  -1  -1  573.64   12.90
   1  -1  -1  596.94   12.80
  -1   1   1  559.84   14.40
  -1   1   1  553.04   14.30
  -1   1   1  553.84   14.50
  -1   1   1  551.94   14.40
  -1   1   1  578.84   15.00
  -1   1   1  574.94   14.50
  -1   1   1  574.34   14.10
   0  -1  -1    7.60    1.50
   0  -1  -1    3.20    1.30
   0  -1  -1    6.80    1.70
   0  -1  -1    3.80    1.40
   0  -1  -1    5.40    1.40
   0  -1  -1    4.80    1.20
   0  -1  -1    3.50    1.70
   0  -1  -1    6.90    1.70
   0   1   1    4.30    1.20
   0   1   1    2.00    1.30
   0   1   1    7.80    1.70
   0   1   1    5.30    1.50
   0   1   1    2.70    1.50
   0   1   1    5.90    1.50
   0   1   1    4.10    1.60
  -1  -1  -1  574.04   15.40
  -1  -1  -1  568.74   15.20
  -1  -1  -1  584.54   14.20
  -1  -1  -1  581.74   14.60
  -1  -1  -1  582.74   16.20
  -1  -1  -1  582.24   14.60
  -1  -1  -1  580.14   13.40
  -1  -1  -1  544.45   15.20
   1   1   1  580.94   14.60
   1   1   1  552.74   15.30
   1   1   1  585.04   14.70
   1   1   1  611.44   17.30
   1   1   1  578.44   14.20
   1   1   1  574.34   15.30
   1   1   1  565.54   16.10
   1   1   1  571.04   13.40
  -2  -1  -1 1396.46   32.40
  -2  -1  -1 1389.76   32.50
  -2  -1  -1 1408.66   34.60
  -2  -1  -1 1375.96   35.90
  -2  -1  -1 1402.46   30.70
  -2  -1  -1 1359.26   34.80
   2   1   1 1425.76   35.30
   2   1   1 1412.36   36.10
   2   1   1 1381.66   34.40
   2   1   1 1431.56   33.10
   2   1   1 1370.56   30.70
  -3  -1  -1  644.94   17.70
  -3  -1  -1  706.13   17.50
  -3  -1  -1  599.04   20.20
  -3  -1  -1  641.24   16.20
  -3  -1  -1  607.94   15.30
   3   1   1  620.44   17.30
   3   1   1  633.64   17.60
   3   1   1  637.54   21.10
   3   1   1  642.64   21.90
   3   1   1  639.64   20.00
   3   1   1  617.04   14.80
  -4  -1  -1  209.48    7.20
  -4  -1  -1  208.28    6.10
  -4  -1  -1  222.78   12.00
  -4  -1  -1  207.98    9.30
  -4  -1  -1  213.38    7.70
   4   1   1  208.88    9.20
   4   1   1  205.98   13.40
   4   1   1  204.18   11.60
   4   1   1  203.98   12.90
   4   1   1  207.88    8.80
  -5  -1  -1  143.99    8.40
  -5  -1  -1  126.99    4.00
  -5  -1  -1  142.09   10.70
   5   1   1  117.89    8.50
   5   1   1  146.89   12.90
   5   1   1  145.69    8.20
   5   1   1  151.68   12.40
   5   1   1  137.29   10.80
  -6  -1  -1   12.40    4.70
  -6  -1  -1   25.80    7.40
   6   1   1   11.20    7.20
   6   1   1    1.10    3.80
   6   1   1    7.00    5.50
   6   1   1   13.10    4.10
   6   1   1    7.30    6.70
  -7  -1  -1    0.10    4.00
  -7  -1  -1   21.20    7.60
   7   1   1    4.60    6.40
   7   1   1   14.20    6.20
   7   1   1    3.00    6.30
   7  -2  -1  359.56   18.40
   7  -2  -1  340.87   20.40
   7  -2  -1  351.46   20.70
   7  -2  -1  343.67   13.00
  -7   2   1  364.56   20.90
  -7   2   1  383.46   19.20
  -7   2   1  377.76   17.80
   6  -2  -1   50.99    7.70
   6  -2  -1   43.30    8.40
   6  -2  -1   52.79    9.70
   6  -2  -1   38.70    8.70
   6  -2  -1   42.70    4.60
   6  -2  -1   43.40    4.10
  -6   2   1   51.29    7.50
  -6   2   1   45.80    8.50
  -6   2   1   26.70    5.20
   5  -2  -1  204.48   13.40
   5  -2  -1  215.88   11.70
   5  -2  -1  205.18    7.90
   5  -2  -1  213.08   13.40
   5  -2  -1  225.28    7.70
   5  -2  -1  215.18   13.60
  -5   2   1  222.98   11.90
  -5   2   1  231.88   11.80
  -5   2   1  218.78   13.70
   4  -2  -1 1194.28   34.90
   4  -2  -1 1149.58   34.10
   4  -2  -1 1132.79   33.90
   4  -2  -1 1170.38   31.80
   4  -2  -1 1186.38   27.60
   4  -2  -1 1185.68   27.30
  -4   2   1 1154.28   30.90
  -4   2   1 1171.68   32.10
   3  -2  -1  118.59    4.60
   3  -2  -1  108.59    8.10
   3  -2  -1  120.99    4.30
   3  -2  -1  134.69    6.90
   3  -2  -1  124.79    7.00
   3  -2  -1  133.99    8.00
   3  -2  -1  113.69    7.70
  -3   2   1  131.69    6.80
  -3   2   1  120.69    6.80
  -3   2   1  120.39    6.80
  -3   2   1  126.29    7.80
  -3   2   1  121.59    6.80
   2  -2  -1 3049.29   70.39
   2  -2  -1 3084.19   68.99
   2  -2  -1 2891.91   68.39
   2  -2  -1 3054.39   67.49
   2  -2  -1 3100.89   69.09
   2  -2  -1 2998.70   68.59
   2  -2  -1 3049.29   66.49
   2  -2  -1 2907.71   69.99
  -2   2   1 3079.19   67.29
  -2   2   1 3003.80   68.49
  -2   2   1 2925.31   68.59
  -2   2   1 3139.39   68.89
  -2   2   1 3018.50   68.29
   0  -2  -1    4.80    2.10
   0  -2  -1    0.90    1.60
   0  -2  -1    0.90    2.20
   0  -2  -1    0.90    2.00
   0  -2  -1    1.40    1.50
   0  -2  -1    1.20    1.90
   0  -2  -1    2.30    1.80
   0  -2  -1   -1.50    1.20
   0  -2  -1    4.10    3.20
   0  -2  -1    3.50    2.20
   0   2   1   -2.50    2.00
   0   2   1    0.20    1.60
   0   2   1    4.30    2.50
   0   2   1   -1.60    2.20
   0   2   1    2.70    3.70
   0   2   1    3.00    2.70
   0   2   1   -0.90    1.90
   0   2   1    5.00    2.10
  -2  -2  -1 3028.60   68.79
  -2  -2  -1 3171.78   69.89
  -2  -2  -1 2995.80   68.29
  -2  -2  -1 3053.49   67.09
  -2  -2  -1 3264.37   75.49
  -2  -2  -1 3085.19   72.29
   2   2   1 3108.39   71.59
   2   2   1 3176.48   70.69
   2   2   1 3065.69   73.39
   2   2   1 3086.59   70.19
  -3  -2  -1  126.29    6.10
  -3  -2  -1  116.29    6.00
  -3  -2  -1  126.09    4.90
  -3  -2  -1  122.49    8.90
   3   2   1  114.29    6.50
   3   2   1  126.59    6.50
   3   2   1  107.79    9.30
   3   2   1  120.19    8.30
   3   2   1  119.59    7.10
   3   2   1  119.39    8.80
  -4  -2  -1 1176.08   29.60
  -4  -2  -1 1124.49   26.30
  -4  -2  -1 1157.18   35.00
  -4  -2  -1 1131.39   26.70
  -4  -2  -1 1168.68   28.20
   4   2   1 1093.79   30.40
   4   2   1 1184.28   34.20
   4   2   1 1147.89   31.00
   4   2   1 1149.39   35.40
   4   2   1 1179.68   37.20
  -5  -2  -1  210.78    9.60
  -5  -2  -1  199.88    6.40
  -5  -2  -1  224.18   14.40
  -5  -2  -1  201.38    5.80
   5   2   1  207.38   14.30
   5   2   1  221.28   13.40
   5   2   1  201.18    9.90
   5   2   1  219.48   10.60
   5   2   1  186.18   14.70
  -6  -2  -1   45.70    9.30
  -6  -2  -1   27.90    5.30
   6   2   1   32.30    6.70
   6   2   1   35.60    9.60
   6   2   1   35.70    8.20
   6   2   1   43.00    6.40
   6   2   1   29.00    6.10
  -7  -2  -1  317.07   14.30
  -7  -2  -1  343.47   21.10
   7   2   1  377.26   20.40
   7   2   1  375.46   22.70
   7   2   1  337.67   22.30
   7   2   1  344.57   16.00
   6  -3  -1    4.00    4.40
   6  -3  -1   12.40    5.70
   6  -3  -1    9.10    3.10
   6  -3  -1   13.90    6.10
   6  -3  -1    7.70    6.40
  -6   3   1   21.50    4.40
  -6   3   1   16.40    5.40
  -6   3   1    2.60    4.40
  -6   3   1   10.30    5.70
   5  -3  -1  103.19    9.80
   5  -3  -1   95.99    9.90
   5  -3  -1   89.39    9.40
   5  -3  -1   92.99    5.20
   5  -3  -1   88.29    8.00
   5  -3  -1   95.39    5.70
  -5   3   1   87.89    7.90
  -5   3   1   98.99    8.80
   4  -3  -1  131.99    5.90
   4  -3  -1  129.19    8.10
   4  -3  -1  125.29    6.30
   4  -3  -1  117.59    9.50
   4  -3  -1  134.59   12.20
   4  -3  -1  147.99    9.90
  -4   3   1  123.89    8.70
  -4   3   1  138.29    8.80
  -4   3   1  137.19   10.60
   3  -3  -1  256.47    9.50
   3  -3  -1  278.27   11.60
   3  -3  -1  266.17   13.00
   3  -3  -1  262.27   10.70
   3  -3  -1  274.27    9.20
   3  -3  -1  260.27   11.30
   3  -3  -1  261.67    8.60
  -3   3   1  253.47    9.30
  -3   3   1  261.37   10.40
  -3   3   1  264.37    9.40
  -3   3   1  277.77   11.50
  -3   3   1  286.37   11.60
  -3   3   1  248.78    9.90
   2  -3  -1  625.94   15.60
   2  -3  -1  564.44   17.60
   2  -3  -1  549.85   16.20
   2  -3  -1  592.24   18.70
   2  -3  -1  557.24   17.40
  -2   3   1  601.04   17.80
  -2   3   1  567.14   15.00
  -2   3   1  575.94   14.40
  -2   3   1  569.94   16.60
  -2   3   1  578.84   17.60
  -2   3   1  558.94   14.80
  -2   3   1  577.34   14.30
   1  -3  -1  223.58    9.40
   1  -3  -1  228.88    8.60
   1  -3  -1  222.68    8.80
   1  -3  -1  232.38    8.00
   1  -3  -1  223.78    6.90
   1  -3  -1  218.18   10.20
  -1   3   1  214.18    7.20
  -1   3   1  228.88    9.40
  -1   3   1  234.28    7.90
  -1   3   1  223.48    7.90
   0  -3  -1   -0.30    2.10
   0  -3  -1    3.30    2.10
   0  -3  -1    1.10    2.00
   0  -3  -1   -1.20    2.60
   0  -3  -1    1.70    2.40
   0  -3  -1   -0.10    2.10
   0  -3  -1    3.30    2.00
   0  -3  -1    1.30    1.50
   0  -3  -1    0.40    1.60
   0   3   1    2.40    2.50
   0   3   1    0.60    2.50
   0   3   1   -1.00    2.20
   0   3   1    0.80    1.80
   0   3   1   -1.30    1.90
   0   3   1    1.50    2.70
   0   3   1    1.10    1.40
  -1  -3  -1  213.38    9.10
  -1  -3  -1  233.68    7.80
  -1  -3  -1  213.38    8.30
  -1  -3  -1  248.48    9.00
  -1  -3  -1  222.28    9.00
  -1  -3  -1  210.78    8.10
  -1  -3  -1  212.78    9.70
  -1  -3  -1  219.88    8.30
  -1  -3  -1  227.88    7.20
  -1  -3  -1  221.38    8.30
   1   3   1  219.28    8.30
   1   3   1  215.28    7.50
   1   3   1  212.88    8.70
   1   3   1  233.58    9.70
   1   3   1  220.98    8.50
   1   3   1  226.68    7.10
   1   3   1  231.38    9.00
   1   3   1  216.48    8.30
  -2  -3  -1  561.04   17.70
  -2  -3  -1  564.54   16.00
  -2  -3  -1  572.94   15.40
  -2  -3  -1  586.64   17.40
  -2  -3  -1  579.04   19.60
  -2  -3  -1  575.54   19.30
  -2  -3  -1  575.84   13.90
  -2  -3  -1  603.44   17.30
   2   3   1  567.64   18.40
   2   3   1  576.44   15.50
   2   3   1  581.34   16.30
   2   3   1  608.14   20.10
   2   3   1  597.04   17.60
   2   3   1  610.94   18.10
   2   3   1  597.64   18.30
  -3  -3  -1  271.37   13.90
  -3  -3  -1  262.97    9.10
  -3  -3  -1  251.97   10.10
  -3  -3  -1  261.17    9.10
   3   3   1  265.37   11.10
   3   3   1  270.27   12.60
   3   3   1  258.47    9.30
   3   3   1  262.57   12.70
   3   3   1  281.27   14.60
  -4  -3  -1  125.89    7.00
  -4  -3  -1  123.99   11.50
  -4  -3  -1  130.69    7.10
  -4  -3  -1  119.89    6.00
   4   3   1  137.79   12.00
   4   3   1  121.59    8.00
   4   3   1  132.79   10.20
   4   3   1  125.79    8.50
   4   3   1  124.69    5.90
   4   3   1  124.79   11.60
  -5  -3  -1   89.19    4.40
  -5  -3  -1   79.29    6.20
  -5  -3  -1   94.59    9.80
   5   3   1   88.39    9.10
   5   3   1  111.99   11.50
   5   3   1   89.79    4.40
  -6  -3  -1    2.50    3.40
   6   3   1    2.80    3.90
   6   3   1    8.60    5.80
   6   3   1   23.50   12.40
   6   3   1    2.10    6.30
   6  -4  -1   -3.10    5.10
   6  -4  -1    2.90    5.90
   6  -4  -1    3.50    3.20
   6  -4  -1   -3.40    4.40
   6  -4  -1   -1.20    2.30
   6  -4  -1    6.80    5.60
  -6   4   1   16.40    5.40
  -6   4   1   10.20    5.60
   5  -4  -1  441.76   20.50
   5  -4  -1  465.25   14.50
   5  -4  -1  440.46   19.40
   5  -4  -1  473.25   15.10
  -5   4   1  437.56   18.80
  -5   4   1  451.65   18.00
   4  -4  -1  149.39   11.60
   4  -4  -1  149.29    7.10
   4  -4  -1  138.59   10.00
   4  -4  -1  154.88   10.60
   4  -4  -1  148.49    7.50
  -4   4   1  149.88    8.00
  -4   4   1  148.99    9.80
  -4   4   1  139.29   13.30
  -4   4   1  169.58   10.60
  -4   4   1  153.48    7.40
   3  -4  -1    7.10    3.00
   3  -4  -1    4.70    5.30
   3  -4  -1    3.50    4.10
   3  -4  -1    4.70    5.10
  -3   4   1    6.40    2.40
  -3   4   1   18.30    5.50
  -3   4   1    1.40    3.40
  -3   4   1    8.00    3.10
  -3   4   1   14.80    5.20
  -3   4   1    3.10    3.60
   2  -4  -1  544.15   16.70
   2  -4  -1  568.84   18.50
   2  -4  -1  578.04   20.00
   2  -4  -1  530.65   16.00
   2  -4  -1  578.74   16.60
  -2   4   1  548.85   14.90
  -2   4   1  535.15   16.60
  -2   4   1  603.84   19.00
   1  -4  -1  331.27   10.00
   1  -4  -1  350.96   12.30
   1  -4  -1  356.26   12.00
   1  -4  -1  354.46   13.90
   1  -4  -1  363.36   12.30
  -1   4   1  345.97   12.90
  -1   4   1  345.67   10.30
  -1   4   1  346.17   11.70
   0  -4  -1    9.50    4.70
   0  -4  -1    0.70    3.00
   0  -4  -1   -2.70    3.50
   0  -4  -1    5.20    3.00
   0  -4  -1    5.40    2.90
   0  -4  -1    0.90    1.90
   0  -4  -1    2.40    3.00
   0  -4  -1    5.70    2.90
   0  -4  -1   -4.30    2.50
   0   4   1   -3.60    3.40
   0   4   1   -1.70    2.90
   0   4   1    2.40    2.80
   0   4   1    1.50    3.20
  -1  -4  -1  348.77   10.80
  -1  -4  -1  344.27   11.70
  -1  -4  -1  350.16   12.70
  -1  -4  -1  356.86   14.90
  -1  -4  -1  354.26   13.00
  -1  -4  -1  337.47   12.40
  -1  -4  -1  340.47   12.80
  -1  -4  -1  344.77   12.00
  -1  -4  -1  338.07   12.50
   1   4   1  333.47   12.60
   1   4   1  355.56   13.30
   1   4   1  359.56   11.70
   1   4   1  360.66   13.00
   1   4   1  349.87   10.70
   1   4   1  349.67   12.60
  -2  -4  -1  596.14   20.60
  -2  -4  -1  547.15   20.30
  -2  -4  -1  521.75   19.20
  -2  -4  -1  567.04   18.90
  -2  -4  -1  565.04   15.80
  -2  -4  -1  592.64   22.60
  -2  -4  -1  547.15   16.90
   2   4   1  573.84   18.80
   2   4   1  563.74   18.30
   2   4   1  563.34   18.20
   2   4   1  575.04   17.40
   2   4   1  593.84   19.10
   2   4   1  564.04   20.20
  -3  -4  -1   19.80    7.40
  -3  -4  -1    1.60    5.20
  -3  -4  -1    7.50    3.00
  -3  -4  -1   11.00    3.30
  -3  -4  -1    1.50    3.60
   3   4   1    4.20    3.70
   3   4   1    2.90    4.30
   3   4   1    9.60    4.50
   3   4   1    1.60    5.50
   3   4   1    7.20    4.90
   3   4   1   -1.00    5.20
  -4  -4  -1  150.78    7.30
  -4  -4  -1  159.48   12.00
  -4  -4  -1  158.78   11.40
  -4  -4  -1  154.48   12.80
  -4  -4  -1  151.58    7.30
   4   4   1  143.39   10.80
   4   4   1  141.19    9.70
   4   4   1  156.98    7.60
   4   4   1  143.19    9.90
   4   4   1  150.78   11.90
   4   4   1  160.38   13.10
  -5  -4  -1  451.05   21.50
  -5  -4  -1  457.85   21.90
   5   4   1  460.95   20.70
   5   4   1  457.25   22.10
   5   4   1  430.26   13.40
   5   4   1  404.76   17.10
   5   4   1  457.35   23.40
   5   4   1  445.86   18.70
  -6  -4  -1   -7.30    6.50
  -6  -4  -1   11.30    6.60
   6   4   1   13.10    7.30
   6   4   1   10.40    7.00
   6   4   1   16.00    6.50
   6   4   1    6.50    5.00
   6  -5  -1   17.10    6.40
   6  -5  -1    3.70    5.80
   6  -5  -1    2.20    3.20
  -6   5   1    0.60    5.60
  -6   5   1    1.80    5.40
   5  -5  -1   52.19    7.90
   5  -5  -1   51.69    5.30
   5  -5  -1   34.50    8.00
  -5   5   1   62.79    8.60
   4  -5  -1   47.90    5.80
   4  -5  -1   45.10    7.00
   4  -5  -1   48.80    8.10
   4  -5  -1   53.99    5.50
   4  -5  -1   58.79    7.10
  -4   5   1   54.69    7.60
  -4   5   1   38.90    4.70
  -4   5   1   35.30    4.00
  -4   5   1   52.19    7.90
   3  -5  -1   59.69    8.10
   3  -5  -1   57.99    8.70
   3  -5  -1   62.69    5.60
   3  -5  -1   60.39    5.70
   3  -5  -1   61.59    6.20
  -3   5   1   73.39    8.70
  -3   5   1   58.79    7.30
   2  -5  -1  136.29    9.40
   2  -5  -1  143.49    8.20
   2  -5  -1  134.89    6.90
   2  -5  -1  140.99   10.10
  -2   5   1  136.09    9.90
  -2   5   1  134.19    7.80
  -2   5   1  140.79    7.20
   1  -5  -1   62.79    4.60
   1  -5  -1   63.29    7.80
   1  -5  -1   59.19    5.90
   1  -5  -1   70.19    8.60
   1  -5  -1   76.69    6.80
  -1   5   1   74.79    6.50
  -1   5   1   74.29    6.80
  -1   5   1   66.39    4.50
   0  -5  -1   -1.90    2.30
   0  -5  -1   -4.60    3.40
   0  -5  -1    1.10    2.90
   0  -5  -1    2.40    3.30
   0  -5  -1   -4.30    3.30
   0  -5  -1    0.70    3.90
   0  -5  -1   -1.30    5.40
   0   5   1   -1.40    3.30
   0   5   1    2.50    3.90
  -1  -5  -1   63.49    7.60
  -1  -5  -1   77.09    9.60
  -1  -5  -1   67.39    5.70
  -1  -5  -1   68.69    6.90
  -1  -5  -1   64.49    6.70
  -1  -5  -1   63.99    5.70
  -1  -5  -1   62.39    6.70
   1   5   1   63.99    7.00
   1   5   1   61.59    5.00
   1   5   1   63.69    5.50
   1   5   1   71.69    6.60
   1   5   1   66.09    6.50
  -2  -5  -1  139.19    7.10
  -2  -5  -1  155.58    9.40
  -2  -5  -1  131.39   10.80
  -2  -5  -1  138.19   10.00
   2   5   1  147.49    9.30
   2   5   1  145.19    9.10
   2   5   1  140.29    9.10
   2   5   1  144.69   10.90
   2   5   1  147.99    9.30
  -3  -5  -1   65.09    6.70
  -3  -5  -1   75.59    9.10
  -3  -5  -1   74.99    9.80
  -3  -5  -1   63.79    4.80
   3   5   1   67.39    9.00
   3   5   1   58.39    7.70
   3   5   1   57.39    8.90
   3   5   1   62.49    7.40
   3   5   1   67.69    7.30
  -4  -5  -1   58.29    6.70
  -4  -5  -1   61.99   11.10
  -4  -5  -1   69.29   10.10
  -4  -5  -1   49.00    6.20
   4   5   1   53.59    7.60
   4   5   1   63.09    9.80
   4   5   1   46.70    7.40
   4   5   1   50.69    9.40
   4   5   1   47.60    7.90
  -5  -5  -1   40.00    9.10
  -5  -5  -1   51.59    9.50
   5   5   1   50.49    5.20
   5   5   1   48.20    8.60
   5   5   1   50.59   10.00
   5   5   1   47.00    7.70
   5   5   1   41.80    9.40
  -6  -5  -1   14.20    9.40
  -6  -5  -1   11.80    7.40
   6   5   1   11.70    8.30
   6   5   1    4.40    6.90
   6   5   1   14.90    8.40
   6   5   1    4.40    6.20
   5  -6  -1  127.89    9.90
   5  -6  -1  109.39    7.60
   5  -6  -1  112.99   12.50
  -5   6   1   97.79   10.50
  -5   6   1  100.89   10.30
   4  -6  -1  288.47   12.60
   4  -6  -1  291.97   13.30
   4  -6  -1  287.77   13.40
   4  -6  -1  345.67   17.00
   4  -6  -1  288.97   17.50
  -4   6   1  276.07   15.20
  -4   6   1  303.57   16.20
   3  -6  -1   22.00    4.80
   3  -6  -1   25.00    7.30
   3  -6  -1   12.20    5.50
   3  -6  -1   19.40    5.00
   3  -6  -1   24.70    4.20
  -3   6   1   14.10    5.50
  -3   6   1   20.50    6.50
   2  -6  -1  561.34   16.20
   2  -6  -1  577.34   20.70
   2  -6  -1  548.55   19.00
   2  -6  -1  568.34   19.60
   2  -6  -1  578.24   23.40
  -2   6   1  583.84   21.60
  -2   6   1  595.24   20.30
  -2   6   1  537.15   17.30
   1  -6  -1  843.22   25.60
   1  -6  -1  791.52   25.10
   1  -6  -1  834.02   28.80
   1  -6  -1  781.62   24.70
   1  -6  -1  783.72   20.80
  -1   6   1  839.02   26.90
  -1   6   1  814.02   24.50
   0  -6  -1    6.00    2.70
   0  -6  -1    0.50    4.00
   0  -6  -1    5.20    3.80
   0  -6  -1   -3.80    4.30
   0  -6  -1   -5.50    4.00
   0  -6  -1    3.80    4.10
   0  -6  -1   -4.60    2.80
   0  -6  -1   -3.30    2.30
   0   6   1    0.00    4.10
  -1  -6  -1  857.61   26.20
  -1  -6  -1  833.62   23.70
  -1  -6  -1  797.52   29.10
  -1  -6  -1  833.62   24.80
   1   6   1  816.32   23.10
   1   6   1  835.22   25.00
   1   6   1  839.02   26.90
   1   6   1  830.52   26.40
  -2  -6  -1  603.04   24.60
  -2  -6  -1  562.74   20.50
  -2  -6  -1  565.74   20.30
  -2  -6  -1  566.54   17.30
   2   6   1  562.34   21.40
   2   6   1  611.14   20.50
   2   6   1  599.44   19.60
   2   6   1  535.55   21.10
  -3  -6  -1   16.70    6.40
  -3  -6  -1   13.90    3.30
  -3  -6  -1   17.30    8.50
  -3  -6  -1   14.60    5.40
   3   6   1    9.90    4.60
   3   6   1   20.70    5.30
   3   6   1   26.90    6.00
   3   6   1   12.60    5.70
  -4  -6  -1  305.97   17.10
  -4  -6  -1  276.37   18.60
   4   6   1  307.77   13.30
   4   6   1  282.87   15.40
   4   6   1  296.97   18.00
   4   6   1  277.97   15.60
  -5  -6  -1  139.59   13.40
  -5  -6  -1  120.09   14.80
   5   6   1  121.79   11.70
   5   6   1  129.39   11.80
   5   6   1  110.79    7.80
   5   6   1  117.09   12.90
   4  -7  -1   23.10    5.70
   4  -7  -1   21.50    5.00
   4  -7  -1   15.70    7.30
  -4   7   1    9.90    6.30
  -4   7   1   26.20    6.40
   3  -7  -1    3.90    5.30
   3  -7  -1    7.80    6.50
   3  -7  -1    9.80    4.10
  -3   7   1   12.40    6.30
  -3   7   1    6.10    5.00
   2  -7  -1   19.00    5.80
   2  -7  -1   27.70    5.90
   2  -7  -1   30.50    6.50
   2  -7  -1   33.20    8.80
  -2   7   1   36.20    7.70
  -2   7   1   49.40    8.10
   1  -7  -1   21.10    5.50
   1  -7  -1   27.00    6.00
   1  -7  -1   26.00    7.00
   1  -7  -1   19.80    5.40
  -1   7   1   13.40    7.70
  -1   7   1   26.20    5.10
   0  -7  -1   -2.40    4.20
   0  -7  -1   -1.70    4.10
   0  -7  -1   -3.50    3.60
   0  -7  -1   10.40    7.10
   0   7   1   -5.20    3.60
  -1  -7  -1   31.10    8.80
  -1  -7  -1   17.00    6.20
  -1  -7  -1   22.80    5.10
  -1  -7  -1   26.70    6.30
   1   7   1   20.50    4.50
   1   7   1   21.80    3.80
   1   7   1   26.90    6.40
   1   7   1   17.30    5.20
  -2  -7  -1   31.70    7.60
  -2  -7  -1   31.50    4.50
  -2  -7  -1   38.50    6.70
  -2  -7  -1   25.00    9.40
   2   7   1   26.20    5.30
   2   7   1   29.00    6.70
   2   7   1   30.40    6.60
   2   7   1   26.60    7.90
  -3  -7  -1   11.00    6.50
  -3  -7  -1    4.10    6.40
  -3  -7  -1    9.70    3.30
  -3  -7  -1   12.20    5.10
   3   7   1    6.70    4.70
   3   7   1   18.10    6.70
   3   7   1    5.70    5.20
   3   7   1    6.90    5.90
  -4  -7  -1   13.80    6.70
  -4  -7  -1   16.20    9.40
   4   7   1   11.80    5.40
   4   7   1   28.10    7.70
   4   7   1   16.20    6.10
   4   7   1   12.10    5.10
   3  -8  -1   -0.30    3.50
   3  -8  -1    7.00    5.80
   3  -8  -1    4.30    7.40
  -3   8   1    7.60    6.40
  -3   8   1    9.70    6.00
   2  -8  -1  164.38   11.80
   2  -8  -1  170.88   11.60
  -2   8   1  166.78   13.20
  -2   8   1  180.98   12.50
   1  -8  -1  140.39   10.00
   1  -8  -1  151.38   10.60
   1  -8  -1  132.59   12.60
  -1   8   1  144.99   10.30
  -1   8   1  124.09   11.90
   0  -8  -1    5.20    4.90
   0  -8  -1    1.70    6.90
   0  -8  -1    7.00    3.80
   0  -8  -1    7.10    4.30
   0   8   1   -2.00    4.10
   0   8   1   -6.20    5.60
  -1  -8  -1  133.19   12.90
  -1  -8  -1  144.09    9.20
  -1  -8  -1  112.59   10.30
  -1  -8  -1  133.29   10.60
   1   8   1  142.49   11.90
   1   8   1  139.49    8.50
   1   8   1  114.79    7.00
  -2  -8  -1  170.78   11.80
  -2  -8  -1  133.19   12.60
  -2  -8  -1  168.08    9.00
  -2  -8  -1  143.69   15.30
   2   8   1  165.28   12.90
   2   8   1  166.88   10.00
   2   8   1  155.58   11.70
   2   8   1  172.98   11.70
  -3  -8  -1   -3.80    6.60
  -3  -8  -1   -0.30    2.70
  -3  -8  -1    0.10    6.50
   3   8   1   -1.90    4.80
   3   8   1   -4.30    5.30
   1  -9  -1    6.10    6.30
   1  -9  -1    2.40    5.00
   0  -9  -1   -5.70    4.00
   0  -9  -1   -3.10    5.50
   0  -9  -1   -9.50    4.40
   0   9   1   -5.90    5.50
   0   9   1    1.30    4.50
  -1  -9  -1    5.00    4.30
  -1  -9  -1    2.90    6.30
  -1  -9  -1   -4.70    4.60
   1   9   1    9.10    6.40
   1   9  -2    6.30    3.80
  -1  -9   2  -15.10    7.70
  -1  -9   2   -8.00    4.50
  -1  -9   2   -7.00    7.10
   0   9  -2   12.40    4.90
   0  -9   2   -3.20    7.30
   0  -9   2    0.50    5.10
   0  -9   2    1.90    6.10
  -1   9  -2   -3.00    3.70
  -1   9  -2   -9.10    5.90
   1  -9   2   -0.60    7.80
   1  -9   2   -4.90    4.70
   3   8  -2  325.17   17.00
  -3  -8   2  304.97   19.70
  -3  -8   2  283.47   20.20
  -3  -8   2  333.77   18.90
  -3  -8   2  375.86   20.30
   2   8  -2   51.59    4.60
   2   8  -2   47.50    8.60
  -2  -8   2   43.40   10.10
  -2  -8   2   53.29    9.80
  -2  -8   2   68.79    7.10
   1   8  -2   79.89    6.60
   1   8  -2   91.99   10.90
   1   8  -2   76.09    9.80
  -1  -8   2   63.29    8.60
  -1  -8   2   49.30   10.30
  -1  -8   2   69.69   11.80
  -1  -8   2   72.79    6.40
   0   8  -2  172.68   12.00
   0   8  -2  184.68   10.00
   0   8  -2  184.28   12.30
   0  -8   2  181.88   13.20
   0  -8   2  169.28   11.80
   0  -8   2  197.28   14.50
  -1   8  -2   68.79    8.20
  -1   8  -2   52.29    9.70
   1  -8   2   73.59    8.90
   1  -8   2   72.89   11.70
  -2   8  -2   48.60    7.40
  -2   8  -2   62.79    9.70
   2  -8   2   65.99    8.20
   2  -8   2   29.90    9.10
   2  -8   2   42.40    7.00
  -3   8  -2  334.07   17.30
  -3   8  -2  319.07   18.20
   3  -8   2  338.87   21.10
   3  -8   2  297.67   15.90
   3  -8   2  370.46   17.90
   4   7  -2   29.10    6.80
   4   7  -2   28.70    8.20
   4   7  -2   33.30    6.50
   4   7  -2   27.10    7.30
  -4  -7   2   40.50   11.00
  -4  -7   2   23.70    9.60
  -4  -7   2   42.90    6.90
   3   7  -2   16.80    5.60
   3   7  -2   17.20    7.40
   3   7  -2   11.90    5.80
   3   7  -2    5.40    5.30
  -3  -7   2   31.90    6.30
  -3  -7   2   11.30    8.20
  -3  -7   2   27.20    5.80
  -3  -7   2   15.90    8.20
  -3  -7   2    4.20    6.20
   2   7  -2   13.00    3.90
   2   7  -2   17.60    7.20
  -2  -7   2   31.50    5.50
  -2  -7   2   20.10    8.30
  -2  -7   2   28.70    9.50
  -2  -7   2   15.90    5.20
   1   7  -2    2.20    4.90
   1   7  -2    5.20    3.00
  -1  -7   2    1.70    3.00
  -1  -7   2   -0.60    7.20
  -1  -7   2    2.30    6.50
  -1  -7   2    1.80    4.10
  -1  -7   2    9.70    3.30
   0   7  -2    9.00    4.10
   0   7  -2   13.70    5.70
   0  -7   2   -2.70    6.50
   0  -7   2    6.10    6.60
   0  -7   2    4.70    2.30
   0  -7   2   11.70    3.10
   0  -7   2    2.10    2.70
   0  -7   2    6.80    4.20
  -1   7  -2   -1.80    3.90
  -1   7  -2    3.60    4.20
  -1   7  -2    5.10    4.40
   1  -7   2    5.50    5.50
   1  -7   2    0.30    5.10
   1  -7   2   10.30    6.30
   1  -7   2    6.00    4.10
  -2   7  -2   41.70    8.00
  -2   7  -2   17.40    4.40
  -2   7  -2   22.30    6.20
   2  -7   2   19.80    6.20
   2  -7   2   19.00    6.80
   2  -7   2   34.70    7.30
  -3   7  -2   15.30    6.60
  -3   7  -2    7.60    5.40
   3  -7   2   10.50    5.60
   3  -7   2   18.50    5.30
  -4   7  -2   21.10    6.80
  -4   7  -2   31.10    7.40
   4  -7   2   34.50    7.50
   4  -7   2   32.80    8.90
   4  -7   2   26.10    6.10
   5   6  -2   20.60    6.30
   5   6  -2   33.50    6.20
   5   6  -2   13.40    6.60
   5   6  -2   39.50    9.40
  -5  -6   2   33.90    7.00
  -5  -6   2   37.00    7.30
  -5  -6   2   21.80    9.10
  -5  -6   2   19.00    9.60
   4   6  -2   90.99    9.60
   4   6  -2   80.99   10.10
   4   6  -2  104.69   11.50
   4   6  -2   95.69    9.10
  -4  -6   2  109.29   10.00
  -4  -6   2  105.39   13.70
  -4  -6   2  100.99   11.90
  -4  -6   2  108.09   10.60
   3   6  -2  168.28   11.20
   3   6  -2  165.28   10.70
   3   6  -2  156.58   11.40
   3   6  -2  178.18   13.10
  -3  -6   2  145.59   13.10
  -3  -6   2  171.18   12.90
  -3  -6   2  192.68   11.60
  -3  -6   2  155.88    9.80
  -3  -6   2  181.08   12.30
   2   6  -2  122.59    5.10
   2   6  -2  109.39    5.70
   2   6  -2  106.69    5.60
   2   6  -2  111.79    9.90
   2   6  -2  111.89    8.70
   2   6  -2  110.89   10.20
   2   6  -2  119.99    9.60
  -2  -6   2  109.09   11.10
  -2  -6   2  126.19    9.00
  -2  -6   2  133.09   10.00
  -2  -6   2  121.19    8.80
  -2  -6   2  111.29   10.40
   1   6  -2  227.38   12.60
   1   6  -2  226.08    9.10
  -1  -6   2  238.38   11.90
  -1  -6   2  200.68   10.90
  -1  -6   2  224.58   10.20
  -1  -6   2  203.58    9.70
  -1  -6   2  228.08   14.50
  -1  -6   2  215.78   10.80
  -1  -6   2  216.28   14.20
   0   6  -2 1051.49   31.80
   0   6  -2 1081.99   28.70
   0   6  -2 1043.30   31.40
   0  -6   2 1053.89   27.20
   0  -6   2  962.30   34.60
   0  -6   2 1148.49   34.70
   0  -6   2 1026.40   27.10
   0  -6   2 1050.09   28.60
   0  -6   2 1076.09   32.30
   0  -6   2 1036.30   26.00
   0  -6   2 1051.59   26.30
  -1   6  -2  248.08   11.40
  -1   6  -2  221.48   12.20
  -1   6  -2  212.28   12.00
   1  -6   2  228.88   12.10
   1  -6   2  227.18   11.10
   1  -6   2  238.28   14.50
   1  -6   2  235.18   11.80
   1  -6   2  231.08   13.00
  -2   6  -2  140.69   10.50
  -2   6  -2  108.79    8.80
   2  -6   2  118.99   10.30
   2  -6   2  100.49    9.10
   2  -6   2  119.49    8.50
   2  -6   2  119.39    9.80
  -3   6  -2  189.78   11.60
  -3   6  -2  167.28   11.50
  -3   6  -2  172.38   12.00
   3  -6   2  161.78   13.30
   3  -6   2  166.08   11.40
   3  -6   2  150.58   10.70
  -4   6  -2   83.89   11.00
  -4   6  -2   93.49    9.40
   4  -6   2  105.19   10.10
   4  -6   2  100.49    8.00
   4  -6   2   92.89   11.40
  -5   6  -2   14.00    6.40
  -5   6  -2   23.20    7.20
   5  -6   2   32.50    7.20
   5  -6   2   25.30    7.00
   5  -6   2   34.30    6.00
   6   5  -2    5.70    5.40
   6   5  -2   17.60    8.00
   6   5  -2   15.00    5.20
   6   5  -2   28.40    7.80
  -6  -5   2   21.80    8.70
  -6  -5   2   23.70    6.10
  -6  -5   2   28.50    6.90
   5   5  -2   25.80    4.60
   5   5  -2   30.00    7.90
   5   5  -2   25.80    8.50
   5   5  -2   27.90    6.40
  -5  -5   2   14.30    8.10
  -5  -5   2    9.60    8.10
   4   5  -2   75.59   11.10
   4   5  -2   85.09    7.90
   4   5  -2   86.19    9.50
   4   5  -2   71.29    8.10
   4   5  -2   89.29    8.80
  -4  -5   2   86.39   11.00
  -4  -5   2  104.09   11.90
  -4  -5   2   81.09    6.60
   3   5  -2   52.29    6.80
   3   5  -2   49.40    8.50
   3   5  -2   42.00    6.90
   3   5  -2   52.99    7.40
   3   5  -2   57.59    7.20
  -3  -5   2   57.09    9.70
  -3  -5   2   45.30    5.90
  -3  -5   2   65.09   11.50
   2   5  -2  118.19    5.20
   2   5  -2  115.49    4.40
   2   5  -2  106.89    8.30
   2   5  -2  129.79   11.20
   2   5  -2  115.89    4.50
   2   5  -2  124.19   10.40
   2   5  -2  119.39    9.30
   2   5  -2  108.69   11.80
  -2  -5   2  134.39   11.60
  -2  -5   2  106.49   10.60
  -2  -5   2  119.59   11.20
   1   5  -2    3.10    3.10
   1   5  -2    0.20    4.40
   1   5  -2    2.40    3.60
   1   5  -2    2.90    2.60
  -1  -5   2    1.40    2.60
  -1  -5   2    3.70    3.80
  -1  -5   2    0.30    3.50
  -1  -5   2    2.00    3.60
  -1  -5   2    0.10    2.30
  -1  -5   2    2.50    5.70
  -1  -5   2    6.70    5.90
  -1  -5   2    6.30    3.60
   0   5  -2    9.20    3.20
   0   5  -2    7.00    3.80
   0   5  -2   13.70    4.40
   0  -5   2    8.20    3.20
   0  -5   2   13.80    4.40
   0  -5   2    9.80    5.80
   0  -5   2    7.70    3.10
   0  -5   2    9.10    3.40
   0  -5   2    4.10    2.40
   0  -5   2   12.60    7.00
   0  -5   2    7.10    3.10
   0  -5   2    7.00    7.40
  -1   5  -2    4.80    3.80
  -1   5  -2    4.70    4.00
  -1   5  -2    7.20    4.30
   1  -5   2   -2.10    4.90
   1  -5   2    2.80    1.40
   1  -5   2    1.50    5.00
   1  -5   2    8.50    4.50
   1  -5   2    4.10    2.10
   1  -5   2    3.80    1.70
   1  -5   2    1.70    1.70
   1  -5   2    2.60    3.70
   1  -5   2    2.10    3.90
  -2   5  -2  116.19    9.40
  -2   5  -2  122.29    8.60
  -2   5  -2  120.49    8.90
   2  -5   2  121.09   11.30
   2  -5   2  122.39    8.40
   2  -5   2  117.69    9.40
   2  -5   2  115.59    8.50
  -3   5  -2   63.99    8.00
  -3   5  -2   64.29    7.90
  -3   5  -2   45.10    7.80
   3  -5   2   63.89    8.80
   3  -5   2   58.59    9.10
   3  -5   2   55.09    3.50
   3  -5   2   53.39    3.00
   3  -5   2   59.29    5.90
  -4   5  -2   65.39    5.80
  -4   5  -2   80.99    8.50
  -4   5  -2   67.49    6.20
  -4   5  -2   78.19    9.50
   4  -5   2  101.49   11.60
   4  -5   2   96.89    8.00
   4  -5   2   72.89    8.80
   4  -5   2   85.09    6.00
   4  -5   2   88.19    7.20
   4  -5   2   83.89    5.10
  -5   5  -2   25.10    6.50
   5  -5   2   31.80    7.30
   5  -5   2   21.80    4.80
   5  -5   2   21.30    4.80
   5  -5   2   36.10    6.50
   5  -5   2   22.70    4.20
  -6   5  -2   10.60    4.70
   6  -5   2   22.10    4.70
   6  -5   2   28.00    8.10
   6   4  -2  203.38   17.50
   6   4  -2  214.08   10.50
   6   4  -2  202.48   12.50
   6   4  -2  195.38   15.10
  -6  -4   2  220.78   16.70
  -6  -4   2  223.08   17.40
   5   4  -2   45.90    9.90
   5   4  -2   72.79    7.70
   5   4  -2   64.19    9.50
   5   4  -2   58.29    6.30
  -5  -4   2   65.19   10.80
  -5  -4   2   58.99    9.40
   4   4  -2  185.08   10.10
   4   4  -2  209.78   14.70
   4   4  -2  204.78   10.50
   4   4  -2  204.68   11.20
   4   4  -2  205.08   12.10
  -4  -4   2  208.48   14.00
  -4  -4   2  183.28   14.00
   3   4  -2 1722.23   45.40
   3   4  -2 1719.13   48.60
   3   4  -2 1693.13   43.10
   3   4  -2 1754.42   43.60
   3   4  -2 1661.33   44.20
  -3  -4   2 1644.74   41.70
  -3  -4   2 1692.23   46.60
  -3  -4   2 1670.33   47.50
   2   4  -2  275.87   11.80
   2   4  -2  254.47   13.20
   2   4  -2  258.07    7.60
   2   4  -2  262.67   11.10
   2   4  -2  264.67   11.60
   2   4  -2  279.27   12.00
  -2  -4   2  260.67   12.70
  -2  -4   2  264.77   11.90
  -2  -4   2  252.27   13.30
  -2  -4   2  272.37   10.90
  -2  -4   2  279.97   13.80
   1   4  -2  250.77   11.30
   1   4  -2  239.88    8.30
   1   4  -2  246.98   10.80
   1   4  -2  243.78   10.90
   1   4  -2  232.78    7.70
   1   4  -2  254.37   10.00
   1   4  -2  255.07   10.40
  -1  -4   2  249.18   12.10
  -1  -4   2  253.27   10.00
  -1  -4   2  241.48    9.70
  -1  -4   2  245.28   11.00
  -1  -4   2  264.57   11.80
  -1  -4   2  245.18   10.20
  -1  -4   2  250.17   10.70
  -1  -4   2  247.78   10.80
   0   4  -2  666.33   19.00
   0   4  -2  646.04   19.60
   0   4  -2  631.24   19.80
   0   4  -2  623.64   18.90
   0  -4   2  652.73   18.20
   0  -4   2  636.64   19.70
   0  -4   2  670.23   21.00
   0  -4   2  645.94   17.00
   0  -4   2  629.04   17.90
   0  -4   2  654.23   17.30
   0  -4   2  663.63   21.20
   0  -4   2  666.93   19.40
  -1   4  -2  252.07   11.10
  -1   4  -2  241.98   10.50
  -1   4  -2  246.48   10.00
   1  -4   2  267.47   11.90
   1  -4   2  253.47   11.70
   1  -4   2  244.58    8.30
   1  -4   2  251.87    7.70
   1  -4   2  252.27   10.30
   1  -4   2  246.78    7.70
   1  -4   2  262.07    8.60
   1  -4   2  243.58   10.70
  -2   4  -2  257.27    8.00
  -2   4  -2  256.77   11.00
  -2   4  -2  262.37    8.50
  -2   4  -2  268.17   10.50
   2  -4   2  282.87   13.70
   2  -4   2  270.47   11.40
   2  -4   2  282.07   11.20
   2  -4   2  262.07   12.50
   2  -4   2  262.47    8.60
   2  -4   2  267.87    8.00
  -3   4  -2 1692.93   42.90
  -3   4  -2 1686.13   41.20
  -3   4  -2 1680.83   44.10
  -3   4  -2 1622.64   39.80
  -3   4  -2 1637.44   39.70
   3  -4   2 1677.03   45.20
   3  -4   2 1662.53   39.50
   3  -4   2 1664.63   42.50
   3  -4   2 1688.43   40.90
   3  -4   2 1745.23   42.20
   3  -4   2 1664.03   46.90
  -4   4  -2  193.28   10.50
  -4   4  -2  192.18   11.00
  -4   4  -2  161.98    9.20
  -4   4  -2  158.48   10.60
   4  -4   2  181.68    9.30
   4  -4   2  201.08   12.70
   4  -4   2  208.08   10.50
   4  -4   2  193.18   10.00
   4  -4   2  194.38   12.70
   4  -4   2  189.08    8.80
  -5   4  -2   70.79    9.30
  -5   4  -2   57.39    7.30
   5  -4   2   75.29   10.80
   5  -4   2   67.89    7.00
   5  -4   2   69.59    6.70
   5  -4   2   57.59    5.90
   5  -4   2   68.39    7.80
   5  -4   2   61.99   10.10
  -6   4  -2  199.38   10.70
  -6   4  -2  214.18   13.30
   6  -4   2  188.08   11.60
   6  -4   2  202.38   10.70
   6  -4   2  224.08   16.50
   6  -4   2  252.37   16.90
   6  -4   2  196.78   13.70
   6   3  -2   51.09    9.10
   6   3  -2   43.60    6.60
   6   3  -2   52.39    5.80
   6   3  -2   43.40   10.40
   6   3  -2   33.00   11.50
   6   3  -2   53.89   10.40
  -6  -3   2   54.99   10.00
  -6  -3   2   42.30   12.30
   5   3  -2   63.59    6.80
   5   3  -2   58.69   10.70
   5   3  -2   62.99   11.00
   5   3  -2   68.09    9.40
   5   3  -2   56.69    6.60
   5   3  -2   69.49    6.60
  -5  -3   2   53.39    2.50
  -5  -3   2   60.49    9.70
  -5  -3   2   51.89    2.70
  -5  -3   2   71.89   11.40
   4   3  -2  216.38    9.80
   4   3  -2  202.88    9.50
   4   3  -2  212.58   13.80
   4   3  -2  200.98   11.70
   4   3  -2  215.38   10.30
   4   3  -2  218.38   13.30
  -4  -3   2  197.88   12.20
  -4  -3   2  198.18    9.00
  -4  -3   2  211.58   13.40
   3   3  -2  139.49    9.50
   3   3  -2  159.88   11.40
   3   3  -2  143.69    8.20
   3   3  -2  145.19    8.00
  -3  -3   2  150.68   10.50
  -3  -3   2  140.09    6.60
  -3  -3   2  148.19   11.10
   2   3  -2  526.45   18.50
   2   3  -2  520.25   16.40
   2   3  -2  528.95   16.80
   2   3  -2  486.65   15.50
   2   3  -2  515.75   16.00
  -2  -3   2  504.15   18.40
  -2  -3   2  521.55   20.60
  -2  -3   2  535.95   15.40
  -2  -3   2  498.95   18.20
  -2  -3   2  512.75   17.60
  -2  -3   2  502.15   15.60
   1   3  -2    8.20    1.50
   1   3  -2    8.20    3.40
   1   3  -2    2.90    2.50
   1   3  -2    4.40    3.20
   1   3  -2    3.10    3.00
   1   3  -2    6.90    1.50
   1   3  -2   10.50    3.00
  -1  -3   2    5.30    2.70
  -1  -3   2    8.50    3.00
  -1  -3   2    7.80    2.60
  -1  -3   2    6.30    2.90
  -1  -3   2    8.30    2.80
  -1  -3   2    4.70    2.70
  -1  -3   2   12.80    4.10
  -1  -3   2   10.60    4.30
  -1  -3   2    6.60    3.00
   0   3  -2    9.50    2.30
   0   3  -2    9.90    2.90
   0   3  -2    6.80    2.70
   0   3  -2   10.30    2.40
   0  -3   2    8.40    2.60
   0  -3   2    8.70    2.10
   0  -3   2   12.60    4.40
   0  -3   2    8.80    2.80
   0  -3   2    6.30    2.50
   0  -3   2    8.40    2.50
   0  -3   2   14.40    4.40
   0  -3   2    8.50    3.10
  -1   3  -2    9.50    3.60
  -1   3  -2    9.20    2.60
  -1   3  -2    9.80    3.60
  -1   3  -2    6.60    2.10
  -1   3  -2    8.50    2.00
  -1   3  -2    5.60    3.10
   1  -3   2    9.70    2.90
   1  -3   2    6.70    2.20
   1  -3   2    2.00    3.50
   1  -3   2    3.90    4.30
   1  -3   2    8.50    3.90
   1  -3   2    4.30    4.00
   1  -3   2    6.40    2.60
  -2   3  -2  531.35   16.20
  -2   3  -2  534.25   16.70
  -2   3  -2  528.55   15.40
  -2   3  -2  529.85   14.60
  -2   3  -2  524.65   15.50
   2  -3   2  528.15   15.60
   2  -3   2  524.85   18.20
   2  -3   2  506.95   17.60
   2  -3   2  532.65   14.30
   2  -3   2  534.55   15.30
   2  -3   2  495.65   15.70
  -3   3  -2  154.28    7.80
  -3   3  -2  147.49    9.00
  -3   3  -2  143.49    9.10
  -3   3  -2  140.79    8.10
  -3   3  -2  149.88    6.30
   3  -3   2  135.69    7.30
   3  -3   2  140.19    7.90
   3  -3   2  122.49    9.60
   3  -3   2  144.39    9.60
   3  -3   2  142.89    8.20
   3  -3   2  147.29    7.50
   3  -3   2  136.49    7.00
  -4   3  -2  223.88   11.90
  -4   3  -2  208.68    9.80
   4  -3   2  237.38    9.90
   4  -3   2  198.78   12.40
   4  -3   2  220.38   10.10
   4  -3   2  211.38   13.20
   4  -3   2  206.88   11.60
   4  -3   2  206.88   10.20
  -5   3  -2   51.59    5.80
  -5   3  -2   64.39    6.90
   5  -3   2   55.79    9.40
   5  -3   2   63.39    5.90
   5  -3   2   66.19    6.70
   5  -3   2   65.39   10.20
   5  -3   2   60.49    7.70
   5  -3   2   58.79    6.20
  -6   3  -2   68.29   12.20
  -6   3  -2   46.10    7.90
   6  -3   2   55.09    5.90
   6  -3   2   37.40    6.90
   6  -3   2   50.29   11.70
   6  -3   2   53.99    9.00
   6  -3   2   37.20    5.80
   7   2  -2   53.39    6.90
   7   2  -2   53.49    9.80
   7   2  -2   64.19   12.50
   7   2  -2   58.39   12.10
  -7  -2   2   35.00    9.10
  -7  -2   2   76.99   12.90
   6   2  -2  263.17   17.90
   6   2  -2  237.78   11.20
   6   2  -2  239.58   11.60
   6   2  -2  257.47   16.00
   6   2  -2  264.07   18.50
  -6  -2   2  272.27   16.60
  -6  -2   2  259.27   17.60
   5   2  -2   65.39   10.00
   5   2  -2   55.19    6.20
   5   2  -2   67.79   10.20
   5   2  -2   67.59    5.80
   5   2  -2   60.29    5.60
   5   2  -2   69.49    9.00
  -5  -2   2   66.49    9.90
  -5  -2   2   85.69    9.50
   4   2  -2  269.77   10.40
   4   2  -2  277.77   10.90
   4   2  -2  289.27   14.30
   4   2  -2  263.47   15.30
   4   2  -2  267.47   16.10
   4   2  -2  279.57   10.80
  -4  -2   2  275.37    8.50
  -4  -2   2  267.07   14.00
  -4  -2   2  251.37   15.10
  -4  -2   2  265.57   12.10
   3   2  -2  257.77    9.60
   3   2  -2  261.27   13.00
   3   2  -2  241.88    8.90
  -3  -2   2  231.28   10.40
  -3  -2   2  220.78   12.40
  -3  -2   2  220.98   11.30
  -3  -2   2  243.48    6.40
  -3  -2   2  242.48    6.50
   2   2  -2  297.57   10.00
   2   2  -2  306.57   11.40
   2   2  -2  287.27   10.00
   2   2  -2  284.57    7.30
   2   2  -2  288.67   12.70
  -2  -2   2  294.27   10.00
  -2  -2   2  268.17   11.60
  -2  -2   2  289.67   11.00
  -2  -2   2  274.67   12.30
  -2  -2   2  290.47   12.50
  -2  -2   2  283.27    8.90
  -2  -2   2  273.37    9.10
   1   2  -2 1267.47   31.80
   1   2  -2 1312.47   31.80
   1   2  -2 1303.97   28.50
   1   2  -2 1334.77   31.30
   1   2  -2 1326.17   33.40
   1   2  -2 1335.57   31.80
   1   2  -2 1330.37   32.00
   1   2  -2 1320.27   28.60
  -1  -2   2 1307.67   31.80
  -1  -2   2 1256.77   32.70
  -1  -2   2 1304.37   33.20
  -1  -2   2 1318.87   32.10
  -1  -2   2 1315.27   31.00
  -1  -2   2 1302.97   31.60
  -1  -2   2 1326.67   32.00
  -1  -2   2 1312.77   33.20
  -1  -2   2 1298.37   31.40
  -1   2  -2 1303.77   30.70
  -1   2  -2 1313.27   31.20
  -1   2  -2 1326.97   31.80
  -1   2  -2 1299.77   31.40
  -1   2  -2 1321.67   31.60
  -1   2  -2 1315.67   31.70
  -1   2  -2 1275.67   33.30
   1  -2   2 1322.47   31.60
   1  -2   2 1300.77   33.30
   1  -2   2 1341.77   32.90
   1  -2   2 1335.77   32.00
   1  -2   2 1354.16   30.90
   1  -2   2 1320.27   31.50
   1  -2   2 1352.46   31.70
  -2   2  -2  286.27    8.90
  -2   2  -2  278.67   10.70
  -2   2  -2  295.07   10.00
  -2   2  -2  300.77   11.10
  -2   2  -2  298.77    9.60
  -2   2  -2  295.97    9.70
   2  -2   2  287.67   11.90
   2  -2   2  292.07    9.70
   2  -2   2  296.57   11.60
   2  -2   2  304.07   10.90
   2  -2   2  294.47    9.70
   2  -2   2  291.57    9.80
  -3   2  -2  245.98    9.00
  -3   2  -2  264.87   10.70
  -3   2  -2  255.87    7.80
   3  -2   2  248.68   10.10
   3  -2   2  227.58   12.00
   3  -2   2  230.78   11.20
   3  -2   2  251.27   12.20
   3  -2   2  247.08    9.70
   3  -2   2  231.38    8.60
  -4   2  -2  282.87   10.20
  -4   2  -2  259.17   12.60
  -4   2  -2  266.07    9.80
   4  -2   2  272.07   11.00
   4  -2   2  289.67   15.00
   4  -2   2  281.97   14.90
   4  -2   2  278.07   14.40
   4  -2   2  265.77   12.50
   4  -2   2  288.17   10.80
  -5   2  -2   81.59   10.50
  -5   2  -2   57.99    4.90
  -5   2  -2   59.99    6.60
   5  -2   2   62.59    7.40
   5  -2   2   60.19    9.30
   5  -2   2   71.39    8.50
   5  -2   2   66.29    9.20
   5  -2   2   62.09    6.00
   5  -2   2   69.29    5.80
  -6   2  -2  253.47   16.40
  -6   2  -2  270.07   14.40
  -6   2  -2  237.08    8.80
   6  -2   2  252.77   16.90
   6  -2   2  266.17   16.90
   6  -2   2  231.58   16.10
   6  -2   2  251.17   14.00
   6  -2   2  253.87   11.50
   6  -2   2  227.68   11.40
  -7   2  -2   43.30    7.70
  -7   2  -2   54.29    9.40
   7  -2   2   45.10    8.30
   7  -2   2   61.09   11.60
   7  -2   2   69.99   11.50
   7  -2   2   53.29    6.60
   7   1  -2   23.40    9.10
   7   1  -2   14.80    9.30
   7   1  -2   17.50    8.00
  -7  -1   2   35.80    8.30
  -7  -1   2   15.60    5.20
   6   1  -2   82.29   11.10
   6   1  -2   75.59   12.10
   6   1  -2   75.89    6.10
   6   1  -2   61.29    5.80
   6   1  -2   88.79    9.90
  -6  -1   2   84.49   10.90
  -6  -1   2   87.29   10.30
   5   1  -2   94.79    6.10
   5   1  -2   99.39   11.30
   5   1  -2  101.39    9.90
   5   1  -2   99.59    9.70
   5   1  -2   96.09    5.90
   5   1  -2  101.79    6.50
  -5  -1   2  104.09    9.70
  -5  -1   2   89.69    6.40
  -5  -1   2   99.29    9.60
   4   1  -2  351.56   12.00
   4   1  -2  344.17   15.30
   4   1  -2  351.36   16.80
   4   1  -2  344.17   17.40
   4   1  -2  355.86   11.00
   4   1  -2  361.66   11.30
  -4  -1   2  356.46   12.00
  -4  -1   2  350.06   15.20
  -4  -1   2  328.17   16.50
  -4  -1   2  330.17   10.30
  -4  -1   2  333.67   12.30
   3   1  -2  269.37    9.80
   3   1  -2  282.47    9.00
   3   1  -2  284.67    9.00
   3   1  -2  282.27   12.10
   3   1  -2  280.87    9.30
   3   1  -2  292.97   13.20
   3   1  -2  287.07   13.80
  -3  -1   2  270.87   11.50
  -3  -1   2  278.37   10.00
  -3  -1   2  272.87   12.90
  -3  -1   2  278.87    8.40
   2   1  -2 1265.97   29.10
   2   1  -2 1288.87   34.30
   2   1  -2 1306.57   28.80
   2   1  -2 1231.08   31.60
   2   1  -2 1303.47   29.60
   2   1  -2 1276.17   35.50
   2   1  -2 1299.67   29.90
   2   1  -2 1271.67   32.40
   2   1  -2 1276.37   30.90
  -2  -1   2 1313.77   28.40
  -2  -1   2 1288.57   28.50
  -2  -1   2 1257.47   35.40
  -2  -1   2 1273.07   30.90
  -2  -1   2 1285.27   32.30
  -2  -1   2 1308.37   31.90
  -2  -1   2 1289.27   34.10
  -2  -1   2 1306.87   28.70
  -2  -1   2 1285.47   28.70
  -2  -1   2 1260.97   31.90
   1   1  -2   14.70    1.40
   1   1  -2   14.50    2.10
   1   1  -2   20.60    3.20
   1   1  -2   15.60    3.80
   1   1  -2   11.70    2.40
   1   1  -2   10.90    3.70
   1   1  -2   16.70    2.40
   1   1  -2   16.10    3.10
  -1  -1   2    8.60    3.10
  -1  -1   2   16.30    4.10
  -1  -1   2   15.80    3.80
  -1  -1   2   13.40    2.00
  -1  -1   2   14.50    1.50
  -1  -1   2   10.70    3.00
  -1  -1   2   11.00    3.00
  -1  -1   2   13.20    2.20
  -1  -1   2   17.50    2.60
  -1  -1   2   18.50    3.00
  -1  -1   2   13.60    3.70
   0   1  -2   16.10    2.40
   0   1  -2   18.30    3.00
   0   1  -2   21.30    3.20
   0   1  -2   18.40    2.30
   0   1  -2   20.90    2.70
   0   1  -2   17.40    2.20
   0   1  -2   26.40    4.30
   0   1  -2   11.60    2.40
   0  -1   2   16.20    3.00
   0  -1   2   14.30    2.30
   0  -1   2   19.80    2.40
   0  -1   2   14.20    3.20
   0  -1   2   19.80    2.50
   0  -1   2   20.00    2.60
   0  -1   2   15.50    3.00
   0  -1   2   25.20    4.50
  -1   1  -2   12.80    2.40
  -1   1  -2   12.00    2.30
  -1   1  -2   14.50    3.50
  -1   1  -2   15.70    3.60
  -1   1  -2   19.50    3.30
  -1   1  -2   17.70    3.70
  -1   1  -2   17.20    3.10
  -1   1  -2   13.10    2.30
   1  -1   2   12.60    3.20
   1  -1   2   15.00    2.60
   1  -1   2   15.20    2.90
   1  -1   2   17.20    2.70
   1  -1   2    8.00    2.60
   1  -1   2   11.50    4.20
   1  -1   2   16.50    4.20
   1  -1   2   15.80    3.10
  -2   1  -2 1302.67   33.30
  -2   1  -2 1363.06   30.80
  -2   1  -2 1340.77   30.10
  -2   1  -2 1330.47   30.40
  -2   1  -2 1298.27   33.80
  -2   1  -2 1299.27   32.10
   2  -1   2 1248.98   29.80
   2  -1   2 1358.26   33.60
   2  -1   2 1181.08   32.60
   2  -1   2 1353.86   31.20
   2  -1   2 1330.87   32.20
  -3   1  -2  267.27   12.50
  -3   1  -2  291.27    8.40
  -3   1  -2  274.97    8.20
  -3   1  -2  288.77   11.20
  -3   1  -2  267.77   11.10
   3  -1   2  288.27   12.70
   3  -1   2  273.77    8.20
   3  -1   2  279.27    9.60
   3  -1   2  287.67   11.30
   3  -1   2  292.27   13.00
   3  -1   2  291.27   12.30
   3  -1   2  276.07    9.80
  -4   1  -2  352.26   13.70
  -4   1  -2  348.97   10.10
  -4   1  -2  345.57   10.80
  -4   1  -2  353.16   16.30
   4  -1   2  364.36   16.40
   4  -1   2  376.46   16.70
   4  -1   2  360.66   12.30
   4  -1   2  370.46   14.40
   4  -1   2  347.47   12.50
   4  -1   2  363.36   16.30
  -5   1  -2   99.69    4.30
  -5   1  -2   84.59    8.00
  -5   1  -2   95.39   10.10
   5  -1   2   97.89   10.80
   5  -1   2  100.09   10.40
   5  -1   2   94.89    8.90
   5  -1   2  111.09   10.70
   5  -1   2  108.39    7.20
   5  -1   2  107.59    7.20
  -6   1  -2   81.09    9.30
  -6   1  -2   75.49    8.20
   6  -1   2   74.39    8.80
   6  -1   2   72.19    6.80
   6  -1   2   71.69   11.80
   6  -1   2   81.59    7.30
   6  -1   2   64.69   10.80
  -7   1  -2   26.00    8.10
   7  -1   2   31.90    8.90
   7  -1   2   27.20    8.60
   7  -1   2   31.90    7.60
   7  -1   2   24.50    5.70
   7   0  -2  105.59   13.30
   7   0  -2  119.19   13.60
   7   0  -2   90.79    7.20
   7   0  -2  120.29   12.40
   7   0  -2  101.79    8.60
  -7   0   2  123.99   12.20
  -7   0   2  122.39   10.70
  -7   0   2  138.69   13.30
  -7   0   2  133.39   11.70
   6   0  -2  333.37   11.50
   6   0  -2  316.47   16.30
   6   0  -2  319.07   11.30
   6   0  -2  320.27   19.00
   6   0  -2  319.57   18.70
  -6   0   2  339.47   19.10
  -6   0   2  331.07   15.50
  -6   0   2  324.47   17.70
   5   0  -2   82.09    4.70
   5   0  -2   76.89    4.70
   5   0  -2   80.29    9.90
   5   0  -2   87.49   10.20
   5   0  -2   84.99    8.60
   5   0  -2   82.89    6.10
  -5   0   2   86.39    6.40
  -5   0   2   79.59    6.20
  -5   0   2   75.59    8.50
   4   0  -2  310.97   16.00
   4   0  -2  326.37    9.10
   4   0  -2  331.07   14.20
   4   0  -2  322.57   11.60
   4   0  -2  312.67    8.90
   4   0  -2  305.77   15.30
  -4   0   2  297.07   13.80
  -4   0   2  299.47   12.00
  -4   0   2  283.47   11.00
  -4   0   2  297.47   11.00
   3   0  -2 4086.39   93.19
   3   0  -2 4089.09   94.59
   3   0  -2 4035.20   95.69
   3   0  -2 4151.98   90.49
   3   0  -2 4074.49   90.89
   3   0  -2 4096.09   93.29
   3   0  -2 4086.99   90.19
  -3   0   2 3998.20   89.99
  -3   0   2 4094.59   93.09
  -3   0   2 3984.20   90.79
  -3   0   2 4049.99   90.29
   2   0  -2  878.21   19.00
   2   0  -2  866.81   22.90
   2   0  -2  864.21   19.00
   2   0  -2  883.21   21.90
   2   0  -2  891.31   23.70
   2   0  -2  881.71   21.10
   2   0  -2  881.61   24.50
   2   0  -2  851.31   22.40
   2   0  -2  870.21   21.10
  -2   0   2  866.31   25.10
  -2   0   2  847.12   22.30
  -2   0   2  865.71   23.50
  -2   0   2  834.62   23.70
  -2   0   2  848.42   21.70
  -2   0   2  931.51   22.00
  -2   0   2  874.51   21.10
  -2   0   2  835.62   22.60
  -2   0   2  852.41   22.80
  -2   0   2  845.92   24.10
  -2   0   2  851.41   22.30
   1   0  -2  563.04   15.90
   1   0  -2  585.54   14.00
   1   0  -2  578.74   15.30
   1   0  -2  587.24   14.40
   1   0  -2  597.04   13.30
   1   0  -2  528.65   15.30
   1   0  -2  571.14   14.80
   1   0  -2  571.04   14.00
  -1   0   2  566.74   14.80
  -1   0   2  558.24   14.00
  -1   0   2  591.94   16.50
  -1   0   2  580.74   15.70
  -1   0   2  583.64   15.40
  -1   0   2  567.54   15.50
  -1   0   2  567.04   15.90
  -1   0   2  575.64   14.00
  -1   0   2  599.04   15.30
  -1   0   2  571.14   14.00
   0   0  -2 1231.78   28.10
   0   0  -2 1217.38   27.40
   0   0  -2 1253.87   27.50
   0   0  -2 1221.68   27.50
   0   0  -2 1177.58   27.90
   0   0  -2 1221.58   27.40
   0   0  -2 1178.28   28.50
   0   0   2 1167.98   27.30
   0   0   2 1203.48   28.00
   0   0   2 1235.88   27.40
   0   0   2 1230.78   28.20
   0   0   2 1164.08   28.50
   0   0   2 1145.39   27.40
   0   0   2 1187.48   27.30
  -1   0  -2  615.54   16.90
  -1   0  -2  581.04   13.40
  -1   0  -2  581.54   16.40
  -1   0  -2  587.04   14.80
  -1   0  -2  592.64   15.20
  -1   0  -2  590.94   15.00
  -1   0  -2  591.54   15.80
  -1   0  -2  565.34   15.20
  -1   0  -2  581.34   15.30
   1   0   2  585.24   16.10
   1   0   2  605.44   15.40
   1   0   2  576.54   15.70
   1   0   2  579.44   13.40
   1   0   2  535.35   16.10
   1   0   2  578.44   15.00
   1   0   2  549.25   14.80
   1   0   2  599.74   16.70
  -2   0  -2  888.31   21.20
  -2   0  -2  836.12   24.10
  -2   0  -2  852.21   23.20
  -2   0  -2  860.31   18.70
  -2   0  -2  858.41   18.70
  -2   0  -2  864.51   22.00
  -2   0  -2  897.01   21.20
  -2   0  -2  875.81   23.00
   2   0   2  862.31   25.90
   2   0   2  869.31   24.40
   2   0   2  867.71   23.30
   2   0   2  874.71   23.10
   2   0   2  795.82   23.00
   2   0   2  873.41   21.70
  -3   0  -2 4184.58   96.49
  -3   0  -2 4212.28   93.89
  -3   0  -2 4264.87   91.49
   3   0   2 4164.68   97.69
   3   0   2 4126.19   92.79
   3   0   2 4183.28   96.49
   3   0   2 4116.69   95.29
   3   0   2 4056.89   96.89
   3   0   2 4173.58   92.99
  -4   0  -2  317.57   12.70
  -4   0  -2  320.87   15.20
  -4   0  -2  311.37    9.90
   4   0   2  304.77   15.70
   4   0   2  287.57   13.60
   4   0   2  296.27   11.40
   4   0   2  304.27   15.50
   4   0   2  312.27   11.50
  -5   0  -2   80.09    9.50
  -5   0  -2  105.89    8.00
   5   0   2   88.69    8.90
   5   0   2   76.79    6.40
   5   0   2   81.29   10.10
   5   0   2   81.99   11.40
   5   0   2   84.69    6.70
  -6   0  -2  299.37   17.90
  -6   0  -2  327.47   15.00
   6   0   2  323.87   19.10
   6   0   2  332.17   13.60
   6   0   2  315.97   13.60
   6   0   2  341.37   17.30
   6   0   2  310.27   19.10
  -7   0  -2  104.19   12.30
  -7   0  -2   96.89    9.40
   7   0   2  100.69   11.70
   7   0   2  103.29   11.70
   7   0   2   95.59   14.30
   7   0   2   78.79   12.40
   7  -1  -2   16.40    7.10
   7  -1  -2   27.20    7.00
   7  -1  -2   41.30    9.40
   7  -1  -2   28.60    3.90
   7  -1  -2   24.10    4.20
  -7   1   2   40.00    8.10
  -7   1   2   32.50    5.90
  -7   1   2   29.70    6.10
  -7   1   2   50.99    8.90
  -7   1   2   28.90    5.40
   6  -1  -2   90.19   14.20
   6  -1  -2   76.59    4.90
   6  -1  -2   76.19   11.20
   6  -1  -2   80.99   10.80
   6  -1  -2   73.99    4.80
  -6   1   2   61.59    6.60
  -6   1   2   80.89    7.30
  -6   1   2   86.99    8.50
  -6   1   2   77.39    9.70
  -6   1   2   93.69    9.20
   5  -1  -2  104.19    4.60
   5  -1  -2   96.49   10.30
   5  -1  -2  107.89    9.10
   5  -1  -2  105.19    9.00
   5  -1  -2   90.29   10.00
  -5   1   2   97.89    7.40
  -5   1   2   96.29    8.50
   4  -1  -2  362.16   14.60
   4  -1  -2  356.66   13.10
   4  -1  -2  347.17   15.90
   4  -1  -2  360.96    8.70
   4  -1  -2  370.26   16.90
   4  -1  -2  359.76    8.70
   4  -1  -2  352.06   12.90
   4  -1  -2  359.06   15.40
  -4   1   2  348.57   15.20
  -4   1   2  345.67   13.00
  -4   1   2  334.27   12.90
  -4   1   2  363.76   14.70
   3  -1  -2  273.57   12.50
   3  -1  -2  287.67   10.20
   3  -1  -2  300.47   11.90
   3  -1  -2  293.27   10.40
   3  -1  -2  283.27   12.00
   3  -1  -2  275.97   10.30
   3  -1  -2  279.07   11.10
  -3   1   2  271.27   10.80
  -3   1   2  281.47   10.20
  -3   1   2  269.47   10.30
  -3   1   2  269.77   12.10
  -3   1   2  268.57    9.90
   2  -1  -2 1291.87   31.20
   2  -1  -2 1317.57   31.40
   2  -1  -2 1305.87   32.10
   2  -1  -2 1286.07   32.20
   2  -1  -2 1345.57   31.70
   2  -1  -2 1350.96   31.80
   2  -1  -2 1304.87   33.10
  -2   1   2 1293.17   31.20
  -2   1   2 1256.07   31.20
  -2   1   2 1284.57   31.50
  -2   1   2 1290.77   31.60
  -2   1   2 1284.17   32.60
  -2   1   2 1300.67   32.90
  -2   1   2 1250.57   31.90
  -2   1   2 1354.16   31.80
  -2   1   2 1248.78   31.90
  -2   1   2 1292.57   31.30
   1  -1  -2   13.60    2.40
   1  -1  -2   15.90    3.00
   1  -1  -2    8.60    2.30
   1  -1  -2   16.20    1.90
   1  -1  -2   17.90    2.90
   1  -1  -2   10.20    2.60
   1  -1  -2   16.10    2.60
   1  -1  -2   19.90    2.90
   1  -1  -2   15.20    1.60
  -1   1   2   11.30    3.20
  -1   1   2   11.80    2.50
  -1   1   2   12.40    2.70
  -1   1   2    9.00    2.70
  -1   1   2   13.30    2.40
  -1   1   2   13.00    2.40
  -1   1   2   16.40    2.70
  -1   1   2   11.20    2.60
  -1   1   2   11.40    2.80
  -1   1   2   14.80    3.00
   0  -1  -2   16.30    2.50
   0  -1  -2   20.90    3.50
   0  -1  -2   21.20    2.80
   0  -1  -2   28.60    3.30
   0  -1  -2   20.50    2.60
   0  -1  -2   18.90    3.10
   0  -1  -2   21.90    2.80
   0  -1  -2   15.30    2.20
   0  -1  -2   19.20    2.50
   0   1   2   17.20    2.30
   0   1   2   19.80    2.60
   0   1   2   14.40    2.40
   0   1   2   23.30    3.80
   0   1   2   22.60    3.10
   0   1   2   17.10    2.60
   0   1   2   20.20    2.60
   0   1   2   20.80    2.40
   0   1   2   17.50    2.40
  -1  -1  -2   17.10    2.90
  -1  -1  -2   11.40    2.70
  -1  -1  -2   17.60    2.90
  -1  -1  -2   13.20    3.30
  -1  -1  -2    8.70    3.00
  -1  -1  -2   12.30    3.10
  -1  -1  -2   12.40    4.10
   1   1   2   12.70    1.70
   1   1   2   16.80    3.30
   1   1   2   12.40    2.80
   1   1   2   20.80    3.40
   1   1   2   13.90    3.30
   1   1   2   15.20    1.90
   1   1   2   12.30    3.20
   1   1   2   25.00    4.20
  -2  -1  -2 1313.17   31.30
  -2  -1  -2 1367.96   31.40
  -2  -1  -2 1297.27   34.40
  -2  -1  -2 1306.17   31.40
  -2  -1  -2 1302.77   32.90
   2   1   2 1215.58   32.30
   2   1   2 1306.77   32.90
   2   1   2 1309.87   31.70
   2   1   2 1316.17   34.50
   2   1   2 1359.16   35.80
   2   1   2 1256.17   31.30
   2   1   2 1317.67   28.60
  -3  -1  -2  285.47   10.50
  -3  -1  -2  269.27   12.30
   3   1   2  290.87   12.20
   3   1   2  283.77   13.70
   3   1   2  275.87   10.30
   3   1   2  261.37   12.60
  -4  -1  -2  357.36   10.90
  -4  -1  -2  348.27   15.70
  -4  -1  -2  358.26   13.20
   4   1   2  349.87   12.90
   4   1   2  351.76   17.00
   4   1   2  371.86   13.10
   4   1   2  363.16   17.70
   4   1   2  355.86   15.60
  -5  -1  -2  107.69    9.70
  -5  -1  -2   87.19    7.30
  -5  -1  -2  102.79    5.80
   5   1   2   93.99   11.20
   5   1   2   94.59    7.10
   5   1   2  101.79    9.90
   5   1   2  113.39    7.30
   5   1   2  104.59   10.10
  -6  -1  -2   83.89    8.30
  -6  -1  -2   75.49   10.70
   6   1   2   87.29   12.70
   6   1   2   77.09   10.20
   6   1   2   94.79    7.90
   6   1   2   86.59   11.80
   6   1   2   70.29    7.50
  -7  -1  -2   34.60    8.60
  -7  -1  -2   30.60    6.70
   7   1   2   38.30   10.60
   7   1   2   25.80    6.40
   7  -2  -2   58.49   11.10
   7  -2  -2   62.29   11.20
  -7   2   2   87.69    9.50
  -7   2   2   74.79    8.40
  -7   2   2   56.39    9.60
   6  -2  -2  250.77   16.10
   6  -2  -2  233.28   13.80
   6  -2  -2  259.97    8.80
   6  -2  -2  232.98   15.60
   6  -2  -2  261.67    8.70
   6  -2  -2  222.88   15.40
  -6   2   2  253.67   12.10
  -6   2   2  250.57   13.00
  -6   2   2  280.47   14.10
  -6   2   2  277.67   15.20
  -6   2   2  278.27   16.40
   5  -2  -2   76.99   10.30
   5  -2  -2   71.39    3.60
   5  -2  -2   57.49    7.80
   5  -2  -2   62.69    9.20
   5  -2  -2   67.69    3.90
   5  -2  -2   66.59    9.10
  -5   2   2   64.89    8.90
  -5   2   2   69.39    7.60
  -5   2   2   68.89    7.10
  -5   2   2   67.49    6.90
  -5   2   2   59.49    7.80
   4  -2  -2  287.07    7.30
   4  -2  -2  290.57   14.20
   4  -2  -2  254.97   14.10
   4  -2  -2  280.07    7.50
   4  -2  -2  280.47   12.70
   4  -2  -2  270.37   12.30
   4  -2  -2  271.97   14.00
  -4   2   2  271.67   12.40
  -4   2   2  266.57   13.20
  -4   2   2  262.97   13.10
  -4   2   2  277.87   12.30
   3  -2  -2  258.97   11.60
   3  -2  -2  253.57    6.40
   3  -2  -2  234.58   10.30
   3  -2  -2  248.38    6.20
   3  -2  -2  247.08   10.10
   3  -2  -2  244.28   11.10
   3  -2  -2  240.48   11.30
   3  -2  -2  239.58   10.20
  -3   2   2  235.68   10.70
  -3   2   2  250.57   10.40
  -3   2   2  242.18    9.80
  -3   2   2  236.68    9.90
  -3   2   2  241.28   12.40
   2  -2  -2  304.07   10.40
   2  -2  -2  291.07   10.30
   2  -2  -2  297.07    7.70
   2  -2  -2  283.87    9.80
  -2   2   2  285.07   10.40
  -2   2   2  294.67   10.40
  -2   2   2  292.77   10.20
  -2   2   2  266.17    9.70
  -2   2   2  299.07    9.50
  -2   2   2  288.27    9.40
  -2   2   2  307.17   10.90
   1  -2  -2 1310.27   31.40
   1  -2  -2 1270.87   30.20
   1  -2  -2 1294.57   31.50
   1  -2  -2 1285.87   29.70
   1  -2  -2 1319.97   31.30
   1  -2  -2 1346.67   29.90
   1  -2  -2 1290.67   29.00
   1  -2  -2 1292.17   29.90
   1  -2  -2 1282.67   31.50
  -1   2   2 1286.07   29.00
  -1   2   2 1305.37   30.00
  -1   2   2 1322.67   31.80
  -1   2   2 1253.57   29.00
  -1   2   2 1269.57   30.50
  -1   2   2 1313.47   29.20
  -1   2   2 1308.77   31.40
  -1   2   2 1280.27   31.20
  -1   2   2 1259.97   31.40
  -1  -2  -2 1319.57   31.90
  -1  -2  -2 1304.87   31.30
  -1  -2  -2 1345.77   30.70
  -1  -2  -2 1312.77   32.80
  -1  -2  -2 1294.97   30.70
  -1  -2  -2 1269.47   31.40
  -1  -2  -2 1332.77   33.30
  -1  -2  -2 1316.17   32.00
  -1  -2  -2 1303.07   32.00
   1   2   2 1285.17   31.20
   1   2   2 1385.56   33.90
   1   2   2 1315.37   31.60
   1   2   2 1342.27   33.50
   1   2   2 1342.57   32.20
   1   2   2 1335.17   30.90
   1   2   2 1346.27   31.90
  -2  -2  -2  291.37   11.00
  -2  -2  -2  299.17   10.30
  -2  -2  -2  278.27   12.10
  -2  -2  -2  287.27    9.70
  -2  -2  -2  282.47    8.20
  -2  -2  -2  297.97   12.00
   2   2   2  293.97   10.40
   2   2   2  296.87   10.60
   2   2   2  300.77   12.90
   2   2   2  277.77   13.80
   2   2   2  293.37   11.40
   2   2   2  301.47    8.50
  -3  -2  -2  250.47    9.60
  -3  -2  -2  253.17    9.50
  -3  -2  -2  238.88   12.20
   3   2   2  237.38   11.70
   3   2   2  240.68    6.80
   3   2   2  242.98   10.30
   3   2   2  248.28   10.00
  -4  -2  -2  276.67   10.20
  -4  -2  -2  266.37   15.00
  -4  -2  -2  271.17   11.10
   4   2   2  282.07   15.30
   4   2   2  271.87   11.40
   4   2   2  281.27   12.00
   4   2   2  294.37   15.70
   4   2   2  271.37   13.50
  -5  -2  -2   59.69    6.60
  -5  -2  -2   74.09   10.30
  -5  -2  -2   59.69    3.90
   5   2   2   63.39    7.60
   5   2   2   57.09    6.30
   5   2   2   65.19   10.20
   5   2   2   66.99    9.10
  -6  -2  -2  233.58   15.70
  -6  -2  -2  251.47   12.10
   6   2   2  256.07   13.00
   6   2   2  248.88   17.10
   6   2   2  241.68   13.10
   6   2   2  243.98   18.20
   6   2   2  260.57   15.80
  -7  -2  -2   39.80    6.90
  -7  -2  -2   58.69   10.00
   7   2   2   69.59   10.80
   7   2   2   48.40   11.20
   7   2   2   45.90   10.70
   7   2   2   37.60    6.80
   6  -3  -2   38.70    6.70
   6  -3  -2   53.29    4.40
   6  -3  -2   44.40    3.70
   6  -3  -2   56.09    9.50
   6  -3  -2   50.39    9.00
   6  -3  -2   51.09    8.30
  -6   3   2   47.00    7.40
  -6   3   2   55.09    9.20
  -6   3   2   48.60    7.80
  -6   3   2   57.59    6.50
   5  -3  -2   59.39    8.50
   5  -3  -2   59.09    3.90
   5  -3  -2   68.69    9.60
   5  -3  -2   55.79    4.30
   5  -3  -2   61.59   10.10
   5  -3  -2   60.89    7.30
  -5   3   2   72.79    7.00
  -5   3   2   63.19    7.60
  -5   3   2   70.09    8.40
  -5   3   2   65.39    7.20
   4  -3  -2  219.48   11.80
   4  -3  -2  210.08   10.20
   4  -3  -2  213.88    7.50
   4  -3  -2  216.38   12.00
   4  -3  -2  217.98   12.70
   4  -3  -2  214.58    7.00
  -4   3   2  202.48   15.20
  -4   3   2  214.98   11.10
  -4   3   2  176.18   10.80
  -4   3   2  206.48   10.00
  -4   3   2  193.98   10.60
   3  -3  -2  149.49    8.30
   3  -3  -2  149.39    9.00
   3  -3  -2  142.49    8.00
   3  -3  -2  151.38    5.80
   3  -3  -2  146.09    9.70
  -3   3   2  145.49    7.90
  -3   3   2  123.09    7.30
  -3   3   2  140.29    7.10
  -3   3   2  153.78    7.00
   2  -3  -2  521.65   17.40
   2  -3  -2  511.35   14.70
   2  -3  -2  533.35   14.30
   2  -3  -2  533.65   16.80
   2  -3  -2  524.65   14.60
   2  -3  -2  538.15   16.80
  -2   3   2  509.75   13.80
  -2   3   2  521.75   14.80
  -2   3   2  546.75   17.20
   1  -3  -2    6.90    3.20
   1  -3  -2    8.60    3.20
   1  -3  -2    6.40    2.20
   1  -3  -2    8.30    2.70
   1  -3  -2    6.00    3.40
   1  -3  -2    5.30    2.30
   1  -3  -2    5.90    1.50
  -1   3   2    8.80    2.50
  -1   3   2    7.90    2.00
  -1   3   2    9.30    3.00
  -1   3   2   12.20    3.10
  -1   3   2   10.50    1.40
  -1   3   2    3.80    3.00
  -1   3   2    7.60    2.20
   0  -3  -2   10.00    2.90
   0  -3  -2    9.40    2.40
   0  -3  -2   11.10    3.30
   0  -3  -2   10.40    1.30
   0  -3  -2    8.90    3.70
   0  -3  -2    5.80    2.80
   0  -3  -2   12.60    1.60
   0  -3  -2    8.40    2.30
   0   3   2    5.10    3.30
   0   3   2   11.50    2.90
   0   3   2    6.10    2.60
   0   3   2    3.50    2.70
  -1  -3  -2    6.50    2.60
  -1  -3  -2    5.60    3.40
  -1  -3  -2   11.20    2.80
  -1  -3  -2    6.80    2.80
  -1  -3  -2   10.10    2.60
  -1  -3  -2    7.00    3.20
  -1  -3  -2   10.20    4.40
  -1  -3  -2    8.40    3.20
   1   3   2   10.10    2.80
   1   3   2   10.00    3.20
   1   3   2    9.10    2.80
   1   3   2    7.20    3.30
   1   3   2    6.90    3.40
   1   3   2    8.80    2.90
  -2  -3  -2  512.65   13.50
  -2  -3  -2  520.05   16.30
  -2  -3  -2  489.95   16.80
  -2  -3  -2  520.45   16.50
  -2  -3  -2  506.95   18.50
  -2  -3  -2  523.65   16.10
  -2  -3  -2  503.25   14.50
  -2  -3  -2  529.85   18.50
   2   3   2  532.15   17.10
   2   3   2  519.95   16.90
   2   3   2  527.85   16.70
   2   3   2  525.55   18.70
   2   3   2  537.65   16.50
   2   3   2  530.55   14.70
  -3  -3  -2  147.09   11.10
  -3  -3  -2  151.38    5.20
  -3  -3  -2  140.19    6.10
  -3  -3  -2  154.58    8.00
  -3  -3  -2  149.39    7.40
   3   3   2  151.48    6.50
   3   3   2  155.18   11.40
   3   3   2  152.18    8.50
   3   3   2  149.09   10.10
   3   3   2  137.09    9.60
  -4  -3  -2  204.28    9.20
  -4  -3  -2  203.48    5.60
  -4  -3  -2  191.68    6.70
  -4  -3  -2  217.38   14.10
   4   3   2  211.68   10.60
   4   3   2  202.68   10.90
   4   3   2  218.88   12.70
   4   3   2  216.78   14.60
  -5  -3  -2   61.09    6.30
  -5  -3  -2   65.59    8.50
  -5  -3  -2   61.99   10.20
   5   3   2   62.09    8.50
   5   3   2   44.20    6.60
   5   3   2   49.40    9.70
   5   3   2   65.89    9.30
   5   3   2   68.29   10.50
  -6  -3  -2   58.59   12.40
  -6  -3  -2   42.80    6.00
   6   3   2   38.00    8.80
   6   3   2   47.30   10.70
   6   3   2   39.30    7.10
   6  -4  -2  217.18   15.90
   6  -4  -2  228.98   14.40
   6  -4  -2  207.68    8.50
  -6   4   2  211.08   13.60
  -6   4   2  240.58   12.10
  -6   4   2  201.58   12.90
  -6   4   2  249.58   11.80
   5  -4  -2   62.69    8.40
   5  -4  -2   66.89    9.50
   5  -4  -2   61.09    4.50
  -5   4   2   69.99    9.00
  -5   4   2   73.59    6.70
  -5   4   2   65.19    6.40
  -5   4   2   56.29    8.60
   4  -4  -2  206.78    8.00
   4  -4  -2  200.58   10.60
   4  -4  -2  195.18   12.80
   4  -4  -2  193.18   11.70
  -4   4   2  194.88   11.00
  -4   4   2  194.78    9.90
  -4   4   2  172.58   11.00
  -4   4   2  207.08    9.00
  -4   4   2  201.28    9.50
  -4   4   2  181.68   11.20
   3  -4  -2 1691.13   40.00
   3  -4  -2 1732.53   44.60
   3  -4  -2 1672.13   45.60
   3  -4  -2 1739.63   43.90
   3  -4  -2 1686.63   40.50
  -3   4   2 1682.63   44.10
  -3   4   2 1637.84   38.90
  -3   4   2 1625.94   40.00
  -3   4   2 1609.74   39.90
  -3   4   2 1648.54   39.10
   2  -4  -2  269.07    9.90
   2  -4  -2  289.37   12.00
   2  -4  -2  256.07   12.10
   2  -4  -2  275.37   11.90
   2  -4  -2  255.27   10.10
   2  -4  -2  265.57    8.90
  -2   4   2  261.37    8.10
  -2   4   2  249.78    9.30
  -2   4   2  268.67    7.60
  -2   4   2  271.67   12.40
   1  -4  -2  254.97   11.90
   1  -4  -2  230.18    9.70
   1  -4  -2  236.08    6.50
   1  -4  -2  247.28   10.40
   1  -4  -2  258.57   10.00
   1  -4  -2  254.97   10.60
   1  -4  -2  240.28    6.80
  -1   4   2  244.88    6.60
  -1   4   2  251.07   11.40
  -1   4   2  246.88    7.10
   0  -4  -2  633.24   19.10
   0  -4  -2  621.94   15.40
   0  -4  -2  656.23   18.70
   0  -4  -2  642.74   19.30
   0  -4  -2  652.43   18.10
   0  -4  -2  653.73   15.80
   0  -4  -2  632.94   17.10
   0  -4  -2  682.53   21.10
   0  -4  -2  649.74   18.60
   0   4   2  655.03   16.90
   0   4   2  693.03   22.20
   0   4   2  643.04   17.80
   0   4   2  684.23   19.70
   0   4   2  645.84   19.70
   0   4   2  628.74   18.40
  -1  -4  -2  240.88   10.50
  -1  -4  -2  232.48   10.60
  -1  -4  -2  254.87    9.60
  -1  -4  -2  241.18   11.10
  -1  -4  -2  250.07    9.70
  -1  -4  -2  258.67    9.10
  -1  -4  -2  243.98    9.00
  -1  -4  -2  258.47   12.70
  -1  -4  -2  255.97    9.50
  -1  -4  -2  244.78   10.60
   1   4   2  259.17    9.90
   1   4   2  245.38   11.00
   1   4   2  257.97   10.40
   1   4   2  241.28    8.90
   1   4   2  234.98   10.30
   1   4   2  248.38   11.00
  -2  -4  -2  255.67   11.80
  -2  -4  -2  287.57   10.10
  -2  -4  -2  248.98   11.20
  -2  -4  -2  255.27    8.50
  -2  -4  -2  272.47   14.10
  -2  -4  -2  250.87   10.30
   2   4   2  272.67   13.50
   2   4   2  274.67   12.00
   2   4   2  253.17   11.40
   2   4   2  257.47   12.10
   2   4   2  257.97   11.60
   2   4   2  270.37   10.60
  -3  -4  -2 1666.63   37.90
  -3  -4  -2 1696.93   42.70
  -3  -4  -2 1739.83   43.50
  -3  -4  -2 1709.53   41.10
  -3  -4  -2 1703.43   48.00
   3   4   2 1639.34   43.70
   3   4   2 1715.03   48.40
   3   4   2 1678.63   41.10
   3   4   2 1674.93   45.70
   3   4   2 1731.53   45.50
   3   4   2 1714.33   44.90
  -4  -4  -2  189.68    7.80
  -4  -4  -2  204.58    9.80
  -4  -4  -2  178.58    8.60
  -4  -4  -2  198.58   13.20
   4   4   2  199.88   11.40
   4   4   2  175.28   13.10
   4   4   2  194.88    8.00
   4   4   2  184.18   12.80
   4   4   2  186.38   10.60
   4   4   2  197.68   11.80
  -5  -4  -2   63.99    5.70
  -5  -4  -2   63.29    3.80
  -5  -4  -2   55.39    7.30
  -5  -4  -2   78.49   10.80
   5   4   2   73.09   11.20
   5   4   2   59.69    4.20
   5   4   2   69.19    8.70
   5   4   2   54.99   10.20
   5   4   2   42.80    7.10
   5   4   2   64.19    9.10
  -6  -4  -2  233.38   16.70
  -6  -4  -2  220.48   17.40
   6   4   2  195.98   13.10
   6   4   2  228.78   18.20
   6   4   2  238.28   17.30
   6   4   2  219.08   15.60
   6  -5  -2   29.00    7.20
   6  -5  -2   18.30    5.00
   6  -5  -2   21.70    4.10
   6  -5  -2   25.10    7.90
  -6   5   2   26.90    7.20
  -6   5   2   15.20    6.40
   5  -5  -2   34.00    7.40
   5  -5  -2   26.00    4.20
   5  -5  -2   18.10    5.70
   5  -5  -2   23.00    5.30
  -5   5   2   31.70    7.20
  -5   5   2   20.30    6.80
   4  -5  -2   87.69    6.90
   4  -5  -2   75.09    8.30
   4  -5  -2   77.99    5.90
   4  -5  -2   96.19    7.50
   4  -5  -2   81.79    8.10
  -4   5   2   94.79    8.20
  -4   5   2   79.39    5.10
  -4   5   2   70.79    4.80
  -4   5   2   92.89    5.50
  -4   5   2   79.19    7.80
   3  -5  -2   50.59    8.20
   3  -5  -2   45.90    5.00
   3  -5  -2   41.80    7.30
  -3   5   2   44.70    7.50
   2  -5  -2  109.59   10.30
   2  -5  -2  124.19    7.80
   2  -5  -2  126.99    7.70
   2  -5  -2  117.99    5.40
   2  -5  -2  119.39   10.30
  -2   5   2  117.69    9.70
  -2   5   2  116.89    5.90
   1  -5  -2    7.90    3.60
   1  -5  -2    2.60    5.50
   1  -5  -2   -0.10    2.60
   1  -5  -2   -3.60    3.70
   1  -5  -2    2.30    3.50
  -1   5   2    1.70    3.20
  -1   5   2    6.80    4.10
   0  -5  -2    3.00    3.50
   0  -5  -2    8.20    2.00
   0  -5  -2    4.70    3.00
   0  -5  -2    5.30    3.70
   0  -5  -2    3.60    3.70
   0  -5  -2   16.90    4.60
   0  -5  -2    9.70    4.80
   0  -5  -2    9.00    3.90
   0  -5  -2    4.30    2.60
   0   5   2    7.40    2.80
   0   5   2    9.80    5.10
   0   5   2    7.00    4.00
   0   5   2    8.30    2.40
  -1  -5  -2    1.30    3.10
  -1  -5  -2   -1.40    3.90
  -1  -5  -2   -1.00    3.50
  -1  -5  -2    5.70    4.00
  -1  -5  -2    5.40    3.60
  -1  -5  -2    6.00    4.80
   1   5   2    5.10    2.90
   1   5   2    8.60    4.60
   1   5   2    7.10    4.20
   1   5   2   -1.30    4.20
   1   5   2   -1.60    2.90
  -2  -5  -2  124.79    7.10
  -2  -5  -2  114.59    6.10
  -2  -5  -2  119.89    8.80
  -2  -5  -2  119.99    9.20
  -2  -5  -2  136.89   14.10
   2   5   2  113.89    9.10
  -3  -5  -2   45.20    7.10
  -3  -5  -2   49.80    9.40
  -3  -5  -2   48.90    5.20
  -3  -5  -2   61.99    8.40
   3   5   2   60.89    7.40
   3   5   2   59.89    8.20
   3   5   2   52.09    7.20
   3   5   2   61.09    7.80
   3   5   2   51.49    8.50
   3   5   2   61.19    6.70
  -4  -5  -2   82.89   11.70
  -4  -5  -2   76.39    5.90
  -4  -5  -2   67.99    7.50
  -4  -5  -2   81.59    9.50
   4   5   2   83.49    8.70
   4   5   2   83.99    9.70
   4   5   2   96.79    8.80
   4   5   2   89.19    9.80
   4   5   2   80.09    8.50
   4   5   2   80.99    6.20
  -5  -5  -2   35.70    8.20
  -5  -5  -2   17.80    4.00
   5   5   2   29.80    7.30
   5   5   2   25.10    8.10
   5   5   2   37.90    8.80
   5   5   2   42.10    4.40
   5   5   2   25.90    6.20
  -6  -5  -2   14.70    8.00
  -6  -5  -2   25.90    8.00
   6   5   2   21.40    7.60
   6   5   2   30.30    9.80
   6   5   2   17.80    7.30
   6   5   2   28.90    8.80
   5  -6  -2   27.10    4.70
   5  -6  -2   41.80    9.20
   5  -6  -2   17.00    6.20
   5  -6  -2   30.60    5.90
  -5   6   2   23.00    7.30
  -5   6   2   21.40    7.20
   4  -6  -2   87.79   10.80
   4  -6  -2   84.59   10.50
   4  -6  -2   97.29    7.30
   4  -6  -2   97.39    8.10
   4  -6  -2   91.59    7.30
  -4   6   2   82.19   10.10
  -4   6   2   93.29   10.00
   3  -6  -2  167.78   12.70
   3  -6  -2  177.38    7.70
   3  -6  -2  175.08   11.10
   3  -6  -2  155.48    9.20
   3  -6  -2  153.08    9.80
  -3   6   2  174.78   11.80
   2  -6  -2  111.89    4.10
   2  -6  -2  126.59    8.90
   2  -6  -2  121.09   11.20
   2  -6  -2  112.09    9.70
   2  -6  -2  119.09    8.00
  -2   6   2  118.39    4.10
  -2   6   2  118.09   10.30
   1  -6  -2  197.78   12.70
   1  -6  -2  232.18   11.40
   1  -6  -2  220.88   11.20
   1  -6  -2  199.58   12.80
  -1   6   2  234.48   12.30
  -1   6   2  198.98   11.80
   0  -6  -2 1014.80   30.80
   0  -6  -2 1056.99   30.00
   0  -6  -2 1034.60   25.00
   0  -6  -2 1105.59   31.20
   0  -6  -2 1018.40   26.90
   0  -6  -2 1046.30   26.00
   0  -6  -2 1117.89   34.90
   0  -6  -2 1058.49   25.40
   0   6   2 1055.09   31.10
   0   6   2 1084.99   32.00
   0   6   2 1067.69   26.90
   0   6   2 1061.19   25.70
  -1  -6  -2  260.97   15.10
  -1  -6  -2  236.58   10.60
  -1  -6  -2  239.98   15.20
  -1  -6  -2  195.18   10.00
  -1  -6  -2  226.28   10.70
   1   6   2  215.18   12.30
   1   6   2  219.88   11.00
   1   6   2  228.18    9.80
   1   6   2  217.68   11.40
  -2  -6  -2  112.29    8.90
  -2  -6  -2  103.69   10.50
  -2  -6  -2  102.69    8.70
  -2  -6  -2  117.89    7.50
   2   6   2   88.99    9.20
   2   6   2  120.19    9.10
   2   6   2  116.79    9.60
   2   6   2  107.39    7.90
  -3  -6  -2  178.08   11.60
  -3  -6  -2  168.08   10.50
  -3  -6  -2  163.38    8.60
  -3  -6  -2  163.98   14.70
   3   6   2  151.68   10.50
   3   6   2  154.98   12.90
   3   6   2  179.08   10.00
   3   6   2  194.58   12.20
  -4  -6  -2   99.39   10.20
  -4  -6  -2   83.29    6.20
  -4  -6  -2   84.79    8.10
  -4  -6  -2   92.19   12.20
   4   6   2  100.79    9.90
   4   6   2   93.19    9.50
   4   6   2   75.09    7.30
   4   6   2   91.79   10.80
  -5  -6  -2   34.80   11.00
  -5  -6  -2   40.00    8.60
   5   6   2   35.50    7.60
   5   6   2   21.90    7.90
   5   6   2   30.20    8.90
   5   6   2   18.90    7.00
   5   6   2   26.60    4.70
   4  -7  -2   32.50    7.90
   4  -7  -2   23.20    5.30
   4  -7  -2   26.50    8.70
  -4   7   2   26.70    8.00
  -4   7   2   32.60    7.90
   3  -7  -2   10.40    4.30
   3  -7  -2    7.70    8.60
   3  -7  -2   18.70    7.90
   3  -7  -2   12.50    5.60
  -3   7   2   13.70    5.90
  -3   7   2   11.90    6.70
   2  -7  -2   32.10    8.70
   2  -7  -2   18.40    6.00
   2  -7  -2   17.10    5.20
  -2   7   2   19.80    6.00
   1  -7  -2    3.40    4.70
   1  -7  -2    2.20    6.30
   1  -7  -2    6.20    4.60
   1  -7  -2    4.30    4.10
  -1   7   2   -0.70    5.80
   0  -7  -2    5.30    2.20
   0  -7  -2   10.10    4.30
   0  -7  -2   -2.70    5.00
   0  -7  -2    3.60    4.60
   0  -7  -2    1.90    6.50
   0   7   2    8.00    6.10
  -1  -7  -2   -0.40    3.70
  -1  -7  -2   -6.40    3.70
  -1  -7  -2    1.20    6.90
   1   7   2    2.60    5.30
   1   7   2    3.00    4.50
   1   7   2    2.90    3.10
   1   7   2    2.30    2.60
  -2  -7  -2   22.00    7.40
  -2  -7  -2   28.70    6.40
  -2  -7  -2   13.00    3.90
   2   7   2   21.30    4.80
   2   7   2   20.10    5.80
   2   7   2   23.20    6.70
   2   7   2   27.80    6.60
  -3  -7  -2   15.30    3.70
  -3  -7  -2   15.60    8.90
  -3  -7  -2   15.10    5.20
   3   7   2    6.80    5.50
   3   7   2   24.50    6.80
   3   7   2    8.40    5.50
   3   7   2   11.70    5.00
  -4  -7  -2   25.60    3.80
  -4  -7  -2   35.90    8.00
  -4  -7  -2   23.20   10.20
   4   7   2   28.00    6.00
   4   7   2   19.90    6.90
   4   7   2   24.60    6.30
   4   7   2   29.40    7.70
   3  -8  -2  331.67   20.40
   3  -8  -2  343.17   17.90
   3  -8  -2  292.17   15.40
  -3   8   2  326.47   17.60
  -3   8   2  301.17   17.40
   2  -8  -2   51.19    7.40
   2  -8  -2   49.70    9.40
  -2   8   2   55.19   10.30
  -2   8   2   52.09    9.20
   1  -8  -2   62.59   11.10
   1  -8  -2   53.09    7.80
  -1   8   2   67.69    9.60
   0  -8  -2  167.58   11.70
   0  -8  -2  183.58   14.50
   0  -8  -2  202.08   11.70
   0   8   2  166.28   12.10
  -1  -8  -2   50.79    8.60
  -1  -8  -2   56.79   11.80
  -1  -8  -2   59.09    7.50
   1   8   2   60.99    9.60
   1   8   2   62.69    5.40
   1   8   2   61.29    9.10
   1   8   2   57.79    6.10
  -2  -8  -2   31.00    8.00
  -2  -8  -2   35.90    7.50
  -2  -8  -2   48.00   11.20
   2   8   2   44.70    8.30
   2   8   2   35.00    5.50
   2   8   2   43.70    7.90
  -3  -8  -2  296.87   16.80
  -3  -8  -2  319.97   21.60
  -3  -8  -2  331.87   14.40
   3   8   2  326.47   16.40
   3   8   2  312.97   18.00
   1  -9  -2    5.00    7.60
   1  -9  -2    2.40    4.70
   1  -9  -2    2.20    4.50
  -1   9   2   -8.20    6.00
  -1   9   2    2.50    4.50
   0  -9  -2   -0.30    4.80
   0  -9  -2   -2.70    7.30
   0  -9  -2   -2.00    3.80
   0   9   2    9.30    6.60
  -1  -9  -2    6.30    4.60
  -1  -9  -2   -2.20    4.80
  -1  -9  -2   -8.80    7.80
   1   9   2    3.80    6.90
   1   9  -3   -1.30    6.00
  -1  -9   3   -4.30    4.50
  -1  -9   3    4.50    8.20
  -1  -9   3   -9.70    8.80
   0   9  -3    0.50    6.40
   0   9  -3    9.00    5.00
   0  -9   3   10.50    7.60
   0  -9   3   -5.40    7.10
  -1   9  -3    9.20    4.60
  -1   9  -3    1.00    6.60
   1  -9   3   -3.50    6.10
   1  -9   3    4.00    5.00
   3   8  -3   10.20    6.20
  -3  -8   3   15.50    5.00
  -3  -8   3   -1.70    8.40
  -3  -8   3   -9.90    5.40
   2   8  -3  283.87   15.90
   2   8  -3  260.77   15.90
  -2  -8   3  255.37   17.90
  -2  -8   3  246.98   14.10
  -2  -8   3  254.77   18.20
  -2  -8   3  292.47   14.20
  -2  -8   3  266.07   13.30
   1   8  -3  272.07   11.10
   1   8  -3  281.87   15.80
   1   8  -3  280.57   16.00
  -1  -8   3  266.17   18.00
  -1  -8   3  242.98   15.60
  -1  -8   3  282.67   18.50
  -1  -8   3  245.08   14.20
   0   8  -3   -4.60    5.20
   0   8  -3   -0.10    3.20
   0   8  -3   -3.30    4.30
   0  -8   3   -5.30    4.10
   0  -8   3   -8.10    6.60
   0  -8   3    0.90    4.20
  -1   8  -3  267.77   16.00
  -1   8  -3  283.97   14.00
   1  -8   3  291.37   16.30
  -2   8  -3  250.17   15.50
  -2   8  -3  265.67   14.40
   2  -8   3  270.27   14.60
   2  -8   3  273.87   15.60
   2  -8   3  242.08   16.70
  -3   8  -3   11.00    5.40
  -3   8  -3    7.30    6.30
   3  -8   3    5.50    7.00
   3  -8   3    2.70    4.20
   3  -8   3   19.30    6.00
   4   7  -3    5.80    6.40
   4   7  -3   -2.40    5.20
   4   7  -3    2.70    5.50
   4   7  -3    7.50    5.40
  -4  -7   3   18.20    5.40
  -4  -7   3    3.70    8.50
   3   7  -3    4.30    5.30
  -3  -7   3    4.90    7.80
  -3  -7   3   -1.50    7.30
   2   7  -3   17.10    2.40
   2   7  -3   15.30    6.40
  -2  -7   3   17.90    4.80
  -2  -7   3    3.70    7.00
  -2  -7   3   13.00    8.60
  -2  -7   3   23.70    5.20
  -2  -7   3   13.60    5.10
   1   7  -3   14.80    6.30
   1   7  -3   26.10    4.00
   1   7  -3   30.50    6.80
  -1  -7   3   12.00    5.00
  -1  -7   3   21.10    8.50
  -1  -7   3   27.50    5.10
  -1  -7   3   16.60    4.30
  -1  -7   3   22.40    6.90
   0   7  -3    4.90    5.70
   0   7  -3    3.60    3.20
   0   7  -3    6.70    5.60
   0  -7   3    1.60    6.00
   0  -7   3   -3.80    3.10
   0  -7   3   -0.90    2.30
   0  -7   3   -7.00    5.70
   0  -7   3   -0.80    3.00
   0  -7   3    1.50    3.40
   0  -7   3    0.50    4.30
  -1   7  -3   17.60    5.00
  -1   7  -3   17.10    6.50
  -1   7  -3   29.00    6.30
   1  -7   3   20.70    5.50
   1  -7   3   20.30    7.70
   1  -7   3   23.60    7.00
  -2   7  -3   13.20    6.00
  -2   7  -3   11.20    4.70
  -2   7  -3    5.70    4.90
   2  -7   3   21.90    6.30
   2  -7   3   13.20    6.90
   2  -7   3    9.10    6.40
  -3   7  -3    5.40    3.90
  -3   7  -3    1.80    5.50
   3  -7   3    1.00    3.90
   3  -7   3   15.30    5.60
   3  -7   3   12.80    7.40
  -4   7  -3    4.90    5.50
  -4   7  -3   12.00    5.80
   4  -7   3   13.30    4.70
   4  -7   3   -2.40    6.20
   4  -7   3   18.70    5.80
   5   6  -3  289.67   18.10
   5   6  -3  328.97   15.50
   5   6  -3  336.87   17.30
  -5  -6   3  260.27   19.20
  -5  -6   3  326.27   18.00
  -5  -6   3  318.77   20.90
  -5  -6   3  338.57   19.90
   4   6  -3  272.97   15.80
   4   6  -3  293.57   18.40
   4   6  -3  315.97   16.20
   4   6  -3  312.97   17.90
  -4  -6   3  275.07   15.40
  -4  -6   3  324.47   17.90
  -4  -6   3  270.47   18.40
  -4  -6   3  294.07   18.60
   3   6  -3    3.00    5.70
   3   6  -3    8.00    5.50
   3   6  -3    7.80    4.90
   3   6  -3    3.90    5.10
   3   6  -3   16.40    5.80
  -3  -6   3   18.40    8.40
  -3  -6   3   15.50    4.30
  -3  -6   3    4.60    4.90
  -3  -6   3   18.10    6.10
  -3  -6   3    5.60    7.20
   2   6  -3  175.38    6.00
   2   6  -3  196.88   11.40
   2   6  -3  189.18    5.90
  -2  -6   3  201.68   11.00
  -2  -6   3  189.28   10.70
  -2  -6   3  185.98   14.10
  -2  -6   3  190.88   11.70
  -2  -6   3  175.68   13.50
   1   6  -3  276.77   14.00
   1   6  -3  269.47    9.60
   1   6  -3  259.47   13.80
  -1  -6   3  264.67   16.20
  -1  -6   3  256.37   14.30
  -1  -6   3  257.67   12.60
  -1  -6   3  269.47   11.60
  -1  -6   3  265.17   12.30
   0   6  -3    9.20    5.50
   0   6  -3    9.70    5.00
   0   6  -3    4.20    3.60
   0  -6   3    2.20    3.80
   0  -6   3    8.80    6.90
   0  -6   3    6.50    2.90
   0  -6   3   -0.30    5.30
   0  -6   3    3.00    3.20
   0  -6   3    4.40    3.30
   0  -6   3    2.00    3.20
  -1   6  -3  251.47   11.70
  -1   6  -3  277.87   13.30
  -1   6  -3  259.37   13.20
   1  -6   3  248.68    8.00
   1  -6   3  249.78   13.30
   1  -6   3  269.17   12.70
   1  -6   3  241.98    8.70
   1  -6   3  258.47   15.00
   1  -6   3  265.87   14.50
  -2   6  -3  192.88   11.30
  -2   6  -3  186.48   12.00
  -2   6  -3  209.98   11.20
   2  -6   3  213.78   11.50
   2  -6   3  182.18   11.50
   2  -6   3  184.48   12.30
   2  -6   3  173.78   12.30
  -3   6  -3    7.30    5.30
  -3   6  -3    6.30    4.10
  -3   6  -3   10.90    4.20
   3  -6   3   12.00    5.20
   3  -6   3    3.30    5.70
  -4   6  -3  283.47   15.60
  -4   6  -3  297.67   17.10
   4  -6   3  309.47   16.30
   4  -6   3  303.37   14.10
   4  -6   3  294.97   17.70
  -5   6  -3  294.67   17.00
  -5   6  -3  292.47   15.40
   5  -6   3  300.77   19.60
   5  -6   3  304.17   17.20
   5   5  -3   54.39    7.10
   5   5  -3   28.00    7.60
   5   5  -3   36.70    9.30
   5   5  -3   47.30    7.60
  -5  -5   3   43.60    7.60
  -5  -5   3   51.19    8.70
  -5  -5   3   36.20   11.10
   4   5  -3    3.30    4.30
   4   5  -3   -1.00    4.00
  -4  -5   3   17.00    7.30
  -4  -5   3    0.20    3.10
  -4  -5   3   11.30    7.30
   3   5  -3   23.30    5.70
   3   5  -3   23.50    5.20
   3   5  -3   26.40    6.00
   3   5  -3   33.90    5.90
   3   5  -3   26.40    6.90
  -3  -5   3   24.70    6.50
  -3  -5   3   22.40    8.00
  -3  -5   3   34.50    5.30
  -3  -5   3   27.40    7.70
  -3  -5   3   26.70    6.00
   2   5  -3   65.59    8.00
   2   5  -3   64.99    8.20
   2   5  -3   55.59    6.90
   2   5  -3   59.89    7.20
   2   5  -3   60.19    8.30
   2   5  -3   57.59    4.10
  -2  -5   3   61.29    7.40
  -2  -5   3   53.39    8.90
  -2  -5   3   62.49    8.30
  -2  -5   3   64.09    9.90
  -2  -5   3   68.49    7.10
   1   5  -3   87.09    8.40
   1   5  -3   71.89    4.50
   1   5  -3   79.99    8.30
   1   5  -3   64.79    6.80
  -1  -5   3   88.59    8.30
  -1  -5   3   65.19    7.30
  -1  -5   3   69.49    7.00
  -1  -5   3   77.29    7.10
  -1  -5   3   75.49    8.00
  -1  -5   3   70.69   10.20
  -1  -5   3   76.69    6.00
   0   5  -3   -2.50    4.40
   0   5  -3   -0.20    2.70
   0   5  -3   -1.40    4.60
   0  -5   3   -3.00    3.00
   0  -5   3   -7.90    3.60
   0  -5   3    5.40    5.40
   0  -5   3    6.30    4.00
   0  -5   3    1.70    3.00
   0  -5   3    4.30    6.20
   0  -5   3   -0.90    2.40
   0  -5   3    1.00    3.30
  -1   5  -3   77.49    7.70
  -1   5  -3   83.89    8.30
  -1   5  -3   74.89    6.70
   1  -5   3   72.69    4.40
   1  -5   3   64.29    7.20
   1  -5   3   69.69    5.00
   1  -5   3   67.89    6.00
   1  -5   3   71.89    5.30
   1  -5   3   69.79    9.00
   1  -5   3   77.89    9.40
  -2   5  -3   62.09    3.90
  -2   5  -3   62.59    6.70
  -2   5  -3   55.29    3.50
  -2   5  -3   54.49    6.60
  -2   5  -3   78.09    8.90
   2  -5   3   58.79    9.50
   2  -5   3   56.09    8.90
   2  -5   3   56.49    6.30
  -3   5  -3   27.70    6.30
  -3   5  -3   30.40    3.40
  -3   5  -3   24.30    6.00
  -3   5  -3   18.80    4.00
   3  -5   3   22.70    6.80
   3  -5   3   24.00    3.70
   3  -5   3   26.70    3.20
   3  -5   3   18.60    4.60
   3  -5   3   25.10    6.60
   3  -5   3   26.70    4.90
  -4   5  -3    0.60    4.50
  -4   5  -3    5.60    4.10
   4  -5   3    9.30    3.90
   4  -5   3    8.00    3.10
   4  -5   3   11.20    6.40
   4  -5   3    6.40    3.70
   4  -5   3   11.50    6.10
  -5   5  -3   30.70    6.60
  -5   5  -3   31.60    6.10
   5  -5   3   32.50    5.20
   5  -5   3   35.50    8.10
   5  -5   3   30.10    5.50
   5  -5   3   43.70    6.90
   5  -5   3   31.10    7.70
   6   4  -3   26.70    8.20
   6   4  -3   22.00    6.10
   6   4  -3   17.80    8.30
   6   4  -3   29.30    5.40
  -6  -4   3   31.70    7.50
  -6  -4   3   31.90    9.40
  -6  -4   3   50.39    8.90
  -6  -4   3   24.40    8.80
   5   4  -3   84.79    7.10
   5   4  -3   92.59    7.90
   5   4  -3   79.99    8.20
   5   4  -3   79.39   12.50
   5   4  -3   78.09    8.90
  -5  -4   3   78.69    8.70
  -5  -4   3   89.59   10.00
  -5  -4   3   84.59   11.70
  -5  -4   3   85.19   12.00
   4   4  -3  171.48    9.80
   4   4  -3  159.18    9.20
   4   4  -3  156.68   12.60
   4   4  -3  162.38   10.40
   4   4  -3  163.98   11.10
  -4  -4   3  170.28   12.70
  -4  -4   3  171.48   12.40
  -4  -4   3  166.18   13.70
  -4  -4   3  187.48   11.30
  -4  -4   3  168.28   11.20
   3   4  -3    4.40    3.80
   3   4  -3   -3.20    5.20
   3   4  -3    0.60    3.40
   3   4  -3    1.70    4.00
   3   4  -3   -1.80    3.90
  -3  -4   3   -4.10    3.10
  -3  -4   3    3.00    6.70
  -3  -4   3    1.30    6.00
   2   4  -3 1938.21   50.79
   2   4  -3 1820.92   53.09
   2   4  -3 1845.92   45.80
   2   4  -3 1827.42   49.50
   2   4  -3 1833.12   46.30
  -2  -4   3 1861.31   52.29
  -2  -4   3 1787.12   49.10
  -2  -4   3 1794.92   47.70
  -2  -4   3 1802.42   44.80
  -2  -4   3 1805.92   49.20
   1   4  -3 1365.76   32.30
   1   4  -3 1417.16   36.00
  -1  -4   3 1432.36   35.90
  -1  -4   3 1395.56   35.40
  -1  -4   3 1375.46   38.50
  -1  -4   3 1430.66   37.80
  -1  -4   3 1388.06   35.60
  -1  -4   3 1393.36   37.00
  -1  -4   3 1401.36   37.40
   0   4  -3   -0.60    3.40
   0   4  -3   -5.40    3.30
   0   4  -3   -1.60    2.70
   0  -4   3   -0.90    2.50
   0  -4   3   -0.20    2.80
   0  -4   3   -1.40    3.90
   0  -4   3   -1.80    2.60
   0  -4   3   -1.70    3.30
   0  -4   3   -0.90    2.00
   0  -4   3   -2.70    2.80
   0  -4   3    2.70    4.00
  -1   4  -3 1427.66   35.70
  -1   4  -3 1383.56   39.30
  -1   4  -3 1344.47   33.20
  -1   4  -3 1440.26   36.90
   1  -4   3 1432.26   35.00
   1  -4   3 1371.66   38.50
   1  -4   3 1451.45   38.60
   1  -4   3 1427.96   36.30
   1  -4   3 1439.16   33.90
  -2   4  -3 1913.61   48.10
  -2   4  -3 1691.53   42.30
  -2   4  -3 1767.52   45.00
  -2   4  -3 1738.93   41.60
  -2   4  -3 1732.43   44.10
   2  -4   3 1814.42   44.60
   2  -4   3 1812.72   41.80
   2  -4   3 1728.23   45.10
   2  -4   3 1793.82   42.90
   2  -4   3 1853.01   47.90
   2  -4   3 1809.82   47.60
  -3   4  -3    4.40    3.60
  -3   4  -3   -3.80    4.90
  -3   4  -3   -0.80    3.50
  -3   4  -3    1.30    4.10
  -3   4  -3    5.40    4.60
   3  -4   3   -0.20    3.50
   3  -4   3   -3.10    2.70
   3  -4   3   -5.80    4.80
   3  -4   3    2.50    3.30
   3  -4   3    0.60    4.20
  -4   4  -3  159.08   10.20
  -4   4  -3  139.19   12.00
  -4   4  -3  162.28    9.60
   4  -4   3  178.08   12.60
   4  -4   3  176.18   12.90
   4  -4   3  154.88    9.60
   4  -4   3  155.98    9.40
   4  -4   3  178.98    9.40
   4  -4   3  165.18    8.60
  -5   4  -3   87.99    9.30
  -5   4  -3   81.09    7.30
   5  -4   3   79.29   11.00
   5  -4   3   78.49    7.20
   5  -4   3   93.49    8.10
   5  -4   3   72.39    8.70
   5  -4   3   84.69    7.40
   5  -4   3  103.79   11.10
  -6   4  -3   10.10    4.40
  -6   4  -3   31.60    6.40
   6  -4   3   19.20    7.40
   6  -4   3   21.50    5.70
   6  -4   3   23.60    7.00
   6  -4   3   21.90    8.10
   6   3  -3   30.40    8.10
   6   3  -3   24.90    5.20
   6   3  -3   26.30    6.80
   6   3  -3   27.40    5.40
  -6  -3   3   35.00    9.40
  -6  -3   3   37.90    7.30
  -6  -3   3   29.00    7.50
  -6  -3   3   29.70    7.00
   5   3  -3   90.59   11.70
   5   3  -3   88.59    6.90
   5   3  -3   84.39    7.20
   5   3  -3   88.29    7.20
   5   3  -3   97.29   10.50
  -5  -3   3   88.19   10.10
  -5  -3   3   91.69   10.30
  -5  -3   3   82.69   10.60
  -5  -3   3  104.39   12.10
   4   3  -3    8.10    3.80
   4   3  -3    8.80    3.80
   4   3  -3    7.30    6.20
   4   3  -3    9.60    5.30
   4   3  -3    9.30    3.50
  -4  -3   3    5.30    5.20
  -4  -3   3   25.40    6.40
  -4  -3   3   10.60    6.80
  -4  -3   3   13.80    6.30
   3   3  -3   75.89    6.80
   3   3  -3   66.09    7.90
   3   3  -3   66.09    2.40
   3   3  -3   69.69    6.50
   3   3  -3   68.09    6.90
  -3  -3   3   71.29    4.90
  -3  -3   3   66.99    8.30
  -3  -3   3   63.39    7.30
  -3  -3   3   74.09   10.00
  -3  -3   3   65.09    6.80
   2   3  -3  227.48   12.20
   2   3  -3  236.38   10.80
   2   3  -3  235.68    9.70
   2   3  -3  236.58   10.10
   2   3  -3  224.58   10.10
  -2  -3   3  227.58    8.80
  -2  -3   3  241.28   12.40
  -2  -3   3  213.88   11.50
  -2  -3   3  221.68   10.70
  -2  -3   3  225.48   10.90
   1   3  -3  285.07   11.10
   1   3  -3  274.67    7.60
   1   3  -3  264.37   10.10
   1   3  -3  278.47    7.70
  -1  -3   3  269.87   11.40
  -1  -3   3  297.57   10.30
  -1  -3   3  279.77   11.90
  -1  -3   3  280.27   10.50
  -1  -3   3  275.77   10.70
  -1  -3   3  280.67   12.70
  -1  -3   3  286.87   10.70
  -1  -3   3  272.77   10.80
  -1  -3   3  302.67   11.50
   0   3  -3   -1.00    2.40
   0   3  -3   -1.20    1.90
   0   3  -3    2.20    1.90
   0   3  -3    7.40    3.60
   0   3  -3   -1.90    2.30
   0   3  -3   -1.50    1.90
   0   3  -3    1.90    1.70
   0  -3   3   -4.10    2.20
   0  -3   3    1.00    3.00
   0  -3   3    4.30    2.60
   0  -3   3    1.30    3.40
   0  -3   3   -1.20    2.40
   0  -3   3    1.90    2.30
   0  -3   3   -1.30    2.70
   0  -3   3    0.30    1.70
   0  -3   3   -2.10    2.80
   0  -3   3    1.40    3.60
  -1   3  -3  279.97   10.40
  -1   3  -3  282.37   10.10
  -1   3  -3  290.77   11.00
  -1   3  -3  277.97    9.20
  -1   3  -3  278.17   10.20
  -1   3  -3  265.47    9.80
   1  -3   3  279.47   11.60
   1  -3   3  273.77   12.50
   1  -3   3  293.57    9.80
   1  -3   3  298.17   10.80
   1  -3   3  271.27   10.60
   1  -3   3  280.97   10.90
   1  -3   3  290.27   10.50
  -2   3  -3  221.48    9.90
  -2   3  -3  238.48    9.80
  -2   3  -3  226.48    9.40
  -2   3  -3  225.88    9.10
  -2   3  -3  227.28   10.20
   2  -3   3  224.28   12.00
   2  -3   3  244.28    9.00
   2  -3   3  239.18   11.50
   2  -3   3  250.97    9.80
   2  -3   3  230.98   10.10
   2  -3   3  235.78    9.50
   2  -3   3  227.08    9.80
  -3   3  -3   65.79    8.90
  -3   3  -3   68.69    5.90
  -3   3  -3   55.09    6.70
  -3   3  -3   51.99    5.80
  -3   3  -3   70.99    5.40
   3  -3   3   57.99    5.70
   3  -3   3   62.19    8.40
   3  -3   3   72.29    7.10
   3  -3   3   58.39    5.30
   3  -3   3   73.19    8.30
   3  -3   3   60.89    5.90
  -4   3  -3    7.00    5.30
  -4   3  -3   11.30    3.60
   4  -3   3   12.60    4.50
   4  -3   3    7.40    4.40
   4  -3   3   14.30    6.20
   4  -3   3   13.30    3.90
   4  -3   3   12.70    3.80
   4  -3   3   12.40    4.80
  -5   3  -3   84.69    6.30
  -5   3  -3   82.49    9.70
   5  -3   3  100.19   10.20
   5  -3   3   92.09   10.70
   5  -3   3   88.19    7.80
   5  -3   3  108.09   11.40
   5  -3   3   93.79    8.40
   5  -3   3   97.49    7.50
  -6   3  -3   24.70    3.90
  -6   3  -3   14.40    6.90
   6  -3   3   21.40    7.40
   6  -3   3   27.40    4.90
   6  -3   3   24.00    8.10
   6  -3   3   36.60    9.10
   6  -3   3   24.10    6.00
   6   2  -3   -1.00    2.80
   6   2  -3   -5.50    4.40
   6   2  -3    4.00    6.50
   6   2  -3   -1.10    3.30
   6   2  -3    5.10    3.90
   6   2  -3   -6.50    4.00
  -6  -2   3   10.70    6.20
  -6  -2   3    3.40    4.60
  -6  -2   3   13.40    5.80
  -6  -2   3    5.10    6.70
   5   2  -3  846.62   24.60
   5   2  -3  892.71   31.90
   5   2  -3  846.22   23.70
   5   2  -3  852.91   36.80
   5   2  -3  855.41   30.40
   5   2  -3  849.91   32.70
  -5  -2   3  826.42   35.30
  -5  -2   3  840.42   31.60
  -5  -2   3  843.02   28.90
  -5  -2   3  828.72   32.30
  -5  -2   3  793.12   20.90
   4   2  -3  802.12   31.10
   4   2  -3  735.93   28.10
   4   2  -3  777.92   25.70
   4   2  -3  786.92   21.90
   4   2  -3  755.02   22.40
  -4  -2   3  764.52   25.60
  -4  -2   3  739.53   18.20
  -4  -2   3  772.82   31.00
  -4  -2   3  766.32   27.50
  -4  -2   3  777.12   25.00
  -4  -2   3  725.03   18.10
   3   2  -3   29.00    3.90
   3   2  -3   37.70    4.50
   3   2  -3   28.80    2.60
   3   2  -3   31.30    6.90
   3   2  -3   33.20    5.40
   3   2  -3   28.20    4.70
  -3  -2   3   30.10    2.70
  -3  -2   3   29.00    1.50
  -3  -2   3   27.10    5.40
  -3  -2   3   27.70    5.10
  -3  -2   3   29.50    1.60
  -3  -2   3   22.60    5.20
  -3  -2   3   32.50    6.40
   2   2  -3  152.98    6.90
   2   2  -3  162.58    7.70
   2   2  -3  139.69    8.10
   2   2  -3  150.48    9.60
   2   2  -3  137.99    6.80
  -2  -2   3  156.48    9.00
  -2  -2   3  152.88    7.60
  -2  -2   3  145.29    8.70
  -2  -2   3  158.28    8.50
  -2  -2   3  145.49    9.00
  -2  -2   3  140.69    6.90
  -2  -2   3  149.09    8.90
   1   2  -3 1040.00   26.30
   1   2  -3 1057.79   26.90
   1   2  -3 1071.09   23.80
   1   2  -3 1088.99   26.30
  -1  -2   3 1033.30   26.70
  -1  -2   3 1055.29   27.20
  -1  -2   3 1040.60   26.40
  -1  -2   3 1044.40   23.70
  -1  -2   3 1061.89   25.90
  -1  -2   3 1024.20   30.70
  -1  -2   3 1050.29   28.60
  -1  -2   3 1086.69   26.40
  -1  -2   3 1022.50   28.10
  -1  -2   3 1063.49   27.10
   0   2  -3    3.80    3.00
   0   2  -3    2.60    2.40
   0   2  -3    3.80    1.90
   0   2  -3   -0.20    2.10
   0   2  -3   -0.80    2.00
   0   2  -3    1.30    2.30
   0   2  -3    1.20    2.10
   0  -2   3    1.00    2.70
   0  -2   3    2.90    2.30
   0  -2   3   -1.30    2.50
   0  -2   3    1.60    2.40
   0  -2   3   -1.70    2.30
   0  -2   3    3.40    4.40
   0  -2   3    2.70    2.80
  -1   2  -3 1093.29   26.90
  -1   2  -3 1060.59   26.60
  -1   2  -3 1068.29   27.20
  -1   2  -3 1017.30   28.80
  -1   2  -3 1056.29   27.40
  -1   2  -3 1096.29   26.60
  -1   2  -3 1044.10   26.40
   1  -2   3 1067.29   26.60
   1  -2   3 1071.69   27.30
   1  -2   3 1057.89   26.60
   1  -2   3 1076.49   27.60
   1  -2   3 1092.09   27.80
   1  -2   3 1095.09   26.90
  -2   2  -3  162.18    7.40
  -2   2  -3  160.88    7.60
  -2   2  -3  155.88    6.70
  -2   2  -3  151.68    6.50
  -2   2  -3  145.89    7.40
  -2   2  -3  156.58    8.50
   2  -2   3  152.98    9.50
   2  -2   3  158.88    8.60
   2  -2   3  165.08    7.60
   2  -2   3  169.28    9.00
   2  -2   3  151.28    7.00
   2  -2   3  163.08    6.70
   2  -2   3  151.08    7.50
  -3   2  -3   24.90    5.20
  -3   2  -3   27.60    6.00
  -3   2  -3   27.70    4.00
  -3   2  -3   32.20    3.90
  -3   2  -3   35.30    5.80
   3  -2   3   38.50    7.30
   3  -2   3   30.60    5.00
   3  -2   3   28.40    3.70
   3  -2   3   29.40    4.10
   3  -2   3   32.90    5.50
   3  -2   3   37.30    6.40
  -4   2  -3  779.42   20.40
  -4   2  -3  794.22   27.40
   4  -2   3  780.02   26.60
   4  -2   3  727.93   22.50
   4  -2   3  777.32   24.30
   4  -2   3  795.42   22.60
   4  -2   3  782.52   27.30
   4  -2   3  722.23   20.00
  -5   2  -3  828.12   21.90
  -5   2  -3  877.31   28.10
  -5   2  -3  819.62   21.80
  -5   2  -3  838.52   30.60
   5  -2   3  860.41   25.70
   5  -2   3  910.91   28.00
   5  -2   3  866.31   30.40
   5  -2   3  846.02   31.10
   5  -2   3  915.11   31.50
  -6   2  -3   -0.60    4.10
  -6   2  -3    3.20    5.10
   6  -2   3    1.50    5.00
   6  -2   3    4.40    3.50
   6  -2   3    0.90    4.40
   6  -2   3   11.00    6.50
   7   1  -3    5.40    8.20
   7   1  -3    3.00    3.30
   7   1  -3    5.90    7.20
   7   1  -3   12.70    8.00
   7   1  -3   -2.30    4.50
  -7  -1   3   29.50    7.40
  -7  -1   3   18.60    7.30
  -7  -1   3   19.80    6.90
  -7  -1   3   11.50    6.50
   6   1  -3   37.10    8.20
   6   1  -3   44.50    9.70
   6   1  -3   46.00    5.10
   6   1  -3   42.10    5.50
   6   1  -3   47.00    7.90
   6   1  -3   46.10    6.10
  -6  -1   3   58.09    7.90
  -6  -1   3   57.19    6.10
  -6  -1   3   61.39   11.00
  -6  -1   3   47.40    7.70
  -6  -1   3   49.40    8.60
   5   1  -3  155.18   11.70
   5   1  -3  143.39   12.60
   5   1  -3  142.19    6.80
   5   1  -3  153.58    8.70
   5   1  -3  133.19   12.90
   5   1  -3  142.79    7.20
  -5  -1   3  165.58   11.60
  -5  -1   3  148.59   11.10
  -5  -1   3  156.28   12.40
  -5  -1   3  156.08    7.50
  -5  -1   3  144.79   12.40
   4   1  -3    4.40    5.10
   4   1  -3   12.70    4.00
   4   1  -3   10.00    2.90
   4   1  -3   13.20    5.50
   4   1  -3   10.50    2.70
   4   1  -3   10.30    6.50
  -4  -1   3   14.30    5.30
  -4  -1   3   11.20    5.50
  -4  -1   3   14.20    3.10
  -4  -1   3   -0.60    4.80
  -4  -1   3   10.80    6.00
   3   1  -3  138.89    5.50
   3   1  -3  128.99    5.70
   3   1  -3  125.59    9.90
   3   1  -3  131.79    9.40
   3   1  -3  125.39    6.90
   3   1  -3  129.09    5.10
   3   1  -3  125.69    5.40
   3   1  -3  126.29    8.60
  -3  -1   3  126.69    5.20
  -3  -1   3  124.29    8.50
  -3  -1   3  118.49    6.70
  -3  -1   3  118.89    9.30
  -3  -1   3  120.59   10.50
  -3  -1   3  126.49    7.70
   2   1  -3  539.85   14.00
   2   1  -3  546.45   18.60
   2   1  -3  529.75   15.60
   2   1  -3  553.84   14.40
   2   1  -3  535.75   14.00
   2   1  -3  528.35   13.10
   2   1  -3  515.35   15.10
   2   1  -3  549.15   16.90
  -2  -1   3  520.15   15.30
  -2  -1   3  550.84   17.90
  -2  -1   3  536.55   18.10
  -2  -1   3  521.65   15.40
  -2  -1   3  524.95   13.10
  -2  -1   3  545.45   12.70
  -2  -1   3  538.75   18.40
  -2  -1   3  529.85   16.90
  -2  -1   3  533.45   15.40
  -2  -1   3  531.75   16.60
  -2  -1   3  565.54   13.20
   1   1  -3  634.64   17.90
   1   1  -3  629.44   18.80
   1   1  -3  657.33   15.50
   1   1  -3  621.84   16.10
   1   1  -3  655.13   17.70
   1   1  -3  662.83   17.00
  -1  -1   3  666.23   18.10
  -1  -1   3  653.03   16.50
  -1  -1   3  650.43   16.30
  -1  -1   3  659.13   16.30
  -1  -1   3  636.04   19.00
  -1  -1   3  671.83   18.20
  -1  -1   3  666.63   18.90
  -1  -1   3  647.14   15.50
  -1  -1   3  663.23   17.50
  -1  -1   3  660.33   19.60
   0   1  -3    3.30    2.00
   0   1  -3   -2.30    2.20
   0   1  -3    2.00    3.20
   0   1  -3    1.10    2.80
   0   1  -3   -3.60    2.60
   0   1  -3   -3.80    2.50
   0   1  -3    1.50    1.80
   0   1  -3   -1.00    3.00
   0  -1   3   -0.50    1.50
   0  -1   3   10.60    4.50
   0  -1   3    2.80    1.80
   0  -1   3   -4.30    3.00
   0  -1   3    0.10    1.90
   0  -1   3    3.90    3.00
   0  -1   3   -1.90    2.50
   0  -1   3   -0.10    1.90
  -1   1  -3  654.63   16.50
  -1   1  -3  657.73   17.30
  -1   1  -3  661.03   19.00
  -1   1  -3  641.84   17.50
  -1   1  -3  635.54   17.00
  -1   1  -3  646.94   17.80
  -1   1  -3  600.64   18.40
   1  -1   3  657.83   19.40
   1  -1   3  667.83   17.40
   1  -1   3  656.93   18.80
   1  -1   3  663.33   17.60
   1  -1   3  622.04   18.30
   1  -1   3  684.73   17.90
   1  -1   3  659.03   17.80
   1  -1   3  657.23   16.50
  -2   1  -3  519.65   16.30
  -2   1  -3  531.35   15.20
  -2   1  -3  522.35   17.20
  -2   1  -3  550.74   16.30
  -2   1  -3  535.75   15.30
   2  -1   3  567.94   16.50
   2  -1   3  546.85   17.70
   2  -1   3  548.35   18.10
   2  -1   3  528.55   13.80
   2  -1   3  546.15   15.90
   2  -1   3  548.75   15.60
   2  -1   3  568.24   17.20
  -3   1  -3  133.69    7.40
  -3   1  -3  134.29    6.20
  -3   1  -3  133.19    5.50
   3  -1   3  142.39    9.80
   3  -1   3  123.29    7.90
   3  -1   3  120.99    8.50
   3  -1   3  132.09    7.00
   3  -1   3  139.99    9.40
   3  -1   3  123.99    4.80
  -4   1  -3    7.40    3.90
  -4   1  -3    9.20    2.10
  -4   1  -3    7.20    5.60
   4  -1   3    7.80    3.60
   4  -1   3   11.40    5.50
   4  -1   3    9.30    6.30
   4  -1   3    7.00    4.30
   4  -1   3    8.30    5.60
   4  -1   3   16.60    5.20
  -5   1  -3  154.98   10.20
  -5   1  -3  159.28   12.50
   5  -1   3  148.99    8.80
   5  -1   3  151.98   10.90
   5  -1   3  141.79   12.20
   5  -1   3  173.28   13.40
   5  -1   3  174.38   13.10
   5  -1   3  152.48    9.10
  -6   1  -3   49.80    7.40
  -6   1  -3   52.79    9.10
   6  -1   3   43.60    6.30
   6  -1   3   47.40    6.70
   6  -1   3   57.69   10.20
   6  -1   3   49.70    8.10
   6  -1   3   48.70    9.70
  -7   1  -3   -3.50    5.10
  -7   1  -3   19.10    7.40
   7  -1   3    4.20    6.00
   7  -1   3    7.10    7.40
   7  -1   3   13.70    4.90
   7   0  -3  408.26   24.10
   7   0  -3  459.15   23.90
   7   0  -3  423.76   14.40
   7   0  -3  452.95   22.20
  -7   0   3  450.35   23.90
  -7   0   3  413.06   16.60
  -7   0   3  427.06   21.00
  -7   0   3  435.36   16.30
  -7   0   3  441.66   23.10
  -7   0   3  470.95   22.70
   6   0  -3   49.20    6.40
   6   0  -3   32.30    3.70
   6   0  -3   38.70    9.60
   6   0  -3   32.10    7.40
   6   0  -3   35.70    8.80
   6   0  -3   31.40    3.90
  -6   0   3   50.99    6.30
  -6   0   3   42.50    9.20
  -6   0   3   40.60    8.00
  -6   0   3   51.99    8.10
  -6   0   3   42.10    7.60
   5   0  -3   87.59    8.30
   5   0  -3   84.89    4.60
   5   0  -3   83.39    4.60
   5   0  -3   82.49    6.60
   5   0  -3   75.39    9.10
   5   0  -3   81.09   10.10
  -5   0   3   84.19   10.10
  -5   0   3   85.79    8.60
  -5   0   3   94.69    7.30
  -5   0   3   71.39    8.30
  -5   0   3   88.89    8.00
  -5   0   3   83.29    6.00
   4   0  -3  286.97    8.50
   4   0  -3  299.77   13.60
   4   0  -3  291.37   15.10
   4   0  -3  290.77   10.80
   4   0  -3  299.67   15.40
   4   0  -3  304.77    8.40
   4   0  -3  291.67   11.90
  -4   0   3  281.07   14.30
  -4   0   3  290.87   13.40
  -4   0   3  288.37   15.00
  -4   0   3  283.47   13.10
  -4   0   3  295.37   10.90
  -4   0   3  287.67   10.50
   3   0  -3    0.70    2.10
   3   0  -3   -0.20    1.20
   3   0  -3    0.60    1.10
   3   0  -3    6.00    4.40
   3   0  -3   -2.20    1.90
   3   0  -3   -0.70    2.60
   3   0  -3    3.60    4.50
   3   0  -3   -0.30    3.30
  -3   0   3   -2.00    3.30
  -3   0   3    0.10    4.00
  -3   0   3   -1.40    2.60
  -3   0   3    3.00    2.80
  -3   0   3   -1.80    2.20
  -3   0   3    0.90    3.60
  -2   0   3 5698.83  125.99
  -2   0   3 5651.23  127.89
  -1   0   3 3722.83   82.59
   0   0  -3   -0.40    1.00
   0   0  -3   -1.30    3.30
   0   0  -3    2.70    2.40
   0   0  -3   -1.20    2.50
   0   0  -3   -5.60    3.10
   0   0  -3    4.40    2.60
   0   0  -3    0.50    1.00
   0   0  -3    0.30    3.10
   0   0  -3    0.50    2.10
   0   0   3    2.30    2.40
   0   0   3    0.90    2.10
   0   0   3    1.90    3.70
   0   0   3    3.30    3.90
   0   0   3    0.10    2.40
   0   0   3   -0.80    2.50
   0   0   3    5.80    3.50
  -1   0  -3 3898.11   87.19
  -1   0  -3 3793.32   87.69
   1   0   3 3968.90   85.99
   1   0   3 3815.82   85.59
  -2   0  -3 5655.83  127.59
  -3   0  -3    0.50    3.30
  -3   0  -3   -1.30    2.60
  -3   0  -3   -2.70    2.40
   3   0   3    0.50    3.50
   3   0   3   -4.60    4.00
   3   0   3    0.00    2.80
   3   0   3   -0.10    4.40
   3   0   3    1.60    2.50
  -4   0  -3  267.27   14.40
  -4   0  -3  288.47    9.80
  -4   0  -3  316.47   13.10
   4   0   3  294.07   11.70
   4   0   3  290.17   14.80
   4   0   3  302.17   14.10
   4   0   3  293.37   11.90
   4   0   3  314.37   16.20
  -5   0  -3   85.79    9.90
  -5   0  -3   78.89    7.80
   5   0   3   86.39   10.40
   5   0   3   90.09    7.10
   5   0   3   82.99   10.50
   5   0   3   95.99    9.40
   5   0   3   74.89    6.80
  -6   0  -3   30.30    8.00
  -6   0  -3   42.80    7.20
   6   0   3   35.50    6.10
   6   0   3   36.00    6.50
   6   0   3   42.20   10.10
   6   0   3   36.70    7.40
   6   0   3   36.00    8.90
  -7   0  -3  395.66   21.50
  -7   0  -3  471.05   24.40
   7   0   3  445.86   24.70
   7   0   3  428.76   24.80
   7   0   3  451.25   22.20
   7   0   3  446.16   18.70
   7  -1  -3   -2.70    5.50
   7  -1  -3    3.80    7.40
   7  -1  -3    1.70    2.20
   7  -1  -3   10.90    7.00
  -7   1   3   20.30    6.10
  -7   1   3    6.20    4.90
  -7   1   3    9.70    4.70
   6  -1  -3   49.50    9.50
   6  -1  -3   42.10    3.30
   6  -1  -3   36.70    3.50
   6  -1  -3   60.69   10.20
   6  -1  -3   49.70    8.10
  -6   1   3   60.69    8.70
  -6   1   3   56.49    7.90
  -6   1   3   61.69    7.90
  -6   1   3   50.59    6.60
  -6   1   3   46.80    6.50
  -6   1   3   64.59   10.30
   5  -1  -3  171.88   11.70
   5  -1  -3  149.88   10.70
   5  -1  -3  152.48    8.90
   5  -1  -3  169.88   12.50
   5  -1  -3  157.18    5.10
   5  -1  -3  155.98   12.60
   5  -1  -3  155.88    5.10
  -5   1   3  153.98   11.50
  -5   1   3  142.49    8.90
  -5   1   3  152.88   10.50
  -5   1   3  161.48   11.30
  -5   1   3  157.98    9.00
  -5   1   3  165.98   12.10
   4  -1  -3   13.40    4.80
   4  -1  -3    9.30    6.00
   4  -1  -3   11.50    5.00
   4  -1  -3   13.40    4.10
   4  -1  -3   13.70    4.20
   4  -1  -3    9.20    5.60
   4  -1  -3   14.70    5.30
  -4   1   3    6.20    4.50
  -4   1   3    7.50    4.80
  -4   1   3    2.40    5.30
  -4   1   3   11.60    4.00
  -4   1   3    4.00    4.60
  -4   1   3   11.40    5.20
   3  -1  -3  139.59    8.10
   3  -1  -3  144.19    7.60
   3  -1  -3  123.19    9.00
   3  -1  -3  133.79    7.00
   3  -1  -3  133.49    7.70
   3  -1  -3  126.09    8.40
   3  -1  -3  129.59    6.90
  -3   1   3  136.39    8.40
  -3   1   3  129.59    7.00
  -3   1   3  130.29    8.10
  -3   1   3  127.79    7.60
  -3   1   3  122.69    8.20
  -3   1   3  143.29    7.70
  -3   1   3  123.09    7.80
  -3   1   3  127.19    8.60
   2  -1  -3  523.15   15.80
   2  -1  -3  551.14   15.40
   2  -1  -3  543.25   15.40
   2  -1  -3  541.85   16.10
   2  -1  -3  520.55   15.30
   2  -1  -3  552.44   12.10
   2  -1  -3  535.05   12.00
  -2   1   3  534.65   16.00
  -2   1   3  541.15   16.30
  -2   1   3  530.65   15.20
  -2   1   3  536.75   15.80
  -2   1   3  540.55   17.00
  -2   1   3  526.55   17.00
  -2   1   3  522.05   15.20
  -2   1   3  525.75   17.10
   1  -1  -3  639.64   17.20
   1  -1  -3  650.63   17.00
   1  -1  -3  651.83   16.10
   1  -1  -3  665.33   15.90
   1  -1  -3  657.13   17.50
   1  -1  -3  661.33   17.20
   1  -1  -3  628.54   18.00
   1  -1  -3  622.14   16.60
   1  -1  -3  659.83   15.70
  -1   1   3  633.64   16.80
  -1   1   3  653.73   14.80
  -1   1   3  655.53   17.50
  -1   1   3  641.84   14.80
  -1   1   3  650.23   16.10
  -1   1   3  653.13   17.30
  -1   1   3  634.44   16.70
  -1   1   3  658.63   17.20
  -1   1   3  641.84   18.30
  -1   1   3  631.14   16.80
   0  -1  -3    0.60    2.80
   0  -1  -3   -0.40    1.90
   0  -1  -3    1.50    2.30
   0  -1  -3    3.90    2.00
   0  -1  -3    1.50    2.50
   0  -1  -3   -0.90    3.20
   0  -1  -3    1.60    2.10
   0  -1  -3   -1.60    2.10
   0   1   3    0.50    2.20
   0   1   3    7.60    3.30
   0   1   3   -0.30    2.00
   0   1   3    3.80    2.30
   0   1   3    0.20    2.60
   0   1   3   -2.40    1.80
   0   1   3    6.40    3.80
   0   1   3    3.20    2.60
  -1  -1  -3  654.53   18.20
  -1  -1  -3  671.03   17.50
  -1  -1  -3  640.44   18.00
  -1  -1  -3  662.23   17.60
  -1  -1  -3  655.93   19.30
  -1  -1  -3  644.44   17.50
  -1  -1  -3  658.53   16.00
  -1  -1  -3  664.03   17.60
   1   1   3  666.33   17.60
   1   1   3  667.33   18.50
   1   1   3  664.93   16.10
   1   1   3  637.84   18.00
   1   1   3  648.04   15.90
   1   1   3  673.53   19.70
   1   1   3  645.44   18.60
   1   1   3  622.14   18.40
  -2  -1  -3  542.25   16.10
  -2  -1  -3  538.95   18.60
  -2  -1  -3  555.74   15.70
  -2  -1  -3  567.74   16.90
  -2  -1  -3  548.45   17.10
  -2  -1  -3  519.95   16.90
   2   1   3  557.64   16.10
   2   1   3  548.55   17.30
   2   1   3  549.25   16.10
   2   1   3  525.15   18.50
   2   1   3  565.54   17.40
   2   1   3  548.25   12.50
   2   1   3  531.45   12.40
  -3  -1  -3  133.09    6.90
  -3  -1  -3  126.99    7.30
  -3  -1  -3  124.39    8.10
   3   1   3  132.19    8.70
   3   1   3  137.09    7.30
   3   1   3  136.89   10.30
   3   1   3  126.19    9.20
   3   1   3  129.59    7.10
  -4  -1  -3    7.00    4.50
  -4  -1  -3    8.40    3.20
  -4  -1  -3    7.30    4.30
   4   1   3   16.20    6.60
   4   1   3   12.90    3.90
   4   1   3   11.80    5.60
   4   1   3    7.60    5.10
  -5  -1  -3  152.08    9.50
  -5  -1  -3  142.99   11.20
   5   1   3  154.38   12.50
   5   1   3  157.68   13.00
   5   1   3  155.18   11.00
   5   1   3  142.39    9.20
   5   1   3  159.98    9.30
  -6  -1  -3   47.20    7.20
  -6  -1  -3   56.59    9.50
   6   1   3   44.60    8.40
   6   1   3   45.70   10.50
   6   1   3   40.00    7.20
   6   1   3   42.70    9.90
   6   1   3   49.40    6.90
  -7  -1  -3   -2.50    5.40
  -7  -1  -3    8.50    6.70
   7   1   3    5.80    7.20
   7   1   3    5.00    4.50
   7   1   3    2.70    8.80
   7   1   3   18.60    8.10
   6  -2  -3    2.80    6.00
   6  -2  -3    1.80    1.50
   6  -2  -3    0.10    1.70
   6  -2  -3    4.70    5.60
   6  -2  -3   -2.80    5.10
  -6   2   3   10.00    4.80
  -6   2   3    8.90    4.90
  -6   2   3   -1.60    3.50
   5  -2  -3  880.91   20.00
   5  -2  -3  883.81   30.80
   5  -2  -3  892.11   27.20
   5  -2  -3  884.11   30.10
   5  -2  -3  893.21   20.20
   5  -2  -3  875.91   28.00
   5  -2  -3  898.91   30.00
  -5   2   3  887.31   27.20
  -5   2   3  882.11   26.90
  -5   2   3  864.41   29.60
  -5   2   3  838.82   27.40
  -5   2   3  875.11   29.60
   4  -2  -3  755.92   25.00
   4  -2  -3  778.52   25.30
   4  -2  -3  764.02   23.30
   4  -2  -3  769.92   23.60
  -4   2   3  745.83   25.80
  -4   2   3  742.13   27.30
  -4   2   3  775.22   23.60
  -4   2   3  780.92   23.60
   3  -2  -3   27.70    4.90
   3  -2  -3   27.40    1.70
   3  -2  -3   34.90    4.80
   3  -2  -3   33.00    4.50
   3  -2  -3   36.20    5.90
   3  -2  -3   37.00    5.60
  -3   2   3   29.80    4.20
  -3   2   3   28.90    4.80
  -3   2   3   29.90    4.90
  -3   2   3   25.20    4.60
  -3   2   3   34.90    5.40
   2  -2  -3  150.88    7.50
   2  -2  -3  165.58    7.90
   2  -2  -3  152.08    7.50
   2  -2  -3  154.28    5.20
   2  -2  -3  148.19    6.80
   2  -2  -3  157.68    5.20
   2  -2  -3  149.88    7.10
  -2   2   3  149.49    6.70
  -2   2   3  158.08    7.70
  -2   2   3  148.99    7.50
  -2   2   3  146.89    6.60
  -2   2   3  158.88    7.00
  -2   2   3  147.99    7.50
  -2   2   3  161.38    7.60
  -2   2   3  159.88    7.10
  -2   2   3  164.08    7.80
   1  -2  -3 1055.59   25.90
   1  -2  -3 1063.09   27.10
   1  -2  -3 1040.70   26.30
   1  -2  -3 1063.39   27.00
   1  -2  -3 1055.09   26.80
   1  -2  -3 1032.60   26.60
   1  -2  -3 1072.89   25.40
   1  -2  -3 1060.39   25.40
  -1   2   3 1084.29   27.50
  -1   2   3 1028.70   24.40
  -1   2   3 1038.60   26.80
  -1   2   3 1075.59   24.60
  -1   2   3 1097.69   24.70
  -1   2   3 1077.89   24.60
  -1   2   3 1061.29   27.00
  -1   2   3 1087.29   26.80
  -1   2   3 1062.59   26.20
  -1   2   3 1056.79   26.40
   0  -2  -3    1.90    1.80
   0  -2  -3   -0.50    2.30
   0  -2  -3    0.00    2.10
   0  -2  -3    2.50    2.90
   0  -2  -3    1.90    2.50
   0  -2  -3   -0.10    2.40
   0  -2  -3    2.40    2.60
   0  -2  -3    2.40    2.90
   0  -2  -3    2.00    2.20
   0   2   3    0.10    2.30
   0   2   3    4.40    3.30
   0   2   3    0.00    2.10
   0   2   3   -0.60    1.40
   0   2   3    2.70    2.40
   0   2   3    0.70    2.60
   0   2   3    3.20    2.40
   0   2   3    1.90    2.50
  -1  -2  -3 1048.90   26.80
  -1  -2  -3 1054.89   25.60
  -1  -2  -3 1071.29   26.60
  -1  -2  -3 1084.19   27.00
  -1  -2  -3 1041.60   28.70
  -1  -2  -3 1085.99   27.60
  -1  -2  -3 1068.59   26.00
  -1  -2  -3 1029.80   27.30
   1   2   3 1082.39   27.40
   1   2   3 1001.50   27.20
   1   2   3 1082.49   25.60
   1   2   3 1062.39   25.70
   1   2   3 1119.39   28.90
   1   2   3 1075.39   28.70
   1   2   3 1098.59   27.10
   1   2   3 1036.60   26.40
  -2  -2  -3  154.68    9.90
  -2  -2  -3  149.49    8.70
  -2  -2  -3  142.49    8.40
  -2  -2  -3  151.58    5.40
  -2  -2  -3  155.08    7.60
  -2  -2  -3  161.68    7.60
  -2  -2  -3  165.28    7.50
   2   2   3  155.48    8.40
   2   2   3  162.08   10.00
   2   2   3  159.78    5.60
   2   2   3  156.88    7.60
   2   2   3  158.58    7.90
   2   2   3  151.88    5.30
   2   2   3  167.58    8.70
  -3  -2  -3   33.90    6.50
  -3  -2  -3   34.30    4.90
  -3  -2  -3   27.60    4.40
   3   2   3   36.30    6.00
   3   2   3   35.50    5.10
   3   2   3   31.00    7.10
   3   2   3   28.40    5.70
   3   2   3   34.80    5.10
   3   2   3   31.50    1.80
   3   2   3   31.40    1.70
  -4  -2  -3  788.32   21.90
  -4  -2  -3  747.13   22.70
   4   2   3  794.92   27.80
   4   2   3  771.22   26.00
   4   2   3  725.33   23.40
   4   2   3  788.02   29.00
   4   2   3  766.12   23.70
  -5  -2  -3  923.91   32.10
  -5  -2  -3  862.01   26.50
   5   2   3  959.80   35.00
   5   2   3  847.42   26.70
   5   2   3  879.31   38.50
   5   2   3  901.31   27.80
   5   2   3  874.01   32.10
  -6  -2  -3    1.60    4.10
  -6  -2  -3    1.80    5.30
   6   2   3   -1.50    3.80
   6   2   3    7.80    6.80
   6   2   3    4.40    6.40
   6   2   3    0.70    4.80
   6  -3  -3   37.20    7.70
   6  -3  -3   22.60    2.60
   6  -3  -3   39.20    8.40
  -6   3   3   25.80    6.60
  -6   3   3   27.50    7.00
  -6   3   3   32.80    5.60
  -6   3   3   24.80    5.80
   5  -3  -3   91.19    4.20
   5  -3  -3   93.99    9.90
   5  -3  -3   89.39    8.70
  -5   3   3  108.69    8.60
  -5   3   3   93.89    8.80
  -5   3   3  100.79    8.80
  -5   3   3   87.39    7.50
   4  -3  -3    6.50    4.60
   4  -3  -3    9.20    5.00
   4  -3  -3    9.70    4.90
   4  -3  -3    9.80    2.00
  -4   3   3    5.90    4.70
  -4   3   3   11.60    5.10
  -4   3   3    9.80    4.30
  -4   3   3    8.30    4.00
   3  -3  -3   60.89    6.80
   3  -3  -3   56.19    6.00
   3  -3  -3   69.69    6.90
   3  -3  -3   73.59    4.40
   3  -3  -3   67.29    7.20
   3  -3  -3   68.39    4.00
  -3   3   3   52.79    5.90
  -3   3   3   64.39    7.20
  -3   3   3   67.39    6.30
  -3   3   3   63.19    5.20
  -3   3   3   68.19    6.00
   2  -3  -3  229.58    8.20
   2  -3  -3  249.38   10.30
   2  -3  -3  233.98   10.00
   2  -3  -3  246.78    8.30
   2  -3  -3  232.28   10.50
  -2   3   3  237.38    8.70
  -2   3   3  231.68    8.20
  -2   3   3  229.18    8.10
  -2   3   3  235.68    9.40
  -2   3   3  234.28   10.80
  -2   3   3  238.48    9.30
  -2   3   3  226.08    8.20
   1  -3  -3  261.27    9.40
   1  -3  -3  289.97   10.80
   1  -3  -3  276.87    9.00
   1  -3  -3  283.47    9.80
   1  -3  -3  289.97    9.70
   1  -3  -3  286.07   10.80
   1  -3  -3  291.97   11.10
  -1   3   3  283.07    9.10
  -1   3   3  272.57   12.00
  -1   3   3  269.07    9.60
  -1   3   3  276.07   10.60
  -1   3   3  300.97   11.50
  -1   3   3  296.07   10.50
  -1   3   3  286.07    9.50
   0  -3  -3    5.20    4.60
   0  -3  -3   -1.00    3.20
   0  -3  -3    1.80    2.50
   0  -3  -3    2.10    2.80
   0  -3  -3    3.60    3.00
   0  -3  -3    1.00    2.60
   0  -3  -3   -1.90    1.90
   0  -3  -3   -0.10    4.00
   0   3   3    1.30    2.40
   0   3   3    9.60    3.40
   0   3   3   -1.20    2.40
   0   3   3   -2.10    1.80
   0   3   3   -2.70    2.50
   0   3   3    8.30    3.50
  -1  -3  -3  294.37   11.60
  -1  -3  -3  272.47   11.90
  -1  -3  -3  272.77   10.70
  -1  -3  -3  278.67    9.90
  -1  -3  -3  280.67   10.80
  -1  -3  -3  290.37    9.80
  -1  -3  -3  292.57   10.60
  -1  -3  -3  286.87   10.50
   1   3   3  291.97   11.10
   1   3   3  282.97    9.60
   1   3   3  298.77   10.80
   1   3   3  282.07   10.10
   1   3   3  287.67   10.70
   1   3   3  287.27   11.90
  -2  -3  -3  228.88   10.10
  -2  -3  -3  241.28   10.20
  -2  -3  -3  237.08    8.20
  -2  -3  -3  226.58   11.20
  -2  -3  -3  236.08    9.70
  -2  -3  -3  236.68    8.40
   2   3   3  235.98   10.80
   2   3   3  234.38   10.60
   2   3   3  234.58    8.50
   2   3   3  231.68   12.30
   2   3   3  230.28   10.10
   2   3   3  232.58   10.80
  -3  -3  -3   68.29    4.10
  -3  -3  -3   65.39    6.30
  -3  -3  -3   74.39    9.30
  -3  -3  -3   64.89    4.30
  -3  -3  -3   79.29    6.30
   3   3   3   75.99    7.90
   3   3   3   72.39    9.10
   3   3   3   69.89    4.60
   3   3   3   58.89    6.50
   3   3   3   72.29    8.10
  -4  -3  -3   13.30    3.90
  -4  -3  -3   11.70    6.70
  -4  -3  -3    4.40    3.80
   4   3   3    7.80    1.30
   4   3   3    7.00    4.10
   4   3   3   16.10    6.70
   4   3   3    2.00    4.10
   4   3   3    5.60    5.00
  -5  -3  -3   91.29    7.40
  -5  -3  -3   91.99   11.30
  -5  -3  -3   85.99    4.00
   5   3   3   96.49   11.10
   5   3   3   76.89   10.10
   5   3   3   85.89    8.60
   5   3   3   91.29   11.80
  -6  -3  -3   23.00    5.50
  -6  -3  -3   31.10    8.90
   6   3   3   36.50    9.40
   6   3   3   21.60    7.30
   6   3   3   33.30    6.70
   6   3   3   44.20   10.70
   6  -4  -3   33.60    7.40
   6  -4  -3   20.70    3.60
   6  -4  -3   23.10    3.10
   6  -4  -3   28.20    8.40
  -6   4   3   27.90    6.90
  -6   4   3   17.10    6.00
  -6   4   3   28.70    7.20
  -6   4   3   29.80    5.00
   5  -4  -3   88.79    9.30
   5  -4  -3   79.79    5.50
   5  -4  -3   80.99    9.70
   5  -4  -3   89.19    8.50
   5  -4  -3   83.29    4.90
  -5   4   3   83.39    8.50
  -5   4   3   83.29    8.90
  -5   4   3   97.89    7.50
  -5   4   3   99.79    7.80
   4  -4  -3  162.98   11.70
   4  -4  -3  161.78   10.90
   4  -4  -3  160.18    9.80
   4  -4  -3  161.28    7.30
   4  -4  -3  168.28    7.10
  -4   4   3  170.98    8.40
  -4   4   3  161.58    9.00
  -4   4   3  163.08   10.80
  -4   4   3  170.48   11.00
  -4   4   3  155.88    9.50
  -4   4   3  163.58    8.40
   3  -4  -3    5.70    3.60
   3  -4  -3   -3.20    4.00
   3  -4  -3    2.40    2.70
   3  -4  -3   -1.40    2.80
   3  -4  -3    0.30    4.90
   3  -4  -3    2.90    4.90
  -3   4   3    2.00    2.50
  -3   4   3    2.50    3.20
  -3   4   3    4.90    3.20
  -3   4   3    5.90    5.00
  -3   4   3    7.10    3.50
   2  -4  -3 1811.02   45.50
   2  -4  -3 1789.02   42.70
   2  -4  -3 1833.32   45.60
   2  -4  -3 1732.73   42.80
   2  -4  -3 1797.82   46.30
  -2   4   3 1763.82   41.90
  -2   4   3 1738.33   40.20
  -2   4   3 1752.92   41.80
  -2   4   3 1705.13   40.40
  -2   4   3 1803.92   42.90
  -2   4   3 1900.81   46.30
  -2   4   3 1732.73   40.70
   1  -4  -3 1347.17   33.30
   1  -4  -3 1389.26   32.80
   1  -4  -3 1411.56   36.40
   1  -4  -3 1410.76   37.60
  -1   4   3 1431.66   34.50
  -1   4   3 1461.45   37.70
   0  -4  -3   -2.40    3.30
   0  -4  -3   -1.40    2.80
   0  -4  -3    1.10    3.20
   0  -4  -3   -1.60    2.90
   0  -4  -3   -0.30    3.00
   0  -4  -3    2.40    3.30
   0  -4  -3   -1.10    4.20
   0   4   3    3.90    3.60
   0   4   3    3.20    3.90
   0   4   3    1.00    3.00
   0   4   3   -0.90    2.20
  -1  -4  -3 1421.86   38.20
  -1  -4  -3 1372.46   33.50
  -1  -4  -3 1423.36   35.20
  -1  -4  -3 1385.86   36.00
  -1  -4  -3 1388.66   34.20
  -1  -4  -3 1255.17   34.10
  -1  -4  -3 1400.06   36.00
  -1  -4  -3 1441.36   37.50
  -1  -4  -3 1210.18   39.30
   1   4   3 1403.06   35.30
   1   4   3 1478.25   36.80
   1   4   3 1412.16   35.10
   1   4   3 1392.46   33.60
   1   4   3 1408.46   36.90
  -2  -4  -3 1763.62   41.90
  -2  -4  -3 1812.12   43.90
  -2  -4  -3 1700.73   42.90
  -2  -4  -3 1821.02   48.00
  -2  -4  -3 1781.02   45.10
   2   4   3 1775.52   45.00
   2   4   3 1845.62   48.30
   2   4   3 1799.52   45.60
   2   4   3 1784.82   43.40
   2   4   3 1748.33   45.10
   2   4   3 1816.92   46.20
  -3  -4  -3    6.40    4.30
  -3  -4  -3   -2.80    2.10
  -3  -4  -3    2.90    3.50
   3   4   3   -0.30    4.60
   3   4   3   -1.60    4.10
   3   4   3   -0.20    4.50
   3   4   3   -1.50    3.20
   3   4   3    3.60    5.70
   3   4   3   -2.00    4.30
  -4  -4  -3  161.18    6.60
  -4  -4  -3  167.38    9.70
  -4  -4  -3  163.98    8.90
  -4  -4  -3  164.68   12.20
   4   4   3  169.98   12.20
   4   4   3  158.18    6.80
   4   4   3  157.18   10.70
   4   4   3  169.58   10.70
   4   4   3  153.88   11.40
   4   4   3  174.48   13.70
  -5  -4  -3   86.19    7.20
  -5  -4  -3   99.09   12.30
   5   4   3   87.39   10.90
   5   4   3   78.69    8.70
   5   4   3  103.99   14.30
   5   4   3   77.59    8.40
   5   4   3   80.99   10.30
  -6  -4  -3   28.20    9.70
  -6  -4  -3   22.50    5.20
   6   4   3   29.20    6.70
   6   4   3   25.80    8.90
   6   4   3   26.70    9.70
   6   4   3   23.50    7.70
   5  -5  -3   38.80    8.20
   5  -5  -3   43.60    4.60
   5  -5  -3   37.60    4.80
  -5   5   3   41.50    7.70
  -5   5   3   44.80    5.40
   4  -5  -3    7.30    3.40
   4  -5  -3   11.00    3.40
   4  -5  -3    2.70    5.10
   4  -5  -3   12.50    4.70
   4  -5  -3    8.60    4.00
  -4   5   3    2.50    3.10
  -4   5   3    9.10    2.90
  -4   5   3    6.80    3.80
  -4   5   3   10.00    9.10
  -4   5   3   14.30    3.50
   3  -5  -3   29.00    5.80
   3  -5  -3   21.30    4.20
   3  -5  -3   19.60    6.30
   3  -5  -3   28.10    3.80
   3  -5  -3   24.30    4.50
  -3   5   3   39.10    7.20
  -3   5   3   17.70    5.90
  -3   5   3   20.50    2.50
  -3   5   3   22.40    3.20
   2  -5  -3   62.29    7.30
   2  -5  -3   56.29    6.20
   2  -5  -3   52.59    6.70
   2  -5  -3   55.29    8.50
   2  -5  -3   49.99    5.40
  -2   5   3   64.89    8.00
  -2   5   3   58.39    2.60
  -2   5   3   57.29    3.00
  -2   5   3   56.39    2.60
  -2   5   3   59.79    3.10
   1  -5  -3   78.19    9.00
   1  -5  -3   75.79    3.80
   1  -5  -3   62.29    7.30
   1  -5  -3   77.09    7.10
   1  -5  -3   73.59    4.00
   1  -5  -3   76.29    7.10
   1  -5  -3   71.49    6.50
  -1   5   3   75.79    8.30
  -1   5   3   67.79    3.90
  -1   5   3   77.19    4.60
   0  -5  -3   -2.60    3.40
   0  -5  -3   11.40    6.20
   0  -5  -3    0.50    3.40
   0  -5  -3   -2.90    3.20
   0  -5  -3    4.40    2.90
   0  -5  -3   -2.00    3.60
   0  -5  -3   -4.00    3.70
   0   5   3   -0.10    3.20
   0   5   3    4.20    3.90
   0   5   3    4.00    3.80
   0   5   3   -2.40    2.40
  -1  -5  -3   80.69    5.20
  -1  -5  -3   70.79    5.80
  -1  -5  -3   65.39    7.10
  -1  -5  -3   62.79    6.90
  -1  -5  -3   72.19    7.20
  -1  -5  -3   78.69    5.80
  -1  -5  -3   85.39   10.30
  -1  -5  -3   60.99    8.30
  -1  -5  -3   64.19    6.90
   1   5   3   69.69    7.40
   1   5   3   69.69    6.30
   1   5   3   70.39    7.70
   1   5   3   68.69    7.40
  -2  -5  -3   61.49    6.40
  -2  -5  -3   71.79    7.80
  -2  -5  -3   56.09    5.10
  -2  -5  -3   52.89    6.90
   2   5   3   50.69    6.70
   2   5   3   56.79    7.20
   2   5   3   61.59    8.00
   2   5   3   68.49    9.00
  -3  -5  -3   26.20    5.70
  -3  -5  -3   27.40    4.70
  -3  -5  -3   23.60    3.10
  -3  -5  -3   21.90    8.00
  -3  -5  -3   34.00    5.90
   3   5   3   25.50    6.20
   3   5   3   28.60    6.10
   3   5   3   24.40    6.90
   3   5   3   21.70    5.90
   3   5   3   26.60    4.80
  -4  -5  -3    6.10    4.60
  -4  -5  -3   17.00    6.10
  -4  -5  -3    9.10    4.00
  -4  -5  -3    2.00    5.20
   4   5   3    5.50    3.40
   4   5   3    0.10    4.70
   4   5   3    0.80    5.10
  -5  -5  -3   50.59    8.90
  -5  -5  -3   24.00    4.90
  -5  -5  -3   35.00   11.80
   5   5   3   28.80    6.80
   5   5   3   34.20    8.80
   5   5   3   43.10   10.00
   5   5   3   43.00    4.10
   5   5   3   34.60    8.00
   5  -6  -3  310.27   14.20
   5  -6  -3  269.67   16.00
   5  -6  -3  264.97   17.30
  -5   6   3  293.67   16.60
  -5   6   3  320.37   12.80
  -5   6   3  316.37   16.80
   4  -6  -3  283.07   12.20
   4  -6  -3  296.07   17.20
   4  -6  -3  291.77   12.30
   4  -6  -3  267.77   12.80
   4  -6  -3  302.37   16.50
  -4   6   3  309.77   16.60
  -4   6   3  330.27   11.20
  -4   6   3  299.27   16.20
   3  -6  -3    8.90    6.20
   3  -6  -3    6.20    4.40
   3  -6  -3    8.30    4.60
   3  -6  -3   10.30    4.20
  -3   6   3   11.30    6.30
  -3   6   3    2.00    2.60
   2  -6  -3  206.68   13.60
   2  -6  -3  195.38   10.30
   2  -6  -3  205.68   12.10
  -2   6   3  202.08   12.80
   1  -6  -3  265.47   12.50
   1  -6  -3  254.17   12.40
   1  -6  -3  272.77   12.80
   1  -6  -3  267.17   15.20
   1  -6  -3  273.97   12.50
  -1   6   3  262.37   14.10
   0  -6  -3    1.00    6.10
   0  -6  -3    5.60    4.10
   0  -6  -3   -0.90    3.10
   0  -6  -3    4.70    3.80
   0  -6  -3   -3.00    3.80
   0  -6  -3    3.80    4.10
   0   6   3   -2.30    3.50
   0   6   3    0.50    2.80
   0   6   3    3.40    2.40
   0   6   3    8.80    5.10
  -1  -6  -3  260.77   10.20
  -1  -6  -3  271.17    9.40
  -1  -6  -3  269.87   11.90
  -1  -6  -3  277.87   13.30
  -1  -6  -3  258.27   11.10
  -1  -6  -3  270.57   16.10
   1   6   3  278.77   12.80
   1   6   3  259.87   13.20
   1   6   3  262.97   11.10
   1   6   3  251.77   13.20
  -2  -6  -3  192.08   13.40
  -2  -6  -3  186.28    8.50
  -2  -6  -3  189.88   10.20
  -2  -6  -3  199.38   10.50
  -2  -6  -3  194.68   11.40
   2   6   3  202.18   11.10
   2   6   3  200.28   11.20
   2   6   3  208.78   13.00
   2   6   3  196.48   12.10
  -3  -6  -3   12.10    5.50
  -3  -6  -3    1.50    4.20
  -3  -6  -3    4.90    3.10
  -3  -6  -3    5.50    7.30
   3   6   3    5.70    4.10
   3   6   3   15.50    5.00
   3   6   3   12.80    5.70
   3   6   3    9.50    5.00
  -4  -6  -3  291.47   19.00
  -4  -6  -3  271.57   11.90
  -4  -6  -3  315.27   16.40
   4   6   3  281.87   15.80
   4   6   3  275.27   15.70
   4   6   3  276.27   12.30
   4   6   3  289.27   15.80
   4   6   3  302.67   18.40
  -5  -6  -3  321.57   18.30
  -5  -6  -3  292.67   20.80
   5   6   3  310.97   20.50
   5   6   3  294.37   18.00
   5   6   3  287.17   17.30
   5   6   3  303.57   17.20
   4  -7  -3    0.60    5.20
   4  -7  -3    8.20    4.50
   4  -7  -3    8.60    6.40
  -4   7   3    9.50    7.10
  -4   7   3    6.00    5.80
   3  -7  -3    8.80    4.50
   3  -7  -3    9.90    7.00
   3  -7  -3    8.20    6.00
  -3   7   3   13.00    6.50
   2  -7  -3   16.40    5.70
   2  -7  -3    7.00    4.10
   2  -7  -3   26.50    8.20
   2  -7  -3   15.80    5.20
  -2   7   3    6.90    5.90
   1  -7  -3   19.60    5.60
   1  -7  -3    5.10    6.60
   1  -7  -3   21.70    5.40
   1  -7  -3   23.60    6.00
  -1   7   3   13.80    6.30
  -1   7   3   27.30    4.70
   0  -7  -3   -1.40    2.30
   0  -7  -3    4.50    4.30
   0  -7  -3   -3.90    4.60
   0  -7  -3   -3.30    5.80
   0  -7  -3    5.40    4.40
   0  -7  -3    8.90    2.40
   0   7   3    3.40    2.10
   0   7   3    3.20    2.50
   0   7   3   -1.60    4.90
  -1  -7  -3   18.60    5.70
  -1  -7  -3   18.60    8.20
  -1  -7  -3   15.70    5.40
   1   7   3   14.50    5.60
   1   7   3   26.60    6.60
   1   7   3   12.30    4.50
   1   7   3   18.90    4.00
  -2  -7  -3    9.60    4.60
  -2  -7  -3    9.30    5.30
  -2  -7  -3    9.00    6.60
  -2  -7  -3   13.40    5.50
   2   7   3   17.00    4.70
   2   7   3    8.30    5.20
   2   7   3   12.40    5.60
   2   7   3   17.60    5.80
  -3  -7  -3    2.50    4.10
  -3  -7  -3   13.80    5.70
  -3  -7  -3   -7.80    7.30
  -3  -7  -3    3.30    4.50
   3   7   3    4.00    4.60
   3   7   3    7.90    5.20
   3   7   3   12.80    5.80
   3   7   3    8.20    4.10
  -4  -7  -3   -2.60    7.90
  -4  -7  -3    0.70    3.40
  -4  -7  -3   18.10    6.30
   4   7   3    4.10    5.70
   4   7   3    7.40    6.90
   4   7   3    6.40    5.00
   4   7   3   -1.20    4.40
   3  -8  -3    9.50    7.10
   3  -8  -3   -0.40    5.10
  -3   8   3    0.70    5.40
   2  -8  -3  244.48   14.90
   2  -8  -3  221.48   19.50
   2  -8  -3  262.67   14.30
  -2   8   3  255.17   16.10
   1  -8  -3  276.87   18.20
   1  -8  -3  250.17   14.10
   1  -8  -3  271.07   14.30
  -1   8   3  246.98   15.00
   0  -8  -3   -3.80    6.50
   0  -8  -3    2.30    4.90
   0  -8  -3    6.80    4.00
   0   8   3    2.40    5.60
  -1  -8  -3  253.37   13.00
  -1  -8  -3  263.17   14.80
  -1  -8  -3  274.87   21.70
   1   8   3  271.07   12.30
   1   8   3  260.57   15.10
   1   8   3  262.67   15.50
  -2  -8  -3  220.48   12.90
  -2  -8  -3  243.48   14.30
  -2  -8  -3  268.47   19.30
  -2  -8  -3  238.98   12.50
   2   8   3  263.07   14.70
   2   8   3  254.07   14.40
   2   8   3  268.37   12.70
  -3  -8  -3    2.90    6.30
  -3  -8  -3    5.50    3.70
  -3  -8  -3   -9.00    8.20
   3   8   3   12.80    5.10
   3   8   3    0.20    5.20
   3   8   3   12.60    7.00
   3   8   3    1.10    4.70
   1  -9  -3    5.40    5.10
   1  -9  -3    2.70    7.40
   1  -9  -3   11.30    5.40
  -1   9   3    5.40    7.60
   0  -9  -3    7.10    7.50
   0  -9  -3    1.80    5.30
  -1  -9  -3   -3.70    5.10
  -1  -9  -3    9.80    4.80
  -1  -9  -3  -13.50    7.40
   1   9   3    4.70    5.00
   3   8  -4  126.49   11.90
   3   8  -4  140.79   12.20
  -3  -8   4  104.39   17.90
  -3  -8   4  152.48   11.60
   2   8  -4   76.79   10.30
   2   8  -4   54.19    9.40
  -2  -8   4   48.10   10.70
  -2  -8   4   78.39    8.70
  -2  -8   4   49.70   11.80
   1   8  -4   79.99    5.90
   1   8  -4   91.79    9.90
   1   8  -4   61.39   10.00
  -1  -8   4   69.49   12.50
  -1  -8   4   52.19    7.60
  -1  -8   4   63.69    7.50
  -1  -8   4   74.99   13.10
   0   8  -4  154.28    9.20
   0   8  -4  148.49   12.40
   0   8  -4  146.39   11.60
   0  -8   4  153.88   15.10
   0  -8   4  124.59    9.10
   0  -8   4  151.98   10.90
   0  -8   4  114.99    7.90
   0  -8   4  136.89   15.20
  -1   8  -4   59.39    9.90
  -1   8  -4   96.99    8.20
   1  -8   4   79.59   13.50
   1  -8   4   81.19   10.80
  -2   8  -4   65.49    8.80
  -2   8  -4   77.49   10.80
   2  -8   4   73.59   10.80
   2  -8   4   68.49   11.20
   2  -8   4   67.59    9.20
  -3   8  -4  119.79   10.70
  -3   8  -4  102.29   11.40
   3  -8   4  157.78   12.70
   3  -8   4  124.19   13.30
   3  -8   4  137.19   11.70
   4   7  -4   13.10    5.60
  -4  -7   4   17.10    9.80
  -4  -7   4   30.40    6.00
   3   7  -4    0.00    5.40
  -3  -7   4   -1.70    7.00
  -3  -7   4    7.00    7.90
   2   7  -4   10.70    5.70
   2   7  -4    3.70    5.20
   2   7  -4    5.50    1.70
  -2  -7   4   17.80    4.70
  -2  -7   4   12.60    5.90
  -2  -7   4    8.40    4.20
  -2  -7   4    9.70    4.60
  -2  -7   4   -8.70    7.40
   1   7  -4   47.10    7.80
   1   7  -4   60.39    9.10
   1   7  -4   54.99    5.00
  -1  -7   4   59.79   11.20
  -1  -7   4   64.39   10.40
  -1  -7   4   60.09    8.00
  -1  -7   4   60.49    7.00
  -1  -7   4   66.69    7.10
   0   7  -4   10.70    4.10
   0   7  -4   21.90    6.40
   0   7  -4    4.70    4.40
   0  -7   4   15.10    3.50
   0  -7   4    6.60    4.30
   0  -7   4    4.90    4.00
   0  -7   4    1.60    7.40
   0  -7   4    2.40    4.50
   0  -7   4   15.40    6.00
   0  -7   4    7.40    4.70
  -1   7  -4   72.79    9.20
  -1   7  -4   64.19   10.30
   1  -7   4   50.39    3.50
   1  -7   4   60.59    8.00
   1  -7   4   36.80    4.00
   1  -7   4   74.59   10.80
   1  -7   4   47.30    8.60
   1  -7   4   44.90    5.40
  -2   7  -4    5.40    5.70
  -2   7  -4   -1.90    4.70
  -2   7  -4    6.70    4.70
   2  -7   4    9.00    6.30
   2  -7   4    9.40    6.10
  -3   7  -4    3.30    4.70
  -3   7  -4    1.40    4.60
   3  -7   4   -0.10    4.10
   3  -7   4    8.50    6.70
  -4   7  -4    6.70    5.60
  -4   7  -4   18.60    6.20
   4  -7   4   28.60    6.00
   4  -7   4   14.10    6.80
   4  -7   4   29.20    7.00
   5   6  -4   59.29    9.70
   5   6  -4   52.69    9.60
   5   6  -4   58.09    8.30
   5   6  -4   59.29   11.40
  -5  -6   4   69.79   13.30
  -5  -6   4   44.00   11.20
   4   6  -4   96.09   10.50
   4   6  -4  107.89   10.90
   4   6  -4  118.49   10.30
   4   6  -4  108.89   12.50
  -4  -6   4  135.29   11.40
  -4  -6   4  135.19   12.00
  -4  -6   4  125.89   14.30
  -4  -6   4  107.89   12.60
   3   6  -4  494.95   20.20
  -3  -6   4  566.64   23.50
  -3  -6   4  554.24   21.50
  -3  -6   4  544.05   24.40
  -3  -6   4  502.05   18.60
  -3  -6   4  547.55   23.50
   2   6  -4   74.29    9.30
   2   6  -4   64.19    5.00
   2   6  -4   75.49    9.30
  -2  -6   4   68.59    8.30
  -2  -6   4   73.09   10.20
  -2  -6   4   74.09   11.50
  -2  -6   4   80.09    8.70
  -2  -6   4   71.59    7.50
   1   6  -4  149.09   12.70
   1   6  -4  141.39    9.80
   1   6  -4  147.99    6.80
  -1  -6   4  137.39   11.60
  -1  -6   4  135.39    9.30
   0   6  -4 1047.20   28.10
   0   6  -4 1073.59   32.20
   0   6  -4 1064.89   31.90
   0  -6   4 1007.90   27.30
   0  -6   4 1030.90   30.90
   0  -6   4 1018.20   29.30
   0  -6   4 1047.00   33.10
   0  -6   4 1049.00   34.40
   0  -6   4 1017.10   29.20
   0  -6   4 1020.30   28.10
  -1   6  -4  163.38   10.90
  -1   6  -4  149.88    9.00
  -1   6  -4  151.58   10.90
   1  -6   4  150.18    7.50
   1  -6   4  161.08   12.60
   1  -6   4  135.69    8.40
   1  -6   4  135.09    7.30
   1  -6   4  146.09    9.60
   1  -6   4  152.18    6.60
   1  -6   4  149.88   12.10
  -2   6  -4   61.89    8.40
  -2   6  -4   59.69    6.40
  -2   6  -4   61.89    6.90
   2  -6   4   72.69    8.80
   2  -6   4   73.99   10.10
   2  -6   4   67.69    3.80
   2  -6   4   77.69    7.60
   2  -6   4   69.39    4.50
  -3   6  -4  527.75   19.00
  -3   6  -4  563.44   21.50
  -3   6  -4  570.44   21.60
  -3   6  -4  530.25   14.10
  -3   6  -4  560.34   15.40
   3  -6   4  545.85   24.20
   3  -6   4  593.04   21.40
   3  -6   4  561.44   23.60
  -4   6  -4  128.79    9.90
  -4   6  -4  111.59   11.40
   4  -6   4  116.79    9.40
   4  -6   4  115.69    6.80
   4  -6   4   96.69    5.50
   4  -6   4  122.19   11.40
  -5   6  -4   65.79    9.70
  -5   6  -4   56.99    8.00
   5  -6   4   42.90    8.30
   5  -6   4   56.09   10.30
   5  -6   4   85.99   11.20
   5   5  -4   21.00    8.00
   5   5  -4   15.00    6.30
   5   5  -4   19.90    6.00
  -5  -5   4   28.60    7.00
  -5  -5   4   17.00    8.90
  -5  -5   4   23.50    6.00
  -5  -5   4   16.80    8.30
   4   5  -4   39.10    9.20
   4   5  -4   36.50    7.90
   4   5  -4   41.30    6.50
   4   5  -4   54.69    7.80
   4   5  -4   51.69    7.90
  -4  -5   4   58.29    8.80
  -4  -5   4   48.60    9.20
  -4  -5   4   52.79    9.20
  -4  -5   4   40.60    5.60
  -4  -5   4   49.30   10.70
   3   5  -4    1.60    5.30
   3   5  -4   11.40    4.60
   3   5  -4    5.40    4.80
   3   5  -4   14.50    4.40
   3   5  -4    8.30    5.10
  -3  -5   4   24.80    6.30
  -3  -5   4    5.20    5.20
  -3  -5   4   14.60    6.70
  -3  -5   4    6.10    3.60
  -3  -5   4    9.70    7.60
   2   5  -4   19.20    5.80
   2   5  -4   14.50    4.70
  -2  -5   4    8.50    4.70
  -2  -5   4   12.90    5.50
  -2  -5   4   15.60    5.40
  -2  -5   4   18.60    4.40
   1   5  -4  297.27   13.10
   1   5  -4  297.87   14.10
   1   5  -4  301.57    9.70
   1   5  -4  288.87   14.00
  -1  -5   4  294.37   15.50
  -1  -5   4  297.47   13.10
  -1  -5   4  302.57   14.90
  -1  -5   4  278.67   12.50
  -1  -5   4  257.47   13.50
   0   5  -4   17.20    5.90
   0   5  -4   16.20    4.20
   0   5  -4   18.60    5.90
   0  -5   4   15.10    4.70
   0  -5   4   13.00    4.90
   0  -5   4   14.20    4.20
   0  -5   4   13.40    4.10
   0  -5   4   22.50    5.00
   0  -5   4   13.30    6.00
   0  -5   4   21.40    7.90
  -1   5  -4  284.87   10.20
  -1   5  -4  299.47   12.30
  -1   5  -4  274.27   12.90
  -1   5  -4  280.37   10.80
   1  -5   4  297.57   20.50
   1  -5   4  288.37   12.50
   1  -5   4  294.67   14.40
   1  -5   4  308.17   16.30
   1  -5   4  289.27   11.70
   1  -5   4  307.27   11.40
   1  -5   4  289.17   10.40
  -2   5  -4   14.40    5.50
  -2   5  -4   15.90    5.40
  -2   5  -4   17.90    2.90
  -2   5  -4   25.80    3.40
  -2   5  -4   20.70    4.90
   2  -5   4   11.80    3.90
   2  -5   4   19.20    6.40
   2  -5   4   14.60    3.30
   2  -5   4   20.60    7.40
   2  -5   4   20.30    5.10
  -3   5  -4    4.70    4.80
  -3   5  -4    6.10    4.60
  -3   5  -4   10.30    2.80
  -3   5  -4    3.40    3.60
   3  -5   4    3.80    5.90
   3  -5   4    3.50    3.50
   3  -5   4    9.20    6.00
   3  -5   4   11.50    4.60
   3  -5   4   12.90    4.60
   3  -5   4    8.70    2.90
  -4   5  -4   54.59    7.10
  -4   5  -4   46.30    8.10
   4  -5   4   57.09    9.60
   4  -5   4   48.20    5.30
   4  -5   4   39.70    5.90
   4  -5   4   44.20    9.00
   4  -5   4   50.29    6.70
   4  -5   4   60.59    7.00
  -5   5  -4   30.40    6.60
  -5   5  -4   10.00    4.90
   5  -5   4   23.00    4.60
   5  -5   4   14.10    4.10
   5  -5   4   14.20    5.00
   5  -5   4   25.60    8.30
   5  -5   4   12.20    6.70
   6   4  -4  124.09    9.80
  -6  -4   4  140.39   15.10
  -6  -4   4  108.89   15.70
   5   4  -4    4.70    4.50
   5   4  -4    7.10    4.20
   5   4  -4    8.10    4.80
   5   4  -4    2.90    5.70
   5   4  -4    4.60    6.90
  -5  -4   4    3.00    5.80
  -5  -4   4    8.90    6.80
  -5  -4   4    8.50    5.40
  -5  -4   4    6.70    5.30
   4   4  -4  121.49    8.90
   4   4  -4  106.49    7.80
   4   4  -4  117.79   12.10
   4   4  -4  111.19    9.50
   4   4  -4  121.79    8.80
  -4  -4   4  106.79    9.50
  -4  -4   4  113.99   11.00
  -4  -4   4  112.99   10.60
  -4  -4   4  104.99   12.40
   3   4  -4  256.77   12.60
   3   4  -4  264.37   13.70
   3   4  -4  269.07   12.70
   3   4  -4  238.88   15.20
  -3  -4   4  263.37   15.10
  -3  -4   4  267.87   14.30
  -3  -4   4  252.97   13.60
  -3  -4   4  245.38   10.20
  -3  -4   4  248.18   14.80
   2   4  -4  243.98   11.00
   2   4  -4  238.08   12.00
  -2  -4   4  232.58   13.50
  -2  -4   4  228.58   12.00
  -2  -4   4  251.07   12.80
  -2  -4   4  240.98   10.30
  -2  -4   4  223.68   12.90
   1   4  -4  297.27    9.10
   1   4  -4  289.57   12.80
   1   4  -4  280.17    9.50
   1   4  -4  298.07   13.00
   1   4  -4  305.67   12.20
  -1  -4   4  296.97   14.60
  -1  -4   4  279.97   12.20
  -1  -4   4  321.27   13.90
  -1  -4   4  285.77   15.60
  -1  -4   4  291.67   13.10
   0   4  -4  231.58   11.30
   0   4  -4  235.08    9.00
   0   4  -4  222.28    9.90
   0   4  -4  226.38   10.50
   0   4  -4  251.17   11.70
   0   4  -4  253.37   10.60
   0  -4   4  216.48   10.40
   0  -4   4  222.38   10.30
   0  -4   4  216.88   10.60
   0  -4   4  242.98   10.10
   0  -4   4  244.48   13.90
   0  -4   4  215.58   10.70
   0  -4   4  225.08   12.10
   0  -4   4  236.18   11.60
  -1   4  -4  273.57   11.00
  -1   4  -4  288.17   11.40
  -1   4  -4  279.37   10.30
  -1   4  -4  305.87   12.70
   1  -4   4  285.97   13.40
   1  -4   4  304.07   11.40
   1  -4   4  305.07   12.50
   1  -4   4  297.97   12.20
   1  -4   4  295.97   15.20
  -2   4  -4  218.78   10.00
  -2   4  -4  228.78   11.30
  -2   4  -4  237.98   11.50
  -2   4  -4  245.08   11.40
  -2   4  -4  228.78    9.40
   2  -4   4  249.68    9.90
   2  -4   4  244.98   14.20
   2  -4   4  240.68   12.40
   2  -4   4  237.78   10.90
   2  -4   4  238.18   11.00
   2  -4   4  230.38   11.50
  -3   4  -4  254.17   12.90
  -3   4  -4  257.67   11.30
  -3   4  -4  268.57   11.80
  -3   4  -4  247.58   11.20
  -3   4  -4  235.58   11.90
   3  -4   4  256.57   11.60
   3  -4   4  250.97   14.70
   3  -4   4  253.67   11.90
   3  -4   4  262.37   14.70
   3  -4   4  252.17   10.50
  -4   4  -4  115.09    9.80
  -4   4  -4  116.19    8.20
   4  -4   4  112.29    7.80
   4  -4   4  119.39   11.40
   4  -4   4  118.39   11.00
   4  -4   4  103.39    8.90
   4  -4   4  120.59    8.40
   4  -4   4  108.09    9.60
  -5   4  -4    6.70    4.70
  -5   4  -4    9.10    3.90
   5  -4   4    4.70    3.80
   5  -4   4    3.80    4.20
   5  -4   4    4.60    4.60
   5  -4   4   -0.40    5.40
   5  -4   4   11.10    6.00
   5  -4   4    3.90    5.30
  -6   4  -4  120.69   10.60
  -6   4  -4  141.39   13.80
   6  -4   4  117.39   10.30
   6  -4   4  143.09   13.50
   6  -4   4  106.09   12.00
   6  -4   4  121.29   13.10
   6   3  -4   22.70    7.50
   6   3  -4   27.50    5.60
   6   3  -4   24.40    5.30
   6   3  -4   28.50    8.80
  -6  -3   4   23.80    8.80
  -6  -3   4   33.00    8.00
  -6  -3   4   38.50    8.50
  -6  -3   4   33.40    7.70
   5   3  -4   39.20    6.10
   5   3  -4   32.70    6.90
   5   3  -4   31.60    8.30
   5   3  -4   34.40    5.70
  -5  -3   4   45.00    9.40
  -5  -3   4   35.30    6.90
  -5  -3   4   43.90    8.20
  -5  -3   4   40.80    8.00
   4   3  -4  134.09   12.40
   4   3  -4  105.09    9.90
   4   3  -4  109.69    7.50
   4   3  -4  108.99    7.90
   4   3  -4  109.29    8.00
  -4  -3   4  117.19   11.90
  -4  -3   4  120.69   11.00
  -4  -3   4  104.19    9.70
  -4  -3   4  122.89   10.10
   3   3  -4   15.60    5.50
   3   3  -4   10.20    3.80
   3   3  -4    9.80    6.30
   3   3  -4    9.50    3.90
  -3  -3   4    8.60    2.70
  -3  -3   4   -0.20    6.20
  -3  -3   4    7.00    5.60
  -3  -3   4    1.10    4.90
  -3  -3   4    7.70    5.20
   2   3  -4   40.60    4.90
  -2  -3   4   42.50    8.20
  -2  -3   4   29.60    6.70
  -2  -3   4   35.00    4.10
  -2  -3   4   52.29    7.00
  -2  -3   4   44.00    7.90
   1   3  -4 1183.58   27.40
   1   3  -4 1223.98   31.50
   1   3  -4 1145.69   27.20
   1   3  -4 1206.28   31.50
   1   3  -4 1209.38   30.60
  -1  -3   4 1147.69   27.20
  -1  -3   4 1136.09   30.70
  -1  -3   4 1174.58   32.80
  -1  -3   4 1196.28   34.10
  -1  -3   4 1227.08   31.20
  -1  -3   4 1204.68   31.40
  -1  -3   4 1171.78   32.60
  -1  -3   4 1115.49   29.90
   0   3  -4   11.20    3.20
   0   3  -4   12.20    3.00
   0   3  -4    7.20    2.80
   0   3  -4   13.40    4.10
   0   3  -4   12.30    3.20
   0   3  -4   11.40    3.40
   0  -3   4   17.40    3.70
   0  -3   4   11.60    3.30
   0  -3   4   16.40    5.00
   0  -3   4    8.40    3.60
   0  -3   4   17.80    5.30
   0  -3   4   16.90    4.00
  -1   3  -4 1219.98   31.50
  -1   3  -4 1155.28   30.20
  -1   3  -4 1134.49   30.60
  -1   3  -4 1165.28   30.10
  -1   3  -4 1141.19   29.60
  -1   3  -4 1205.88   30.90
   1  -3   4 1228.98   30.90
   1  -3   4 1204.88   31.80
   1  -3   4 1185.68   33.60
   1  -3   4 1184.38   30.30
   1  -3   4 1186.88   31.70
   1  -3   4 1138.49   31.10
  -2   3  -4   47.60    5.50
  -2   3  -4   36.50    5.40
  -2   3  -4   37.40    5.80
  -2   3  -4   42.20    5.30
  -2   3  -4   41.40    5.50
   2  -3   4   40.90    6.30
   2  -3   4   39.80    7.70
   2  -3   4   38.20    5.00
   2  -3   4   42.70    5.30
   2  -3   4   46.10    6.10
   2  -3   4   30.20    5.20
   2  -3   4   35.20    5.90
  -3   3  -4   14.40    4.60
  -3   3  -4    7.20    6.20
  -3   3  -4   12.20    3.90
  -3   3  -4    2.50    5.40
  -3   3  -4    9.80    4.10
   3  -3   4   15.80    5.60
   3  -3   4    6.80    6.30
   3  -3   4   15.10    4.60
   3  -3   4   14.20    4.80
   3  -3   4    9.40    3.90
   3  -3   4    5.00    4.20
  -4   3  -4  116.89    7.00
  -4   3  -4  102.39    8.30
   4  -3   4  109.79   10.40
   4  -3   4  118.59   10.10
   4  -3   4  119.09    8.70
   4  -3   4  111.99   10.00
   4  -3   4  110.89    7.70
  -5   3  -4   50.09    5.10
  -5   3  -4   46.90    8.00
   5  -3   4   35.30    6.40
   5  -3   4   32.70    8.50
   5  -3   4   38.20    8.00
   5  -3   4   33.80    8.10
   5  -3   4   38.20    6.60
   5  -3   4   44.10    6.40
  -6   3  -4   16.80    6.90
  -6   3  -4   24.90    7.70
   6  -3   4   23.50    4.90
   6  -3   4   22.90    7.00
   6  -3   4   25.80    8.30
   6   2  -4  354.06   13.60
   6   2  -4  337.57   14.40
   6   2  -4  333.27   18.90
   6   2  -4  326.67   13.60
   6   2  -4  328.97   21.40
  -6  -2   4  353.96   20.30
  -6  -2   4  356.26   18.30
  -6  -2   4  355.86   24.40
  -6  -2   4  347.87   18.50
   5   2  -4  215.98   10.30
   5   2  -4  190.68   14.70
   5   2  -4  209.98   11.20
   5   2  -4  205.98   13.20
   5   2  -4  215.18    9.60
  -5  -2   4  197.58   14.00
  -5  -2   4  214.08   14.60
  -5  -2   4  188.98   14.70
  -5  -2   4  225.88   13.50
  -5  -2   4  202.08    6.80
   4   2  -4  308.97    9.40
   4   2  -4  320.47   13.00
   4   2  -4  317.47   15.60
   4   2  -4  322.27   17.90
   4   2  -4  293.37   11.10
   4   2  -4  300.37   11.70
  -4  -2   4  309.67   15.60
  -4  -2   4  286.97    8.10
  -4  -2   4  304.37    8.20
  -4  -2   4  295.17   16.80
  -4  -2   4  288.77   14.10
  -4  -2   4  305.47   16.90
   3   2  -4 2204.88   57.09
   3   2  -4 2205.48   52.19
   3   2  -4 2255.97   52.89
   3   2  -4 2222.78   50.49
   3   2  -4 2285.47   56.59
   3   2  -4 2215.28   59.49
  -3  -2   4 2247.48   58.49
  -3  -2   4 2235.38   54.59
  -3  -2   4 2183.18   48.20
  -3  -2   4 2256.27   56.59
  -3  -2   4 2264.37   58.89
  -3  -2   4 2173.88   48.20
   2   2  -4  241.38    6.20
   2   2  -4  244.08   10.40
  -2  -2   4  236.58   11.60
  -2  -2   4  246.58    9.90
  -2  -2   4  244.48   11.50
  -2  -2   4  243.78   10.80
  -2  -2   4  235.88    6.20
  -2  -2   4  241.38    8.20
  -2  -2   4  252.37   12.60
   1   2  -4  592.14   17.30
   1   2  -4  606.54   17.60
   1   2  -4  591.74   16.70
   1   2  -4  600.64   14.80
   1   2  -4  570.74   16.30
   1   2  -4  621.74   21.50
   1   2  -4  580.54   17.60
  -1  -2   4  564.04   19.20
  -1  -2   4  609.04   19.30
  -1  -2   4  570.14   14.50
  -1  -2   4  581.24   16.90
  -1  -2   4  573.84   16.20
  -1  -2   4  593.84   16.40
  -1  -2   4  608.34   18.00
  -1  -2   4  580.54   17.50
  -1  -2   4  585.54   19.40
  -1  -2   4  579.84   19.50
   0  -2   4 6619.44  145.79
  -1   2  -4  588.34   16.70
  -1   2  -4  562.74   18.00
  -1   2  -4  590.64   16.80
  -1   2  -4  590.44   16.80
  -1   2  -4  607.14   17.70
  -1   2  -4  585.44   17.10
   1  -2   4  592.04   17.00
   1  -2   4  590.84   17.40
   1  -2   4  578.24   19.30
   1  -2   4  605.04   17.40
   1  -2   4  573.44   18.80
   1  -2   4  575.34   16.60
   1  -2   4  557.64   17.20
  -2   2  -4  242.58    9.90
  -2   2  -4  260.27    9.30
  -2   2  -4  236.08   10.00
  -2   2  -4  230.98   11.50
   2  -2   4  256.67   11.60
   2  -2   4  242.48   12.50
   2  -2   4  242.58    8.90
   2  -2   4  249.08    9.90
   2  -2   4  245.38   11.10
   2  -2   4  245.48   10.20
   2  -2   4  243.98   10.40
  -3   2  -4 2279.77   52.49
  -3   2  -4 2297.37   55.99
   3  -2   4 2211.38   54.99
   3  -2   4 2338.37   57.89
   3  -2   4 2174.18   52.19
   3  -2   4 2299.27   54.79
   3  -2   4 2258.27   57.59
   3  -2   4 2304.87   55.59
   3  -2   4 2267.07   58.89
  -4   2  -4  317.27   11.00
  -4   2  -4  337.57   14.80
  -4   2  -4  299.87   10.30
   4  -2   4  294.97   10.00
   4  -2   4  301.67   15.10
   4  -2   4  305.17   16.80
   4  -2   4  322.37   15.90
   4  -2   4  308.27   13.90
   4  -2   4  323.17   12.80
  -5   2  -4  210.08    7.20
  -5   2  -4  234.48   13.20
  -5   2  -4  215.18   14.40
  -5   2  -4  193.38    7.20
   5  -2   4  212.08   14.30
   5  -2   4  213.08   12.40
   5  -2   4  224.48   11.70
   5  -2   4  215.08   10.90
   5  -2   4  209.18   14.30
   5  -2   4  199.58   14.00
  -6   2  -4  399.86   24.20
  -6   2  -4  348.87   17.60
   6  -2   4  342.77   19.40
   6  -2   4  393.86   24.10
   6  -2   4  337.47   17.00
   6  -2   4  346.27   15.30
   6   1  -4   32.60    5.70
   6   1  -4   31.30    4.30
   6   1  -4   31.30    9.20
   6   1  -4   19.70    8.10
   6   1  -4   28.70    7.60
  -6  -1   4   34.00    4.40
  -6  -1   4   35.50    6.90
  -6  -1   4   43.90    9.40
  -6  -1   4   39.10    7.70
  -6  -1   4   52.19    8.90
   5   1  -4   63.19   10.40
   5   1  -4   61.79   10.10
   5   1  -4   46.60    4.50
   5   1  -4   52.69    8.40
   5   1  -4   56.49    4.90
   5   1  -4   54.49    6.10
  -5  -1   4   59.69    8.20
  -5  -1   4   51.59    8.70
  -5  -1   4   58.39   10.20
  -5  -1   4   55.49    4.70
  -5  -1   4   55.59    8.20
   4   1  -4  195.18   10.00
   4   1  -4  203.48   12.30
   4   1  -4  193.68    8.00
   4   1  -4  200.08   14.10
   4   1  -4  189.48    8.00
   4   1  -4  188.78    7.60
  -4  -1   4  193.48    7.60
  -4  -1   4  185.68   12.00
  -4  -1   4  195.08   13.30
  -4  -1   4  179.88   10.70
  -4  -1   4  168.38   14.70
   3   1  -4   14.70    5.00
   3   1  -4   13.50    5.80
   3   1  -4    8.90    2.90
   3   1  -4    7.70    3.80
   3   1  -4    7.60    2.30
   3   1  -4   10.80    2.50
   3   1  -4    6.30    2.60
  -3  -1   4    4.00    5.50
  -3  -1   4    8.80    4.70
  -3  -1   4    6.30    4.10
  -3  -1   4    7.20    4.90
  -3  -1   4   11.40    2.30
   2   1  -4   67.09    4.30
   2   1  -4   68.79    4.20
   2   1  -4   71.39    4.50
   2   1  -4   66.39    5.50
   2   1  -4   67.09    3.40
  -2  -1   4   66.09    3.60
  -2  -1   4   64.09    5.60
  -2  -1   4   67.39    4.50
  -2  -1   4   67.29    3.10
  -2  -1   4   72.49    6.30
  -2  -1   4   63.19    4.80
  -2  -1   4   63.59    3.10
  -2  -1   4   68.99    6.20
  -2  -1   4   62.89    5.30
   1   1  -4 2876.71   65.39
   1   1  -4 2861.61   63.19
   1   1  -4 3017.40   64.89
   1   1  -4 2748.12   66.99
   1   1  -4 2778.62   65.69
   1   1  -4 2737.63   62.69
  -1  -1   4 2971.00   66.39
  -1  -1   4 2790.32   63.09
  -1  -1   4 2857.81   69.69
  -1  -1   4 2831.32   65.89
  -1  -1   4 2933.21   67.79
  -1  -1   4 2801.92   65.19
  -1  -1   4 2896.11   63.69
  -1  -1   4 2802.42   62.79
  -1  -1   4 2847.52   67.99
  -1  -1   4 2883.11   64.09
   0   1  -4    4.50    1.80
   0   1  -4    5.80    2.40
   0   1  -4    9.00    3.10
   0   1  -4    3.00    3.20
   0   1  -4    5.70    2.20
   0   1  -4    2.30    2.20
   0   1  -4    1.80    2.80
   0  -1   4    9.30    3.00
   0  -1   4    5.60    2.20
   0  -1   4    6.80    2.80
   0  -1   4    6.20    2.50
   0  -1   4    8.10    2.40
   0  -1   4    6.70    1.80
   0  -1   4    4.90    3.50
   0  -1   4    3.40    2.90
  -1   1  -4 2863.91   65.89
  -1   1  -4 2897.21   68.19
  -1   1  -4 2838.72   65.59
  -1   1  -4 2898.31   66.49
  -1   1  -4 2947.80   65.19
  -1   1  -4 2917.11   66.89
   1  -1   4 2834.62   64.99
   1  -1   4 2886.31   66.59
   1  -1   4 2899.81   68.89
   1  -1   4 2914.91   65.79
   1  -1   4 2950.70   68.59
   1  -1   4 2933.41   67.09
   1  -1   4 2956.60   66.29
  -2   1  -4   59.49    6.10
  -2   1  -4   62.69    7.30
  -2   1  -4   59.99    5.20
  -2   1  -4   66.89    4.70
  -2   1  -4   64.19    5.70
  -2   1  -4   64.39    3.90
   2  -1   4   67.89    4.00
   2  -1   4   67.79    5.70
   2  -1   4   72.39    5.70
   2  -1   4   71.29    6.50
   2  -1   4   75.99    7.40
   2  -1   4   71.99    6.20
   2  -1   4   70.19    5.10
  -3   1  -4   15.70    3.90
  -3   1  -4    6.30    4.50
  -3   1  -4   12.30    4.70
   3  -1   4    9.90    3.80
   3  -1   4   13.70    2.40
   3  -1   4    9.70    5.80
   3  -1   4    7.30    4.60
   3  -1   4   19.00    4.90
   3  -1   4    9.50    5.50
   3  -1   4    9.80    4.80
  -4   1  -4  189.48    5.60
  -4   1  -4  193.28   11.30
  -4   1  -4  172.58   13.70
   4  -1   4  210.48   13.60
   4  -1   4  200.78   11.70
   4  -1   4  192.68   10.00
   4  -1   4  191.58   14.20
  -5   1  -4   56.39    8.40
  -5   1  -4   66.79    8.50
   5  -1   4   40.70    8.80
   5  -1   4   58.79   10.20
   5  -1   4   53.59    8.00
   5  -1   4   59.59    6.30
   5  -1   4   63.79    9.00
   5  -1   4   56.09    6.90
  -6   1  -4   45.60    9.90
  -6   1  -4   33.80    7.50
   6  -1   4   32.00    8.10
   6  -1   4   37.70    6.10
   6  -1   4   34.30   10.80
   6  -1   4   24.40    6.40
   6  -1   4   32.50    8.20
   6   0  -4  161.78   14.40
   6   0  -4  160.88    7.10
   6   0  -4  146.39   12.20
   6   0  -4  149.99    6.70
   6   0  -4  165.68   14.60
   6   0  -4  152.98   10.00
  -6   0   4  177.28   10.40
  -6   0   4  180.68    9.30
  -6   0   4  172.58   12.10
  -6   0   4  187.08   13.90
  -6   0   4  176.68   12.50
  -6   0   4  169.98   14.20
   5   0  -4    1.30    6.00
   5   0  -4    1.10    5.30
   5   0  -4   -2.70    1.90
   5   0  -4   -0.50    3.30
   5   0  -4   -1.20    4.50
   5   0  -4    1.10    2.10
  -5   0   4    5.50    3.20
  -5   0   4    3.30    4.50
  -5   0   4   -1.00    4.10
  -5   0   4    2.00    5.70
  -5   0   4   -1.40    2.90
   4   0  -4  164.08    8.30
   4   0  -4  178.18    6.10
   4   0  -4  181.28   11.40
   4   0  -4  181.78    8.60
   4   0  -4  182.28    6.30
   4   0  -4  189.38   13.30
   4   0  -4  168.58    9.40
   4   0  -4  187.68   12.40
  -4   0   4  171.38    8.30
  -4   0   4  156.38   11.90
  -4   0   4  177.28   11.30
  -4   0   4  169.78   12.30
  -4   0   4  177.58   10.20
   3   0  -4  266.77   10.00
   3   0  -4  275.17   14.10
   3   0  -4  278.07   16.50
   3   0  -4  274.67    7.80
   3   0  -4  280.77    8.10
   3   0  -4  264.27   11.10
  -3   0   4  254.57   10.50
  -3   0   4  287.67   15.90
  -3   0   4  285.77   14.30
  -3   0   4  270.97   13.00
   2   0  -4  498.45   13.30
   2   0  -4  486.75   15.50
   2   0  -4  509.55   14.00
   2   0  -4  517.85   15.70
   2   0  -4  511.25   14.70
  -2   0   4  509.35   17.70
  -2   0   4  492.25   14.00
  -2   0   4  515.95   14.20
  -2   0   4  519.85   16.60
  -2   0   4  515.25   16.40
  -2   0   4  511.85   18.10
  -2   0   4  501.85   15.50
  -2   0   4  515.85   17.00
   1   0  -4  787.62   19.50
   1   0  -4  774.72   19.50
   1   0  -4  736.53   21.70
   1   0  -4  772.82   20.50
   1   0  -4  774.52   19.10
   1   0  -4  728.03   20.60
  -1   0   4  741.23   17.20
  -1   0   4  757.62   17.20
  -1   0   4  784.62   22.60
  -1   0   4  757.82   20.40
  -1   0   4  752.52   19.30
  -1   0   4  779.92   21.40
  -1   0   4  802.12   21.70
   0   0  -4  102.09    6.60
   0   0  -4  115.89    5.70
   0   0  -4  110.89    3.30
   0   0  -4  103.39    6.90
   0   0  -4   99.99    6.20
   0   0  -4  110.69    5.50
   0   0  -4  103.29    3.30
   0   0  -4   99.29    5.20
   0   0  -4  112.19    5.80
   0   0   4  110.99    7.60
   0   0   4  118.49    5.60
   0   0   4  106.99    5.30
   0   0   4  116.09    7.00
   0   0   4  110.19    6.80
   0   0   4  105.59    5.50
   0   0   4  105.69    5.40
  -1   0  -4  778.82   21.70
  -1   0  -4  775.52   19.20
  -1   0  -4  781.02   20.50
  -1   0  -4  747.73   22.90
  -1   0  -4  772.72   19.80
  -1   0  -4  755.62   20.80
   1   0   4  773.22   19.90
   1   0   4  764.02   19.20
   1   0   4  791.82   23.00
   1   0   4  775.62   22.30
   1   0   4  793.22   21.70
   1   0   4  796.82   20.80
   1   0   4  760.82   20.90
  -2   0  -4  509.45   16.30
  -2   0  -4  515.65   16.70
  -2   0  -4  519.25   15.90
  -2   0  -4  509.15   18.10
  -2   0  -4  540.75   15.90
  -2   0  -4  517.05   12.90
  -2   0  -4  524.95   15.50
   2   0   4  517.35   12.90
   2   0   4  532.55   16.00
   2   0   4  507.85   16.30
   2   0   4  522.15   18.00
   2   0   4  513.75   15.80
   2   0   4  518.75   18.20
   2   0   4  523.85   16.80
  -3   0  -4  297.37   11.60
  -3   0  -4  279.67   12.40
  -3   0  -4  271.47   10.70
   3   0   4  288.37   11.30
   3   0   4  290.87   13.60
   3   0   4  268.87   11.10
   3   0   4  267.27   12.20
  -4   0  -4  183.38   12.10
  -4   0  -4  166.58   10.40
  -4   0  -4  175.58    8.40
   4   0   4  177.78   13.10
   4   0   4  171.68   11.30
   4   0   4  168.88    9.40
   4   0   4  186.28    9.60
  -5   0  -4    6.30    4.70
  -5   0  -4   -2.90    3.10
   5   0   4    2.10    3.90
   5   0   4   -4.10    5.30
   5   0   4    6.00    6.30
   5   0   4    0.40    4.80
  -6   0  -4  154.38   11.10
  -6   0  -4  175.88   13.10
   6   0   4  170.18   12.80
   6   0   4  164.88   10.40
   6   0   4  154.48   13.60
   6   0   4  158.48   14.60
   6  -1  -4   31.90    2.70
   6  -1  -4   40.30    8.80
   6  -1  -4   29.20    2.70
   6  -1  -4   34.20    7.10
   6  -1  -4   40.70    9.00
  -6   1   4   40.20    5.90
  -6   1   4   41.10    7.00
  -6   1   4   39.50    8.30
  -6   1   4   46.30    7.20
  -6   1   4   48.10    8.00
   5  -1  -4   48.70    2.50
   5  -1  -4   55.19    6.80
   5  -1  -4   59.19    6.20
   5  -1  -4   50.49    9.00
   5  -1  -4   51.19    2.50
   5  -1  -4   54.09    9.20
   5  -1  -4   54.29    7.90
  -5   1   4   64.59    8.30
  -5   1   4   56.39    7.60
  -5   1   4   72.29   10.20
  -5   1   4   50.29    7.00
  -5   1   4   57.59    6.60
  -5   1   4   53.09    7.80
   4  -1  -4  199.28    9.50
   4  -1  -4  187.78   11.20
   4  -1  -4  192.48    4.80
   4  -1  -4  199.58   10.30
   4  -1  -4  186.78   12.90
   4  -1  -4  199.18    9.60
   4  -1  -4  197.98   11.40
   4  -1  -4  191.08   12.10
  -4   1   4  175.18    9.20
  -4   1   4  176.58   11.10
  -4   1   4  197.88   11.20
  -4   1   4  184.38   12.10
  -4   1   4  179.08   10.20
  -4   1   4  175.78   11.90
   3  -1  -4   13.10    4.10
   3  -1  -4    9.20    3.50
   3  -1  -4    2.90    3.00
   3  -1  -4    7.30    3.60
   3  -1  -4    8.40    4.50
   3  -1  -4   10.20    1.30
  -3   1   4   13.10    3.70
  -3   1   4    9.60    4.60
  -3   1   4    9.70    4.80
  -3   1   4    4.40    4.10
   2  -1  -4   62.49    6.70
   2  -1  -4   57.49    5.70
   2  -1  -4   74.99    5.00
   2  -1  -4   70.39    5.50
   2  -1  -4   69.79    3.30
   2  -1  -4   77.59    5.30
   2  -1  -4   64.89    3.40
   2  -1  -4   73.19    4.80
  -2   1   4   59.79    6.10
  -2   1   4   64.69    5.30
  -2   1   4   63.09    4.40
  -2   1   4   72.09    5.70
  -2   1   4   66.79    4.50
  -2   1   4   61.79    6.10
  -2   1   4   63.69    6.30
  -2   1   4   65.29    5.90
   1  -1  -4 2885.51   63.09
   1  -1  -4 2668.43   65.59
   1  -1  -4 2896.31   64.69
   1  -1  -4 2614.74   65.49
   1  -1  -4 2894.51   64.89
   1  -1  -4 2865.71   62.19
   1  -1  -4 2802.22   64.19
   1  -1  -4 2912.61   63.29
   1  -1  -4 2734.33   64.69
  -1   1   4 2843.12   64.49
  -1   1   4 2974.20   62.29
  -1   1   4 2774.62   64.59
  -1   1   4 2871.51   66.49
  -1   1   4 2886.21   65.29
  -1   1   4 2798.82   62.09
   0  -1  -4    2.70    2.40
   0  -1  -4    3.90    2.10
   0  -1  -4    7.80    3.20
   0  -1  -4    3.90    2.50
   0  -1  -4    4.70    2.60
   0  -1  -4    4.10    2.20
   0  -1  -4    6.80    2.00
   0  -1  -4    2.80    2.60
   0   1   4    2.70    2.20
   0   1   4    5.90    2.90
   0   1   4   10.20    3.00
   0   1   4    3.40    2.40
   0   1   4    7.80    3.30
   0   1   4    1.40    3.10
   0   1   4    2.70    1.60
  -1  -1  -4 2862.91   66.49
  -1  -1  -4 2791.12   67.99
  -1  -1  -4 2798.02   64.69
  -1  -1  -4 2994.00   65.79
  -1  -1  -4 2866.51   64.89
  -1  -1  -4 2874.71   65.49
  -1  -1  -4 2899.71   65.89
  -1  -1  -4 2913.31   63.89
  -1  -1  -4 2702.93   67.69
   1   1   4 2800.32   65.39
   1   1   4 2831.32   64.69
   1   1   4 2880.21   66.29
   1   1   4 2917.51   68.39
   1   1   4 2880.21   63.79
   1   1   4 2917.51   67.19
   1   1   4 2959.60   66.89
  -2  -1  -4   67.59    5.40
  -2  -1  -4   60.49    5.60
  -2  -1  -4   77.19    5.90
  -2  -1  -4   64.49    5.00
   2   1   4   70.49    6.50
   2   1   4   67.99    5.50
   2   1   4   66.89    7.60
   2   1   4   71.99    6.60
   2   1   4   73.59    3.30
   2   1   4   68.39    3.60
   2   1   4   64.29    5.40
  -3  -1  -4    8.00    4.90
  -3  -1  -4    4.60    3.70
  -3  -1  -4   16.30    4.50
   3   1   4    9.60    5.70
   3   1   4    2.40    4.50
   3   1   4    4.10    3.40
   3   1   4    3.30    4.90
   3   1   4    8.00    3.80
  -4  -1  -4  189.88   10.70
  -4  -1  -4  186.08    9.00
  -4  -1  -4  206.28   14.90
   4   1   4  192.68   10.10
   4   1   4  186.38   10.30
   4   1   4  206.78   12.40
   4   1   4  190.58   14.00
  -5  -1  -4   57.99    9.40
  -5  -1  -4   55.79    7.50
   5   1   4   60.49   10.60
   5   1   4   55.09    6.90
   5   1   4   56.09    9.30
   5   1   4   46.20    6.60
   5   1   4   44.00    8.00
  -6  -1  -4   33.90    7.50
  -6  -1  -4   40.70    9.80
   6   1   4   25.30    8.20
   6   1   4   59.09   12.50
   6   1   4   34.40    7.60
   6   1   4   29.60    6.30
   6  -2  -4  338.37   18.10
   6  -2  -4  326.37    8.00
   6  -2  -4  322.97   18.70
  -6   2   4  318.47   15.40
  -6   2   4  326.37   16.20
  -6   2   4  355.66   18.00
  -6   2   4  338.27   17.60
  -6   2   4  346.27   15.50
  -6   2   4  350.26   18.70
   5  -2  -4  222.08   13.30
   5  -2  -4  226.68   13.90
   5  -2  -4  220.58   11.80
  -5   2   4  207.68   12.80
  -5   2   4  226.38   15.00
  -5   2   4  214.58   13.30
  -5   2   4  231.98   12.30
  -5   2   4  212.98   12.90
  -5   2   4  213.18   12.00
   4  -2  -4  314.77   13.30
   4  -2  -4  292.07   14.20
   4  -2  -4  318.57    7.40
   4  -2  -4  319.27   13.70
   4  -2  -4  309.47   14.20
   4  -2  -4  318.07   13.30
   4  -2  -4  308.27    7.30
  -4   2   4  305.57   13.60
  -4   2   4  322.17   14.00
  -4   2   4  318.07   14.90
  -4   2   4  288.97   14.10
   3  -2  -4 2169.48   54.09
   3  -2  -4 2317.77   54.89
   3  -2  -4 2203.68   53.89
   3  -2  -4 2261.37   49.80
   3  -2  -4 2238.98   54.19
   3  -2  -4 2304.17   54.79
   3  -2  -4 2259.27   49.10
  -3   2   4 2170.38   55.59
  -3   2   4 2239.68   54.89
  -3   2   4 2231.48   54.49
  -3   2   4 2262.87   54.29
  -3   2   4 2052.19   59.19
   2  -2  -4  265.97    7.90
   2  -2  -4  255.07    7.80
   2  -2  -4  245.68   10.20
   2  -2  -4  251.37   10.10
   2  -2  -4  227.98   10.00
   2  -2  -4  229.78    9.30
   2  -2  -4  259.47    9.70
   2  -2  -4  245.28   10.20
  -2   2   4  235.68   10.70
  -2   2   4  257.77   10.50
  -2   2   4  249.08   10.10
  -2   2   4  235.58    9.60
  -2   2   4  236.98    9.10
  -2   2   4  253.37    9.50
  -2   2   4  241.08   10.80
   1  -2  -4  553.54   17.20
   1  -2  -4  600.84   15.90
   1  -2  -4  589.64   17.20
   1  -2  -4  571.44   16.50
   1  -2  -4  607.14   15.80
   1  -2  -4  590.14   17.20
   1  -2  -4  592.64   17.10
   1  -2  -4  573.34   15.90
   1  -2  -4  540.15   14.70
  -1   2   4  592.04   17.40
  -1   2   4  562.04   17.00
  -1   2   4  599.14   15.40
  -1   2   4  564.34   16.90
  -1   2   4  567.34   17.90
  -1   2   4  585.74   14.80
  -1   2   4  579.94   17.00
  -1   2   4  571.84   16.00
  -1   2   4  569.74   15.00
  -1  -2  -4  569.74   16.80
  -1  -2  -4  596.44   17.30
  -1  -2  -4  589.54   17.30
  -1  -2  -4  574.74   17.30
  -1  -2  -4  592.04   17.30
   1   2   4  570.44   16.80
   1   2   4  614.24   18.20
   1   2   4  572.34   15.80
   1   2   4  605.24   19.00
   1   2   4  581.64   17.00
   1   2   4  576.14   16.00
   1   2   4  596.04   19.60
  -2  -2  -4  248.88   11.20
  -2  -2  -4  250.37   10.20
  -2  -2  -4  234.28   10.00
   2   2   4  230.68   10.60
   2   2   4  240.08    7.50
   2   2   4  238.28   10.20
   2   2   4  256.27   12.40
   2   2   4  242.28   10.90
   2   2   4  246.68    7.90
   2   2   4  246.68   10.50
  -3  -2  -4 2251.17   54.49
  -3  -2  -4 2245.58   57.29
  -3  -2  -4 2270.37   54.29
   3   2   4 2180.18   48.60
   3   2   4 2283.17   48.60
   3   2   4 2270.07   57.59
   3   2   4 2243.98   54.79
   3   2   4 2251.57   56.99
   3   2   4 2273.27   59.89
   3   2   4 2232.48   55.29
  -4  -2  -4  292.67   12.10
  -4  -2  -4  318.17   16.40
  -4  -2  -4  329.17   13.90
   4   2   4  295.37   13.10
   4   2   4  325.47   13.90
   4   2   4  303.17   17.50
   4   2   4  302.17   15.40
  -5  -2  -4  220.18   11.60
  -5  -2  -4  217.58   14.90
  -5  -2  -4  184.88    9.10
   5   2   4  211.28   12.30
   5   2   4  196.18   11.20
   5   2   4  214.58   16.20
   5   2   4  222.18   15.10
   5   2   4  214.48   14.10
  -6  -2  -4  374.46   23.60
  -6  -2  -4  339.67   15.50
   6   2   4  351.46   16.30
   6   2   4  333.97   18.40
   6   2   4  300.97   20.30
   6  -3  -4   34.90    8.30
   6  -3  -4   15.10    6.40
   6  -3  -4   19.50    1.80
  -6   3   4   21.90    6.00
  -6   3   4   18.40    6.00
  -6   3   4   35.60    7.10
  -6   3   4   27.20    6.70
   5  -3  -4   39.40    7.20
   5  -3  -4   34.60    6.70
   5  -3  -4   35.90    2.90
   5  -3  -4   37.80    2.90
  -5   3   4   34.50    6.10
  -5   3   4   46.30    8.30
  -5   3   4   51.19    7.00
  -5   3   4   49.80    7.90
  -5   3   4   43.80    7.30
   4  -3  -4  116.19    4.90
   4  -3  -4  114.99    4.80
   4  -3  -4  112.79    8.60
   4  -3  -4  104.29    8.60
   4  -3  -4  121.19    8.70
   4  -3  -4  117.69    9.30
  -4   3   4  109.29    8.20
  -4   3   4  132.19   10.40
  -4   3   4  126.39    9.20
  -4   3   4  113.59    9.70
   3  -3  -4    9.50    4.30
   3  -3  -4    7.10    4.60
   3  -3  -4   11.60    2.60
   3  -3  -4   11.60    4.20
   3  -3  -4    8.80    2.60
   3  -3  -4    9.00    4.50
  -3   3   4   13.80    3.70
  -3   3   4    9.80    4.20
  -3   3   4    8.50    4.00
  -3   3   4   13.00    4.30
  -3   3   4   10.90    4.20
  -3   3   4    6.70    4.40
   2  -3  -4   37.60    5.70
   2  -3  -4   37.40    4.00
   2  -3  -4   39.10    5.00
   2  -3  -4   37.00    4.30
   2  -3  -4   49.80    6.20
   2  -3  -4   43.90    4.80
   2  -3  -4   38.80    5.20
  -2   3   4   40.40    4.60
  -2   3   4   40.30    5.70
  -2   3   4   32.50    4.00
  -2   3   4   33.90    3.60
  -2   3   4   42.40    6.20
  -2   3   4   39.60    5.30
  -2   3   4   46.00    5.50
   1  -3  -4 1160.58   29.60
   1  -3  -4 1150.38   30.40
   1  -3  -4 1154.78   30.80
   1  -3  -4 1213.08   29.80
   1  -3  -4 1206.38   31.20
   1  -3  -4 1194.88   31.10
   1  -3  -4 1153.88   29.40
  -1   3   4 1194.48   28.70
  -1   3   4 1191.78   31.30
  -1   3   4 1235.18   32.00
  -1   3   4 1199.58   30.00
   0  -3  -4   10.40    3.30
   0  -3  -4   10.90    3.30
   0  -3  -4   10.90    3.30
   0  -3  -4   14.20    3.10
   0  -3  -4   10.30    2.00
   0  -3  -4   13.50    3.80
   0  -3  -4   13.10    4.00
   0  -3  -4    8.20    3.70
   0   3   4   15.90    4.30
   0   3   4   17.00    3.80
   0   3   4   10.30    3.20
   0   3   4   14.60    3.60
   0   3   4   14.70    3.40
   0   3   4   14.00    1.70
  -1  -3  -4 1167.58   31.10
  -1  -3  -4 1194.68   30.90
  -1  -3  -4 1179.38   31.10
  -1  -3  -4 1218.38   30.10
  -1  -3  -4 1141.49   29.40
  -1  -3  -4 1159.58   32.90
  -1  -3  -4 1207.88   32.00
  -1  -3  -4 1180.58   31.40
   1   3   4 1227.58   33.30
   1   3   4 1241.78   31.60
   1   3   4 1147.09   31.00
   1   3   4 1198.48   31.40
   1   3   4 1174.48   30.90
   1   3   4 1190.58   29.50
   1   3   4 1196.18   30.10
  -2  -3  -4   42.10    5.50
  -2  -3  -4   39.40    5.60
  -2  -3  -4   48.60    4.70
  -2  -3  -4   43.70    4.10
  -2  -3  -4   55.79    7.40
   2   3   4   44.00    4.00
   2   3   4   47.20    6.90
   2   3   4   39.40    5.40
   2   3   4   31.70    5.40
   2   3   4   41.70    5.80
   2   3   4   41.00    5.80
   2   3   4   33.00    4.20
  -3  -3  -4   15.50    4.70
  -3  -3  -4   10.00    4.40
  -3  -3  -4   11.20    6.30
   3   3   4   17.10    5.20
   3   3   4   14.30    2.80
   3   3   4   12.60    2.40
   3   3   4    9.70    5.40
   3   3   4   20.60    7.10
   3   3   4   18.90    6.50
  -4  -3  -4  114.69    8.50
  -4  -3  -4  134.19   11.70
  -4  -3  -4  106.89    7.60
   4   3   4  112.99   10.70
   4   3   4  106.99    8.60
   4   3   4  113.29    9.00
   4   3   4  128.99   12.00
   4   3   4  120.59   10.20
  -5  -3  -4   32.10    7.60
  -5  -3  -4   33.20    6.50
  -5  -3  -4   37.00    5.30
   5   3   4   29.40    8.30
   5   3   4   37.20    9.30
   5   3   4   25.00    5.90
   5   3   4   42.00    8.40
  -6  -3  -4   22.50    7.20
  -6  -3  -4   21.50    6.30
   6   3   4   13.10    6.30
   6   3   4   26.80    8.30
   6   3   4   20.60    7.90
   6   3   4   18.80    6.40
   6  -4  -4  118.99   10.90
   6  -4  -4  115.29    5.30
  -6   4   4  119.29   10.50
  -6   4   4  124.79   10.60
   5  -4  -4    5.20    5.10
   5  -4  -4    9.50    5.40
   5  -4  -4    4.30    5.30
   5  -4  -4    6.90    2.10
   5  -4  -4    4.90    2.40
  -5   4   4   15.00    4.40
  -5   4   4    8.20    4.00
  -5   4   4    4.90    3.50
  -5   4   4    9.30    5.40
   4  -4  -4  121.89    9.80
   4  -4  -4  101.59    9.00
   4  -4  -4  112.69    8.20
   4  -4  -4  109.49    6.00
   4  -4  -4  111.29    5.90
   4  -4  -4  121.89   10.20
  -4   4   4  106.79    7.90
  -4   4   4  121.59    8.10
  -4   4   4  125.59    8.80
  -4   4   4  110.99    9.60
   3  -4  -4  243.98    9.50
   3  -4  -4  243.78   12.80
   3  -4  -4  250.67    9.40
   3  -4  -4  273.27   12.50
   3  -4  -4  271.77   12.80
  -3   4   4  253.87   11.40
  -3   4   4  237.78   12.90
  -3   4   4  240.38   12.30
  -3   4   4  248.28   10.60
  -3   4   4  252.27   10.00
  -3   4   4  235.78   10.60
   2  -4  -4  236.18    9.70
   2  -4  -4  224.38   11.00
   2  -4  -4  235.08   11.70
   2  -4  -4  233.08   11.80
   2  -4  -4  228.98    9.60
  -2   4   4  235.88   10.80
  -2   4   4  232.88    6.70
  -2   4   4  232.88    6.70
  -2   4   4  235.48    9.80
  -2   4   4  237.88    9.90
  -2   4   4  226.58    8.70
  -2   4   4  252.97   12.60
   1  -4  -4  300.17   13.10
   1  -4  -4  287.87   10.90
   1  -4  -4  295.27   10.40
   1  -4  -4  283.37   12.40
   1  -4  -4  299.97   12.60
   1  -4  -4  308.47   11.60
  -1   4   4  312.97   13.40
  -1   4   4  322.47   12.30
  -1   4   4  288.97   10.50
  -1   4   4  320.07   11.10
   0  -4  -4  222.08   10.50
   0  -4  -4  238.88   10.50
   0  -4  -4  232.08   11.00
   0  -4  -4  249.78   12.10
   0  -4  -4  240.78   10.40
   0  -4  -4  225.58   10.40
   0  -4  -4  227.98    9.90
   0   4   4  235.98   10.40
   0   4   4  229.98    9.70
   0   4   4  239.58   11.10
   0   4   4  234.98   12.60
  -1  -4  -4  314.37   14.30
  -1  -4  -4  307.87   12.20
  -1  -4  -4  290.97   12.50
  -1  -4  -4  294.17   12.50
  -1  -4  -4  305.67   11.40
  -1  -4  -4  282.17   11.00
  -1  -4  -4  289.57   13.70
  -1  -4  -4  325.07   12.80
   1   4   4  303.77   12.10
   1   4   4  282.17   10.20
   1   4   4  302.87   12.10
   1   4   4  293.57   13.50
   1   4   4  314.27   13.00
  -2  -4  -4  237.18   10.80
  -2  -4  -4  241.98   13.80
  -2  -4  -4  220.98    9.20
  -2  -4  -4  235.78    9.40
  -2  -4  -4  243.18   11.60
   2   4   4  216.58   10.50
   2   4   4  238.08   13.60
   2   4   4  251.17   12.10
   2   4   4  234.88   10.20
   2   4   4  236.18    9.30
   2   4   4  250.87   12.20
  -3  -4  -4  245.78    9.20
  -3  -4  -4  245.48   15.00
  -3  -4  -4  257.37   12.20
  -3  -4  -4  261.87   10.50
  -3  -4  -4  238.48   11.00
   3   4   4  259.07   13.00
   3   4   4  256.67   13.10
   3   4   4  249.28   12.70
   3   4   4  249.28    9.60
   3   4   4  243.38   12.20
   3   4   4  224.48    9.70
   3   4   4  268.77   15.60
  -4  -4  -4  112.29   10.70
  -4  -4  -4  106.39    7.80
  -4  -4  -4  100.39    8.50
  -4  -4  -4  109.49    5.40
   4   4   4   97.69   10.10
   4   4   4  105.49    9.90
   4   4   4  127.59    9.60
   4   4   4  110.59    5.20
   4   4   4  110.19   11.00
   4   4   4  108.79    4.90
   4   4   4  101.09   11.50
  -5  -4  -4   11.80    5.10
  -5  -4  -4    2.60    1.90
  -5  -4  -4    6.20    5.60
   5   4   4    0.40    3.80
   5   4   4    6.10    5.50
   5   4   4    8.60    5.80
  -6  -4  -4  147.19   15.40
   6   4   4  116.69   13.20
   6   4   4  119.09   11.50
   5  -5  -4   22.70    5.90
   5  -5  -4   20.00    4.00
   5  -5  -4   20.50    3.50
   5  -5  -4   24.20    6.90
   5  -5  -4   16.90    5.40
  -5   5   4   24.20    7.00
  -5   5   4   20.90    5.60
   4  -5  -4   53.29    7.70
   4  -5  -4   42.10    5.10
   4  -5  -4   43.90    8.20
   4  -5  -4   53.39    5.40
  -4   5   4   46.90    5.90
  -4   5   4   49.20    8.40
  -4   5   4   34.60    4.80
   3  -5  -4    6.80    4.70
   3  -5  -4   17.50    5.70
   3  -5  -4   11.30    3.60
   3  -5  -4    5.40    3.70
   3  -5  -4    6.00    3.30
  -3   5   4    4.00    3.20
  -3   5   4   11.40    2.40
  -3   5   4   11.30    5.70
  -3   5   4    3.90    2.80
  -3   5   4   10.60    2.60
  -3   5   4    8.50    4.10
   2  -5  -4   12.90    4.10
   2  -5  -4   14.50    3.70
   2  -5  -4   22.80    5.70
   2  -5  -4   19.90    5.90
   2  -5  -4   15.70    5.40
  -2   5   4   32.80    6.80
  -2   5   4   23.20    4.20
  -2   5   4   15.20    2.60
  -2   5   4   19.40    3.20
  -2   5   4   18.30    3.30
   1  -5  -4  269.57   14.20
   1  -5  -4  262.87   12.20
   1  -5  -4  288.67   10.30
   1  -5  -4  282.27   12.20
   1  -5  -4  296.77   13.60
   1  -5  -4  305.87   12.50
   1  -5  -4  298.97    9.90
  -1   5   4  307.07   13.80
  -1   5   4  286.67   11.00
  -1   5   4  290.57   10.00
  -1   5   4  288.27   11.50
   0  -5  -4   12.90    6.20
   0  -5  -4   14.10    5.00
   0  -5  -4   16.00    4.30
   0  -5  -4   16.30    4.80
   0  -5  -4   20.30    4.70
   0  -5  -4   14.40    4.20
   0  -5  -4    8.30    4.40
   0   5   4    8.10    4.40
   0   5   4   13.30    4.70
   0   5   4   16.10    4.00
   0   5   4   16.40    5.80
  -1  -5  -4  285.07   13.20
  -1  -5  -4  293.37   12.70
  -1  -5  -4  272.17   12.90
  -1  -5  -4  309.37   15.80
  -1  -5  -4  276.07    9.90
   1   5   4  274.87   13.40
   1   5   4  293.17   13.10
   1   5   4  296.27   12.10
   1   5   4  294.67   13.60
  -2  -5  -4   16.40    4.00
  -2  -5  -4    8.10    7.00
  -2  -5  -4   15.70    4.50
  -2  -5  -4   18.30    5.10
  -2  -5  -4   17.40    5.40
   2   5   4   21.00    6.00
   2   5   4   18.50    4.80
   2   5   4   13.40    4.60
   2   5   4   17.70    4.80
   2   5   4   12.00    5.20
  -3  -5  -4    7.40    4.00
  -3  -5  -4    8.30    4.50
  -3  -5  -4    7.80    7.10
  -3  -5  -4    9.80    2.90
   3   5   4    2.20    4.60
   3   5   4   11.80    5.40
   3   5   4   11.00    4.00
   3   5   4   10.40    5.40
   3   5   4    9.90    6.30
  -4  -5  -4   44.80    9.20
  -4  -5  -4   40.90    3.40
  -4  -5  -4   45.20    6.80
  -4  -5  -4   46.10    4.80
  -4  -5  -4   46.60    6.00
   4   5   4   38.70    4.70
   4   5   4   47.50    7.90
   4   5   4   45.80    5.10
   4   5   4   39.30    8.90
   4   5   4   51.69    8.20
   4   5   4   53.89    8.40
  -5  -5  -4   37.20   10.10
  -5  -5  -4   10.50    4.70
   5   5   4   13.50    6.20
   5   5   4   24.20    7.90
   5   5   4   16.10    7.10
   5   5   4   14.10    8.00
   5  -6  -4   69.49   10.60
   5  -6  -4   60.29    8.80
   5  -6  -4   58.89    9.90
  -5   6   4   66.09   10.20
  -5   6   4   72.39   10.30
   4  -6  -4  121.39    8.50
   4  -6  -4  112.69    7.70
   4  -6  -4  131.59   11.50
  -4   6   4  114.29   10.30
   3  -6  -4  547.35   21.90
   3  -6  -4  574.04   19.00
   3  -6  -4  545.35   22.90
  -3   6   4  537.85   22.50
   2  -6  -4   69.39    9.60
   2  -6  -4   50.99    7.80
   2  -6  -4   74.29    6.90
   2  -6  -4   67.99    8.50
   1  -6  -4  152.18    9.90
   1  -6  -4  165.08    9.90
   1  -6  -4  160.18    9.70
   1  -6  -4  142.29    5.60
   1  -6  -4  129.99    9.00
   1  -6  -4  149.49   11.80
   1  -6  -4  170.38    6.20
  -1   6   4  148.49   11.10
   0  -6  -4 1017.70   27.80
   0  -6  -4 1006.00   30.80
   0  -6  -4 1039.80   30.20
   0  -6  -4 1021.60   28.70
   0  -6  -4 1069.69   31.20
   0  -6  -4 1082.69   34.30
   0  -6  -4 1025.20   30.60
   0   6   4 1098.39   32.30
   0   6   4 1041.00   28.80
   0   6   4 1050.49   27.30
   0   6   4 1066.79   30.90
  -1  -6  -4  156.88    7.00
  -1  -6  -4  143.09   10.00
  -1  -6  -4  157.28   12.90
  -1  -6  -4  158.48    9.10
   1   6   4  145.29   10.20
   1   6   4  146.59   10.50
   1   6   4  154.98   10.30
   1   6   4  141.89    8.60
  -2  -6  -4   73.69    6.60
  -2  -6  -4   83.99    7.00
  -2  -6  -4   69.69    7.90
  -2  -6  -4   75.59   10.20
  -2  -6  -4   68.99    8.60
   2   6   4   83.39    8.30
   2   6   4   57.99    8.60
   2   6   4   68.69    7.30
   2   6   4   66.29    8.70
  -3  -6  -4  512.45   15.90
  -3  -6  -4  572.54   20.90
  -3  -6  -4  566.14   21.00
  -3  -6  -4  564.44   25.40
   3   6   4  559.04   24.20
   3   6   4  516.25   21.70
   3   6   4  527.45   21.10
   3   6   4  570.24   19.10
   3   6   4  556.94   20.80
  -4  -6  -4  110.19    8.00
  -4  -6  -4  139.09   11.60
   4   6   4  112.79   11.00
   4   6   4  107.29    7.90
   4   6   4  117.09   11.00
   4   6   4  137.09   11.10
   4   6   4   99.99   11.90
  -5  -6  -4   62.09   13.30
  -5  -6  -4   51.39    6.60
   5   6   4   54.89    9.80
   5   6   4   64.39   11.90
   5   6   4   66.19    9.80
   5   6   4   77.99   10.10
   4  -7  -4   13.40    6.20
   4  -7  -4    4.40    6.00
  -4   7   4   14.50    5.50
  -4   7   4    7.70    5.20
   3  -7  -4   -3.20    5.50
   3  -7  -4    5.00    4.20
   3  -7  -4   13.00    5.40
  -3   7   4    3.00    4.10
   2  -7  -4   10.00    5.10
   2  -7  -4    3.20    5.00
   2  -7  -4    8.90    6.70
   2  -7  -4    4.80    4.10
  -2   7   4    7.20    6.30
   1  -7  -4   68.79    7.60
   1  -7  -4   73.39   10.20
   1  -7  -4   62.99    8.60
   1  -7  -4   50.89    9.40
   1  -7  -4   58.29    7.70
  -1   7   4   63.49    6.40
  -1   7   4   66.49    9.90
   0  -7  -4   13.50    5.30
   0  -7  -4    6.30    6.90
   0  -7  -4   14.50    5.80
   0  -7  -4   13.10    4.80
   0  -7  -4    2.10    3.00
   0  -7  -4    3.70    4.00
   0   7   4    5.80    6.20
   0   7   4    9.50    2.90
   0   7   4   10.00    3.50
   0   7   4    4.10    4.20
  -1  -7  -4   47.50    9.80
  -1  -7  -4   65.09    7.80
  -1  -7  -4   69.19    8.70
  -1  -7  -4   49.10    6.30
   1   7   4   54.89    8.60
   1   7   4   57.29    8.60
  -2  -7  -4    1.70    3.30
  -2  -7  -4   -0.30    3.50
  -2  -7  -4    9.40    5.10
  -2  -7  -4    4.20    5.60
  -2  -7  -4    1.60    4.30
   2   7   4    8.40    5.90
   2   7   4    2.80    5.50
   2   7   4    5.10    5.30
   2   7   4    7.00    4.30
  -3  -7  -4   14.60    5.30
  -3  -7  -4    0.10    3.20
  -3  -7  -4    4.20    5.00
   3   7   4   -3.50    5.00
   3   7   4   -2.40    4.10
  -4  -7  -4   15.60    5.00
  -4  -7  -4    4.60    9.30
  -4  -7  -4   30.90    7.50
   4   7   4   10.70    6.30
   4   7   4   16.80    5.70
   4   7   4   20.80    5.50
   4   7   4   15.80    8.00
   3  -8  -4  111.99    9.70
   3  -8  -4  133.19   13.70
   3  -8  -4  141.39   12.00
  -3   8   4  114.19   12.60
   2  -8  -4   77.49   13.20
   2  -8  -4   43.80    7.20
   2  -8  -4   67.59    9.90
  -2   8   4   65.19   10.50
   1  -8  -4   74.79    9.40
   1  -8  -4   69.09   11.40
   1  -8  -4   62.89    8.40
  -1   8   4   71.49   10.80
   0  -8  -4  148.89   11.50
   0  -8  -4  135.89   12.80
   0  -8  -4  160.98   11.40
   0   8   4  151.88   12.80
  -1  -8  -4   71.09    9.40
  -1  -8  -4   62.79    8.20
   1   8   4   66.79    9.70
  -2  -8  -4   68.59    7.30
  -2  -8  -4   57.89    8.90
  -2  -8  -4   45.90   11.60
   2   8   4   64.89   11.50
   2   8   4   43.40    7.60
   2   8   4   45.30    6.60
  -3  -8  -4  117.89   11.00
  -3  -8  -4  113.49    8.90
  -3  -8  -4  111.89   15.70
   3   8   4  134.39   12.30
   3   8   4  122.69   11.50
   3   8   4  110.79   10.60
   3   8   4  119.49    9.90
   2   8  -5  141.69   12.40
   2   8  -5  158.68   12.70
  -2  -8   5  135.19   16.30
  -2  -8   5  162.28   11.80
  -2  -8   5  186.08   12.30
  -2  -8   5  144.19   14.20
   1   8  -5  189.58   13.50
   1   8  -5  169.98   12.40
  -1  -8   5  214.28   12.30
  -1  -8   5  186.58   12.50
  -1  -8   5  165.18   11.20
  -1  -8   5  137.79   16.80
   0   8  -5    6.60    4.80
   0   8  -5    8.70    6.00
   0   8  -5    5.70    4.40
   0  -8   5   -0.60    4.40
   0  -8   5  -10.80    6.80
  -1   8  -5  166.18   10.60
  -1   8  -5  181.28   12.80
   1  -8   5  181.38   15.60
   1  -8   5  193.98   15.50
  -2   8  -5  168.58   11.50
  -2   8  -5  115.29   12.00
   2  -8   5  137.79   13.10
   2  -8   5  155.18   11.70
   4   7  -5    8.70    5.20
   4   7  -5   25.00    6.60
  -4  -7   5   15.40    5.50
  -4  -7   5   21.10   10.10
   3   7  -5    4.20    5.20
   3   7  -5   13.60    5.70
  -3  -7   5  -10.70    8.00
  -3  -7   5   11.70    4.90
  -3  -7   5   -9.10    6.00
   2   7  -5   -0.30    4.00
   2   7  -5    0.60    5.30
  -2  -7   5    1.60    4.70
  -2  -7   5    5.70    8.70
  -2  -7   5   -7.30    5.50
  -2  -7   5   -1.80    3.90
   1   7  -5    5.50    2.90
   1   7  -5    4.00    5.20
   1   7  -5   -0.40    4.10
  -1  -7   5    2.20    4.30
  -1  -7   5   14.00    4.60
  -1  -7   5   -4.70    7.80
  -1  -7   5   -2.90    5.90
  -1  -7   5    8.30    4.90
   0   7  -5   11.90    4.80
   0   7  -5    0.20    3.40
   0   7  -5   -1.60    5.30
   0  -7   5   -4.40    4.60
   0  -7   5   -8.30    4.20
   0  -7   5   -6.70    7.20
   0  -7   5    1.50    5.90
   0  -7   5   -0.60    4.00
  -1   7  -5   17.90    5.60
  -1   7  -5    2.80    5.20
  -1   7  -5    5.30    3.80
   1  -7   5    0.60    3.30
   1  -7   5    2.00    5.80
   1  -7   5  -10.20    4.20
   1  -7   5   -0.10    6.70
   1  -7   5   -8.40    3.20
  -2   7  -5   -2.60    5.00
  -2   7  -5    7.80    5.10
   2  -7   5   -3.10    3.80
   2  -7   5    6.00    6.50
  -3   7  -5    1.20    5.20
   3  -7   5    6.30    6.40
   3  -7   5   -5.30    5.70
   3  -7   5    0.50    3.50
  -4   7  -5   -2.90    5.70
  -4   7  -5   25.10    6.80
   4  -7   5   16.00    7.00
   4  -7   5    6.50    7.10
   4   6  -5   15.60    5.90
  -4  -6   5    0.70    6.50
  -4  -6   5    5.00    4.80
   3   6  -5   21.80    6.60
   3   6  -5   20.70    6.10
  -3  -6   5   30.50    8.30
  -3  -6   5   23.80    7.00
  -3  -6   5   33.20    7.30
  -3  -6   5   30.90    5.30
  -3  -6   5   29.40   10.30
   2   6  -5  405.26   18.20
   2   6  -5  347.07   19.00
  -2  -6   5  389.66   17.30
  -2  -6   5  418.46   22.00
  -2  -6   5  369.76   18.20
  -2  -6   5  403.86   18.70
   1   6  -5  225.78   13.30
   1   6  -5  218.38    8.60
   1   6  -5  223.08   13.20
  -1  -6   5  213.38   15.90
  -1  -6   5  240.48   12.30
  -1  -6   5  224.48   13.90
  -1  -6   5  225.38   11.60
  -1  -6   5  227.88   12.50
   0   6  -5    5.80    3.40
   0   6  -5    1.00    4.90
   0   6  -5    2.30    4.70
   0  -6   5   12.40    4.50
   0  -6   5    1.40    5.40
   0  -6   5    0.20    4.30
   0  -6   5    3.30    4.40
   0  -6   5  -12.10    6.80
  -1   6  -5  241.58   11.60
  -1   6  -5  234.78   13.30
  -1   6  -5  221.58   12.90
   1  -6   5  221.08   12.70
   1  -6   5  231.58   12.10
   1  -6   5  243.28   16.80
   1  -6   5  219.68   11.40
   1  -6   5  237.88   12.70
   1  -6   5  234.98   10.70
   1  -6   5  236.78   14.60
  -2   6  -5  396.76   17.40
  -2   6  -5  398.56   12.90
  -2   6  -5  397.46   17.00
  -2   6  -5  387.16   12.20
  -2   6  -5  396.66   16.50
   2  -6   5  414.76   19.60
   2  -6   5  393.36   12.90
   2  -6   5  358.96   13.80
   2  -6   5  363.36   14.00
   2  -6   5  395.06   16.80
   2  -6   5  366.36   17.50
   2  -6   5  394.96   19.90
   2  -6   5  357.46   12.50
  -3   6  -5    9.30    5.70
   3  -6   5    8.10    3.60
   3  -6   5   15.10    3.30
   3  -6   5   23.10    7.80
   3  -6   5   22.00    5.20
   3  -6   5   21.90    7.10
  -4   6  -5    8.60    5.50
  -4   6  -5    4.70    4.80
   4  -6   5    4.90    4.00
   4  -6   5    0.50    3.10
   4  -6   5   -2.20    5.50
   4  -6   5    2.00    3.40
   4  -6   5    6.60    6.10
   5   5  -5    1.60    4.20
   5   5  -5    6.60    6.60
   5   5  -5   -1.20    4.40
   5   5  -5    8.80    7.40
  -5  -5   5    2.80    7.20
  -5  -5   5    9.30    5.60
  -5  -5   5   18.20    5.70
  -5  -5   5   -5.20    7.80
   4   5  -5   23.90    7.30
  -4  -5   5   17.00    8.20
  -4  -5   5   31.20    9.30
  -4  -5   5   23.90    7.10
  -4  -5   5   32.00    7.10
   3   5  -5    7.90    4.20
   3   5  -5    6.10    4.80
  -3  -5   5    2.20    5.70
  -3  -5   5    8.90    5.10
  -3  -5   5   10.70    5.10
  -3  -5   5    2.50    7.70
   2   5  -5    7.00    4.10
   2   5  -5    0.80    4.10
   2   5  -5    2.20    3.70
  -2  -5   5    2.30    4.20
  -2  -5   5    2.90    3.50
  -2  -5   5   10.00    7.90
  -2  -5   5   -0.30    4.30
  -2  -5   5   12.90    6.50
   1   5  -5   -5.30    4.20
   1   5  -5    1.60    2.50
  -1  -5   5   17.60    4.90
  -1  -5   5    6.30    5.30
  -1  -5   5    3.70    4.90
  -1  -5   5    5.10    4.80
  -1  -5   5   11.70    9.30
   0   5  -5    0.30    3.40
   0   5  -5   -1.60    4.60
   0   5  -5   -2.30    4.90
   0  -5   5   -5.30    4.60
   0  -5   5    4.10    4.80
   0  -5   5    2.00    3.20
   0  -5   5    2.10    3.80
   0  -5   5   -0.50    3.50
   0  -5   5   -2.30    5.70
   0  -5   5   -3.50    4.80
  -1   5  -5   -1.60    4.50
  -1   5  -5    7.90    2.70
  -1   5  -5    8.90    5.20
  -1   5  -5    6.40    4.00
  -1   5  -5   10.40    2.80
   1  -5   5    5.60    7.30
   1  -5   5    2.50    4.30
   1  -5   5   -2.10    5.00
   1  -5   5   -0.50    3.90
   1  -5   5    4.40    3.80
   1  -5   5    2.90    5.50
   1  -5   5    3.20    3.20
  -2   5  -5    1.30    4.50
  -2   5  -5   10.30    2.70
  -2   5  -5    0.00    4.40
  -2   5  -5    4.10    3.20
   2  -5   5   -1.20    3.10
   2  -5   5   -5.60    3.70
   2  -5   5    4.70    3.70
   2  -5   5    1.70    4.70
   2  -5   5   11.40    4.70
  -3   5  -5    7.90    5.30
  -3   5  -5    1.30    6.80
  -3   5  -5   11.80    5.20
  -3   5  -5   11.40    4.70
   3  -5   5    3.20    3.90
   3  -5   5    9.00    6.00
   3  -5   5    5.00    3.60
   3  -5   5    7.50    6.50
   3  -5   5   13.80    5.00
   3  -5   5    2.00    4.40
  -4   5  -5   21.20    5.70
  -4   5  -5   29.40    6.10
   4  -5   5   24.20    6.20
   4  -5   5   24.90    7.90
   4  -5   5   36.50    8.60
  -5   5  -5    3.40    4.10
  -5   5  -5    5.20    5.90
   5  -5   5    6.40    4.10
   5  -5   5    3.80    5.80
   5  -5   5    9.70    7.40
   5  -5   5    1.80    4.70
   5  -5   5    6.50    4.20
   6   4  -5   10.20    5.60
   6   4  -5    5.10    6.30
   6   4  -5    6.20    5.10
   6   4  -5   -0.90    4.50
  -6  -4   5   16.20    4.80
  -6  -4   5    4.70    3.90
  -6  -4   5   18.80    9.40
   5   4  -5  423.86   20.70
   5   4  -5  457.75   24.10
   5   4  -5  424.36   18.00
   5   4  -5  445.06   20.90
  -5  -4   5  424.96   21.10
  -5  -4   5  435.46   22.70
  -5  -4   5  413.56   20.30
   4   4  -5 1160.18   40.60
   4   4  -5 1130.99   36.10
   4   4  -5 1086.49   44.40
   4   4  -5 1210.78   34.70
  -4  -4   5 1183.08   41.30
  -4  -4   5 1189.38   40.30
  -4  -4   5 1122.79   42.50
  -4  -4   5 1216.68   36.20
   3   4  -5  114.79    9.10
  -3  -4   5  107.09   10.50
  -3  -4   5  109.89   11.90
  -3  -4   5  119.19    9.90
  -3  -4   5  118.79   10.20
   2   4  -5  392.06   16.10
   2   4  -5  385.96   15.00
   2   4  -5  418.96   16.20
  -2  -4   5  426.86   17.20
  -2  -4   5  370.76   17.70
  -2  -4   5  424.96   16.60
  -2  -4   5  410.86   14.50
  -2  -4   5  414.96   20.00
   1   4  -5 1266.27   34.80
   1   4  -5 1258.97   33.50
   1   4  -5 1254.47   34.80
   1   4  -5 1210.38   29.50
   1   4  -5 1229.88   29.80
  -1  -4   5 1257.77   38.20
  -1  -4   5 1290.57   34.60
  -1  -4   5 1274.67   34.40
  -1  -4   5 1259.87   36.30
  -1  -4   5 1148.69   35.20
   0   4  -5   -0.80    3.20
   0   4  -5   -1.80    2.50
   0   4  -5   -1.10    3.70
   0   4  -5    3.10    3.70
   0   4  -5   -4.00    3.00
   0   4  -5    1.80    4.30
   0  -4   5    5.60    5.00
   0  -4   5    0.70    4.10
   0  -4   5   -1.60    3.30
   0  -4   5   -3.80    3.80
   0  -4   5   -2.80    3.80
   0  -4   5    0.60    5.30
   0  -4   5   -0.20    4.40
  -1   4  -5 1212.78   32.10
  -1   4  -5 1156.78   33.10
  -1   4  -5 1262.87   33.00
  -1   4  -5 1292.87   34.40
  -1   4  -5 1258.27   34.80
   1  -4   5 1232.08   33.80
   1  -4   5 1295.17   35.30
   1  -4   5 1275.27   35.00
   1  -4   5 1168.78   42.10
   1  -4   5 1273.77   33.10
   1  -4   5 1285.17   38.30
  -2   4  -5  420.46   16.00
  -2   4  -5  400.96   16.10
  -2   4  -5  394.96   15.10
  -2   4  -5  401.96   15.50
  -2   4  -5  403.26   14.20
   2  -4   5  402.46   16.40
   2  -4   5  395.06   17.10
   2  -4   5  407.86   19.30
   2  -4   5  394.66   16.10
   2  -4   5  411.26   14.90
   2  -4   5  401.46   15.50
  -3   4  -5  111.39    8.40
  -3   4  -5  109.39    8.20
  -3   4  -5  106.39    9.10
   3  -4   5  108.19   11.20
   3  -4   5   96.29    7.80
   3  -4   5  131.79    8.20
   3  -4   5  101.79    8.90
   3  -4   5  106.49    9.20
   3  -4   5  100.69    9.10
  -4   4  -5 1189.38   32.80
  -4   4  -5 1184.28   36.00
   4  -4   5 1109.49   45.20
   4  -4   5 1231.58   39.80
   4  -4   5 1188.78   33.40
   4  -4   5 1223.98   39.00
   4  -4   5 1228.58   36.00
   5  -4   5  440.36   19.80
   5  -4   5  433.36   17.50
   5  -4   5  405.36   17.50
   5  -4   5  451.95   22.70
   5  -4   5  439.36   22.30
  -6   4  -5    6.60    5.60
  -6   4  -5    3.40    4.10
   6  -4   5   22.60    7.50
   6  -4   5    6.10    7.30
   6  -4   5    0.40    5.80
   6  -4   5    0.80    4.40
   6  -4   5    6.20    3.90
   6   3  -5   19.50    8.60
   6   3  -5   32.80   10.70
   6   3  -5   18.70    7.60
   6   3  -5   28.80    6.20
  -6  -3   5   31.00    7.40
  -6  -3   5   27.80    7.70
  -6  -3   5   23.60    7.70
  -6  -3   5   27.70    8.90
   5   3  -5   -1.40    3.70
   5   3  -5    4.70    7.00
   5   3  -5    0.50    5.70
   5   3  -5    6.00    4.30
   5   3  -5    6.50    4.80
  -5  -3   5    7.30    5.20
  -5  -3   5   -7.40    5.90
  -5  -3   5   13.40    6.00
  -5  -3   5    2.90    7.20
   4   3  -5   66.89   11.00
   4   3  -5   67.29    7.20
   4   3  -5   58.69    6.60
   4   3  -5   58.29    3.60
   4   3  -5   59.49    6.10
   4   3  -5   49.60    8.20
  -4  -3   5   57.39    8.50
  -4  -3   5   57.69    8.40
  -4  -3   5   63.79   10.80
  -4  -3   5   57.29    8.90
   3   3  -5   27.30    6.20
   3   3  -5   21.40    3.40
  -3  -3   5   17.60    3.30
  -3  -3   5   30.20   10.00
  -3  -3   5   18.10    5.30
  -3  -3   5   28.40    6.50
  -3  -3   5   34.50    6.30
   2   3  -5    4.10    4.40
   2   3  -5    4.50    1.00
   2   3  -5   -0.10    3.50
   2   3  -5    7.20    3.30
  -2  -3   5    4.50    3.00
  -2  -3   5   -0.40    6.60
  -2  -3   5    1.40    4.60
  -2  -3   5    2.40    4.60
  -2  -3   5    7.10    5.30
   1   3  -5    6.30    2.50
   1   3  -5   11.20    3.60
   1   3  -5    2.70    4.10
   1   3  -5    5.60    3.30
  -1  -3   5   10.20    6.40
  -1  -3   5    6.90    3.20
  -1  -3   5   11.00    3.70
  -1  -3   5    3.80    1.90
  -1  -3   5   -3.50    3.90
  -1  -3   5    6.50    3.60
   0   3  -5   -2.10    3.60
   0   3  -5    1.30    2.80
   0   3  -5   -0.20    2.40
   0   3  -5    1.30    2.80
   0   3  -5   -2.90    2.60
   0   3  -5   -1.00    3.60
   0  -3   5    1.50    3.60
   0  -3   5    7.30    4.30
   0  -3   5    4.30    6.10
   0  -3   5    2.00    4.30
   0  -3   5    1.60    2.30
  -1   3  -5    9.10    4.40
  -1   3  -5    2.30    3.20
  -1   3  -5   13.00    4.00
  -1   3  -5   11.50    4.10
  -1   3  -5    4.00    2.90
  -1   3  -5    5.20    3.60
   1  -3   5    4.00    3.60
   1  -3   5    3.40    4.00
   1  -3   5   12.90    6.90
   1  -3   5    7.10    4.90
   1  -3   5    4.20    4.00
   1  -3   5    7.20    3.50
  -2   3  -5    3.50    4.50
  -2   3  -5    7.50    4.50
  -2   3  -5    5.90    4.80
  -2   3  -5   -0.90    4.30
  -2   3  -5   -0.10    4.30
   2  -3   5   -0.20    4.50
   2  -3   5    1.00    3.30
   2  -3   5    1.20    3.50
   2  -3   5    5.00    6.80
   2  -3   5   -1.20    3.70
   2  -3   5    1.50    4.20
  -3   3  -5   27.70    7.30
  -3   3  -5   19.80    5.00
  -3   3  -5   16.10    4.70
   3  -3   5   22.40    5.10
   3  -3   5   25.60    5.50
   3  -3   5   27.90    5.30
   3  -3   5   25.80    8.20
   3  -3   5   30.70    6.90
   3  -3   5   20.70    6.50
  -4   3  -5   62.19    6.20
  -4   3  -5   70.19    8.70
  -4   3  -5   61.89    5.80
   4  -3   5   67.99    6.80
   4  -3   5   69.79    9.20
   4  -3   5   58.99    7.30
   4  -3   5   67.39   10.40
   4  -3   5   56.29    6.30
   4  -3   5   62.49    9.30
  -5   3  -5    6.50    2.90
  -5   3  -5    4.90    4.10
  -5   3  -5    4.90    4.30
   5  -3   5    1.90    4.00
   5  -3   5    9.40    4.10
   5  -3   5    7.60    6.90
   5  -3   5    2.70    4.30
   5  -3   5   -4.30    4.50
  -6   3  -5   35.70    7.90
  -6   3  -5   25.00    7.80
   6  -3   5   34.20    8.80
   6  -3   5   26.20    5.10
   6  -3   5   33.00    7.00
   6  -3   5   23.10    7.40
   6  -3   5   33.40    8.60
   6   2  -5   17.50    7.10
   6   2  -5   14.10    4.90
   6   2  -5   15.70    3.90
  -6  -2   5   19.90    8.60
  -6  -2   5   34.60    7.80
  -6  -2   5   14.30    6.10
  -6  -2   5   11.90    6.20
   5   2  -5   84.49    8.30
   5   2  -5   80.89    6.50
   5   2  -5   86.19    6.60
   5   2  -5   97.19   12.10
   5   2  -5   82.39   10.00
  -5  -2   5   86.59    9.10
  -5  -2   5   83.39    3.70
  -5  -2   5   88.89   10.30
  -5  -2   5   85.19   12.50
  -5  -2   5  102.09   11.40
   4   2  -5   54.79    8.30
   4   2  -5   56.19    5.20
   4   2  -5   43.90    5.30
   4   2  -5   50.69    6.60
   4   2  -5   47.80    9.40
   4   2  -5   55.49    4.30
  -4  -2   5   46.50    7.00
  -4  -2   5   51.19    8.70
  -4  -2   5   41.50    2.70
  -4  -2   5   49.30    8.70
  -4  -2   5   59.79    2.70
  -4  -2   5   60.19    8.70
   3   2  -5  100.89    6.40
   3   2  -5  118.59    6.10
   3   2  -5   99.69    7.80
   3   2  -5  100.29    3.80
  -3  -2   5   97.89    8.10
  -3  -2   5   86.79   10.40
  -3  -2   5   98.89    3.80
  -3  -2   5   81.79    9.60
  -3  -2   5  109.59    9.70
   2   2  -5 1619.14   36.30
  -2  -2   5 1577.04   36.30
  -2  -2   5 1654.93   44.10
  -2  -2   5 1560.54   46.90
  -2  -2   5 1635.14   39.30
  -2  -2   5 1612.14   38.10
   1   2  -5  246.78   10.60
   1   2  -5  263.67    8.60
   1   2  -5  263.07   10.90
   1   2  -5  266.27    9.10
   1   2  -5  248.58   10.50
  -1  -2   5  280.07   13.60
  -1  -2   5  270.17   11.70
  -1  -2   5  268.47    9.70
  -1  -2   5  248.98   11.30
  -1  -2   5  254.37   12.40
  -1  -2   5  253.17    8.20
  -1  -2   5  257.97    9.20
   0   2  -5    0.80    2.40
   0   2  -5   -2.90    3.10
   0   2  -5    4.00    2.50
   0   2  -5    3.70    2.50
   0   2  -5   -1.70    2.00
   0   2  -5    3.90    2.50
   0   2  -5   -3.70    2.80
   0  -2   5    0.60    3.10
   0  -2   5   -0.60    4.10
   0  -2   5    3.50    5.50
   0  -2   5   -0.60    3.80
   0  -2   5    3.40    2.60
   0  -2   5   11.80    3.30
   0  -2   5    3.10    5.20
  -1   2  -5  240.58   12.70
  -1   2  -5  256.77   11.60
  -1   2  -5  268.17   10.10
  -1   2  -5  273.37   10.40
  -1   2  -5  264.67   10.80
  -1   2  -5  262.87   11.00
   1  -2   5  253.67    9.80
   1  -2   5  253.27   11.20
   1  -2   5  257.87   10.90
   1  -2   5  261.17   12.70
   1  -2   5  277.77   11.90
   1  -2   5  256.17   10.40
   1  -2   5  261.57   13.20
  -2   2  -5 1661.03   40.30
  -2   2  -5 1692.63   42.40
  -2   2  -5 1703.43   42.10
   2  -2   5 1679.03   44.50
   2  -2   5 1654.03   42.50
   2  -2   5 1635.74   45.50
   2  -2   5 1717.03   43.10
   2  -2   5 1651.93   41.90
   2  -2   5 1641.04   42.50
  -3   2  -5  101.29    7.50
  -3   2  -5   98.79    7.60
  -3   2  -5  101.09    6.00
   3  -2   5  101.19    6.00
   3  -2   5   96.19    8.90
   3  -2   5   88.19    9.00
   3  -2   5  103.39    8.00
   3  -2   5  105.99    7.90
  -4   2  -5   50.39    5.60
  -4   2  -5   61.09    7.30
  -4   2  -5   50.49    4.40
  -4   2  -5   50.39    7.10
   4  -2   5   55.59    6.80
   4  -2   5   55.39    8.60
   4  -2   5   51.79    7.10
   4  -2   5   53.79    9.70
   4  -2   5   49.20    7.50
   4  -2   5   55.99    6.30
   4  -2   5   58.19    4.40
  -5   2  -5   90.19    8.40
  -5   2  -5   85.19    4.10
  -5   2  -5   97.79   11.80
   5  -2   5   95.89   11.00
   5  -2   5   94.49    9.30
   5  -2   5   87.79    7.50
   5  -2   5   89.59   10.30
   5  -2   5   82.09   11.60
   5  -2   5   95.89   11.90
  -6   2  -5   20.70    6.80
  -6   2  -5    3.10    6.00
   6  -2   5   13.00    6.30
   6  -2   5   15.60    7.70
   6  -2   5   16.00    6.40
   6  -2   5    7.60    3.90
   6  -2   5   22.60    8.30
   6   1  -5   33.20    4.40
   6   1  -5   27.00    7.30
   6   1  -5   37.90    4.60
   6   1  -5   34.70    6.00
   6   1  -5   26.70    8.10
  -6  -1   5   26.30    7.00
  -6  -1   5   26.20    3.80
  -6  -1   5   40.40    8.30
  -6  -1   5   42.50    7.50
   5   1  -5    4.90    2.70
   5   1  -5    7.90    3.20
   5   1  -5   11.20    5.10
   5   1  -5    7.40    5.50
   5   1  -5    5.50    3.50
   5   1  -5    7.20    4.30
  -5  -1   5    6.70    5.40
  -5  -1   5    7.60    5.20
  -5  -1   5    9.80    4.40
  -5  -1   5    4.00    6.30
  -5  -1   5   12.10    3.00
   4   1  -5  106.19    5.80
   4   1  -5   95.89   10.00
   4   1  -5  107.69    8.90
   4   1  -5   90.79    6.00
   4   1  -5  109.39    6.20
   4   1  -5  105.79    8.20
  -4  -1   5   90.89    8.40
  -4  -1   5   92.89    9.20
  -4  -1   5   97.99    8.60
  -4  -1   5   92.59   10.70
   3   1  -5   40.60    4.00
   3   1  -5   45.60    4.00
   3   1  -5   48.30    4.50
   3   1  -5   48.90    5.30
  -3  -1   5   49.50    6.60
  -3  -1   5   43.50    3.90
  -3  -1   5   52.39    7.70
  -3  -1   5   55.19    8.00
  -3  -1   5   50.19    5.90
   2   1  -5   12.80    2.50
   2   1  -5    4.70    2.30
   2   1  -5    8.80    3.80
   2   1  -5    8.00    2.90
   2   1  -5    6.00    2.80
  -2  -1   5    7.30    4.70
  -2  -1   5   10.00    2.50
  -2  -1   5    5.70    5.00
  -2  -1   5    8.40    2.00
  -2  -1   5   11.10    4.70
  -2  -1   5   10.00    2.70
   1   1  -5    8.60    1.60
   1   1  -5    7.70    3.70
   1   1  -5    5.60    3.40
   1   1  -5   10.30    2.90
   1   1  -5   11.10    2.90
   1   1  -5   13.70    3.40
   1   1  -5   13.00    3.20
  -1  -1   5   11.30    5.40
  -1  -1   5    6.20    4.40
  -1  -1   5    5.00    2.60
  -1  -1   5   12.10    3.80
  -1  -1   5   12.30    3.70
  -1  -1   5   10.30    1.90
  -1  -1   5   12.40    2.70
   0   1  -5   -0.60    2.30
   0   1  -5    0.90    2.50
   0   1  -5   -0.40    2.90
   0   1  -5   -1.50    2.30
   0   1  -5   -1.20    2.00
   0   1  -5   -1.40    2.10
   0   1  -5    1.70    1.80
   0  -1   5   -0.50    4.30
   0  -1   5    4.50    4.90
   0  -1   5   -1.60    2.60
   0  -1   5   -0.10    1.40
   0  -1   5    1.40    3.90
   0  -1   5    1.90    2.40
  -1   1  -5    8.50    3.40
  -1   1  -5    6.80    4.00
  -1   1  -5    8.70    2.80
  -1   1  -5    8.90    2.90
  -1   1  -5   10.40    3.70
  -1   1  -5    9.60    4.50
  -1   1  -5    9.00    2.80
   1  -1   5   11.40    5.20
   1  -1   5    9.00    4.30
   1  -1   5    9.00    2.80
   1  -1   5    7.20    2.80
   1  -1   5   10.00    3.30
   1  -1   5    8.20    5.30
   1  -1   5   13.80    3.90
  -2   1  -5    5.70    2.50
  -2   1  -5    8.40    3.30
  -2   1  -5   12.50    4.70
  -2   1  -5   11.30    4.40
  -2   1  -5   10.50    3.80
   2  -1   5   12.40    4.60
   2  -1   5    7.00    3.80
   2  -1   5    6.30    3.30
   2  -1   5    7.90    2.70
   2  -1   5   12.70    3.90
   2  -1   5    1.80    5.30
   2  -1   5    8.70    3.60
  -3   1  -5   52.59    3.70
  -3   1  -5   64.19    6.60
  -3   1  -5   53.09    7.20
  -3   1  -5   53.59    7.20
   3  -1   5   63.69    8.90
   3  -1   5   54.99    7.10
   3  -1   5   47.60    6.00
   3  -1   5   52.39    7.10
   3  -1   5   50.99    6.40
   3  -1   5   45.90    3.70
   3  -1   5   57.79    8.90
  -4   1  -5   87.69    6.90
  -4   1  -5  103.29    8.20
  -4   1  -5   99.99    3.50
  -4   1  -5   95.89    9.70
   4  -1   5  104.39    9.70
   4  -1   5  109.99    8.60
   4  -1   5   88.39    7.30
   4  -1   5   97.49    9.50
   4  -1   5   86.09   10.50
   4  -1   5   98.69    8.40
  -5   1  -5   11.00    6.10
  -5   1  -5   10.70    5.90
   5  -1   5    5.10    5.90
   5  -1   5    6.80    4.90
   5  -1   5    5.60    4.60
   5  -1   5    4.40    4.00
   5  -1   5    9.70    6.20
   5  -1   5   13.50    6.20
  -6   1  -5   36.20    7.30
  -6   1  -5   48.10   10.40
   6  -1   5   32.80    8.90
   6  -1   5   20.40    6.40
   6  -1   5   34.10    8.80
   6  -1   5   37.10    6.10
   6   0  -5    0.60    2.30
   6   0  -5    3.70    2.30
   6   0  -5    0.20    4.40
   6   0  -5   -1.40    3.30
   6   0  -5    7.70    4.20
  -6   0   5   17.20    5.30
  -6   0   5    6.40    3.80
  -6   0   5    2.40    3.00
  -6   0   5    7.40    4.20
  -6   0   5    6.80    4.40
  -6   0   5   14.20    6.40
   5   0  -5  797.22   27.40
   5   0  -5  759.72   30.30
   5   0  -5  761.22   22.80
   5   0  -5  754.42   19.90
   5   0  -5  771.62   19.60
   5   0  -5  761.42   24.60
  -5   0   5  799.62   27.50
  -5   0   5  774.02   22.50
  -5   0   5  733.73   29.40
  -5   0   5  797.12   29.50
   4   0  -5 2495.45   59.79
   4   0  -5 2537.25   58.99
   4   0  -5 2537.95   56.39
   4   0  -5 2589.74   61.89
  -4   0   5 2432.56   65.99
  -4   0   5 2475.35   61.29
  -4   0   5 2463.45   63.69
  -4   0   5 2566.94   65.79
   3   0  -5  283.37   12.20
   3   0  -5  289.87   10.30
   3   0  -5  291.87    9.30
   3   0  -5  295.57    8.90
   3   0  -5  278.57   10.80
  -3   0   5  270.37   14.30
  -3   0   5  270.37   13.20
  -3   0   5  278.37   13.80
  -3   0   5  257.47   11.90
   2   0  -5  565.54   17.00
   2   0  -5  577.74   15.40
   2   0  -5  590.24   18.10
   2   0  -5  599.34   17.70
   2   0  -5  586.64   15.90
  -2   0   5  546.75   15.10
  -2   0   5  601.94   19.30
  -2   0   5  567.44   15.20
  -2   0   5  585.14   20.50
  -2   0   5  590.94   19.10
   1   0  -5 3797.82   87.89
   1   0  -5 3665.63   89.19
   1   0  -5 4000.70   87.79
   1   0  -5 3853.71   86.19
   1   0  -5 3841.02   85.99
   1   0  -5 4012.90   86.49
  -1   0   5 3730.13   87.19
  -1   0   5 4012.10   88.79
  -1   0   5 3854.91   91.49
  -1   0   5 3903.51   90.29
  -1   0   5 3787.02   85.29
   0   0  -5    1.40    0.90
   0   0  -5    0.20    1.00
   0   0  -5    0.20    4.30
   0   0  -5    0.60    2.50
   0   0  -5    0.20    3.70
   0   0  -5    1.50    2.80
   0   0  -5    4.20    3.30
   0   0   5    1.40    2.50
   0   0   5   -3.60    4.10
   0   0   5    1.20    2.30
   0   0   5    2.30    2.70
   0   0   5    4.30    4.70
   0   0   5    0.00    3.70
  -1   0  -5 3802.52   91.49
  -1   0  -5 3992.60   87.19
  -1   0  -5 3972.20   88.79
  -1   0  -5 3901.41   87.09
  -1   0  -5 3942.71   88.49
  -1   0  -5 3864.11   88.59
  -1   0  -5 3864.91   89.89
  -1   0  -5 3947.90   88.89
   1   0   5 3884.81   86.99
   1   0   5 3885.51   88.99
   1   0   5 4077.09   88.89
   1   0   5 3952.10   92.19
   1   0   5 3844.12   90.49
   1   0   5 3976.70   90.29
  -2   0  -5  575.34   15.20
  -2   0  -5  602.24   18.10
  -2   0  -5  578.74   17.60
  -2   0  -5  600.44   18.30
  -2   0  -5  584.74   18.10
   2   0   5  584.14   18.20
   2   0   5  631.04   19.80
   2   0   5  597.14   21.40
   2   0   5  577.04   18.30
   2   0   5  572.84   15.20
   2   0   5  599.44   20.40
  -3   0  -5  272.67   11.40
  -3   0  -5  285.17    7.20
  -3   0  -5  274.27   12.40
  -3   0  -5  276.97   13.00
   3   0   5  280.27    7.40
   3   0   5  267.77   11.90
   3   0   5  307.97   15.90
   3   0   5  294.07   13.70
   3   0   5  284.97   14.10
  -4   0  -5 2337.17   60.49
   4   0   5 2538.25   66.89
   4   0   5 2596.04   62.39
   4   0   5 2616.54   64.99
   4   0   5 2524.55   67.89
   4   0   5 2557.44   62.59
  -5   0  -5  807.92   29.00
  -5   0  -5  766.22   25.50
   5   0   5  758.52   31.00
   5   0   5  708.23   24.50
   5   0   5  741.13   27.60
   5   0   5  798.62   30.10
  -6   0  -5    7.30    5.30
   6   0   5    7.30    6.50
   6   0   5    8.40    5.50
   6   0   5    9.40    8.00
   6   0   5    6.40    4.40
   6  -1  -5   30.20    2.60
  -6   1   5   33.10    5.60
  -6   1   5   51.99    7.70
  -6   1   5   45.40    7.90
  -6   1   5   38.10    7.30
  -6   1   5   49.70    9.20
   5  -1  -5    5.80    1.40
   5  -1  -5   12.30    4.50
   5  -1  -5   10.20    4.60
   5  -1  -5    5.50    3.60
  -5   1   5    3.10    3.90
  -5   1   5    3.40    5.30
  -5   1   5    3.40    4.30
  -5   1   5    8.30    4.60
  -5   1   5    2.90    4.00
   4  -1  -5  109.39    8.00
   4  -1  -5   94.59    7.10
   4  -1  -5   98.19    4.10
   4  -1  -5  109.69    8.40
   4  -1  -5  101.39    4.00
   4  -1  -5   97.89    7.10
  -4   1   5   87.59    9.30
  -4   1   5   91.29    9.50
  -4   1   5   89.49    8.20
  -4   1   5   93.19    8.80
  -4   1   5   99.09    7.80
   3  -1  -5   45.80    5.30
   3  -1  -5   46.60    6.30
   3  -1  -5   57.29    7.00
   3  -1  -5   48.80    3.50
   3  -1  -5   42.00    3.20
   3  -1  -5   49.60    5.30
  -3   1   5   48.50    6.90
  -3   1   5   47.40    7.30
  -3   1   5   44.30    5.30
  -3   1   5   52.59    7.50
   2  -1  -5    4.70    2.40
   2  -1  -5    9.00    3.20
   2  -1  -5    2.50    3.20
   2  -1  -5    7.20    2.10
   2  -1  -5    6.10    2.90
   2  -1  -5    8.00    2.40
  -2   1   5    8.30    4.10
  -2   1   5    7.70    4.30
  -2   1   5    2.90    4.10
   1  -1  -5   12.10    3.00
   1  -1  -5   11.50    3.70
   1  -1  -5   10.40    3.50
   1  -1  -5    8.30    2.80
   1  -1  -5   14.50    3.50
   1  -1  -5    9.60    3.50
   1  -1  -5    6.00    3.40
   1  -1  -5   11.60    2.50
   1  -1  -5   11.00    1.70
  -1   1   5   12.70    4.40
  -1   1   5    5.50    2.30
  -1   1   5   11.70    2.40
  -1   1   5   14.50    4.10
  -1   1   5    8.90    1.80
  -1   1   5   13.60    3.10
  -1   1   5    6.70    4.20
   0  -1  -5    5.40    2.70
   0  -1  -5    2.70    3.00
   0  -1  -5   -0.40    4.00
   0  -1  -5   -0.10    2.20
   0  -1  -5    0.10    3.20
   0  -1  -5    3.20    1.90
   0  -1  -5    3.10    2.70
   0  -1  -5   -2.00    4.50
   0   1   5    2.70    2.80
   0   1   5    1.50    3.80
   0   1   5    1.50    3.30
   0   1   5    3.60    3.60
   0   1   5    0.10    1.30
   0   1   5    2.50    2.70
   0   1   5    0.00    2.60
  -1  -1  -5   11.40    3.80
  -1  -1  -5   13.90    3.20
  -1  -1  -5   12.70    2.80
  -1  -1  -5    7.50    2.30
  -1  -1  -5    9.60    3.20
  -1  -1  -5   11.40    4.90
  -1  -1  -5   11.10    2.60
  -1  -1  -5    8.20    3.40
   1   1   5    6.70    2.30
   1   1   5   10.20    3.50
   1   1   5   12.50    3.50
   1   1   5   12.90    5.40
   1   1   5   13.30    2.50
   1   1   5   12.60    4.50
  -2  -1  -5   11.00    2.20
  -2  -1  -5   13.30    4.30
  -2  -1  -5    6.30    3.20
  -2  -1  -5    9.30    3.80
  -2  -1  -5   14.50    4.70
   2   1   5   11.70    3.80
   2   1   5   13.90    4.30
   2   1   5    6.20    5.30
   2   1   5    8.40    2.50
   2   1   5    9.60    2.10
   2   1   5    8.10    3.60
   2   1   5    7.50    4.40
  -3  -1  -5   56.29    7.50
  -3  -1  -5   55.59    6.10
  -3  -1  -5   52.09    6.80
   3   1   5   55.79    6.50
   3   1   5   54.39    6.60
   3   1   5   54.19    8.20
   3   1   5   46.00    7.70
   3   1   5   46.70    8.10
  -4  -1  -5  107.89    8.90
  -4  -1  -5  102.79    9.90
  -4  -1  -5  100.29    7.60
   4   1   5  104.69    8.20
   4   1   5  111.39    9.80
   4   1   5  102.09   10.60
   4   1   5  109.79   11.40
   4   1   5   99.09    8.00
  -5  -1  -5    6.00    4.20
  -5  -1  -5    1.60    3.60
   5   1   5    6.60    7.00
   5   1   5   -2.50    3.80
   5   1   5    6.20    4.40
   5   1   5   19.50    8.00
   5   1   5    1.10    5.20
  -6  -1  -5   36.80    9.40
  -6  -1  -5   43.60    7.60
   6   1   5   30.20    9.40
   6   1   5   29.70    6.10
   6   1   5   40.30    8.70
   6   1   5   45.10   10.20
  -6   2   5   23.50    6.30
  -6   2   5   23.80    6.80
  -6   2   5   12.30    5.00
  -6   2   5   14.60    4.90
  -6   2   5   15.90    5.50
   5  -2  -5   86.29    8.80
   5  -2  -5   82.49    2.80
   5  -2  -5   86.29    8.10
   5  -2  -5   91.69    2.90
   5  -2  -5   71.09    8.10
  -5   2   5   95.79    8.60
  -5   2   5   97.19   10.20
  -5   2   5   85.69    8.60
  -5   2   5   86.69    7.90
  -5   2   5   93.09    8.70
  -5   2   5  101.79    9.30
   4  -2  -5   57.09    7.00
   4  -2  -5   55.89    7.30
   4  -2  -5   60.19    6.60
   4  -2  -5   51.89    2.90
   4  -2  -5   56.99    6.60
   4  -2  -5   51.99    3.00
  -4   2   5   56.09    7.20
  -4   2   5   52.99    7.30
  -4   2   5   56.69    8.10
  -4   2   5   45.50    6.70
  -4   2   5   57.19    7.40
   3  -2  -5  100.59    4.80
   3  -2  -5   99.19    7.60
   3  -2  -5  102.29    4.70
   3  -2  -5   94.69    7.30
   3  -2  -5  102.19    7.70
   3  -2  -5  115.39    8.40
  -3   2   5  108.79    8.30
  -3   2   5   96.69    8.70
  -3   2   5   94.79    8.30
  -3   2   5  109.09    8.60
   2  -2  -5 1640.24   37.80
   2  -2  -5 1603.14   40.30
   2  -2  -5 1634.64   41.60
   2  -2  -5 1652.33   39.20
   2  -2  -5 1548.95   41.60
   2  -2  -5 1587.74   40.30
  -2   2   5 1628.44   42.00
  -2   2   5 1629.94   41.00
  -2   2   5 1610.94   42.70
  -2   2   5 1642.24   42.60
  -2   2   5 1450.85   40.90
  -2   2   5 1648.94   42.00
  -2   2   5 1622.54   40.60
  -2   2   5 1651.03   39.80
   1  -2  -5  270.37   13.70
   1  -2  -5  261.57   10.60
   1  -2  -5  270.47   10.80
   1  -2  -5  256.37    9.40
   1  -2  -5  256.17   11.60
   1  -2  -5  273.27    9.00
   1  -2  -5  272.07    9.40
   1  -2  -5  266.57   10.60
  -1   2   5  270.87    8.70
  -1   2   5  249.68    9.60
  -1   2   5  274.47   11.20
  -1   2   5  263.77   12.20
  -1   2   5  276.77   10.90
   0  -2  -5   -2.00    2.20
   0  -2  -5    2.50    3.70
   0  -2  -5    0.10    2.30
   0  -2  -5    1.20    3.40
   0  -2  -5    1.40    2.90
   0  -2  -5    4.40    2.80
   0  -2  -5    1.80    2.90
   0  -2  -5    1.60    2.70
   0   2   5    4.10    2.20
   0   2   5    1.20    2.40
   0   2   5   -3.60    2.70
   0   2   5   -0.80    2.30
   0   2   5    1.10    3.70
   0   2   5    0.20    4.40
   0   2   5   -1.30    2.60
   0   2   5   -0.30    2.70
  -1  -2  -5  257.97   10.80
  -1  -2  -5  264.47   10.70
  -1  -2  -5  250.57   13.20
  -1  -2  -5  257.37   10.20
  -1  -2  -5  273.77   14.50
  -1  -2  -5  248.38   11.60
  -1  -2  -5  260.87   10.60
   1   2   5  256.97   10.60
   1   2   5  268.17   11.70
   1   2   5  249.97    9.00
   1   2   5  264.27    9.80
   1   2   5  259.47   13.00
   1   2   5  259.37   10.50
   1   2   5  281.77   12.10
  -2  -2  -5 1656.03   41.60
  -2  -2  -5 1667.03   42.00
  -2  -2  -5 1674.03   41.80
  -2  -2  -5 1629.44   42.30
   2   2   5 1686.13   38.50
   2   2   5 1622.24   41.60
   2   2   5 1643.04   42.00
   2   2   5 1662.63   42.80
   2   2   5 1603.44   38.10
  -3  -2  -5   93.09    7.60
  -3  -2  -5  109.79    8.30
  -3  -2  -5  101.69    9.20
   3   2   5  100.69    9.90
   3   2   5  104.69    8.50
   3   2   5   91.99    7.70
   3   2   5   92.59    9.70
   3   2   5  108.19    9.70
   3   2   5  108.49    3.80
  -4  -2  -5   60.69    6.10
  -4  -2  -5   56.89    8.70
  -4  -2  -5   53.49    7.30
   4   2   5   61.39    7.60
   4   2   5   57.29    9.80
   4   2   5   58.79    9.40
   4   2   5   43.60    6.50
   4   2   5   49.30    8.30
  -5  -2  -5   76.69    8.30
  -5  -2  -5   81.29    9.30
   5   2   5   81.89    9.90
   5   2   5   91.09    9.30
   5   2   5   95.39   10.90
  -6  -2  -5    7.50    5.20
   6   2   5   13.40    4.80
   6   2   5   10.70    7.80
   6   2   5   12.90    6.90
   6   2   5   10.10    5.80
   6  -3  -5   16.10    6.40
   6  -3  -5   16.70    5.70
  -6   3   5   36.70    7.30
  -6   3   5   27.10    6.50
  -6   3   5   35.20    6.60
  -6   3   5   23.70    5.80
  -6   3   5   28.00    6.50
   5  -3  -5    8.30    5.10
   5  -3  -5    1.20    4.60
  -5   3   5   18.80    5.20
  -5   3   5   16.60    5.10
  -5   3   5   15.60    5.20
  -5   3   5   11.30    4.80
  -5   3   5   11.10    4.70
   4  -3  -5   64.29    3.90
   4  -3  -5   64.09    7.80
   4  -3  -5   56.09    7.50
   4  -3  -5   58.39    7.80
  -4   3   5   72.19    7.60
  -4   3   5   64.89    8.60
  -4   3   5   56.79    7.50
  -4   3   5   61.19    6.60
   3  -3  -5   34.10    6.10
   3  -3  -5   25.80    5.70
   3  -3  -5   31.30    3.60
   3  -3  -5   21.60    3.30
   3  -3  -5   22.30    4.90
  -3   3   5   27.10    5.90
  -3   3   5   36.40    7.10
  -3   3   5   28.70    5.50
  -3   3   5   22.80    4.90
   2  -3  -5    6.30    2.80
   2  -3  -5    6.70    3.50
   2  -3  -5    9.70    3.70
   2  -3  -5    7.20    3.40
   2  -3  -5    2.30    3.80
   2  -3  -5    7.50    3.50
   2  -3  -5    3.50    4.60
  -2   3   5    2.20    4.80
  -2   3   5    6.80    3.70
  -2   3   5    3.80    3.50
  -2   3   5    4.10    4.30
  -2   3   5    2.90    3.70
  -2   3   5    7.60    4.60
   1  -3  -5    5.40    4.10
   1  -3  -5    2.10    2.90
   1  -3  -5    8.00    2.90
   1  -3  -5    6.40    3.30
   1  -3  -5    6.60    4.00
  -1   3   5    9.50    4.00
  -1   3   5   13.60    4.90
  -1   3   5   10.30    5.40
  -1   3   5    9.00    1.80
  -1   3   5    7.60    2.80
  -1   3   5    9.40    2.30
   0  -3  -5    3.50    3.00
   0  -3  -5    5.50    3.80
   0  -3  -5    0.10    3.30
   0  -3  -5   -1.40    2.40
   0  -3  -5   -1.10    3.70
   0  -3  -5   -3.70    3.30
   0  -3  -5   -3.20    3.30
   0  -3  -5    4.60    3.30
   0   3   5    0.30    1.90
   0   3   5   -6.90    2.40
   0   3   5    7.90    4.00
   0   3   5    2.10    3.60
   0   3   5    4.20    4.70
  -1  -3  -5   -2.50    3.10
  -1  -3  -5    5.40    3.40
  -1  -3  -5    4.90    3.90
  -1  -3  -5   11.90    4.60
  -1  -3  -5    5.80    3.10
  -1  -3  -5    9.30    4.10
   1   3   5    5.80    3.20
   1   3   5   11.10    3.60
   1   3   5    7.60    3.50
   1   3   5    5.30    4.90
   1   3   5    3.40    3.80
   1   3   5    3.30    4.10
   1   3   5    1.90    3.60
  -2  -3  -5    5.60    4.30
  -2  -3  -5   -2.40    3.90
  -2  -3  -5    6.30    5.00
  -2  -3  -5    2.50    3.50
   2   3   5   -0.30    4.40
   2   3   5   -4.20    3.30
   2   3   5   10.50    6.10
   2   3   5   -0.20    4.40
   2   3   5    3.30    2.70
   2   3   5   -2.00    3.90
   2   3   5    8.70    3.30
  -3  -3  -5   29.60    6.00
  -3  -3  -5   28.30    5.80
  -3  -3  -5   22.60    7.00
   3   3   5   21.90    6.50
   3   3   5   30.20    3.60
   3   3   5   33.90    7.30
   3   3   5   20.70    5.20
   3   3   5   23.50    2.90
   3   3   5   16.90    6.20
   3   3   5   25.90    6.80
  -4  -3  -5   60.49    9.00
  -4  -3  -5   52.59    6.70
   4   3   5   62.09    9.50
   4   3   5   67.59    8.20
   4   3   5   60.39   10.20
   4   3   5   67.29    8.20
   4   3   5   52.39    8.00
  -5  -3  -5    7.30    4.80
  -5  -3  -5    0.40    6.30
   5   3   5   11.00    6.70
   5   3   5    5.20    5.70
   5   3   5   10.80    7.50
   5   3   5    8.60    4.60
  -6  -3  -5   20.30    6.00
  -6  -3  -5   29.70    9.50
   6   3   5   26.00    6.40
   6   3   5   45.60   10.50
   6   3   5   18.70    7.40
   6   3   5   12.40    5.50
   6  -4  -5    6.30    1.90
   6  -4  -5    4.50    5.40
   6  -4  -5    3.00    2.00
  -6   4   5   10.20    5.60
  -6   4   5    2.20    5.80
  -6   4   5   -2.80    4.40
   5  -4  -5  422.86   12.60
   5  -4  -5  443.76   13.00
   5  -4  -5  408.76   19.40
   5  -4  -5  447.36   19.40
  -5   4   5  415.36   17.00
  -5   4   5  441.26   19.30
  -5   4   5  457.45   18.30
  -5   4   5  451.95   18.60
  -5   4   5  418.76   18.90
   4  -4  -5 1168.28   30.00
   4  -4  -5 1201.48   36.30
   4  -4  -5 1168.68   35.70
  -4   4   5 1162.18   32.80
  -4   4   5 1302.27   40.70
  -4   4   5 1241.28   33.80
   3  -4  -5  114.59    9.20
   3  -4  -5  115.59    8.40
   3  -4  -5  108.29    6.40
   3  -4  -5  106.19    6.30
   3  -4  -5  106.49    8.00
  -3   4   5  116.19    6.60
  -3   4   5  113.79   10.10
  -3   4   5  103.69   11.60
  -3   4   5  100.29    8.00
  -3   4   5  100.39    9.20
  -3   4   5   96.99    8.50
   2  -4  -5  403.66   14.00
   2  -4  -5  411.26   15.90
   2  -4  -5  419.36   14.10
   2  -4  -5  421.26   16.50
  -2   4   5  399.26    9.80
  -2   4   5  423.16   16.10
  -2   4   5  409.26   14.60
  -2   4   5  401.56   16.90
   1  -4  -5 1281.87   34.10
   1  -4  -5 1265.37   33.90
   1  -4  -5 1309.27   33.00
   1  -4  -5 1084.99   33.20
   1  -4  -5 1150.98   34.00
   1  -4  -5 1235.58   33.90
  -1   4   5 1232.08   31.20
  -1   4   5 1284.67   34.90
  -1   4   5 1267.77   34.10
  -1   4   5 1265.77   32.40
   0  -4  -5   -1.00    3.90
   0  -4  -5   -3.10    3.70
   0  -4  -5   -3.60    3.50
   0  -4  -5   -1.20    3.80
   0  -4  -5   -0.60    3.30
   0  -4  -5   -5.30    3.90
   0  -4  -5    3.40    3.70
   0   4   5    0.90    4.30
   0   4   5    5.40    3.50
   0   4   5    2.30    4.30
   0   4   5    4.10    3.30
  -1  -4  -5 1279.27   34.10
  -1  -4  -5 1237.88   34.10
  -1  -4  -5 1211.28   31.00
  -1  -4  -5 1228.48   32.90
  -1  -4  -5 1252.77   34.20
  -1  -4  -5 1273.87   35.40
   1   4   5 1274.67   36.30
   1   4   5 1220.48   30.80
   1   4   5 1258.87   34.40
   1   4   5 1251.87   33.30
   1   4   5 1261.67   34.10
  -2  -4  -5  438.66   16.00
  -2  -4  -5  405.86   16.20
  -2  -4  -5  418.36   18.10
  -2  -4  -5  424.16   14.20
   2   4   5  406.36   18.90
   2   4   5  442.96   15.90
   2   4   5  401.26   16.20
   2   4   5  415.46   16.90
   2   4   5  403.46   14.30
  -3  -4  -5  122.99   11.40
  -3  -4  -5  107.79    6.50
  -3  -4  -5  100.69    8.40
  -3  -4  -5  112.59    8.30
   3   4   5  107.59   11.10
   3   4   5  110.29    9.60
   3   4   5  122.79    9.50
   3   4   5  100.39    9.40
   3   4   5   98.79    6.40
  -4  -4  -5 1217.18   39.10
  -4  -4  -5 1197.98   33.70
  -4  -4  -5 1115.59   33.90
   4   4   5 1139.39   27.70
   4   4   5 1174.18   42.20
   4   4   5 1216.08   36.40
   4   4   5 1228.48   41.50
   4   4   5 1250.27   46.00
  -5  -4  -5  441.66   22.80
  -5  -4  -5  467.75   18.00
  -5  -4  -5  419.66   12.90
   5   4   5  444.06   19.70
   5   4   5  459.95   21.50
   5   4   5  436.86   21.70
   5   4   5  405.76   23.30
  -6  -4  -5   -4.00    7.20
  -6  -4  -5   -2.70    4.60
   6   4   5    4.40    6.30
   6   4   5    6.50    6.10
   6   4   5   -2.80    5.60
   6   4   5    7.50    7.90
   5  -5  -5    4.70    3.10
   5  -5  -5    8.30    5.50
   5  -5  -5    6.30    5.40
   5  -5  -5   -1.10    2.30
  -5   5   5   15.00    4.30
  -5   5   5   -0.60    4.30
  -5   5   5   -1.40    4.90
  -5   5   5    5.00    5.00
   4  -5  -5   24.40    4.20
   4  -5  -5   22.50    6.10
   4  -5  -5   25.60    6.70
   4  -5  -5   27.40    4.30
   4  -5  -5   34.80    7.20
  -4   5   5   26.10    6.80
  -4   5   5   14.60    4.70
  -4   5   5   25.40    4.30
   3  -5  -5    3.80    4.60
   3  -5  -5   10.90    5.50
   3  -5  -5    9.90    6.00
   3  -5  -5    6.70    3.50
  -3   5   5    6.50    2.40
  -3   5   5    4.10    2.10
  -3   5   5   -0.30    3.80
  -3   5   5    3.00    4.60
   2  -5  -5    4.70    3.70
   2  -5  -5    0.00    4.40
   2  -5  -5    7.40    4.70
   2  -5  -5    1.90    3.60
   2  -5  -5   -2.30    2.60
  -2   5   5    0.90    3.50
  -2   5   5    2.40    2.40
  -2   5   5    0.60    3.90
  -2   5   5   -3.60    4.20
   1  -5  -5    0.70    3.40
   1  -5  -5    0.50    4.20
   1  -5  -5   -0.80    4.30
   1  -5  -5    2.00    4.20
   1  -5  -5    5.80    2.80
   1  -5  -5    1.70    2.70
   1  -5  -5    2.70    3.60
  -1   5   5    4.20    4.40
  -1   5   5    0.10    3.10
  -1   5   5    1.40    3.40
  -1   5   5    1.50    3.80
   0  -5  -5   -1.10    5.20
   0  -5  -5    4.10    4.10
   0  -5  -5   -8.70    3.40
   0  -5  -5    1.10    3.90
   0  -5  -5    0.70    3.80
   0  -5  -5    1.30    3.70
   0   5   5   -0.70    4.30
   0   5   5    9.00    5.20
   0   5   5    1.80    3.50
   0   5   5    0.50    3.90
  -1  -5  -5    5.80    3.60
  -1  -5  -5    3.80    3.40
  -1  -5  -5   15.50    6.40
  -1  -5  -5    6.30    4.50
  -1  -5  -5    5.80    2.50
  -1  -5  -5    0.60    3.90
   1   5   5   -2.20    4.10
   1   5   5    9.40    4.90
  -2  -5  -5    4.60    4.10
  -2  -5  -5    3.20    3.70
  -2  -5  -5    2.20    6.20
  -2  -5  -5    4.60    4.30
   2   5   5    0.40    5.50
   2   5   5    6.00    4.50
   2   5   5    4.60    4.30
   2   5   5    3.20    3.70
   2   5   5    2.70    4.30
  -3  -5  -5    4.80    6.80
  -3  -5  -5    9.60    4.80
  -3  -5  -5    8.70    3.50
  -3  -5  -5    8.50    5.00
   3   5   5    5.20    3.70
   3   5   5    6.30    5.80
   3   5   5    5.30    4.70
   3   5   5    7.60    5.20
   3   5   5    4.60    4.80
  -4  -5  -5   30.00    3.80
  -4  -5  -5   24.80    6.30
  -4  -5  -5   31.50    5.80
  -4  -5  -5   23.50    8.80
   4   5   5   14.00    6.10
   4   5   5   18.90    7.60
   4   5   5   25.70    7.20
   4   5   5   27.90    4.20
   4   5   5   19.70    5.90
  -5  -5  -5    3.80    4.60
  -5  -5  -5    2.00    5.90
   5   5   5    6.60    6.60
   5   5   5    6.90    4.50
   5   5   5   -1.20    4.20
   5   5   5    4.00    4.70
   4  -6  -5    5.70    4.60
   4  -6  -5    4.70    5.20
   4  -6  -5    0.30    3.00
  -4   6   5    0.40    5.70
   3  -6  -5   12.70    4.40
   3  -6  -5   18.60    6.20
   3  -6  -5   22.40    6.90
   3  -6  -5   23.60    6.40
   3  -6  -5   10.50    4.60
  -3   6   5   12.10    6.40
   2  -6  -5  389.76   17.00
   2  -6  -5  399.76   18.40
   2  -6  -5  411.36   17.60
   2  -6  -5  401.06   15.60
   2  -6  -5  390.46   16.00
  -2   6   5  381.96   12.50
  -2   6   5  363.26   12.00
  -2   6   5  390.56   18.50
  -2   6   5  360.86   11.30
  -2   6   5  368.96   11.10
   1  -6  -5  240.78    8.90
   1  -6  -5  222.38   11.70
   1  -6  -5  243.08   12.20
   1  -6  -5  228.68   12.80
   1  -6  -5  264.67    9.60
   1  -6  -5  251.27   13.00
   1  -6  -5  232.58   14.10
  -1   6   5  235.68   14.00
  -1   6   5  232.28   10.30
  -1   6   5  223.68    9.10
   0  -6  -5   -1.20    3.70
   0  -6  -5    0.10    4.10
   0  -6  -5   -2.20    4.20
   0  -6  -5    1.40    4.20
   0  -6  -5    1.20    5.70
   0  -6  -5   10.20    4.50
   0   6   5   -4.80    4.90
   0   6   5   -1.60    3.80
   0   6   5    9.50    4.20
   0   6   5    2.60    3.20
  -1  -6  -5  225.58   11.10
  -1  -6  -5  237.48   12.80
  -1  -6  -5  224.88    7.20
  -1  -6  -5  223.68    7.10
  -1  -6  -5  237.48   12.30
  -1  -6  -5  210.58   14.60
   1   6   5  235.48   13.20
   1   6   5  244.28   13.50
   1   6   5  230.78   12.70
   1   6   5  236.18   11.50
  -2  -6  -5  412.06   20.30
  -2  -6  -5  379.46   16.10
  -2  -6  -5  376.36   16.90
  -2  -6  -5  392.66   14.40
  -2  -6  -5  408.16   14.40
   2   6   5  375.96   17.50
   2   6   5  384.56   16.40
   2   6   5  377.66   18.90
   2   6   5  377.86   15.70
  -3  -6  -5   15.20    8.30
  -3  -6  -5   18.90    5.50
  -3  -6  -5   18.50    5.40
   3   6   5    9.40    5.60
   3   6   5   15.90    5.30
   3   6   5   16.10    5.20
   3   6   5   15.10    5.10
   3   6   5   17.40    6.90
  -4  -6  -5    3.80    6.20
  -4  -6  -5   -2.80    4.40
   4   6   5    2.20    6.20
   4   6   5   14.10    5.90
   4   6   5    5.80    4.90
   4   6   5   -1.10    3.60
   4   6   5    2.50    5.00
   4  -7  -5    5.80    5.90
   4  -7  -5    2.40    3.70
   4  -7  -5    3.90    5.40
  -4   7   5    5.70    6.90
   3  -7  -5   -3.00    3.50
   3  -7  -5    6.70    5.50
   3  -7  -5    5.40    5.80
  -3   7   5   -2.00    5.90
   2  -7  -5    5.00    4.00
   2  -7  -5   -3.10    4.70
   2  -7  -5    0.80    3.60
   2  -7  -5    0.80    3.50
  -2   7   5   -0.50    4.00
   1  -7  -5    7.80    5.20
   1  -7  -5    5.90    4.90
   1  -7  -5   -4.60    5.30
   1  -7  -5   -4.20    4.00
  -1   7   5    1.70    4.40
   0  -7  -5   -0.10    4.60
   0  -7  -5   16.80    6.20
   0  -7  -5   -7.60    3.30
   0  -7  -5    0.90    4.60
   0  -7  -5   -5.80    5.80
   0  -7  -5    1.50    4.40
   0   7   5   -4.90    4.30
   0   7   5   -1.10    2.50
   0   7   5    0.10    3.20
   0   7   5   -2.40    3.90
  -1  -7  -5   -4.40    6.30
  -1  -7  -5   -0.30    4.00
  -1  -7  -5    3.90    3.60
  -1  -7  -5   -0.90    3.90
   1   7   5    0.40    5.80
   1   7   5    8.00    5.10
   1   7   5    5.20    5.40
   1   7   5   -0.20    3.50
  -2  -7  -5    2.40    4.20
  -2  -7  -5    5.20    3.60
  -2  -7  -5   -2.00    4.60
  -2  -7  -5   -3.40    3.80
  -2  -7  -5   -1.80    6.80
   2   7   5    0.20    4.10
   2   7   5    5.30    4.80
   2   7   5    4.30    5.30
   2   7   5   -2.90    4.60
  -3  -7  -5    9.00    4.70
  -3  -7  -5    0.40    8.10
  -3  -7  -5    2.90    3.00
  -3  -7  -5   -4.00    4.90
   3   7   5    4.50    5.80
   3   7   5    3.60    5.80
   3   7   5    0.20    4.10
   3   7   5   -3.80    4.70
  -4  -7  -5    6.50    4.40
  -4  -7  -5   -7.70    7.90
   4   7   5    6.80    7.30
   4   7   5   20.60    6.30
   4   7   5    6.80    5.00
   4   7   5   13.10    7.10
   2  -8  -5  131.89   11.10
   2  -8  -5  133.89   10.70
   2  -8  -5  142.09   13.90
   1  -8  -5  176.88   12.20
   1  -8  -5  167.58   12.50
  -1   8   5  188.58   13.40
   0  -8  -5   -1.00    7.20
   0  -8  -5   -4.00    3.50
   0  -8  -5   -7.10    4.10
   0  -8  -5    1.30    4.50
   0   8   5   -3.70    4.00
  -1  -8  -5  169.88   10.50
  -1  -8  -5  186.28   11.90
  -1  -8  -5  188.38   13.20
  -1  -8  -5  147.29   17.50
   1   8   5  146.39   10.50
   1   8   5  183.38   13.50
  -2  -8  -5  152.98   10.70
  -2  -8  -5  116.79   15.10
  -2  -8  -5  151.08   12.20
   2   8   5  136.49   10.00
   2   8   5  123.89   11.60
   2   8   5  120.79   11.00
   2   8  -6   26.80    7.00
   2   8  -6   57.39    9.20
  -2  -8   6   35.50    9.50
  -2  -8   6   32.50   12.70
  -2  -8   6   37.70    7.10
   1   8  -6   91.09   11.20
  -1  -8   6   74.79   14.40
  -1  -8   6  101.69   10.70
  -1  -8   6   70.99   12.90
  -1  -8   6   72.89    9.20
   0   8  -6  262.57   17.90
   0   8  -6  225.28   14.80
   0   8  -6  264.47   12.10
   0  -8   6  229.88   18.10
   0  -8   6  241.18   14.40
   0  -8   6  196.78   15.30
   0  -8   6  234.68   18.30
   0  -8   6  185.78   13.70
  -1   8  -6   86.09   13.30
  -1   8  -6  110.49    9.50
   1  -8   6   92.69   13.80
   1  -8   6   95.09   10.60
   2  -8   6   39.00    8.00
   2  -8   6   46.70   10.00
   2  -8   6   21.40    8.20
   3   7  -6   13.60    6.30
   3   7  -6    2.40    4.90
  -3  -7   6   -4.60    5.90
  -3  -7   6    5.00    5.10
  -3  -7   6   -0.80    9.40
   2   7  -6    5.40    4.40
   2   7  -6    5.20    5.40
  -2  -7   6   -2.90    8.30
  -2  -7   6    9.40    5.20
  -2  -7   6   19.50    5.70
   1   7  -6   13.20    6.00
   1   7  -6   18.10    3.70
   1   7  -6   16.20    6.00
  -1  -7   6   21.90    5.90
  -1  -7   6   11.50    5.00
  -1  -7   6    9.20    9.30
  -1  -7   6    7.90    5.20
  -1  -7   6   17.50    6.80
   0   7  -6   17.60    6.00
   0   7  -6   18.90    4.40
   0   7  -6   15.20    6.00
   0  -7   6   13.10    6.40
   0  -7   6   12.00    6.40
   0  -7   6   18.60    9.40
   0  -7   6   11.40    5.90
   0  -7   6   18.00    5.20
  -1   7  -6   11.40    5.80
  -1   7  -6   13.40    5.80
  -1   7  -6    9.80    5.00
   1  -7   6    1.10    5.60
   1  -7   6    2.10    4.50
   1  -7   6   15.20    5.20
   1  -7   6   21.70    8.80
   1  -7   6    8.60    6.00
  -2   7  -6    7.70    5.30
  -2   7  -6   11.90    5.60
   2  -7   6    1.90    5.90
   2  -7   6   13.70    3.70
   2  -7   6   17.40    8.60
   2  -7   6   20.50    5.80
  -3   7  -6    5.70    5.70
  -3   7  -6   -0.70    3.80
   3  -7   6    2.90    6.90
   3  -7   6    7.90    5.20
   3  -7   6   -6.60    5.70
   4   6  -6   83.59   10.50
   4   6  -6   98.49    9.80
  -4  -6   6   80.59   12.70
  -4  -6   6  112.79   11.10
  -4  -6   6   94.69   10.40
  -4  -6   6   90.19   14.80
   3   6  -6  668.33   25.10
   3   6  -6  644.94   25.10
  -3  -6   6  634.94   25.60
  -3  -6   6  633.64   25.00
  -3  -6   6  665.53   30.20
  -3  -6   6  650.03   26.80
   2   6  -6  100.09   10.10
   2   6  -6   84.69    9.30
  -2  -6   6   84.09   10.00
  -2  -6   6   97.59    9.80
  -2  -6   6   88.19   11.40
  -2  -6   6   72.19    7.30
  -2  -6   6   91.39    9.30
   1   6  -6   60.49    5.00
   1   6  -6   52.49    8.30
   1   6  -6   62.09    9.10
  -1  -6   6   60.49   14.10
  -1  -6   6   53.09    7.30
  -1  -6   6   54.49    7.80
  -1  -6   6   58.59   12.10
  -1  -6   6   69.19    8.90
   0   6  -6  353.16   16.80
   0   6  -6  314.27   12.80
   0   6  -6  362.96   18.70
   0  -6   6  335.17   15.10
   0  -6   6  324.27   15.20
   0  -6   6  354.16   19.30
   0  -6   6  346.57   16.90
   0  -6   6  352.76   16.60
  -1   6  -6   60.09    8.10
  -1   6  -6   50.29    6.70
   1  -6   6   57.49    8.90
   1  -6   6   57.99   11.10
   1  -6   6   47.70    8.00
   1  -6   6   53.79    7.50
   1  -6   6   44.10    6.70
  -2   6  -6   78.89    8.70
  -2   6  -6   76.19    8.30
  -2   6  -6   86.69    8.60
   2  -6   6   89.09    8.30
   2  -6   6   86.19    9.30
   2  -6   6   81.79    7.20
   2  -6   6   92.79   12.00
   2  -6   6   69.19    8.40
  -3   6  -6  644.04   24.40
  -3   6  -6  649.43   23.80
   3  -6   6  611.54   21.40
   3  -6   6  666.13   24.40
   3  -6   6  679.43   28.30
   3  -6   6  686.53   27.60
  -4   6  -6   87.69    9.20
  -4   6  -6   92.89   10.20
   4  -6   6   95.79   13.10
   4  -6   6  101.29   12.00
   5   5  -6    7.10    4.30
  -5  -5   6    9.00    9.30
  -5  -5   6   17.10    6.50
  -5  -5   6   -6.90    6.70
   4   5  -6   19.30    5.70
   4   5  -6   14.40    5.50
  -4  -5   6    8.70    8.90
  -4  -5   6   14.50    5.80
  -4  -5   6    2.00    7.10
  -4  -5   6   16.80    6.30
   3   5  -6    5.60    4.70
   3   5  -6    6.90    4.90
  -3  -5   6    4.00    4.60
  -3  -5   6   -0.70    2.90
  -3  -5   6   -3.20    5.60
  -3  -5   6   -6.00    8.00
  -3  -5   6    5.60    5.10
   2   5  -6   33.00    6.50
   2   5  -6   38.00    7.40
   2   5  -6   37.10    7.40
  -2  -5   6   26.20    6.70
  -2  -5   6   32.80    5.40
  -2  -5   6   34.60    7.10
  -2  -5   6   28.00    6.60
  -2  -5   6   31.30    8.30
   1   5  -6   71.89    8.40
   1   5  -6   74.49    9.10
  -1  -5   6   81.29   10.10
  -1  -5   6   69.59    7.90
  -1  -5   6   73.29    6.90
  -1  -5   6   60.79    7.80
  -1  -5   6   72.89    8.40
   0   5  -6   48.70    5.60
   0   5  -6   53.19    7.70
   0   5  -6   39.20    7.00
   0  -5   6   42.10    6.90
   0  -5   6   45.80   10.40
   0  -5   6   55.99    9.40
   0  -5   6   49.00    8.60
   0  -5   6   50.39    6.70
  -1   5  -6   71.59    8.20
  -1   5  -6   65.39    6.60
  -1   5  -6   73.19    8.00
   1  -5   6   68.49    9.10
   1  -5   6   85.49   11.90
   1  -5   6   69.39    7.20
   1  -5   6   55.59    7.00
   1  -5   6   70.59    8.30
  -2   5  -6   33.90    6.50
  -2   5  -6   34.90    6.40
  -2   5  -6   25.90    5.90
   2  -5   6   37.30    7.00
   2  -5   6   33.30    9.00
   2  -5   6   30.60    5.80
   2  -5   6   28.40    7.10
   2  -5   6   20.60    6.30
   2  -5   6   29.90    5.50
  -3   5  -6    7.50    4.50
  -3   5  -6    6.40    4.20
  -3   5  -6    5.60    4.20
   3  -5   6    3.80    5.00
   3  -5   6   -2.00    4.70
   3  -5   6    6.60    4.00
   3  -5   6    0.40    6.90
  -4   5  -6   10.10    6.20
  -4   5  -6   10.90    4.80
   4  -5   6   14.90    5.30
   4  -5   6    6.60    6.60
   4  -5   6   16.90    6.90
   4  -5   6    9.10    5.30
   4  -5   6    4.40    4.10
  -5   5  -6   10.70    4.70
  -5   5  -6   13.50    6.20
   5  -5   6    0.90    4.70
   5  -5   6    2.30    5.70
   5  -5   6   16.10    7.20
   5  -5   6    2.10    5.90
   5  -5   6    4.60    4.00
   5   4  -6   31.10    6.50
  -5  -4   6   13.10    8.20
  -5  -4   6   30.60   10.20
  -5  -4   6   29.80    8.00
  -5  -4   6   37.30    8.40
   4   4  -6  114.89    5.00
   4   4  -6  128.99   11.40
  -4  -4   6  107.69   11.70
  -4  -4   6  128.79   12.50
  -4  -4   6   99.89   10.40
  -4  -4   6  139.99   12.00
   3   4  -6   58.19    7.50
   3   4  -6   62.79    8.10
   3   4  -6   43.60    7.50
  -3  -4   6   70.99    9.50
  -3  -4   6   49.70    5.00
  -3  -4   6   60.69   11.30
  -3  -4   6   59.19    8.60
  -3  -4   6   47.80    7.40
   2   4  -6   99.39    3.20
   2   4  -6   92.89    3.10
   2   4  -6  109.79    9.40
   2   4  -6  108.39    7.70
   2   4  -6  103.49    9.00
  -2  -4   6   94.79   12.30
  -2  -4   6  102.09    9.30
  -2  -4   6   91.59    9.40
  -2  -4   6  102.19    7.20
  -2  -4   6   89.29    9.80
   1   4  -6  423.36   12.90
   1   4  -6  406.86   15.70
   1   4  -6  422.76   16.60
   1   4  -6  406.86   17.20
  -1  -4   6  425.46   18.50
  -1  -4   6  413.76   15.30
  -1  -4   6  419.66   15.90
  -1  -4   6  434.76   17.20
  -1  -4   6  424.96   20.80
   0   4  -6 1020.90   27.30
   0   4  -6 1025.90   30.60
   0   4  -6 1023.50   29.90
   0  -4   6 1034.70   30.20
   0  -4   6 1092.49   36.00
   0  -4   6 1003.00   29.30
   0  -4   6  996.00   29.10
   0  -4   6 1005.60   33.60
  -1   4  -6  398.36   15.60
  -1   4  -6  418.16   15.30
  -1   4  -6  403.16   16.80
   1  -4   6  397.76   15.90
   1  -4   6  435.66   15.90
   1  -4   6  426.56   16.80
   1  -4   6  426.36   18.00
   1  -4   6  428.16   20.60
   1  -4   6  357.86   21.30
  -2   4  -6   96.69    8.10
  -2   4  -6   98.59    8.50
   2  -4   6  100.79   11.70
   2  -4   6   92.79    7.90
   2  -4   6   95.39    8.00
   2  -4   6   95.19    9.30
   2  -4   6  108.09    9.40
  -3   4  -6   53.69    7.00
  -3   4  -6   42.50    6.30
  -3   4  -6   51.79    7.90
   3  -4   6   47.50    7.50
   3  -4   6   54.59    7.30
   3  -4   6   54.29    7.50
   3  -4   6   57.59    9.50
   3  -4   6   57.49    8.80
   3  -4   6   50.99    6.50
  -4   4  -6  135.79   11.00
  -4   4  -6  101.39    8.40
  -4   4  -6  122.59    8.40
   4  -4   6  116.69    9.20
   4  -4   6  127.99   11.70
   4  -4   6  124.39   12.70
   4  -4   6  126.79    9.50
   4  -4   6  111.89   10.70
   4  -4   6  118.09   10.20
  -5   4  -6   30.80    8.10
  -5   4  -6   34.40    5.20
   5  -4   6   39.30   10.50
   5  -4   6   22.70    5.90
   5  -4   6   52.89    8.00
   5  -4   6   27.90    7.50
   6   3  -6   35.10    7.20
  -6  -3   6   38.30    8.30
  -6  -3   6   28.90    7.00
  -6  -3   6   13.70    6.90
  -6  -3   6   23.90    8.60
   5   3  -6    0.90    4.20
  -5  -3   6   12.30    6.00
  -5  -3   6   16.80    6.20
  -5  -3   6    7.00    7.40
  -5  -3   6    5.00    6.30
   4   3  -6   24.70    6.20
   4   3  -6   28.30    5.10
   4   3  -6   19.20    3.20
  -4  -3   6   24.10    8.30
  -4  -3   6   19.40    8.70
  -4  -3   6   22.50    6.50
  -4  -3   6   25.10    8.50
   3   3  -6    9.40    4.60
   3   3  -6   16.20    4.90
   3   3  -6   11.10    3.30
  -3  -3   6   13.10    6.10
  -3  -3   6   15.50    6.50
  -3  -3   6   11.90    4.90
  -3  -3   6    9.30    3.80
  -3  -3   6   16.00    5.20
   2   3  -6   80.79    8.20
   2   3  -6   85.59    7.60
   2   3  -6   80.99    3.90
  -2  -3   6   89.19    9.70
  -2  -3   6   72.89    8.90
  -2  -3   6   95.29    7.20
  -2  -3   6   76.39   10.00
  -2  -3   6   77.09    6.10
  -2  -3   6   82.99    3.60
   1   3  -6  246.98   12.10
   1   3  -6  249.97   11.00
   1   3  -6  256.97   11.70
   1   3  -6  261.07    9.20
  -1  -3   6  267.87   15.80
  -1  -3   6  254.67   10.70
  -1  -3   6  254.97   10.80
  -1  -3   6  263.07   11.80
  -1  -3   6  259.37   13.40
  -1  -3   6  278.77   12.50
   0   3  -6  122.79    6.80
   0   3  -6  110.69    7.50
   0   3  -6  114.29    7.90
   0   3  -6  106.29    7.40
   0  -3   6  118.49    9.40
   0  -3   6  125.69   10.30
   0  -3   6  133.09   12.30
   0  -3   6  106.69    7.00
   0  -3   6   98.89    7.30
  -1   3  -6  261.87   13.10
  -1   3  -6  252.37   12.30
  -1   3  -6  255.17   11.10
   1  -3   6  268.37   14.60
   1  -3   6  249.97   12.10
   1  -3   6  259.27   14.10
   1  -3   6  268.47   12.60
   1  -3   6  264.47   11.60
   1  -3   6  263.27   11.70
  -2   3  -6  102.19    8.40
  -2   3  -6   82.89    7.00
  -2   3  -6   86.49    8.20
   2  -3   6   83.79    8.10
   2  -3   6   85.79   11.40
   2  -3   6   76.39    7.90
   2  -3   6   75.89    9.30
   2  -3   6   80.79    7.80
  -3   3  -6    9.60    4.50
  -3   3  -6   12.90    4.20
  -3   3  -6   17.70    5.80
   3  -3   6   12.70    5.70
   3  -3   6    9.10    4.60
   3  -3   6   10.60    7.30
   3  -3   6   15.10    5.00
   3  -3   6   11.30    5.30
   3  -3   6    7.50    4.00
  -4   3  -6   17.30    4.70
  -4   3  -6   27.30    4.50
  -4   3  -6   28.10    6.90
   4  -3   6   18.00    6.60
   4  -3   6   19.10    8.00
   4  -3   6   19.80    6.60
   4  -3   6   27.10    5.70
   4  -3   6   18.40    5.30
   4  -3   6   24.10    5.60
  -5   3  -6    9.20    2.80
  -5   3  -6   -2.70    3.70
  -5   3  -6    8.00    5.20
   5  -3   6    8.00    4.70
   5  -3   6    7.40    5.80
   5  -3   6   10.80    5.00
   5  -3   6   12.70    6.20
   5  -3   6   10.20    5.00
  -6   3  -6   20.80    7.10
  -6   3  -6   23.60    6.00
   6  -3   6   24.30    6.80
   6  -3   6   18.40    8.00
   6  -3   6   34.80    8.40
   6   2  -6  218.28   12.50
  -6  -2   6  242.38   15.00
  -6  -2   6  211.88   16.50
  -6  -2   6  207.58   15.30
  -6  -2   6  227.08   17.60
   5   2  -6   61.29    8.10
   5   2  -6   62.89    6.00
   5   2  -6   61.59    5.10
  -5  -2   6   60.29    8.30
  -5  -2   6   75.09   12.20
  -5  -2   6   75.19   10.20
  -5  -2   6   74.79   10.10
  -5  -2   6   59.29    2.90
   4   2  -6  161.48    8.20
   4   2  -6  166.58   10.40
   4   2  -6  170.18    7.50
  -4  -2   6  173.68   12.50
  -4  -2   6  165.98    5.30
  -4  -2   6  152.28   12.90
  -4  -2   6  151.18    5.40
  -4  -2   6  162.98    9.80
  -4  -2   6  173.78   13.80
   3   2  -6 2345.27   52.49
   3   2  -6 2374.66   58.99
   3   2  -6 2341.47   56.19
   3   2  -6 2428.16   57.19
   3   2  -6 2399.86   55.49
  -3  -2   6 2252.37   53.09
  -3  -2   6 2359.66   63.59
  -3  -2   6 2371.66   56.79
  -3  -2   6 2384.26   61.19
   2   2  -6  313.47    9.50
   2   2  -6  313.27   13.40
   2   2  -6  314.27   12.50
  -2  -2   6  320.67   14.20
  -2  -2   6  304.07    9.50
  -2  -2   6  311.47   10.60
  -2  -2   6  298.97   15.10
  -2  -2   6  291.37   15.90
  -2  -2   6  312.97   11.00
   1   2  -6   98.59    6.40
   1   2  -6   98.79    5.70
   1   2  -6   88.19    6.60
   1   2  -6  105.79    7.50
  -1  -2   6  117.19   10.40
  -1  -2   6   88.49   10.70
  -1  -2   6  101.79    5.60
  -1  -2   6  117.09    9.40
  -1  -2   6  106.69    6.40
   0   2  -6 1114.19   30.30
   0   2  -6 1103.59   29.90
   0   2  -6 1065.79   29.30
   0   2  -6 1056.19   27.40
   0   2  -6 1096.19   28.50
   0  -2   6 1125.59   31.40
   0  -2   6 1114.59   33.00
   0  -2   6 1197.78   38.10
   0  -2   6 1105.19   27.60
   0  -2   6 1102.49   29.70
   0  -2   6 1154.78   33.90
  -1   2  -6   95.99    6.80
  -1   2  -6   95.89    7.70
  -1   2  -6   90.39    6.50
  -1   2  -6  108.09    7.20
   1  -2   6   94.39    6.90
   1  -2   6  101.19    7.30
   1  -2   6  104.99    8.70
   1  -2   6   96.19    8.80
   1  -2   6  113.19   10.20
   1  -2   6   93.69    7.60
  -2   2  -6  315.67   11.80
  -2   2  -6  328.17   13.50
  -2   2  -6  314.57   12.90
   2  -2   6  349.47   19.40
   2  -2   6  294.37   13.80
   2  -2   6  310.17   13.50
   2  -2   6  326.77   13.20
   2  -2   6  315.57   16.40
   2  -2   6  301.47   13.20
   2  -2   6  306.77   11.70
  -3   2  -6 2411.86   63.49
  -3   2  -6 2354.26   55.69
  -3   2  -6 2366.86   58.29
   3  -2   6 2365.96   59.69
   3  -2   6 2467.85   63.19
   3  -2   6 2390.96   67.59
   3  -2   6 2426.46   60.19
   3  -2   6 2380.76   59.19
   3  -2   6 2326.47   55.79
   3  -2   6 2400.66   60.89
  -4   2  -6  152.98   11.10
  -4   2  -6  158.58    9.30
  -4   2  -6  154.58   11.60
  -4   2  -6  162.68    7.10
   4  -2   6  164.78   10.30
   4  -2   6  180.38   13.80
   4  -2   6  160.08    7.10
   4  -2   6  167.48   11.30
   4  -2   6  180.98   12.40
   4  -2   6  175.48   10.40
   4  -2   6  161.08   13.00
  -5   2  -6   62.29    9.20
  -5   2  -6   62.79    9.50
   5  -2   6   60.79    7.70
   5  -2   6   65.39   11.30
   5  -2   6   58.99    8.40
   5  -2   6   55.79    9.80
   5  -2   6   65.49    9.60
   5  -2   6   64.89    9.30
  -6   2  -6  209.08   14.50
  -6   2  -6  222.28   16.20
   6  -2   6  214.68   16.40
   6  -2   6  236.58   17.00
   6  -2   6  225.48   14.40
   6  -2   6  218.08   17.50
   6  -2   6  218.28   12.90
   6   1  -6   33.80    6.60
   6   1  -6   34.70    4.60
  -6  -1   6   36.90   10.10
  -6  -1   6   45.30    8.50
  -6  -1   6   48.10    8.50
  -6  -1   6   45.60    4.40
  -6  -1   6   33.10    7.60
   5   1  -6    4.50    3.80
   5   1  -6    7.20    4.40
   5   1  -6   11.20    3.30
  -5  -1   6    9.90    2.80
  -5  -1   6    6.30    6.40
  -5  -1   6   10.90    5.20
  -5  -1   6    7.50    5.40
  -5  -1   6   10.90    4.60
   4   1  -6   30.90    4.50
   4   1  -6   30.40    4.40
   4   1  -6   29.50    3.90
   4   1  -6   47.50    6.80
   4   1  -6   32.10    3.80
  -4  -1   6   35.50    8.70
  -4  -1   6   28.60    6.60
  -4  -1   6   32.60    5.40
  -4  -1   6   37.30    6.70
   3   1  -6   31.20    4.50
   3   1  -6   33.50    4.20
   3   1  -6   36.70    6.30
   3   1  -6   28.50    4.70
   3   1  -6   30.00    3.70
  -3  -1   6   21.30    7.00
  -3  -1   6   36.70    8.40
  -3  -1   6   28.80    6.90
   2   1  -6  166.28    7.50
   2   1  -6  158.78    9.20
   2   1  -6  151.48    6.80
   2   1  -6  157.48    8.20
  -2  -1   6  141.49    5.90
  -2  -1   6  149.59    6.40
  -2  -1   6  137.29    9.90
  -2  -1   6  144.29   10.10
  -2  -1   6  143.29    5.90
  -2  -1   6  152.58    9.40
   1   1  -6  533.95   13.10
   1   1  -6  553.64   17.90
   1   1  -6  554.34   16.60
   1   1  -6  568.04   17.60
  -1  -1   6  561.74   13.20
  -1  -1   6  571.14   20.10
  -1  -1   6  550.14   20.20
  -1  -1   6  584.04   16.30
  -1  -1   6  570.04   19.00
   0   1  -6  185.88    8.30
   0   1  -6  186.58    8.70
   0   1  -6  182.68    9.10
   0   1  -6  176.78    6.10
   0   1  -6  178.08    8.20
   0  -1   6  181.38    8.30
   0  -1   6  184.08    6.00
   0  -1   6  183.98    9.70
   0  -1   6  191.78    9.80
   0  -1   6  187.28   11.50
   0  -1   6  192.18   10.90
   0  -1   6  180.18    8.60
  -1   1  -6  571.94   17.70
  -1   1  -6  581.54   18.20
  -1   1  -6  543.35   15.90
  -1   1  -6  546.05   17.30
  -1   1  -6  565.54   16.60
   1  -1   6  555.84   20.40
   1  -1   6  569.44   17.70
   1  -1   6  536.15   16.50
   1  -1   6  570.54   18.90
   1  -1   6  537.35   20.10
   1  -1   6  572.64   16.20
  -2   1  -6  158.58    9.20
  -2   1  -6  139.39    6.60
  -2   1  -6  134.79    8.00
   2  -1   6  146.69    9.10
   2  -1   6  150.78    8.60
   2  -1   6  148.99    7.00
   2  -1   6  140.39   11.20
   2  -1   6  142.39    8.20
  -3   1  -6   31.50    5.70
  -3   1  -6   31.60    5.70
  -3   1  -6   31.00    3.60
  -3   1  -6   24.10    5.80
   3  -1   6   35.30    8.20
   3  -1   6   32.90    5.60
   3  -1   6   29.90    5.90
   3  -1   6   28.60    6.10
   3  -1   6   32.00    6.60
   3  -1   6   33.80    3.80
   3  -1   6   22.40    6.50
  -4   1  -6   26.10    6.70
  -4   1  -6   33.80    2.30
  -4   1  -6   26.80    6.50
   4  -1   6   32.70    6.30
   4  -1   6   36.80    5.90
   4  -1   6   39.20    7.60
   4  -1   6   26.70    7.70
   4  -1   6   30.00    6.00
   4  -1   6   40.60    7.60
  -5   1  -6   -1.10    6.10
  -5   1  -6    9.00    5.90
  -5   1  -6    5.50    5.70
   5  -1   6   16.20    7.80
   5  -1   6   10.00    4.90
   5  -1   6    5.30    4.60
  -6   1  -6   32.10    7.80
  -6   1  -6   46.90    9.70
   6  -1   6   26.90    8.50
   6  -1   6   47.00   10.70
   6  -1   6   43.10    7.90
   6  -1   6   31.70    6.90
   6   0  -6  176.48   11.40
   6   0  -6  161.08    7.30
  -6   0   6  192.08   12.50
  -6   0   6  191.18   13.70
  -6   0   6  191.08   12.00
  -6   0   6  203.68   11.20
  -6   0   6  189.38   17.40
  -6   0   6  198.08   14.60
   5   0  -6   36.00    5.30
   5   0  -6   44.30    4.30
   5   0  -6   38.80    3.70
   5   0  -6   46.90    5.80
   5   0  -6   44.20    7.30
  -5   0   6   46.00    8.00
  -5   0   6   41.00    5.40
  -5   0   6   44.70    6.50
  -5   0   6   39.30    8.00
  -5   0   6   51.09    9.60
   4   0  -6  204.38    9.70
   4   0  -6  221.88   11.60
   4   0  -6  206.78    7.70
   4   0  -6  200.08    8.10
   4   0  -6  197.18    9.30
  -4   0   6  197.98   10.20
  -4   0   6  200.58   12.50
  -4   0   6  198.98   15.30
  -4   0   6  217.48   14.00
   3   0  -6   14.90    3.50
   3   0  -6   13.20    2.90
   3   0  -6   16.60    3.60
   3   0  -6   16.80    5.20
   3   0  -6   23.40    5.30
  -3   0   6   15.40    3.90
  -3   0   6   14.30    6.00
  -3   0   6   19.60    7.00
  -3   0   6   12.60    6.20
   2   0  -6  144.49    7.20
   2   0  -6  146.59    6.70
   2   0  -6  149.09    7.60
   2   0  -6  149.99    8.90
   2   0  -6  140.69    7.10
  -2   0   6  145.69    9.10
  -2   0   6  144.89    9.90
  -2   0   6  140.99    5.30
  -2   0   6  144.29    5.40
  -2   0   6  156.68   10.30
   1   0  -6 1033.00   28.00
   1   0  -6 1037.80   27.10
   1   0  -6 1058.19   26.90
  -1   0   6 1019.60   29.10
  -1   0   6 1009.90   29.50
  -1   0   6 1008.60   30.90
   0   0  -6 2160.68   50.99
   0   0  -6 2090.59   46.30
   0   0  -6 1999.80   54.79
   0   0  -6 2164.98   50.79
   0   0  -6 2179.08   51.39
   0   0  -6 2128.69   46.40
   0   0  -6 2033.00   56.09
   0   0  -6 2204.38   50.99
   0   0   6 2105.39   50.69
   0   0   6 2118.99   53.29
   0   0   6 2189.48   53.29
   0   0   6 2200.78   55.29
   0   0   6 2209.48   50.79
   0   0   6 2161.18   51.09
  -1   0  -6  991.00   27.20
  -1   0  -6 1000.20   25.00
  -1   0  -6  996.40   27.30
  -1   0  -6 1018.30   27.00
  -1   0  -6 1021.40   25.70
  -1   0  -6  960.50   24.90
   1   0   6 1004.00   29.30
   1   0   6 1020.60   27.20
   1   0   6  986.20   30.40
   1   0   6  976.40   25.50
   1   0   6 1011.90   28.70
  -2   0  -6  148.09    8.70
  -2   0  -6  156.98    9.10
  -2   0  -6  140.99    8.30
  -2   0  -6  125.39   10.90
  -2   0  -6  140.29    6.30
   2   0   6  143.39    6.40
   2   0   6  153.48    9.40
   2   0   6  147.59    8.90
   2   0   6  144.49   10.40
   2   0   6  146.69    8.50
   2   0   6  140.79   10.50
  -3   0  -6   14.80    5.50
  -3   0  -6   20.50    5.40
   3   0   6   15.30    4.70
   3   0   6   13.50    7.10
   3   0   6   13.70    2.40
   3   0   6   35.50    8.40
   3   0   6    9.30    4.80
   3   0   6   13.50    5.80
  -4   0  -6  199.38   12.60
  -4   0  -6  227.98   11.80
   4   0   6  233.98   15.70
   4   0   6  213.28   14.40
   4   0   6  197.18   11.20
   4   0   6  216.88   11.50
   4   0   6  202.48   13.00
  -5   0  -6   35.00    5.50
  -5   0  -6   36.30    6.70
  -5   0  -6   49.70    9.10
   5   0   6   60.59    7.90
   5   0   6   45.50    9.90
   5   0   6   39.70    9.30
   5   0   6   38.20    6.60
   5   0   6   33.90    7.60
  -6   0  -6  220.68   16.40
  -6   0  -6  208.58   14.80
   6   0   6  171.88   15.60
   6   0   6  155.88   11.20
   6   0   6  172.18   13.50
   6   0   6  190.88   16.40
   6  -1  -6   38.90    7.00
   6  -1  -6   39.90    3.10
  -6   1   6   32.90    7.90
  -6   1   6   35.40    6.70
  -6   1   6   35.00    6.20
  -6   1   6   39.50    6.90
  -6   1   6   43.30    7.80
  -6   1   6   31.30    7.00
   5  -1  -6    7.20    4.40
   5  -1  -6    6.00    4.20
   5  -1  -6    6.60    1.90
  -5   1   6   10.60    4.60
  -5   1   6    8.60    6.00
  -5   1   6   14.40    5.30
   4  -1  -6   37.40    6.30
   4  -1  -6   33.50    3.00
   4  -1  -6   33.30    3.40
   4  -1  -6   30.70    5.50
   4  -1  -6   37.80    5.80
  -4   1   6   31.60    7.20
  -4   1   6   31.50    5.20
  -4   1   6   37.80    7.00
  -4   1   6   32.80    6.00
   3  -1  -6   29.00    4.90
   3  -1  -6   31.40    3.80
   3  -1  -6   29.60    3.50
   3  -1  -6   34.00    5.70
   3  -1  -6   35.10    5.50
  -3   1   6   29.30    6.40
  -3   1   6   28.10    6.80
   2  -1  -6  151.48    8.00
   2  -1  -6  144.89    5.80
   2  -1  -6  152.28    7.10
   2  -1  -6  166.58    9.30
  -2   1   6  139.89   11.10
  -2   1   6  141.79    5.90
  -2   1   6  141.89    9.30
  -2   1   6  137.39   12.50
  -2   1   6  140.09    5.70
   1  -1  -6  580.54   17.60
   1  -1  -6  575.04   16.70
   1  -1  -6  559.44   17.70
   1  -1  -6  566.74   16.90
   1  -1  -6  577.04   18.10
  -1   1   6  544.15   12.90
  -1   1   6  588.14   15.80
  -1   1   6  552.84   20.50
  -1   1   6  575.04   20.70
  -1   1   6  599.54   19.50
   0  -1  -6  176.38    5.80
   0  -1  -6  190.18    6.10
   0  -1  -6  193.38    8.50
   0  -1  -6  185.98    8.50
   0  -1  -6  178.18    8.60
   0  -1  -6  182.58   10.10
   0  -1  -6  179.98    9.20
   0  -1  -6  173.68    8.20
   0   1   6  187.58    8.20
   0   1   6  182.98    5.80
   0   1   6  188.78   10.30
   0   1   6  185.98    8.30
   0   1   6  194.58   11.90
   0   1   6  214.08   10.70
  -1  -1  -6  567.94   17.70
  -1  -1  -6  547.35   16.10
  -1  -1  -6  587.54   18.30
  -1  -1  -6  538.55   15.80
  -1  -1  -6  555.24   16.20
  -1  -1  -6  594.34   18.00
   1   1   6  592.34   21.60
   1   1   6  539.55   17.80
   1   1   6  585.44   19.10
   1   1   6  558.14   19.40
   1   1   6  550.24   16.10
   1   1   6  579.04   17.80
  -2  -1  -6  130.79    9.90
  -2  -1  -6  139.59    8.80
  -2  -1  -6  150.68    8.50
  -2  -1  -6  154.38    6.30
  -2  -1  -6  162.98    8.80
   2   1   6  142.39    6.10
   2   1   6  147.29    8.80
   2   1   6  143.49    9.30
   2   1   6  146.69   10.10
   2   1   6  141.79    9.10
   2   1   6  152.08   10.90
  -3  -1  -6   27.80    6.20
  -3  -1  -6   24.80    6.00
  -3  -1  -6   30.50    5.70
   3   1   6   34.50    7.20
   3   1   6   25.70    2.40
   3   1   6   35.50    6.30
   3   1   6   38.10    6.80
   3   1   6   39.90    8.80
   3   1   6   23.90    7.30
  -4  -1  -6   33.80    6.50
  -4  -1  -6   36.60    6.00
  -4  -1  -6   30.20    5.70
   4   1   6   32.70    5.90
   4   1   6   31.80    6.00
   4   1   6   26.70    8.10
   4   1   6   29.00    6.90
   4   1   6   37.40    8.60
  -5  -1  -6    2.70    3.70
  -5  -1  -6   12.80    6.50
  -5  -1  -6   16.60    6.10
   5   1   6    9.20    5.30
   5   1   6    7.90    6.40
   5   1   6    5.40    4.30
   5   1   6   16.20    5.70
   5   1   6   10.60    4.90
  -6  -1  -6   32.30    7.30
  -6  -1  -6   31.60    8.40
   6   1   6   46.70   10.10
   6   1   6   30.00    6.80
   6   1   6   31.30    6.70
   6   1   6   21.40    8.40
   6  -2  -6  247.48   13.40
  -6   2   6  224.18   14.20
  -6   2   6  217.08   12.80
  -6   2   6  239.18   15.10
  -6   2   6  259.47   15.80
  -6   2   6  239.68   13.80
  -6   2   6  223.88   15.20
   5  -2  -6   57.29    7.50
   5  -2  -6   59.69    3.10
   5  -2  -6   68.99    8.30
   5  -2  -6   57.79    9.10
   5  -2  -6   52.49    7.80
  -5   2   6   64.79   10.20
  -5   2   6   59.89    7.60
  -5   2   6   59.39    8.10
  -5   2   6   61.79    7.40
  -5   2   6   58.09    8.90
  -5   2   6   67.69    8.20
   4  -2  -6  160.48   10.00
   4  -2  -6  165.38    6.30
   4  -2  -6  162.68    9.70
   4  -2  -6  157.88    9.90
  -4   2   6  168.08   11.90
  -4   2   6  161.98   10.90
  -4   2   6  174.38   11.10
  -4   2   6  172.58    9.70
  -4   2   6  151.78    9.90
   3  -2  -6 2314.17   58.29
   3  -2  -6 2405.26   54.09
   3  -2  -6 2387.56   56.79
   3  -2  -6 2369.16   58.09
   3  -2  -6 2389.26   59.59
   3  -2  -6 2429.26   54.29
  -3   2   6 2366.86   59.39
  -3   2   6 2352.96   61.49
  -3   2   6 2379.16   59.99
  -3   2   6 2315.17   58.59
   2  -2  -6  316.37   12.60
   2  -2  -6  305.47   12.70
   2  -2  -6  308.67   10.80
   2  -2  -6  314.27   10.90
   2  -2  -6  318.97   13.40
  -2   2   6  307.87   13.70
  -2   2   6  304.87   13.60
  -2   2   6  304.77   14.80
  -2   2   6  309.77   10.90
   1  -2  -6   97.29    6.00
   1  -2  -6   91.99    7.50
   1  -2  -6  106.89    6.60
   1  -2  -6   88.59    8.00
   1  -2  -6   99.79    5.10
   1  -2  -6   97.99    7.20
   1  -2  -6   98.29    7.30
  -1   2   6   99.09    9.20
  -1   2   6   99.59    5.50
  -1   2   6   94.49    7.20
  -1   2   6   92.59    5.70
  -1   2   6  101.49    8.20
   0  -2  -6 1144.89   27.60
   0  -2  -6 1148.19   29.70
   0  -2  -6 1149.98   30.20
   0  -2  -6 1131.69   29.40
   0  -2  -6 1105.99   29.90
   0  -2  -6 1090.99   29.30
   0  -2  -6 1050.99   40.90
   0   2   6 1054.99   30.80
   0   2   6 1045.10   27.00
   0   2   6 1102.19   28.90
   0   2   6 1106.39   30.70
   0   2   6 1100.29   29.50
   0   2   6 1084.99   28.80
   0   2   6 1176.48   33.20
  -1  -2  -6  103.59    7.60
  -1  -2  -6   93.79    6.00
  -1  -2  -6   81.79    6.70
  -1  -2  -6  102.09    6.80
   1   2   6   97.49    7.00
   1   2   6  106.39    8.80
   1   2   6   96.49    7.00
   1   2   6  107.49   10.10
   1   2   6  101.69    8.60
   1   2   6   96.79    5.70
   1   2   6  104.39    6.30
  -2  -2  -6  316.57   18.60
  -2  -2  -6  307.27   13.30
  -2  -2  -6  315.07   13.60
  -2  -2  -6  324.77   13.40
   2   2   6  312.67   13.20
   2   2   6  316.37   14.10
   2   2   6  322.27   10.80
   2   2   6  325.07   10.50
   2   2   6  332.37   16.90
   2   2   6  330.07   14.90
   2   2   6  325.77   13.50
  -3  -2  -6 2443.46   59.79
  -3  -2  -6 2356.16   59.69
  -3  -2  -6 2450.25   61.19
   3   2   6 2301.37   52.99
   3   2   6 2433.16   63.29
   3   2   6 2257.37   62.59
   3   2   6 2390.36   62.09
   3   2   6 2448.96   61.99
   3   2   6 2481.55   65.39
  -4  -2  -6  158.48   10.60
  -4  -2  -6  173.08   12.30
  -4  -2  -6  156.98   10.40
   4   2   6  181.88   12.70
   4   2   6  164.28   10.70
   4   2   6  167.28   10.70
   4   2   6  178.58   13.10
   4   2   6  178.28   14.70
  -5  -2  -6   58.69    9.80
  -5  -2  -6   57.49    8.40
   5   2   6   68.59   12.10
   5   2   6   53.29    8.50
   5   2   6   60.99    8.30
   5   2   6   58.29   11.50
   5   2   6   76.29   11.60
  -6  -2  -6  223.38   16.50
  -6  -2  -6  223.28   13.70
   6   2   6  217.18   15.70
   6   2   6  220.48   17.30
   6   2   6  206.78   13.20
   6   2   6  195.18   17.60
   6  -3  -6   21.00    6.90
  -6   3   6   16.20    6.00
  -6   3   6   30.10    6.90
  -6   3   6   36.60    6.80
  -6   3   6   30.60    6.40
   5  -3  -6   15.40    5.00
   5  -3  -6    7.70    2.10
   5  -3  -6    2.50    4.00
   5  -3  -6    6.80    1.90
   5  -3  -6   22.60    5.90
  -5   3   6   10.60    4.70
  -5   3   6    6.90    4.30
  -5   3   6   15.70    5.70
  -5   3   6   21.30    5.30
  -5   3   6    9.10    5.20
   4  -3  -6   22.90    3.30
   4  -3  -6   18.00    5.10
   4  -3  -6   16.60    5.60
   4  -3  -6   19.60    5.60
  -4   3   6   16.20    5.50
  -4   3   6   28.40    6.60
  -4   3   6   21.50    5.40
  -4   3   6   20.80    6.00
   3  -3  -6    9.60    3.80
   3  -3  -6    7.90    4.00
   3  -3  -6   12.00    4.80
   3  -3  -6   15.50    5.40
   3  -3  -6    8.40    3.00
   3  -3  -6   10.60    2.80
  -3   3   6    9.70    5.20
  -3   3   6   14.00    5.60
  -3   3   6    5.50    4.30
  -3   3   6   11.50    4.50
   2  -3  -6   92.49    7.90
   2  -3  -6   69.49    7.60
   2  -3  -6   87.09    6.30
   2  -3  -6   77.39    7.00
   2  -3  -6   73.79    6.50
   2  -3  -6   82.59    7.70
  -2   3   6   83.59    8.90
  -2   3   6   78.09    8.00
  -2   3   6   85.49    5.30
  -2   3   6   85.59    8.60
  -2   3   6   89.39    6.90
   1  -3  -6  258.67   12.00
   1  -3  -6  262.67   12.80
   1  -3  -6  258.57   11.50
   1  -3  -6  278.17   15.20
   1  -3  -6  267.17   11.60
   1  -3  -6  259.97   10.90
  -1   3   6  251.77    9.00
  -1   3   6  277.07   14.50
  -1   3   6  265.67   12.20
  -1   3   6  273.17   12.10
  -1   3   6  253.57    8.60
  -1   3   6  249.38    9.60
   0  -3  -6  120.99    7.80
   0  -3  -6  113.69    7.30
   0  -3  -6  113.59    8.30
   0  -3  -6  120.69    7.40
   0   3   6  114.19    6.20
   0   3   6  112.19    8.80
   0   3   6  115.69    7.20
   0   3   6  136.69   10.80
  -1  -3  -6  254.07   12.80
  -1  -3  -6  263.87   12.20
  -1  -3  -6  272.17   12.10
  -1  -3  -6  263.57   12.00
  -1  -3  -6  262.07   11.80
   1   3   6  253.77   17.40
   1   3   6  290.37   15.10
   1   3   6  259.67   10.80
   1   3   6  266.07   11.10
   1   3   6  265.37   16.10
   1   3   6  270.77   11.70
  -2  -3  -6   73.69    7.90
  -2  -3  -6   82.49    8.80
  -2  -3  -6   96.29    8.20
   2   3   6   86.09    6.20
   2   3   6   76.09    7.40
   2   3   6   76.19    8.70
   2   3   6   76.59    7.80
   2   3   6   84.49   10.50
   2   3   6   78.59    6.30
  -3  -3  -6   19.10    6.50
  -3  -3  -6    7.30    4.80
  -3  -3  -6    9.70    5.80
   3   3   6   14.90    2.50
   3   3   6   14.80    5.80
   3   3   6   15.40    4.90
   3   3   6    9.20    6.00
   3   3   6    7.50    2.80
   3   3   6    9.30    4.80
  -4  -3  -6   19.00    5.40
  -4  -3  -6   14.90    5.30
  -4  -3  -6   29.30    8.20
   4   3   6   24.10    7.00
   4   3   6   20.10    6.00
  -5  -3  -6   10.60    6.80
  -5  -3  -6    1.60    4.90
   5   3   6    4.50    4.20
   5   3   6    6.20    5.90
   5   3   6    3.60    6.00
   5   3   6   17.50    5.90
  -6  -3  -6   30.90    9.50
  -6  -3  -6   20.40    6.90
   6   3   6   30.10    6.60
   6   3   6   18.90    8.20
   6   3   6   41.20    8.80
   6   3   6   22.30    9.20
   5  -4  -6   28.50    7.00
   5  -4  -6   28.10    3.50
   5  -4  -6   27.80    3.40
   5  -4  -6   25.50    6.30
   5  -4  -6   21.70    6.10
  -5   4   6   35.60    6.20
  -5   4   6   31.90    6.20
  -5   4   6   37.40    7.50
   4  -4  -6  106.19    9.40
   4  -4  -6  124.19   10.00
   4  -4  -6  110.89    6.40
   4  -4  -6  117.79    9.30
   4  -4  -6  108.99    6.40
  -4   4   6  122.89   10.20
  -4   4   6  117.69    9.50
  -4   4   6  134.09   10.80
  -4   4   6  117.99    8.50
   3  -4  -6   52.49    5.10
   3  -4  -6   59.99    8.40
   3  -4  -6   60.99    8.00
   3  -4  -6   49.40    5.10
   3  -4  -6   49.70    7.00
  -3   4   6   69.29    8.90
  -3   4   6   53.99    8.30
  -3   4   6   46.80    5.60
   2  -4  -6   96.59    7.70
   2  -4  -6   89.49    8.40
   2  -4  -6  104.79    8.30
   2  -4  -6   93.59    6.80
   2  -4  -6  109.69    8.30
   2  -4  -6   97.79    6.90
   2  -4  -6  103.69    8.70
  -2   4   6  104.29    9.20
  -2   4   6   91.29    7.90
  -2   4   6  101.89    3.60
  -2   4   6  108.09    9.50
  -2   4   6   94.09    4.20
  -2   4   6  107.09    8.30
   1  -4  -6  428.56   16.50
   1  -4  -6  385.46   16.80
   1  -4  -6  419.16   15.90
   1  -4  -6  441.76   15.40
  -1   4   6  417.46   17.30
  -1   4   6  437.46   16.80
  -1   4   6  430.26   15.80
  -1   4   6  403.46   13.70
   0  -4  -6 1046.50   29.80
   0  -4  -6 1013.70   29.70
   0  -4  -6 1067.79   29.20
   0  -4  -6  978.80   28.70
   0  -4  -6  958.80   23.20
   0  -4  -6 1017.70   29.20
   0   4   6 1055.59   29.90
   0   4   6 1032.20   29.30
   0   4   6 1000.40   23.20
   0   4   6  997.40   28.50
   0   4   6 1044.90   31.50
  -1  -4  -6  438.36   15.70
  -1  -4  -6  421.46   16.10
  -1  -4  -6  439.96   17.40
   1   4   6  403.86   13.50
   1   4   6  410.06   15.50
   1   4   6  452.55   19.10
   1   4   6  419.36   16.70
   1   4   6  414.66   18.60
  -2  -4  -6  107.59   10.10
  -2  -4  -6  109.79    8.10
  -2  -4  -6   96.49    9.80
  -2  -4  -6  105.09    7.20
   2   4   6   86.29    7.60
   2   4   6   98.39    9.20
   2   4   6  108.09    7.60
   2   4   6  102.89   10.80
   2   4   6  105.59    8.10
  -3  -4  -6   52.19    5.70
  -3  -4  -6   44.10    8.60
  -3  -4  -6   52.19    7.40
  -3  -4  -6   70.49    8.30
   3   4   6   66.19   10.50
   3   4   6   57.19    8.30
   3   4   6   53.49    4.40
   3   4   6   54.89    7.70
   3   4   6   51.79    5.20
   3   4   6   51.29    8.00
  -4  -4  -6  113.19   12.10
  -4  -4  -6  113.19    9.20
   4   4   6  135.29   13.40
   4   4   6  118.19   11.10
   4   4   6  110.39    4.50
   4   4   6  120.69   10.90
   4   4   6  104.49    9.80
  -5  -4  -6   27.40    6.10
   5   4   6   28.00    6.80
   5   4   6   26.30    9.10
   5   4   6   32.20    8.10
   5   4   6   28.40    7.30
   5  -5  -6   16.70    3.70
   5  -5  -6   11.10    5.60
   5  -5  -6    7.80    5.60
   5  -5  -6    1.10    2.60
  -5   5   6    5.50    4.60
  -5   5   6    4.70    4.60
  -5   5   6   -6.20    4.60
  -5   5   6    8.50    5.70
   4  -5  -6   11.20    3.70
   4  -5  -6    4.10    4.40
   4  -5  -6   12.00    5.10
   4  -5  -6    7.70    3.50
   4  -5  -6    4.20    5.40
  -4   5   6    4.10    5.40
  -4   5   6    6.70    6.20
  -4   5   6    5.00    5.10
   3  -5  -6    2.30    4.30
   3  -5  -6   -5.80    4.20
   3  -5  -6    5.60    3.40
   3  -5  -6    3.90    4.90
   3  -5  -6    0.70    3.30
  -3   5   6    1.00    5.10
  -3   5   6    0.20    5.30
  -3   5   6   -0.30    4.30
   2  -5  -6   38.00    7.00
   2  -5  -6   36.30    6.80
   2  -5  -6   33.00    6.40
   2  -5  -6   33.80    5.70
   2  -5  -6   28.10    4.70
  -2   5   6   26.50    5.30
  -2   5   6   18.80    5.30
  -2   5   6   24.30    6.30
  -2   5   6   35.20    4.60
  -2   5   6   36.70    7.70
   1  -5  -6   64.69    6.70
   1  -5  -6   63.59    7.60
   1  -5  -6   64.79    6.50
   1  -5  -6   70.99    6.50
   1  -5  -6   60.39    6.60
  -1   5   6   82.29    9.50
  -1   5   6   56.39    7.50
  -1   5   6   54.89    5.60
  -1   5   6   69.19    6.80
   0  -5  -6   46.30    6.80
   0  -5  -6   51.29    6.90
   0  -5  -6   49.99    6.60
   0  -5  -6   43.40    7.30
   0  -5  -6   62.39    7.50
   0   5   6   45.10    7.20
   0   5   6   47.10    6.30
   0   5   6   42.50    6.00
  -1  -5  -6   62.49    8.70
  -1  -5  -6   84.29    9.50
  -1  -5  -6   82.29    7.10
  -1  -5  -6   71.89    7.50
  -1  -5  -6   72.79    8.50
   1   5   6   71.59    7.70
   1   5   6   67.29    8.50
   1   5   6   66.79    7.30
   1   5   6   58.59    9.00
   1   5   6   60.69    4.50
  -2  -5  -6   40.00    8.40
  -2  -5  -6   30.10    6.30
  -2  -5  -6   38.00    5.80
   2   5   6   25.30    5.40
   2   5   6   28.10    6.20
   2   5   6   31.90    5.30
   2   5   6   33.60    6.50
   2   5   6   36.50    7.80
  -3  -5  -6    7.80    7.00
  -3  -5  -6    8.20    5.00
  -3  -5  -6    5.30    3.40
  -3  -5  -6   -0.80    4.20
   3   5   6    4.90    5.90
   3   5   6    8.50    4.60
   3   5   6    5.70    4.70
   3   5   6    1.90    4.70
  -4  -5  -6   13.50    5.40
  -4  -5  -6   11.80    5.30
  -4  -5  -6   17.70    8.10
   4   5   6   16.80    6.50
   4   5   6    6.50    6.40
   4   5   6    8.50    5.20
   4   5   6    9.30    3.10
   4   5   6   10.50    5.60
  -5  -5  -6   10.40    5.70
  -5  -5  -6   -6.70    7.20
   5   5   6   13.10    6.40
   5   5   6    9.60    6.50
   5   5   6    5.90    5.90
   5   5   6    0.00    6.40
   4  -6  -6   51.39    8.80
   4  -6  -6   79.29    6.40
   4  -6  -6   83.59    9.10
   4  -6  -6   84.09   10.60
  -4   6   6   75.09   11.20
   3  -6  -6  639.84   21.00
   3  -6  -6  625.54   24.70
   3  -6  -6  635.14   24.60
   3  -6  -6  621.44   21.00
   3  -6  -6  607.74   23.60
  -3   6   6  581.04   19.20
  -3   6   6  586.44   17.90
  -3   6   6  637.14   24.80
   2  -6  -6   80.19    7.30
   2  -6  -6   81.49    9.80
   2  -6  -6   79.49    9.20
   2  -6  -6   81.49    7.80
   2  -6  -6   83.19    9.00
  -2   6   6   91.39   11.00
  -2   6   6   82.29    6.20
   1  -6  -6   67.99    6.90
   1  -6  -6   49.70    8.40
   1  -6  -6   56.69    8.20
  -1   6   6   33.60    5.50
  -1   6   6   49.30    5.70
  -1   6   6   52.09    6.90
  -1   6   6   58.59    9.20
   0  -6  -6  389.56   18.10
   0  -6  -6  343.87   15.60
   0  -6  -6  342.67   15.40
   0  -6  -6  342.77   15.20
   0  -6  -6  355.06   16.00
   0   6   6  329.97   14.70
   0   6   6  325.77   17.90
   0   6   6  330.47   16.30
   0   6   6  303.67   15.00
  -1  -6  -6   60.19    6.40
  -1  -6  -6   60.89    9.90
  -1  -6  -6   49.40    7.10
  -1  -6  -6   59.39    8.30
   1   6   6   67.09    6.90
   1   6   6   51.59    9.10
   1   6   6   42.90    7.40
   1   6   6   51.99    7.60
  -2  -6  -6   80.99    9.10
  -2  -6  -6   89.49    8.40
  -2  -6  -6   84.49   11.80
  -2  -6  -6   63.59    6.40
   2   6   6   71.79    9.50
   2   6   6   82.89    6.70
   2   6   6   87.49    9.10
   2   6   6   78.69    7.80
   2   6   6   88.89    8.60
  -3  -6  -6  660.73   22.50
  -3  -6  -6  626.54   27.40
  -3  -6  -6  614.54   22.60
  -3  -6  -6  744.93   29.50
   3   6   6  632.74   24.60
   3   6   6  636.54   27.70
   3   6   6  695.83   25.80
   3   6   6  621.24   22.50
   3   6   6  623.94   21.20
  -4  -6  -6   74.69    8.80
  -4  -6  -6   82.89   13.00
   4   6   6   88.49   13.60
   4   6   6   78.29    7.60
   4   6   6   79.69    9.80
   4   6   6   80.99   10.90
   4   6   6   86.29   11.00
   3  -7  -6   -2.20    4.50
   3  -7  -6    0.40    4.90
   3  -7  -6   -0.90    3.80
   3  -7  -6   -9.70    4.30
  -3   7   6  -12.20    6.00
   2  -7  -6    1.10    4.60
   2  -7  -6    8.40    5.30
   2  -7  -6   12.80    6.40
   2  -7  -6    4.80    5.90
  -2   7   6    1.40    6.30
   1  -7  -6   22.30    6.10
   1  -7  -6   14.00    7.00
   1  -7  -6   15.70    5.20
   1  -7  -6    8.50    5.50
  -1   7   6    8.40    3.50
  -1   7   6   11.30    2.90
  -1   7   6   13.10    6.60
   0  -7  -6   11.80    5.40
   0  -7  -6    9.90    5.10
   0  -7  -6   27.10    6.30
   0  -7  -6    8.80    7.00
   0   7   6    9.20    6.40
  -1  -7  -6   13.70    5.50
  -1  -7  -6    9.30    5.50
  -1  -7  -6   11.00    7.40
  -1  -7  -6   21.00    4.90
   1   7   6   14.50    5.90
   1   7   6   14.80    6.20
   1   7   6   19.50    4.70
  -2  -7  -6    9.60    3.70
  -2  -7  -6    9.30    5.60
  -2  -7  -6    6.80    4.90
  -2  -7  -6    5.50    7.80
   2   7   6   12.90    4.90
   2   7   6   11.20    6.10
   2   7   6    7.60    5.40
  -3  -7  -6    2.10    3.30
  -3  -7  -6   -0.80    4.20
  -3  -7  -6   -3.40    4.00
  -3  -7  -6   -8.70    7.40
   3   7   6   -5.50    5.20
   3   7   6   -2.20    4.40
   3   7   6   -3.60    5.30
   3   7   6    1.80    6.00
   2  -8  -6   38.00    8.90
   2  -8  -6   31.40    7.70
   2  -8  -6   36.80    9.00
  -2   8   6   41.00    9.50
   1  -8  -6   87.39    9.40
   1  -8  -6   86.69    9.30
   1  -8  -6  103.19   10.80
  -1   8   6  100.29   12.50
   0  -8  -6  254.67   14.90
   0  -8  -6  256.87   15.00
   0   8   6  241.58   16.10
  -1  -8  -6   84.09   13.10
  -1  -8  -6   93.09    8.10
  -1  -8  -6   74.19   10.10
   1   8   6   81.29    7.40
   1   8   6   91.19    9.00
   1   8   6   75.69   10.70
  -2  -8  -6   37.80    9.40
  -2  -8  -6   38.30   10.90
   2   8   6   28.00    9.20
   2   8   6   34.80    7.30
   2   8   6   39.60    9.10
   1   8  -7  173.88   13.50
   1   8  -7  171.48   12.90
  -1  -8   7  140.89   17.70
  -1  -8   7  173.28   13.70
  -1  -8   7  175.88   14.70
   0   8  -7    6.70    4.70
   0   8  -7    2.10    4.40
   0  -8   7    3.20    9.20
   0  -8   7   -0.10    6.30
   0  -8   7   10.90    5.40
  -1   8  -7  155.28   13.00
  -1   8  -7  154.58   10.60
   1  -8   7  162.18   14.10
   1  -8   7  175.38   16.30
   3   7  -7   -6.80    4.60
  -3  -7   7    3.90    5.20
  -3  -7   7   -4.90    9.50
  -3  -7   7   -4.50    5.70
   2   7  -7   -2.80    5.10
   2   7  -7   11.80    6.50
  -2  -7   7   -5.30    5.40
  -2  -7   7   11.70    5.70
  -2  -7   7  -12.50   10.10
   1   7  -7   28.30    4.70
   1   7  -7   40.70    7.10
   1   7  -7   50.89    8.80
  -1  -7   7   39.80    7.90
  -1  -7   7   48.30    7.00
  -1  -7   7   49.60    8.80
  -1  -7   7   27.50   11.10
  -1  -7   7   31.20    7.40
   0   7  -7    3.70    4.80
   0   7  -7   -4.00    4.20
   0   7  -7   10.50    5.50
   0  -7   7   -1.50    5.40
   0  -7   7    2.20    4.40
   0  -7   7    0.80    8.20
   0  -7   7  -11.50    5.60
  -1   7  -7   37.40    8.00
  -1   7  -7   35.60    6.00
  -1   7  -7   37.10    7.80
   1  -7   7   27.60    7.70
   1  -7   7   27.50    6.30
   1  -7   7   48.90   11.00
   1  -7   7   23.40    6.60
  -2   7  -7    7.90    5.80
  -2   7  -7   11.80    5.60
   2  -7   7   -2.90    7.50
   2  -7   7   12.00    7.60
   2  -7   7   -0.30    4.70
  -3   7  -7    4.00    5.10
  -3   7  -7    6.80    5.60
   3  -7   7    7.20    5.80
   3  -7   7    2.20    4.60
   3  -7   7    3.70    8.20
   4   6  -7  126.49   12.00
   4   6  -7  145.89   11.60
  -4  -6   7  104.49   13.60
  -4  -6   7  152.38   13.10
  -4  -6   7  136.99   12.60
  -4  -6   7  118.89   17.50
   3   6  -7    9.50    5.60
   3   6  -7   10.80    5.40
  -3  -6   7   16.60    5.80
  -3  -6   7   -2.10    5.50
  -3  -6   7    1.00    5.40
   2   6  -7  292.27   16.10
   2   6  -7  282.67   15.80
  -2  -6   7  294.07   15.70
  -2  -6   7  291.87   16.70
  -2  -6   7  289.47   15.70
  -2  -6   7  279.17   20.30
  -2  -6   7  304.17   14.10
   1   6  -7  157.68   11.40
   1   6  -7  184.68   12.50
   1   6  -7  163.38    8.00
  -1  -6   7  177.38   12.40
  -1  -6   7  187.58   11.20
  -1  -6   7  199.68   13.40
  -1  -6   7  174.38   16.30
  -1  -6   7  171.48   12.10
   0   6  -7    9.50    5.50
   0   6  -7    4.40    5.30
   0   6  -7    5.90    3.80
   0  -6   7   -6.70    5.70
   0  -6   7  -10.20    5.20
   0  -6   7   11.40    9.20
   0  -6   7   -5.00    4.30
   0  -6   7   -1.50    3.60
  -1   6  -7  180.58   12.40
  -1   6  -7  197.48   11.20
  -1   6  -7  198.38   12.60
   1  -6   7  190.38   13.10
   1  -6   7  163.88   13.00
   1  -6   7  178.98   11.60
   1  -6   7  183.88   11.70
   1  -6   7  185.98   16.00
  -2   6  -7  318.77   15.00
  -2   6  -7  295.77   15.20
  -2   6  -7  343.87   19.50
   2  -6   7  273.57   14.90
   2  -6   7  292.77   15.20
   2  -6   7  307.97   19.50
   2  -6   7  299.27   16.70
  -3   6  -7   13.20    4.80
  -3   6  -7   12.80    5.30
   3  -6   7    3.80    4.20
   3  -6   7   13.60    5.10
   3  -6   7    3.40    7.60
   3  -6   7   -2.40    4.70
   3  -6   7   -2.10    5.40
  -4   6  -7  123.69   10.20
  -4   6  -7  122.69   11.70
   4  -6   7  103.39   10.10
   4  -6   7  124.39   12.70
   4  -6   7  130.99   13.80
   5   5  -7   13.40    5.30
   4   5  -7   21.80    6.30
   4   5  -7   30.60    6.70
  -4  -5   7   34.20    7.20
  -4  -5   7   38.40    7.90
  -4  -5   7   12.70    7.30
   3   5  -7    1.50    5.10
   3   5  -7   -6.40    5.00
   3   5  -7    7.40    4.60
  -3  -5   7   -9.40    5.60
  -3  -5   7   -9.00    7.70
  -3  -5   7    7.90    5.20
  -3  -5   7    3.50    5.20
   2   5  -7   23.10    6.00
   2   5  -7   28.20    6.90
   2   5  -7   18.70    5.40
  -2  -5   7   23.00    6.60
  -2  -5   7   14.90    6.00
  -2  -5   7    9.80    9.10
  -2  -5   7   18.80    4.60
  -2  -5   7   18.50    6.20
   1   5  -7  133.89   10.70
   1   5  -7  136.89    7.10
   1   5  -7  112.29   10.00
  -1  -5   7  127.39   14.30
  -1  -5   7  146.79    9.40
  -1  -5   7  147.69   10.60
  -1  -5   7  124.19   11.80
  -1  -5   7  129.79   10.50
   0   5  -7    6.40    5.10
   0   5  -7   -4.70    3.00
   0   5  -7   -1.40    3.30
   0  -5   7    0.40    8.00
   0  -5   7   -4.90    2.90
   0  -5   7    5.70    5.70
   0  -5   7    3.00    5.10
   0  -5   7   -2.60    4.60
  -1   5  -7  149.69   10.60
  -1   5  -7  148.69    9.30
  -1   5  -7  120.19   10.10
   1  -5   7  126.49    9.50
   1  -5   7  134.39   13.90
   1  -5   7  122.59   12.00
   1  -5   7  144.39   10.80
  -2   5  -7   22.40    6.00
  -2   5  -7   15.50    5.10
  -2   5  -7   26.70    6.20
   2  -5   7   10.10    5.20
   2  -5   7   17.30    5.30
   2  -5   7   11.70    6.50
   2  -5   7   12.60    8.30
   2  -5   7   24.90    6.40
  -3   5  -7    5.00    4.40
  -3   5  -7    0.50    4.80
  -3   5  -7    3.60    5.20
   3  -5   7    6.00    4.90
   3  -5   7   10.20    7.70
   3  -5   7    4.50    5.30
   3  -5   7    7.10    4.70
  -4   5  -7    8.30    5.20
  -4   5  -7   27.00    5.80
   4  -5   7   13.60    6.00
   4  -5   7   16.60    6.40
   4  -5   7   31.50    8.90
   4  -5   7   25.30    5.50
   4  -5   7   25.30    6.30
   5   4  -7  119.09    9.80
   5   4  -7   86.39    9.50
  -5  -4   7   90.59   11.50
  -5  -4   7  107.89   11.50
  -5  -4   7  102.89   10.60
  -5  -4   7   98.79   15.70
   4   4  -7  188.48    7.70
   4   4  -7  198.88   12.90
   4   4  -7  187.58   11.80
   4   4  -7  230.38   13.10
  -4  -4   7  209.48   14.90
  -4  -4   7  184.98   13.10
  -4  -4   7  180.68   12.90
  -4  -4   7  186.78   15.40
   3   4  -7    0.50    5.40
   3   4  -7    2.30    4.20
   3   4  -7    2.10    4.20
  -3  -4   7    1.70    6.00
  -3  -4   7    3.40    2.80
  -3  -4   7   -6.50    7.40
  -3  -4   7   10.10    6.70
  -3  -4   7   -5.20    4.50
   2   4  -7  329.77   15.10
   2   4  -7  317.47   15.20
   2   4  -7  303.17    8.90
   2   4  -7  314.07   13.80
   2   4  -7  329.57    9.10
  -2  -4   7  326.87   14.00
  -2  -4   7  348.17   19.90
  -2  -4   7  336.57   16.40
  -2  -4   7  344.17   17.90
   1   4  -7  615.34   21.90
   1   4  -7  599.34   21.70
   1   4  -7  594.14   17.40
  -1  -4   7  623.74   20.20
  -1  -4   7  616.74   22.30
  -1  -4   7  624.54   24.10
  -1  -4   7  600.14   20.20
  -1  -4   7  600.34   25.90
   0   4  -7    4.60    5.40
   0   4  -7    4.10    3.90
   0   4  -7   -0.90    3.30
   0  -4   7    1.90    3.80
   0  -4   7   -2.40    3.90
   0  -4   7    4.40    6.10
   0  -4   7    4.70    6.70
   0  -4   7   -1.90    5.40
  -1   4  -7  613.94   20.00
  -1   4  -7  591.04   21.70
  -1   4  -7  590.44   20.90
   1  -4   7  584.24   20.90
   1  -4   7  594.64   20.80
   1  -4   7  613.84   25.90
   1  -4   7  621.14   22.00
   1  -4   7  622.34   24.20
  -2   4  -7  339.97   14.40
  -2   4  -7  327.57   15.30
  -2   4  -7  346.27   14.70
   2  -4   7  349.67   15.30
   2  -4   7  338.97   19.10
   2  -4   7  333.47   15.70
   2  -4   7  330.17   14.90
   2  -4   7  339.97   16.90
  -3   4  -7   12.00    4.20
  -3   4  -7    3.80    4.00
  -3   4  -7    2.30    4.70
   3  -4   7    2.30    5.10
   3  -4   7    7.30    6.90
   3  -4   7    5.90    4.30
   3  -4   7    8.50    5.40
   3  -4   7    1.10    4.00
   3  -4   7    3.20    4.70
  -4   4  -7  189.88   13.30
  -4   4  -7  212.08   10.60
   4  -4   7  182.48   15.30
   4  -4   7  216.48   14.00
   4  -4   7  190.88   12.00
   4  -4   7  216.38   14.60
   4  -4   7  216.18   12.50
  -5   4  -7   78.99   11.20
  -5   4  -7  105.69    7.30
   5  -4   7   99.99    9.20
   5  -4   7   96.29   11.70
   5  -4   7   88.59   13.80
   5  -4   7  111.99   13.10
   5  -4   7   71.39   10.40
   5   3  -7   23.60    6.00
   5   3  -7   26.00    5.40
  -5  -3   7   27.00    8.50
  -5  -3   7   13.00    5.80
  -5  -3   7   43.80    8.80
  -5  -3   7   17.70    6.50
   4   3  -7   30.00    4.20
   4   3  -7   28.60    5.20
   4   3  -7   35.30    5.80
  -4  -3   7   29.80    9.80
  -4  -3   7   43.90    8.50
  -4  -3   7   34.50    7.00
  -4  -3   7   39.50    8.10
   3   3  -7    2.30    3.90
   3   3  -7    5.00    4.80
   3   3  -7   -3.00    2.90
  -3  -3   7   -0.80    4.40
  -3  -3   7    5.50    3.50
  -3  -3   7   -0.10    4.00
  -3  -3   7    6.70    7.60
  -3  -3   7    3.90    4.10
   2   3  -7   49.50    7.00
   2   3  -7   44.70    5.90
   2   3  -7   66.19    8.40
   2   3  -7   49.40    4.00
  -2  -3   7   44.40    5.70
  -2  -3   7   76.29   11.80
  -2  -3   7   46.60    8.10
  -2  -3   7   57.59    3.60
  -2  -3   7   62.09    9.70
   1   3  -7  362.86   14.40
   1   3  -7  351.36   15.40
   1   3  -7  379.76   15.90
   1   3  -7  387.66   12.60
  -1  -3   7  404.76   20.10
  -1  -3   7  385.36   14.10
  -1  -3   7  356.86   17.90
  -1  -3   7  385.76   17.00
   0   3  -7    5.20    4.80
   0   3  -7    2.90    2.80
   0   3  -7    1.10    3.50
   0   3  -7   -0.60    3.30
   0  -3   7    4.90    5.70
   0  -3   7   -5.30    3.30
   0  -3   7   -1.20    6.10
   0  -3   7    8.20    8.40
   0  -3   7    0.20    3.20
  -1   3  -7  398.66   15.20
  -1   3  -7  382.26   14.70
  -1   3  -7  389.36   16.30
   1  -3   7  379.06   15.20
   1  -3   7  367.86   16.30
   1  -3   7  378.46   18.40
   1  -3   7  369.96   19.50
   1  -3   7  375.26   14.60
  -2   3  -7   63.89    7.90
  -2   3  -7   53.89    6.90
   2  -3   7   53.79    9.20
   2  -3   7   39.00    6.70
   2  -3   7   55.19    7.80
   2  -3   7   53.89    9.50
   2  -3   7   58.99    7.50
   2  -3   7   59.19    7.00
  -3   3  -7    3.70    4.10
  -3   3  -7   12.40    4.70
  -3   3  -7    6.30    4.00
   3  -3   7    0.40    4.60
   3  -3   7    2.10    5.30
   3  -3   7    5.00    5.40
   3  -3   7   -0.50    6.00
   3  -3   7    2.60    3.80
   3  -3   7    8.70    5.00
  -4   3  -7   39.10    7.90
  -4   3  -7   23.80    5.80
   4  -3   7   49.80    7.30
   4  -3   7   30.00    9.30
   4  -3   7   57.69    7.70
   4  -3   7   37.80    7.00
   4  -3   7   35.30    7.70
   4  -3   7   33.70    7.90
  -5   3  -7    8.00    6.10
  -5   3  -7   29.00    6.90
  -5   3  -7   21.10    3.30
   5  -3   7   27.50    9.20
   5  -3   7   26.50    7.40
   5  -3   7   20.60    7.70
   5  -3   7   27.40    6.50
   5  -3   7   22.50    5.60
   6   2  -7   18.10    5.90
   6   2  -7   21.10    5.40
  -6  -2   7    6.50    5.70
  -6  -2   7   35.40    8.50
  -6  -2   7   17.90    7.10
  -6  -2   7   17.30    8.30
   5   2  -7  399.96   17.60
   5   2  -7  370.56   14.90
   5   2  -7  393.06   14.60
  -5  -2   7  402.46   22.10
  -5  -2   7  413.46   19.90
  -5  -2   7  397.06   19.30
  -5  -2   7  387.66   21.20
   4   2  -7  250.17   13.30
   4   2  -7  245.78   10.90
   4   2  -7  258.07   12.00
   4   2  -7  259.17    8.00
   4   2  -7  265.97   11.90
  -4  -2   7  242.88   14.50
  -4  -2   7  267.37   16.30
  -4  -2   7  241.08   12.40
  -4  -2   7  248.48    7.80
  -4  -2   7  277.17   17.40
   3   2  -7    4.50    3.20
   3   2  -7    3.40    2.00
   3   2  -7    3.90    3.60
   3   2  -7   -4.30    4.20
   3   2  -7    2.70    3.50
  -3  -2   7    2.50    5.30
  -3  -2   7   14.30    7.50
  -3  -2   7    0.30    5.40
  -3  -2   7   -2.20    2.20
  -3  -2   7   -1.90    3.60
   2   2  -7  812.72   21.10
   2   2  -7  769.92   20.70
   2   2  -7  822.12   25.20
   2   2  -7  780.22   23.10
   2   2  -7  824.52   24.40
  -2  -2   7  790.62   21.30
  -2  -2   7  801.52   28.30
  -2  -2   7  832.42   29.40
  -2  -2   7  807.32   26.50
   1   2  -7  553.84   19.20
   1   2  -7  577.54   18.00
   1   2  -7  573.94   16.80
   1   2  -7  558.34   19.00
   1   2  -7  535.25   17.80
  -1  -2   7  562.74   15.20
  -1  -2   7  551.34   21.80
  -1  -2   7  578.54   22.30
  -1  -2   7  552.44   17.50
  -1  -2   7  566.74   20.30
   0   2  -7    2.50    4.40
   0   2  -7   -0.60    2.30
   0   2  -7    4.20    3.50
   0   2  -7    3.40    3.30
   0   2  -7   -5.30    2.60
   0  -2   7   -0.30    2.50
   0  -2   7    7.30    5.80
   0  -2   7   -0.20    4.00
   0  -2   7   -0.40    4.60
   0  -2   7   -3.50    5.00
  -1   2  -7  547.65   18.30
  -1   2  -7  555.14   20.10
  -1   2  -7  535.45   19.00
  -1   2  -7  546.45   19.30
   1  -2   7  541.75   20.10
   1  -2   7  576.04   22.10
   1  -2   7  557.44   17.10
   1  -2   7  547.85   22.20
   1  -2   7  529.75   18.30
  -2   2  -7  803.02   23.10
  -2   2  -7  841.52   25.20
  -2   2  -7  802.82   25.10
   2  -2   7  826.72   25.30
   2  -2   7  784.32   24.50
   2  -2   7  773.72   25.50
   2  -2   7  842.62   29.10
   2  -2   7  856.51   26.80
   2  -2   7  805.92   28.60
  -3   2  -7    5.00    3.10
  -3   2  -7    2.60    5.10
  -3   2  -7    8.20    4.50
   3  -2   7    8.20    5.00
   3  -2   7   11.90    4.60
   3  -2   7    2.10    5.80
   3  -2   7    6.70    4.30
   3  -2   7    3.40    6.60
   3  -2   7    6.30    4.60
   3  -2   7    7.00    4.80
  -4   2  -7  249.68    9.20
  -4   2  -7  218.08   12.10
  -4   2  -7  251.87   13.50
  -4   2  -7  247.68   14.40
   4  -2   7  243.98   14.20
   4  -2   7  242.58   16.20
   4  -2   7  232.58   13.50
   4  -2   7  247.98   14.50
   4  -2   7  233.08   16.30
   4  -2   7  253.37   13.10
  -5   2  -7  422.66   19.40
  -5   2  -7  391.16   19.90
   5  -2   7  373.86   18.60
   5  -2   7  383.36   21.20
   5  -2   7  389.46   17.90
   5  -2   7  422.76   20.70
   5  -2   7  385.66   21.90
  -6   2  -7    7.60    6.30
  -6   2  -7   21.60    7.60
   6  -2   7   19.60    7.90
   6  -2   7   15.10    6.40
   6  -2   7   22.90    8.60
   6   1  -7  127.19   10.10
   6   1  -7  130.79    8.70
   6   1  -7   97.79    7.30
  -6  -1   7  119.29   11.30
  -6  -1   7  141.29   11.10
  -6  -1   7  120.49   12.10
  -6  -1   7  108.69   13.60
   5   1  -7   47.50    7.60
   5   1  -7   50.19    5.90
   5   1  -7   43.90    5.00
   5   1  -7   37.10    5.30
  -5  -1   7   44.10    6.80
  -5  -1   7   46.30    4.60
  -5  -1   7   45.50   10.40
  -5  -1   7   43.20    8.20
   4   1  -7   51.99    6.10
   4   1  -7   51.69    5.50
   4   1  -7   49.99    5.00
   4   1  -7   61.69    8.10
   4   1  -7   51.59    4.40
  -4  -1   7   51.89    6.30
  -4  -1   7   43.50    8.00
  -4  -1   7   53.69   10.20
  -4  -1   7   59.39    9.70
   3   1  -7   12.50    3.90
   3   1  -7    6.70    5.20
   3   1  -7   15.30    3.10
   3   1  -7    6.30    4.10
  -3  -1   7    7.40    4.70
  -3  -1   7    1.40    5.80
  -3  -1   7    5.70    3.50
   2   1  -7  118.29    6.60
   2   1  -7  101.49    6.20
   2   1  -7  112.99    7.80
   2   1  -7  107.99    8.50
  -2  -1   7  109.79    8.90
  -2  -1   7  102.49    9.60
  -2  -1   7  105.79    5.50
  -2  -1   7  102.79    9.60
  -2  -1   7   97.39    4.60
  -2  -1   7   99.29    4.20
   1   1  -7  704.43   20.20
   1   1  -7  718.23   22.30
   1   1  -7  709.43   20.70
   1   1  -7  733.93   24.50
  -1  -1   7  738.53   25.50
  -1  -1   7  711.03   24.00
  -1  -1   7  689.13   25.50
  -1  -1   7  713.73   20.20
   0   1  -7    1.50    1.80
   0   1  -7    1.50    4.00
   0   1  -7    5.60    3.70
   0   1  -7    5.10    3.80
   0   1  -7    3.00    3.20
   0  -1   7   -1.50    2.90
   0  -1   7    3.20    5.50
   0  -1   7    1.80    1.50
   0  -1   7   -1.50    5.80
   0  -1   7    4.90    5.00
  -1   1  -7  711.43   21.80
  -1   1  -7  740.03   22.50
  -1   1  -7  689.13   20.60
  -1   1  -7  713.83   19.50
  -1   1  -7  700.53   20.70
   1  -1   7  720.93   21.70
   1  -1   7  717.23   25.40
   1  -1   7  691.93   19.40
   1  -1   7  736.83   25.40
   1  -1   7  695.13   23.20
   1  -1   7  723.93   23.50
  -2   1  -7   99.09    6.10
  -2   1  -7  111.89    7.80
  -2   1  -7  104.19    7.80
  -2   1  -7   98.19    8.50
   2  -1   7  110.29   10.10
   2  -1   7   91.79    7.80
   2  -1   7   91.69    6.00
   2  -1   7  106.59    7.70
   2  -1   7  102.59    9.60
   2  -1   7  116.29   11.80
   2  -1   7   89.29    8.00
  -3   1  -7    5.70    4.70
  -3   1  -7   11.10    3.10
  -3   1  -7   12.20    5.00
  -3   1  -7   18.20    6.10
   3  -1   7   12.30    5.30
   3  -1   7   12.10    4.80
   3  -1   7    8.00    6.80
   3  -1   7    4.50    2.90
   3  -1   7    3.20    5.30
   3  -1   7   12.00    4.90
   3  -1   7    5.60    5.20
  -4   1  -7   41.70    7.50
  -4   1  -7   52.99    8.30
  -4   1  -7   48.90    6.40
   4  -1   7   45.10    9.70
   4  -1   7   52.99    8.40
   4  -1   7   38.00    3.10
   4  -1   7   46.10    7.00
   4  -1   7   52.79   10.00
   4  -1   7   45.60    7.10
   4  -1   7   51.59    8.30
  -5   1  -7   47.70    8.80
  -5   1  -7   42.60    8.20
   5  -1   7   40.20    7.40
   5  -1   7   45.70   10.20
   5  -1   7   35.50    7.80
   5  -1   7   28.40    8.70
  -6   1  -7  113.69   12.00
  -6   1  -7  138.79   13.00
   6  -1   7  111.79   10.00
   6  -1   7  129.29   12.40
   6  -1   7  111.29   13.90
   6  -1   7  147.19   15.10
   6   0  -7   85.19   10.10
   6   0  -7   65.19    5.20
   6   0  -7   63.59    5.30
  -6   0   7   65.19    9.70
  -6   0   7   87.79   10.50
  -6   0   7   87.39    9.70
  -6   0   7   72.99   12.00
   5   0  -7  121.89    9.90
   5   0  -7  121.59    7.80
   5   0  -7  123.79    6.90
   5   0  -7  123.29    6.30
   5   0  -7  108.69    8.10
  -5   0   7  128.49   11.70
  -5   0   7  130.59    7.80
  -5   0   7  124.29    8.90
  -5   0   7  139.69   12.60
  -5   0   7  114.59   11.80
   4   0  -7  319.67   12.40
   4   0  -7  307.87   13.00
   4   0  -7  332.47   11.20
   4   0  -7  316.27   11.60
   4   0  -7  352.56   15.50
  -4   0   7  325.97   17.30
  -4   0   7  327.97   17.40
  -4   0   7  328.47   12.80
  -4   0   7  313.77   15.80
   3   0  -7    9.00    2.90
   3   0  -7    8.30    3.40
   3   0  -7    7.20    3.40
   3   0  -7    5.20    4.10
   3   0  -7    8.30    4.10
  -3   0   7    2.60    2.80
  -3   0   7    8.60    3.20
  -3   0   7    5.30    6.20
  -3   0   7    2.50    6.10
  -3   0   7    1.10    5.80
   2   0  -7  595.44   18.30
   2   0  -7  607.04   17.90
   2   0  -7  625.84   20.80
   2   0  -7  606.84   19.50
   2   0  -7  627.74   18.70
  -2   0   7  633.04   23.90
  -2   0   7  603.34   22.40
  -2   0   7  592.34   21.80
   1   0  -7 1148.69   30.40
   1   0  -7 1071.29   28.90
   1   0  -7 1086.79   29.30
   1   0  -7 1127.79   30.60
  -1   0   7 1097.29   34.30
  -1   0   7 1094.79   32.70
  -1   0   7 1126.29   32.60
   0   0  -7    2.10    2.90
   0   0  -7   -3.10    3.30
   0   0  -7   -1.20    3.60
   0   0  -7    0.20    2.50
   0   0   7    6.60    5.60
   0   0   7    3.30    5.20
   0   0   7    3.80    6.40
   0   0   7   -5.20    3.00
  -1   0  -7 1131.09   28.80
  -1   0  -7 1077.69   27.20
  -1   0  -7 1097.79   29.90
  -1   0  -7 1063.79   30.20
  -1   0  -7 1103.79   30.10
  -1   0  -7 1060.09   27.10
   1   0   7 1111.49   34.70
   1   0   7 1074.69   32.10
   1   0   7 1114.09   30.20
   1   0   7 1131.29   32.90
   1   0   7 1110.19   34.60
   1   0   7 1060.69   28.40
  -2   0  -7  592.84   18.90
  -2   0  -7  582.34   17.00
  -2   0  -7  624.44   20.50
  -2   0  -7  593.54   20.00
   2   0   7  590.14   20.20
   2   0   7  599.74   21.30
   2   0   7  640.04   23.90
   2   0   7  577.04   22.30
   2   0   7  601.14   17.00
   2   0   7  583.34   19.60
  -3   0  -7    5.30    4.20
  -3   0  -7    4.20    4.50
  -3   0  -7    4.30    4.60
  -3   0  -7    6.70    2.40
   3   0   7    2.70    2.40
   3   0   7    7.60    5.70
   3   0   7    6.50    6.90
   3   0   7    5.20    4.30
  -4   0  -7  324.57   14.10
  -4   0  -7  335.67   15.40
  -4   0  -7  337.57   16.40
   4   0   7  324.07   15.40
   4   0   7  325.37   18.20
   4   0   7  364.76   17.00
   4   0   7  342.47   15.30
   4   0   7  322.87   18.40
  -5   0  -7  153.88   12.50
  -5   0  -7  119.59   11.10
   5   0   7  143.09   13.40
   5   0   7  129.79   14.00
   5   0   7  144.69   10.30
   5   0   7  136.59   12.30
  -6   0  -7   65.69   10.40
  -6   0  -7   97.99   11.50
   6   0   7   56.99   11.60
   6   0   7   81.39   11.20
   6   0   7   67.59    9.20
   6   0   7   90.79   13.60
   6  -1  -7  121.79    5.60
   6  -1  -7  127.59    9.30
   6  -1  -7  122.19   10.10
  -6   1   7  149.88   10.40
  -6   1   7  129.89   10.60
  -6   1   7  151.08   12.70
  -6   1   7  127.19   11.60
  -6   1   7  120.79    9.00
   5  -1  -7   40.20    3.90
   5  -1  -7   35.20    6.20
   5  -1  -7   41.40    7.30
   5  -1  -7   50.59    6.90
   5  -1  -7   41.70    3.60
  -5   1   7   39.40    8.00
  -5   1   7   49.80    8.00
  -5   1   7   46.40    8.00
  -5   1   7   55.19   10.10
   4  -1  -7   49.10    7.10
   4  -1  -7   61.59    7.10
   4  -1  -7   51.09    6.70
   4  -1  -7   42.00    4.40
   4  -1  -7   41.90    3.90
  -4   1   7   44.80    7.40
  -4   1   7   54.49    8.80
  -4   1   7   44.40    5.30
   3  -1  -7    5.40    3.10
   3  -1  -7    8.10    3.90
   3  -1  -7   10.90    4.60
   3  -1  -7    3.70    2.70
   3  -1  -7    4.00    5.00
  -3   1   7    6.20    5.60
  -3   1   7    9.60    3.10
  -3   1   7    7.30    5.40
  -3   1   7    5.20    5.60
   2  -1  -7  112.19    6.90
   2  -1  -7  100.69    6.20
   2  -1  -7   92.29    7.20
   2  -1  -7  110.99    8.40
  -2   1   7   95.49    4.00
  -2   1   7   97.89    8.40
  -2   1   7   95.69    4.20
  -2   1   7   99.99    9.40
  -2   1   7  104.89    9.50
   1  -1  -7  714.43   21.60
   1  -1  -7  717.33   22.20
   1  -1  -7  725.03   21.30
   1  -1  -7  725.33   22.30
  -1   1   7  697.23   23.00
  -1   1   7  757.32   23.90
  -1   1   7  739.93   25.50
  -1   1   7  726.13   19.80
   0  -1  -7   -1.10    3.10
   0  -1  -7    2.50    3.40
   0  -1  -7    0.80    1.60
   0  -1  -7    2.00    3.80
   0  -1  -7    0.50    2.90
   0  -1  -7    0.90    1.20
   0   1   7    0.20    4.50
   0   1   7    2.30    3.10
   0   1   7   -0.80    4.50
   0   1   7    5.60    4.30
  -1  -1  -7  704.43   19.40
  -1  -1  -7  722.53   20.20
  -1  -1  -7  687.23   19.10
  -1  -1  -7  717.43   22.20
  -1  -1  -7  677.93   21.10
  -1  -1  -7  731.63   22.20
   1   1   7  702.03   23.10
   1   1   7  689.13   21.40
   1   1   7  724.83   25.50
   1   1   7  681.03   19.90
   1   1   7  706.93   23.30
  -2  -1  -7   89.79    8.10
  -2  -1  -7  104.09    5.90
  -2  -1  -7   95.09    7.70
  -2  -1  -7  102.49    8.80
   2   1   7   98.89    5.70
   2   1   7   98.89    8.70
   2   1   7   94.89    8.30
   2   1   7  114.59   10.50
   2   1   7  102.59    8.00
  -3  -1  -7    9.30    5.00
  -3  -1  -7   12.10    5.00
  -3  -1  -7    7.00    4.30
   3   1   7    9.30    2.20
   3   1   7    7.50    5.90
   3   1   7   15.30    7.80
   3   1   7    4.80    3.30
   3   1   7    9.20    2.70
   3   1   7   15.40    5.00
   3   1   7    5.50    6.00
  -4  -1  -7   49.50    8.00
  -4  -1  -7   46.70    7.90
  -4  -1  -7   58.79    7.60
   4   1   7   52.49    7.30
   4   1   7   51.79    9.50
   4   1   7   50.49    8.80
   4   1   7   38.40    7.00
  -5  -1  -7   59.09    9.60
  -5  -1  -7   35.80    7.70
   5   1   7   43.20    6.90
   5   1   7   38.60    9.50
   5   1   7   36.80   10.10
   5   1   7   54.69    9.20
  -6  -1  -7  144.19   13.40
  -6  -1  -7  105.79   11.10
   6   1   7  169.78   15.10
   6   1   7  127.69   16.90
   6   1   7  155.38   15.40
   6   1   7  111.29   10.10
   6  -2  -7   19.50    5.50
   6  -2  -7   14.50    1.70
   6  -2  -7   13.40    1.90
  -6   2   7   18.90    6.30
  -6   2   7   17.30    7.20
  -6   2   7   29.70    6.20
   5  -2  -7  385.76   17.90
   5  -2  -7  405.66   16.80
   5  -2  -7  400.06   11.50
   5  -2  -7  380.16   16.70
   5  -2  -7  395.86   11.40
  -5   2   7  404.76   18.70
  -5   2   7  387.36   18.10
  -5   2   7  403.46   20.10
  -5   2   7  387.36   19.10
   4  -2  -7  249.78   11.70
   4  -2  -7  250.17   12.80
   4  -2  -7  267.87   12.80
   4  -2  -7  261.27   13.90
   4  -2  -7  257.77    9.30
  -4   2   7  249.97   13.80
  -4   2   7  248.78   13.70
  -4   2   7  242.98   13.90
  -4   2   7  256.87   11.60
  -4   2   7  256.87   15.10
   3  -2  -7    6.20    2.90
   3  -2  -7    6.40    5.00
   3  -2  -7    7.70    4.50
   3  -2  -7    8.10    3.00
   3  -2  -7    2.80    2.60
   3  -2  -7   -2.80    3.70
  -3   2   7    3.80    5.10
  -3   2   7   -0.30    5.00
  -3   2   7   24.00    5.90
  -3   2   7    6.10    4.80
  -3   2   7    7.10    3.00
   2  -2  -7  814.72   22.50
   2  -2  -7  821.62   21.10
   2  -2  -7  819.52   25.20
   2  -2  -7  846.62   22.90
   2  -2  -7  781.32   24.20
   2  -2  -7  794.92   25.40
  -2   2   7  849.41   26.50
  -2   2   7  817.02   26.10
  -2   2   7  803.32   28.00
  -2   2   7  819.02   24.90
  -2   2   7  782.32   21.10
   1  -2  -7  568.74   17.80
   1  -2  -7  584.44   19.10
   1  -2  -7  544.25   18.80
   1  -2  -7  546.05   14.60
   1  -2  -7  556.34   19.00
  -1   2   7  565.14   20.60
  -1   2   7  566.04   16.40
  -1   2   7  528.65   14.50
  -1   2   7  565.74   22.30
  -1   2   7  551.54   19.30
   0  -2  -7   -0.40    4.10
   0  -2  -7    0.80    2.70
   0  -2  -7    3.00    4.10
   0   2   7   -2.10    3.70
   0   2   7    4.60    6.30
   0   2   7    2.70    2.50
   0   2   7    1.30    3.30
   0   2   7    5.00    4.20
  -1  -2  -7  556.44   18.60
  -1  -2  -7  544.05   18.40
  -1  -2  -7  556.64   17.20
  -1  -2  -7  564.54   18.80
   1   2   7  511.45   18.40
   1   2   7  528.95   17.20
   1   2   7  505.75   18.70
   1   2   7  561.54   20.00
   1   2   7  582.94   22.20
   1   2   7  558.04   19.10
  -2  -2  -7  825.62   25.50
  -2  -2  -7  837.92   25.60
  -2  -2  -7  785.02   24.60
   2   2   7  852.51   22.60
   2   2   7  834.02   26.90
   2   2   7  784.22   25.40
   2   2   7  847.42   29.50
   2   2   7  809.92   26.40
  -3  -2  -7    5.00    5.10
  -3  -2  -7    4.00    4.60
  -3  -2  -7   10.90    5.00
   3   2   7    2.40    4.00
   3   2   7    4.80    5.50
   3   2   7    1.90    6.70
   3   2   7    1.70    5.40
   3   2   7    2.30    2.20
   3   2   7    9.50    2.20
  -4  -2  -7  260.07   15.00
  -4  -2  -7  240.78   12.90
  -4  -2  -7  232.78   13.50
   4   2   7  253.67   13.70
   4   2   7  271.47   16.10
   4   2   7  251.47   17.70
   4   2   7  264.37   15.60
  -5  -2  -7  358.56   16.90
  -5  -2  -7  412.36   20.60
   5   2   7  363.46   20.60
   5   2   7  387.36   22.90
   5   2   7  377.36   19.90
   5   2   7  417.76   18.40
  -6  -2  -7   22.20    7.80
  -6  -2  -7   18.40    7.10
   6   2   7   27.50    9.40
   6   2   7   13.30    5.80
   6   2   7    2.70    8.00
   6   2   7    8.80    6.60
   5  -3  -7   24.00    3.10
   5  -3  -7   13.00    5.50
   5  -3  -7   29.00    6.50
   5  -3  -7   38.90    6.90
   5  -3  -7   29.30    3.30
  -5   3   7   20.20    6.80
  -5   3   7   28.00    7.00
  -5   3   7   37.40    6.10
   4  -3  -7   32.40    4.00
   4  -3  -7   40.70    6.30
   4  -3  -7   46.00    7.20
   4  -3  -7   38.50    7.00
  -4   3   7   46.90    7.60
  -4   3   7   55.09    8.40
  -4   3   7   25.10    6.10
  -4   3   7   35.50    6.70
   3  -3  -7    6.30    3.20
   3  -3  -7    3.00    3.30
   3  -3  -7    3.00    3.20
   3  -3  -7    2.60    3.30
   3  -3  -7    3.90    4.40
   3  -3  -7    2.80    2.70
  -3   3   7    8.00    4.10
  -3   3   7    0.60    4.50
  -3   3   7    1.20    4.40
  -3   3   7    2.70    4.60
   2  -3  -7   54.49    5.80
   2  -3  -7   46.50    5.20
   2  -3  -7   47.40    5.40
   2  -3  -7   53.09    6.90
   2  -3  -7   58.19    8.20
   2  -3  -7   56.39    7.80
  -2   3   7   60.29    9.00
  -2   3   7   54.49    7.70
  -2   3   7   56.79    6.80
  -2   3   7   47.30    7.90
   1  -3  -7  373.46   12.90
   1  -3  -7  403.46   14.50
   1  -3  -7  381.56   15.60
   1  -3  -7  370.56   15.20
   1  -3  -7  374.36   12.00
   1  -3  -7  383.26   15.10
  -1   3   7  369.56   12.30
  -1   3   7  369.66   12.70
  -1   3   7  381.46   15.90
  -1   3   7  403.86   16.50
  -1   3   7  377.56   17.90
  -1   3   7  366.26   12.70
   0  -3  -7   -2.20    3.40
   0  -3  -7    1.10    3.30
   0  -3  -7    3.80    4.10
   0  -3  -7    0.20    3.60
   0  -3  -7    3.60    3.30
   0   3   7    1.80    3.60
   0   3   7   -0.90    3.40
   0   3   7    4.40    5.20
   0   3   7    3.40    4.40
   0   3   7    8.70    6.70
  -1  -3  -7  388.46   14.90
  -1  -3  -7  375.16   15.40
  -1  -3  -7  394.26   15.80
  -1  -3  -7  394.16   15.10
  -1  -3  -7  365.46   15.60
   1   3   7  397.16   22.20
   1   3   7  397.06   14.90
   1   3   7  385.86   18.80
   1   3   7  378.06   16.70
   1   3   7  367.96   14.30
  -2  -3  -7   67.49    8.00
  -2  -3  -7   44.70    8.20
  -2  -3  -7   58.49    7.70
   2   3   7   64.09    8.30
   2   3   7   50.89    5.70
   2   3   7   52.59    5.50
   2   3   7   50.39    7.10
   2   3   7   63.59    9.90
   2   3   7   49.40    7.70
  -3  -3  -7   -7.00    3.90
  -3  -3  -7    8.00    5.30
   3   3   7   -2.60    6.00
   3   3   7   10.40    5.00
   3   3   7    4.40    2.80
   3   3   7    9.60    5.00
   3   3   7   -0.70    5.00
   3   3   7    5.50    2.50
  -4  -3  -7   36.60    7.30
  -4  -3  -7   36.40    8.40
   4   3   7   40.40    8.50
   4   3   7   37.10    7.50
   4   3   7   35.60    9.50
   4   3   7   33.70    6.80
  -5  -3  -7   21.10    7.90
  -5  -3  -7   26.60    7.00
   5   3   7   19.10    9.00
   5   3   7   38.10    8.10
   5   3   7   25.50    8.00
   5   3   7   24.00    6.60
   5  -4  -7  110.19   10.20
   5  -4  -7   97.09    9.90
   5  -4  -7   95.69    5.70
   5  -4  -7  102.39    6.00
   5  -4  -7   86.49   12.30
  -5   4   7   95.89   10.10
  -5   4   7   97.89   11.80
  -5   4   7  121.59   10.60
   4  -4  -7  178.08   12.50
   4  -4  -7  199.18    9.00
   4  -4  -7  204.08   12.70
   4  -4  -7  191.78   12.20
  -4   4   7  199.38   12.60
  -4   4   7  209.88   13.60
  -4   4   7  194.28   13.10
   3  -4  -7    3.70    4.10
   3  -4  -7    1.60    3.20
   3  -4  -7    1.20    3.20
   3  -4  -7    5.60    5.10
   3  -4  -7   -2.20    3.20
  -3   4   7    0.80    4.10
  -3   4   7   -0.10    5.60
  -3   4   7    4.20    5.50
  -3   4   7    1.00    5.00
   2  -4  -7  323.27   12.90
   2  -4  -7  323.67   14.70
   2  -4  -7  332.77   13.50
   2  -4  -7  351.16   13.30
   2  -4  -7  328.47   14.60
  -2   4   7  344.97   15.10
  -2   4   7  327.87    9.20
  -2   4   7  317.27   15.20
  -2   4   7  321.27   16.40
  -2   4   7  321.57    9.50
   1  -4  -7  611.54   21.30
   1  -4  -7  591.54   19.50
   1  -4  -7  599.14   21.40
   1  -4  -7  581.44   19.40
   1  -4  -7  602.94   20.00
  -1   4   7  629.24   21.30
  -1   4   7  605.74   18.20
  -1   4   7  616.64   23.00
  -1   4   7  609.54   21.90
   0  -4  -7    2.80    4.20
   0  -4  -7    0.80    4.00
   0  -4  -7   -0.50    4.30
   0  -4  -7    2.80    2.20
   0  -4  -7    1.60    3.70
   0  -4  -7   11.10    5.30
   0   4   7   -2.00    3.60
   0   4   7    2.70    4.50
   0   4   7    1.10    4.50
   0   4   7    5.00    5.90
   0   4   7   -0.80    2.00
  -1  -4  -7  621.04   20.60
  -1  -4  -7  614.64   21.20
  -1  -4  -7  586.84   20.90
  -1  -4  -7  592.24   21.10
  -1  -4  -7  611.44   21.60
   1   4   7  574.64   22.90
   1   4   7  636.84   22.10
   1   4   7  650.73   24.70
   1   4   7  616.24   20.50
  -2  -4  -7  330.77   14.60
  -2  -4  -7  328.87   16.30
  -2  -4  -7  344.77   15.50
  -2  -4  -7  329.97   13.60
   2   4   7  345.47   18.50
   2   4   7  326.27   15.20
   2   4   7  337.27   14.10
   2   4   7  338.67   16.20
  -3  -4  -7    2.70    4.80
  -3  -4  -7    0.50    5.60
  -3  -4  -7    1.30    4.70
   3   4   7    7.30    5.30
   3   4   7    6.70    5.40
   3   4   7    9.00    3.30
   3   4   7   10.50    5.10
   3   4   7    4.10    3.50
  -4  -4  -7  177.88   12.10
  -4  -4  -7  192.28    9.90
  -4  -4  -7  184.48   12.00
  -4  -4  -7  218.08   15.20
   4   4   7  195.08   16.30
   4   4   7  215.78   14.50
   4   4   7  188.88   12.80
   4   4   7  188.88   14.00
  -5  -4  -7  101.89    7.20
  -5  -4  -7   93.19   13.30
  -5  -4  -7   99.49    9.60
   5   4   7   83.89   10.90
   5   4   7   98.29   14.60
   5   4   7   98.09   11.30
   5   4   7  110.99   11.80
   4  -5  -7   24.90    6.30
   4  -5  -7   19.60    4.40
   4  -5  -7   23.00    4.70
   4  -5  -7   14.70    5.90
  -4   5   7   24.50    7.50
  -4   5   7   15.40    6.80
   3  -5  -7   -3.20    3.20
   3  -5  -7    1.40    3.50
   3  -5  -7   -1.10    4.90
   3  -5  -7   12.70    6.30
   3  -5  -7   -2.70    4.40
  -3   5   7   -0.50    4.70
  -3   5   7   -6.30    5.30
  -3   5   7   -3.00    5.30
   2  -5  -7   16.00    4.70
   2  -5  -7   19.80    5.00
   2  -5  -7   27.60    6.50
   2  -5  -7   21.60    6.00
   2  -5  -7   15.70    4.10
  -2   5   7   20.80    6.70
   1  -5  -7  145.29    9.80
   1  -5  -7  114.99    9.20
   1  -5  -7  138.69    9.40
   1  -5  -7  144.29    9.40
   1  -5  -7  141.99   10.20
  -1   5   7  154.98   10.90
  -1   5   7  144.29   10.30
  -1   5   7  132.99   10.80
   0  -5  -7    5.30    4.80
   0  -5  -7    3.20    3.20
   0  -5  -7    0.40    3.50
   0  -5  -7   -1.00    4.70
   0  -5  -7    6.00    4.20
   0   5   7   -1.30    4.40
   0   5   7   -7.80    5.20
   0   5   7    3.80    4.40
   0   5   7    2.00    4.70
  -1  -5  -7  133.59   10.20
  -1  -5  -7  135.49   11.10
  -1  -5  -7  141.99   10.40
  -1  -5  -7  127.99    8.90
   1   5   7  133.59    6.30
   1   5   7  139.99   12.50
   1   5   7  139.89   10.50
   1   5   7  157.68   10.50
  -2  -5  -7   19.30    4.80
  -2  -5  -7   16.80    5.80
  -2  -5  -7   15.90    6.70
  -2  -5  -7   15.20    5.90
   2   5   7   13.80    7.20
   2   5   7   22.50    5.20
   2   5   7   24.90    4.90
   2   5   7   27.20    6.40
   2   5   7   18.30    5.70
  -3  -5  -7    2.60    4.80
  -3  -5  -7    7.30    3.50
  -3  -5  -7    9.60    5.40
  -3  -5  -7    2.40    6.50
   3   5   7    4.60    4.70
   3   5   7    4.60    5.10
   3   5   7    6.80    6.40
   3   5   7    7.30    5.80
   3   5   7    1.10    3.60
  -4  -5  -7   13.60    4.20
  -4  -5  -7   16.70    5.60
  -4  -5  -7   14.70    8.40
   4   5   7   26.20    6.50
   4   5   7   16.20    3.80
   4   5   7   21.20    7.20
   4   5   7   13.30    5.20
   4   5   7   11.70    6.10
  -5  -5  -7    6.70    5.90
   4  -6  -7  123.29   11.60
   4  -6  -7  132.09   12.20
   4  -6  -7  114.59    9.60
   4  -6  -7  109.89   10.90
  -4   6   7  126.59   16.40
   3  -6  -7    0.10    4.90
   3  -6  -7    0.30    3.70
   3  -6  -7    7.80    4.70
   3  -6  -7    3.90    4.20
  -3   6   7    3.50    5.80
  -3   6   7   -5.00    3.80
   2  -6  -7  291.67   15.10
   2  -6  -7  271.27   13.40
   2  -6  -7  304.57   15.20
   2  -6  -7  290.47   13.90
   2  -6  -7  300.57   16.00
  -2   6   7  281.17   15.50
  -2   6   7  287.47   12.20
  -2   6   7  259.27   13.60
   1  -6  -7  172.48   12.00
   1  -6  -7  185.68   11.20
   1  -6  -7  191.38   12.10
   1  -6  -7  178.28   11.00
   1  -6  -7  164.88   11.80
  -1   6   7  174.28   11.90
   0  -6  -7    0.80    4.40
   0  -6  -7    2.60    4.30
   0  -6  -7    1.90    4.70
   0  -6  -7  -12.10    5.40
   0   6   7    1.40    4.20
   0   6   7   -4.60    4.60
   0   6   7   -2.00    3.50
  -1  -6  -7  186.38   10.80
  -1  -6  -7  180.48   11.30
  -1  -6  -7  195.48   14.60
  -1  -6  -7  155.08   11.50
   1   6   7  186.08   12.00
   1   6   7  176.58   13.60
   1   6   7  155.78   12.50
   1   6   7  177.88   11.50
  -2  -6  -7  310.27   13.50
  -2  -6  -7  326.57   11.80
  -2  -6  -7  288.07   15.50
  -2  -6  -7  288.77   14.80
  -2  -6  -7  307.27   17.70
   2   6   7  329.97   15.90
   2   6   7  305.67   14.60
   2   6   7  285.67   15.80
   2   6   7  288.87   17.40
   2   6   7  287.77   12.00
  -3  -6  -7    4.90    4.60
  -3  -6  -7   -0.50    7.20
  -3  -6  -7    4.20    3.70
  -3  -6  -7    0.80    5.10
   3   6   7    1.70    4.60
   3   6   7   -0.70    4.90
   3   6   7    0.70    6.20
   3   6   7   -1.90    4.80
  -4  -6  -7  115.79   10.30
  -4  -6  -7  120.89   10.50
  -4  -6  -7  108.09   14.70
   4   6   7  102.89   11.20
   4   6   7  103.09   13.10
   4   6   7  138.59   11.40
   4   6   7  152.48   12.50
   3  -7  -7   -3.00    3.70
   3  -7  -7   -1.00    6.10
   3  -7  -7   -1.40    5.20
   3  -7  -7    2.20    4.10
  -3   7   7    0.50    5.00
   2  -7  -7    4.40    3.90
   2  -7  -7    3.50    5.60
   2  -7  -7    2.10    4.00
   2  -7  -7    7.80    5.60
  -2   7   7   -0.50    6.30
   1  -7  -7   35.50    6.60
   1  -7  -7   41.20    7.80
   1  -7  -7   34.30    8.10
   1  -7  -7   42.50    8.10
  -1   7   7   32.00    7.90
  -1   7   7   26.60    4.20
   0  -7  -7   -8.20    5.60
   0  -7  -7   -0.60    4.90
   0  -7  -7    4.10    4.90
   0  -7  -7   -4.30    3.50
   0   7   7   -7.50    5.00
   0   7   7    1.80    3.80
   0   7   7   -1.90    4.80
  -1  -7  -7   26.00    8.50
  -1  -7  -7   39.40    6.80
  -1  -7  -7   39.40    7.50
   1   7   7   34.10    8.10
   1   7   7   26.20    5.50
   1   7   7   26.40    6.90
  -2  -7  -7    1.40    7.50
  -2  -7  -7    6.80    5.60
  -2  -7  -7   -0.50    4.40
  -2  -7  -7   12.50    5.10
   2   7   7    4.10    6.10
  -3  -7  -7   -1.30    3.60
  -3  -7  -7    2.40    5.80
  -3  -7  -7   -6.30    7.30
  -3  -7  -7    0.40    5.30
   3   7   7    0.50    4.60
   3   7   7   -4.60    6.60
   3   7   7  -10.30    5.00
   1  -8  -7  162.88   16.20
   1  -8  -7  158.68   13.30
   1  -8  -7  176.28   14.80
  -1   8   7  160.68   14.10
   0  -8  -7   15.80    5.90
   0  -8  -7   -6.10    6.00
   0  -8  -7   -5.30    4.30
   0  -8  -7    1.90    5.30
   0   8   7   -4.60    6.50
  -1  -8  -7  147.49   10.80
  -1  -8  -7  146.19   12.00
  -1  -8  -7  141.19   14.80
  -1  -8  -7  165.18   12.20
   1   8   7  157.68   12.70
   1   8   7  153.28   12.00
   2   7  -8    9.30    6.00
  -2  -7   8    4.70   11.40
  -2  -7   8   26.20    7.20
  -2  -7   8    8.20    6.30
  -2  -7   8    3.90    5.90
   1   7  -8   33.70    7.90
   1   7  -8   24.20    7.10
   1   7  -8   14.50    4.30
  -1  -7   8    4.70   10.30
  -1  -7   8   24.40    7.10
   0   7  -8   -1.60    4.10
   0   7  -8    4.20    5.30
   0   7  -8   -0.30    5.80
   0  -7   8  -14.80    7.00
   0  -7   8    1.70    5.90
   0  -7   8   -9.50    6.40
   0  -7   8   -1.30    4.60
  -1   7  -8   18.40    5.50
  -1   7  -8   44.40    8.50
   1  -7   8    7.50    6.60
   1  -7   8   23.50    6.10
   1  -7   8   24.00    7.10
  -2   7  -8   20.10    6.30
  -2   7  -8    6.40    5.20
   2  -7   8    6.80    8.60
   2  -7   8  -10.30    5.90
   2  -7   8    5.10    5.10
   3   6  -8   60.39    9.20
   3   6  -8   56.89    9.10
  -3  -6   8   63.69    9.70
  -3  -6   8   56.29    9.60
  -3  -6   8   56.89   14.20
   2   6  -8   42.40    7.70
   2   6  -8   39.10    8.00
  -2  -6   8   36.60    7.90
  -2  -6   8   27.40    7.10
  -2  -6   8   43.90    8.60
  -2  -6   8   16.90   10.00
   1   6  -8   60.59    8.90
   1   6  -8   83.99   10.30
   1   6  -8   53.19    5.60
  -1  -6   8   54.29    8.60
  -1  -6   8   66.49   10.30
  -1  -6   8   72.59    7.50
  -1  -6   8   71.09    9.90
  -1  -6   8   58.29   11.90
   0   6  -8  614.94   20.10
   0   6  -8  634.84   24.70
   0   6  -8  646.04   24.50
   0  -6   8  572.64   25.10
   0  -6   8  618.24   23.70
   0  -6   8  613.04   22.90
   0  -6   8  596.84   29.00
   0  -6   8  608.34   23.60
  -1   6  -8   62.89    9.20
  -1   6  -8   54.29    8.60
  -1   6  -8   72.59    7.40
   1  -6   8   45.20    9.50
   1  -6   8   45.00    7.90
   1  -6   8   74.49   10.00
   1  -6   8   69.29   13.10
   1  -6   8   71.99    9.20
  -2   6  -8   33.20    6.90
  -2   6  -8   25.80    6.60
   2  -6   8   17.60    6.00
   2  -6   8   35.90    7.00
   2  -6   8   27.30   10.10
   2  -6   8   34.30    7.50
  -3   6  -8   26.70    6.70
   3  -6   8   38.60    6.70
   3  -6   8   35.50    8.50
   3  -6   8   50.29    7.70
   3  -6   8   58.49   11.00
   4   5  -8    9.60    5.10
   4   5  -8    8.50    5.40
  -4  -5   8   13.90    5.40
  -4  -5   8  -10.40    8.50
  -4  -5   8    4.90    4.40
   3   5  -8    5.80    5.00
   3   5  -8    1.40    5.30
  -3  -5   8   -1.00    9.20
  -3  -5   8    6.00    6.10
  -3  -5   8   -3.60    5.00
  -3  -5   8   16.40    6.10
   2   5  -8   12.10    5.70
   2   5  -8   12.50    5.80
   2   5  -8   16.70    6.40
  -2  -5   8   10.60    4.20
  -2  -5   8    6.00    5.30
  -2  -5   8    2.20    9.70
   1   5  -8   81.09    6.10
   1   5  -8   86.59    9.30
   1   5  -8   92.19    9.70
  -1  -5   8   89.09   10.70
  -1  -5   8   83.89   14.00
  -1  -5   8   74.49    7.50
  -1  -5   8   77.19   10.40
  -1  -5   8   86.49    8.60
   0   5  -8    1.40    3.50
   0   5  -8    0.60    5.60
   0   5  -8    8.90    5.60
   0  -5   8   -7.10    6.20
   0  -5   8   -0.90    8.70
   0  -5   8    1.60    3.70
   0  -5   8   -5.90    6.60
   0  -5   8    5.60    4.60
  -1   5  -8   92.49    8.10
  -1   5  -8   94.39    9.50
   1  -5   8   98.19    8.80
   1  -5   8   93.99   11.50
   1  -5   8  100.49   11.70
   1  -5   8   94.19    9.90
   1  -5   8   89.29    9.70
  -2   5  -8   11.10    5.80
  -2   5  -8    9.20    5.50
  -2   5  -8   16.60    6.20
   2  -5   8   13.00    8.80
   2  -5   8    5.20    5.70
   2  -5   8   -2.40    6.90
   2  -5   8    8.00    5.00
   2  -5   8    4.00    4.90
  -3   5  -8    1.80    5.40
  -3   5  -8    6.30    5.30
   3  -5   8   -2.20    4.70
   3  -5   8  -13.80    5.20
   3  -5   8   -0.90    4.70
   3  -5   8    6.50    7.90
   4  -5   8    0.90    4.20
   4  -5   8  -10.10    6.30
   4  -5   8    2.60    6.70
   4  -5   8   -5.80    4.60
   5   4  -8   39.10    7.70
   5   4  -8   41.10    8.20
  -5  -4   8   25.10   11.30
  -5  -4   8   52.69    9.90
  -5  -4   8   20.40    8.40
  -5  -4   8   39.50    9.10
   4   4  -8   93.09    8.80
   4   4  -8   94.89    6.30
   4   4  -8   95.49    9.50
  -4  -4   8  134.79   19.80
  -4  -4   8  121.39   12.10
   3   4  -8  978.90   31.50
   3   4  -8  899.31   30.00
   3   4  -8  941.01   29.00
  -3  -4   8  925.61   36.60
  -3  -4   8  919.31   32.50
  -3  -4   8  966.70   35.40
   2   4  -8  159.48   10.40
   2   4  -8  183.58    6.80
   2   4  -8  188.28   11.70
  -2  -4   8  172.58    9.50
  -2  -4   8  173.28   16.00
  -2  -4   8  183.08   13.20
  -2  -4   8  174.78   10.10
  -2  -4   8  187.08   12.20
   1   4  -8  219.88   12.70
   1   4  -8  190.78    8.90
   1   4  -8  205.38   12.40
   1   4  -8  212.58   11.00
  -1  -4   8  202.78   10.70
  -1  -4   8  199.78   10.30
  -1  -4   8  230.18   14.00
  -1  -4   8  213.28   14.70
  -1  -4   8  203.28   16.50
   0   4  -8  117.79    8.00
   0   4  -8  145.29   10.20
   0   4  -8  137.29   10.40
   0  -4   8  146.49   11.60
   0  -4   8  134.39    8.80
   0  -4   8  120.49    8.90
   0  -4   8  120.29   12.20
   0  -4   8  140.49   12.70
  -1   4  -8  220.38   12.10
  -1   4  -8  209.48   12.70
  -1   4  -8  223.28   12.90
   1  -4   8  212.38   16.50
   1  -4   8  209.88   14.90
   1  -4   8  205.68   13.00
   1  -4   8  207.38   11.60
   1  -4   8  186.18   11.20
  -2   4  -8  180.88   11.90
  -2   4  -8  177.78   11.50
  -2   4  -8  191.58   10.90
   2  -4   8  188.38   12.20
   2  -4   8  190.68   15.70
   2  -4   8  185.48   13.50
   2  -4   8  185.08   14.10
   2  -4   8  180.88   11.30
  -3   4  -8  939.31   30.90
  -3   4  -8  922.31   28.50
   3  -4   8  942.31   35.40
   3  -4   8  946.21   31.70
   3  -4   8  978.10   33.20
   3  -4   8  935.81   30.60
   3  -4   8  939.51   30.10
  -4   4  -8  110.79    8.20
   4  -4   8   97.69    9.30
   4  -4   8   99.99   10.40
   4  -4   8  112.49   10.80
   4  -4   8   91.49   12.50
  -5   4  -8   41.80    8.50
  -5   4  -8   41.60    8.60
   5  -4   8   24.40    7.00
   5  -4   8   54.39   10.40
   5  -4   8   31.80    9.20
   5  -4   8   34.40    6.80
   5  -4   8   26.70    7.50
   5   3  -8   13.20    4.90
   5   3  -8   14.60    5.90
  -5  -3   8    0.50    6.00
  -5  -3   8    7.30    5.10
  -5  -3   8   -0.10    8.50
  -5  -3   8   22.10    7.20
   4   3  -8    5.00    4.50
   4   3  -8    3.80    3.50
   4   3  -8    4.60    4.30
   4   3  -8    7.70    5.10
  -4  -3   8    9.60    6.50
  -4  -3   8   14.30    6.30
  -4  -3   8   -9.10    4.60
  -4  -3   8    1.70    5.70
   3   3  -8    3.40    1.70
   3   3  -8    8.70    4.00
   3   3  -8   -5.00    3.10
  -3  -3   8    0.70    4.00
  -3  -3   8   10.50    2.60
  -3  -3   8    3.70    7.60
   2   3  -8   16.30    4.10
   2   3  -8   26.60    5.70
   2   3  -8   27.40    5.60
  -2  -3   8   20.60    5.70
  -2  -3   8   18.90    6.20
  -2  -3   8   23.00    4.00
  -2  -3   8   18.20    9.10
  -2  -3   8   15.80    4.10
   1   3  -8  248.48   10.20
   1   3  -8  232.58   12.60
   1   3  -8  231.98   12.70
   1   3  -8  236.98   11.40
  -1  -3   8  236.68   15.50
  -1  -3   8  229.98   11.20
  -1  -3   8  226.08   15.20
  -1  -3   8  239.48   14.30
   0   3  -8    2.70    4.50
   0   3  -8    2.40    3.80
   0   3  -8    3.70    6.10
   0   3  -8    1.40    3.40
   0  -3   8    5.20    8.40
   0  -3   8   -6.10    6.00
   0  -3   8   12.80    6.50
   0  -3   8   -0.30    3.50
   0  -3   8    4.20    3.40
  -1   3  -8  249.88   12.00
  -1   3  -8  225.98   11.70
  -1   3  -8  224.28   12.80
   1  -3   8  237.48   15.80
   1  -3   8  217.38   11.20
   1  -3   8  255.27   14.30
   1  -3   8  234.28   11.10
   1  -3   8  232.18   15.10
  -2   3  -8   20.10    5.00
  -2   3  -8   31.80    6.50
  -2   3  -8   23.10    5.20
   2  -3   8   23.80    7.60
   2  -3   8   29.70    8.30
   2  -3   8   21.80    5.50
   2  -3   8   23.70    5.20
   2  -3   8   27.70    6.80
  -3   3  -8    0.80    4.40
  -3   3  -8    8.70    4.10
  -3   3  -8    4.10    5.20
   3  -3   8    6.30    4.50
   3  -3   8    0.90    4.20
   3  -3   8   -1.40    7.10
   3  -3   8    4.70    5.00
   3  -3   8   10.80    7.40
  -4   3  -8    7.40    4.60
  -4   3  -8    7.60    3.40
  -4   3  -8    4.60    5.10
   4  -3   8    9.90    7.00
   4  -3   8   10.20    5.00
   4  -3   8    1.50    4.80
   4  -3   8    1.80    4.50
   4  -3   8   -3.30    5.60
  -5   3  -8   10.90    6.60
   5  -3   8   13.90    7.30
   5  -3   8   10.20    7.70
   5  -3   8   18.00    6.50
   5  -3   8   17.50    5.60
   5  -3   8    5.70    7.60
   5   2  -8   29.50    5.50
   5   2  -8   26.50    4.90
   5   2  -8   26.20    6.50
   5   2  -8   31.50    5.60
  -5  -2   8   31.90    7.80
  -5  -2   8   19.40    6.70
  -5  -2   8   29.20   10.80
  -5  -2   8   34.50    8.20
   4   2  -8   93.89    7.40
   4   2  -8  103.09    5.10
   4   2  -8  119.49    7.70
   4   2  -8  119.59    8.50
   4   2  -8  107.29    9.60
  -4  -2   8  111.19   11.70
  -4  -2   8  120.09   12.50
  -4  -2   8   98.59    8.40
  -4  -2   8  113.69   11.40
   3   2  -8   28.60    6.80
   3   2  -8   26.10    4.90
   3   2  -8   31.40    5.40
   3   2  -8   30.40    5.00
  -3  -2   8   31.60    7.50
  -3  -2   8   32.30    9.20
  -3  -2   8   29.50    6.60
   2   2  -8   23.40    3.80
   2   2  -8   22.50    5.40
   2   2  -8   19.70    4.30
   2   2  -8   23.20    5.80
  -2  -2   8   18.30    7.20
  -2  -2   8   30.40    9.50
  -2  -2   8   23.10    3.40
  -2  -2   8   19.60    3.60
  -2  -2   8   24.20    7.20
   1   2  -8  117.69    7.70
   1   2  -8  114.29    4.70
   1   2  -8   99.09    8.80
   1   2  -8  104.99    7.70
   1   2  -8  106.69    8.90
  -1  -2   8  119.69   11.30
  -1  -2   8  109.29   12.10
  -1  -2   8  113.59    7.70
  -1  -2   8  116.09   11.30
  -1  -2   8  115.19    5.00
   0   2  -8 2026.10   49.80
   0   2  -8 1917.61   46.50
   0   2  -8 2016.10   50.69
   0   2  -8 1941.81   54.39
   0   2  -8 1977.60   50.89
   0  -2   8 2016.70   55.89
   0  -2   8 2046.90   56.49
   0  -2   8 2052.19   53.89
   0  -2   8 1982.40   46.60
   0  -2   8 2155.58   51.69
  -1   2  -8  108.29    8.10
  -1   2  -8  103.29    8.70
  -1   2  -8  126.29    9.90
   1  -2   8  118.79   15.50
   1  -2   8  120.49   12.80
   1  -2   8  136.09   11.40
   1  -2   8  110.99    7.90
   1  -2   8  112.49    7.30
  -2   2  -8   22.80    6.10
  -2   2  -8   24.30    6.20
  -2   2  -8   22.30    4.90
   2  -2   8   28.20    6.80
   2  -2   8   25.40    7.70
   2  -2   8   21.20    5.40
   2  -2   8   18.70    5.00
   2  -2   8   27.80    8.50
  -3   2  -8   24.60    5.60
  -3   2  -8   25.60    5.80
  -3   2  -8   35.90    4.90
  -3   2  -8   26.40    5.90
   3  -2   8   33.60    5.90
   3  -2   8   28.00    6.10
   3  -2   8   23.80    6.60
   3  -2   8   25.00    8.60
   3  -2   8   27.30    8.20
  -4   2  -8  124.59   10.60
  -4   2  -8  104.99    8.80
  -4   2  -8  123.79    6.30
  -4   2  -8  119.79   10.80
   4  -2   8  100.49   10.20
   4  -2   8  106.89    7.00
   4  -2   8  110.59   12.20
   4  -2   8  124.49    9.80
   4  -2   8  132.89   13.30
   4  -2   8   99.39   10.20
   4  -2   8  110.99   10.30
  -5   2  -8   30.70    7.30
  -5   2  -8   26.40    7.60
   5  -2   8   30.00    8.30
   5  -2   8   33.20    7.00
   5  -2   8   46.30    8.10
   5  -2   8   27.10    9.40
   5  -2   8   35.10    9.50
   5   1  -8   13.60    4.50
   5   1  -8   12.70    3.40
   5   1  -8   14.10    4.30
   5   1  -8   19.00    5.70
   5   1  -8   10.70    3.50
  -5  -1   8   10.90    2.90
  -5  -1   8   22.00    6.20
  -5  -1   8   12.50    8.30
  -5  -1   8    7.60    4.50
  -5  -1   8   12.10    5.10
   4   1  -8    3.00    3.60
   4   1  -8    0.70    2.90
   4   1  -8    2.60    4.20
   4   1  -8    2.40    3.50
   4   1  -8    6.30    3.00
  -4  -1   8    4.10    3.70
  -4  -1   8    1.60    7.00
  -4  -1   8    7.70    6.20
  -4  -1   8    8.50    6.20
   3   1  -8   11.80    4.30
   3   1  -8    7.10    3.50
   3   1  -8   10.10    4.10
   3   1  -8    5.80    3.00
   3   1  -8    1.10    4.70
  -3  -1   8   11.80    5.80
  -3  -1   8    7.00    5.80
  -3  -1   8    2.10    3.20
  -3  -1   8    0.80    2.90
  -3  -1   8    9.90    7.10
   2   1  -8   44.20    6.20
   2   1  -8   45.00    5.50
   2   1  -8   35.60    6.90
   2   1  -8   52.99    7.70
  -2  -1   8   59.09   10.70
  -2  -1   8   52.59    9.00
  -2  -1   8   47.30    4.40
  -2  -1   8   53.09    9.90
   1   1  -8  433.76   18.10
   1   1  -8  392.06   16.10
   1   1  -8  419.26   14.70
   1   1  -8  439.16   16.30
  -1  -1   8  419.86   18.60
  -1  -1   8  426.06   19.90
  -1  -1   8  420.86   20.20
  -1  -1   8  407.96   14.20
   0   1  -8    4.10    5.00
   0   1  -8   -2.30    4.10
   0   1  -8   -0.90    3.10
   0   1  -8    5.90    4.20
   0  -1   8   -1.40    6.00
   0  -1   8   14.40    7.90
   0  -1   8    5.90    7.30
   0  -1   8   -4.00    3.10
  -1   1  -8  425.56   15.60
  -1   1  -8  391.36   12.70
  -1   1  -8  396.76   16.20
  -1   1  -8  382.66   15.10
   1  -1   8  396.66   18.20
   1  -1   8  429.76   20.60
   1  -1   8  415.26   15.70
   1  -1   8  414.26   18.20
   1  -1   8  393.56   12.90
  -2   1  -8   47.30    5.90
  -2   1  -8   39.10    6.90
  -2   1  -8   48.00    5.70
  -2   1  -8   41.30    8.20
   2  -1   8   47.40    6.80
   2  -1   8   44.00    7.40
   2  -1   8   43.30    5.60
   2  -1   8   51.49    9.10
  -3   1  -8    7.30    4.10
  -3   1  -8   10.40    3.20
  -3   1  -8    2.00    4.60
  -3   1  -8    7.90    5.40
   3  -1   8   13.20    7.10
   3  -1   8   15.50    4.80
   3  -1   8    5.70    6.20
   3  -1   8   -0.60    3.20
   3  -1   8    4.80    4.10
   3  -1   8    3.60    5.40
  -4   1  -8    1.40    5.50
  -4   1  -8   -1.90    3.90
  -4   1  -8    4.00    4.80
  -4   1  -8    6.40    2.00
   4  -1   8    2.40    2.30
   4  -1   8    5.40    6.80
   4  -1   8   14.90    5.30
   4  -1   8    8.00    5.70
  -5   1  -8   21.60    6.60
   5  -1   8   19.40    5.60
   5  -1   8   16.90    6.20
   5  -1   8    7.70    7.20
   6   0  -8  277.27   15.60
  -6   0   8  282.37   16.30
  -6   0   8  282.37   14.50
  -6   0   8  283.27   12.00
   5   0  -8   56.89    5.30
   5   0  -8   53.59    8.40
   5   0  -8   45.20    4.90
   5   0  -8   43.10    6.10
   5   0  -8   42.30    5.50
  -5   0   8   65.29   11.20
  -5   0   8   53.59    8.60
  -5   0   8   67.19   10.70
  -5   0   8   57.09    6.40
   4   0  -8  131.79    7.80
   4   0  -8  141.29    7.40
   4   0  -8  144.39    8.40
   4   0  -8  136.69    9.50
  -4   0   8  120.99   13.10
  -4   0   8  144.19    7.80
  -4   0   8  150.88   14.60
  -4   0   8  141.19   12.50
   3   0  -8 1785.12   44.00
   3   0  -8 1826.02   48.60
   3   0  -8 1728.33   46.30
   3   0  -8 1762.52   44.80
   3   0  -8 1758.02   44.60
  -3   0   8 1695.73   41.10
  -3   0   8 1858.81   50.39
  -3   0   8 1812.42   52.79
  -3   0   8 1981.60   45.80
   2   0  -8  441.06   16.50
   2   0  -8  409.26   14.60
   2   0  -8  437.26   17.40
   2   0  -8  432.36   15.50
   2   0  -8  437.36   15.40
  -2   0   8  429.96   18.20
  -2   0   8  449.86   20.20
  -2   0   8  430.06   19.50
   1   0  -8  451.05   16.40
   1   0  -8  436.76   15.50
   1   0  -8  388.06   14.60
   1   0  -8  428.36   15.90
  -1   0   8  432.86   14.40
  -1   0   8  443.36   18.10
  -1   0   8  438.46   19.10
  -1   0   8  417.26   19.40
   0   0  -8  169.68    9.20
   0   0  -8  170.78    9.10
   0   0  -8  165.98    9.40
   0   0   8  159.78    8.80
   0   0   8  169.48   13.90
   0   0   8  174.48   12.40
   0   0   8  172.68   12.40
  -1   0  -8  406.66   12.70
  -1   0  -8  418.06   15.60
  -1   0  -8  431.86   16.50
  -1   0  -8  423.56   14.70
  -1   0  -8  432.36   16.50
  -1   0  -8  409.06   12.70
   1   0   8  430.06   19.80
   1   0   8  428.16   18.80
   1   0   8  408.96   17.50
   1   0   8  415.96   15.90
  -2   0  -8  413.16   14.10
  -2   0  -8  418.56   15.20
  -2   0  -8  410.86   19.00
  -2   0  -8  439.36   17.10
   2   0   8  424.76   14.20
   2   0   8  460.85   19.40
   2   0   8  411.66   18.50
   2   0   8  443.96   17.10
   2   0   8  440.36   21.40
  -3   0  -8 1742.13   41.50
  -3   0  -8 1794.92   47.80
  -3   0  -8 1742.73   46.80
  -3   0  -8 1760.32   46.80
   3   0   8 1799.62   53.09
   3   0   8 1779.02   47.70
   3   0   8 1701.63   41.50
   3   0   8 1784.52   51.19
   3   0   8 1821.92   49.80
  -4   0  -8  149.29   11.40
  -4   0  -8  155.58   11.20
  -4   0  -8  133.89    9.70
   4   0   8  134.49   13.90
   4   0   8  127.89   12.60
   4   0   8  124.09    9.90
   4   0   8  129.09   12.70
   4   0   8  121.79   11.50
  -5   0  -8   65.69    9.90
  -5   0  -8   46.90    9.10
   5   0   8   45.30    8.50
   5   0   8   42.70    7.10
   5   0   8   41.40   10.00
  -6   0  -8  305.27   18.70
  -6   0  -8  271.07   17.10
   6   0   8  271.87   31.20
   6   0   8  299.57   20.20
   5  -1  -8   20.30    4.50
   5  -1  -8   16.40    3.30
   5  -1  -8   16.70    5.90
   5  -1  -8   10.30    2.80
  -5   1   8   11.60    6.10
  -5   1   8   17.30    7.70
  -5   1   8   19.60    5.90
  -5   1   8   16.40    5.70
   4  -1  -8    5.30    4.50
   4  -1  -8    9.80    2.90
   4  -1  -8    7.10    4.90
   4  -1  -8    5.40    3.10
  -4   1   8    6.90    6.00
  -4   1   8    3.30    6.10
  -4   1   8   11.10    6.90
   3  -1  -8    4.80    2.70
   3  -1  -8    4.10    3.30
   3  -1  -8   12.20    5.00
   3  -1  -8    7.80    3.90
   3  -1  -8    3.00    4.00
  -3   1   8   11.00    5.70
  -3   1   8    5.70    6.30
  -3   1   8    3.30    5.40
  -3   1   8    8.20    2.30
   2  -1  -8   41.10    5.20
   2  -1  -8   44.50    5.80
   2  -1  -8   56.89    6.80
   2  -1  -8   46.70    6.90
   2  -1  -8   50.19    7.50
  -2   1   8   60.69    9.00
  -2   1   8   41.20    9.30
  -2   1   8   43.10    8.20
   1  -1  -8  399.96   14.60
   1  -1  -8  415.66   16.10
   1  -1  -8  403.86   15.10
   1  -1  -8  422.26   15.80
   1  -1  -8  427.26   15.90
  -1   1   8  421.96   18.50
  -1   1   8  421.26   17.40
  -1   1   8  388.96   13.40
  -1   1   8  405.96   20.10
   0  -1  -8   -0.10    4.20
   0  -1  -8    3.00    4.10
   0  -1  -8   -2.10    3.50
   0  -1  -8   -1.70    3.30
   0   1   8    6.20    7.50
   0   1   8    2.70    6.00
   0   1   8   -3.10    6.20
   0   1   8    0.20    3.80
  -1  -1  -8  408.46   16.20
  -1  -1  -8  399.66   12.90
  -1  -1  -8  416.06   16.60
  -1  -1  -8  409.16   16.30
  -1  -1  -8  402.06   14.30
   1   1   8  430.86   19.70
   1   1   8  403.06   17.40
   1   1   8  407.06   17.40
   1   1   8  409.76   15.60
  -2  -1  -8   39.30    7.00
  -2  -1  -8   46.50    5.10
  -2  -1  -8   46.90    6.10
  -2  -1  -8   48.00    6.80
   2   1   8   47.90    4.80
   2   1   8   48.00    8.50
   2   1   8   43.40    6.70
   2   1   8   38.10    6.80
   2   1   8   40.80    8.60
  -3  -1  -8   11.70    5.60
  -3  -1  -8   -0.20    4.30
  -3  -1  -8    4.80    5.20
   3   1   8   21.10    8.10
   3   1   8    6.20    5.60
   3   1   8    9.10    2.70
   3   1   8    8.80    6.10
   3   1   8   11.10    2.70
   3   1   8    4.40    4.50
  -4  -1  -8    0.70    4.30
  -4  -1  -8    4.10    5.40
  -4  -1  -8    4.40    5.20
   4   1   8    4.80    4.50
   4   1   8   -1.80    6.20
   4   1   8    7.40    5.90
   4   1   8    3.00    5.00
  -5  -1  -8   17.70    6.20
  -5  -1  -8   10.30    6.50
   5   1   8    8.80    6.70
   5   1   8   12.80    5.00
   5   1   8   15.60    7.50
   5   1   8   10.30    8.20
   5  -2  -8   33.60    3.90
   5  -2  -8   34.80    6.80
   5  -2  -8   32.20    3.90
   5  -2  -8   25.50    5.80
   5  -2  -8   32.70    7.50
  -5   2   8   27.70    7.30
  -5   2   8   39.00    8.20
  -5   2   8   39.40    7.80
  -5   2   8   41.00    8.10
   4  -2  -8  111.49    9.10
   4  -2  -8  105.19    6.20
   4  -2  -8  122.09   10.20
   4  -2  -8  115.49    6.70
  -4   2   8  116.09   10.30
  -4   2   8  107.39   10.40
  -4   2   8  136.69   12.00
  -4   2   8  121.49    7.40
   3  -2  -8   28.50    5.80
   3  -2  -8   37.30    6.70
   3  -2  -8   34.20    4.70
   3  -2  -8   30.20    4.20
   3  -2  -8   34.70    6.90
   3  -2  -8   26.00    3.80
  -3   2   8   29.50    4.20
  -3   2   8   30.90    7.60
  -3   2   8   31.30    7.10
  -3   2   8   33.30    7.30
  -3   2   8   24.30    6.70
   2  -2  -8   22.90    4.70
   2  -2  -8   25.60    4.40
   2  -2  -8   17.60    5.10
   2  -2  -8   24.40    6.00
   2  -2  -8   22.30    5.90
   2  -2  -8   26.80    2.90
  -2   2   8   21.00    6.30
  -2   2   8   24.50    7.20
  -2   2   8   18.90    2.80
  -2   2   8   13.70    6.90
  -2   2   8   15.40    6.30
   1  -2  -8  114.39    8.10
   1  -2  -8  107.49    7.90
   1  -2  -8  115.79    8.00
   1  -2  -8  115.79    4.40
   1  -2  -8  104.19    8.10
   1  -2  -8  116.79    8.20
  -1   2   8  126.19    9.90
  -1   2   8  124.69   11.20
  -1   2   8   99.79    8.10
  -1   2   8  117.59   12.60
  -1   2   8  107.79    4.20
  -1   2   8  116.59    6.90
   0  -2  -8 1962.80   49.90
   0  -2  -8 1976.90   50.39
   0  -2  -8 1957.40   50.69
   0  -2  -8 1964.90   45.80
   0  -2  -8 2041.60   50.29
   0  -2  -8 2016.50   51.09
   0   2   8 2013.10   52.79
   0   2   8 2068.19   55.89
   0   2   8 1973.10   50.29
   0   2   8 1950.01   49.20
   0   2   8 1988.70   50.39
  -1  -2  -8  108.29    8.60
   1   2   8  128.99   13.10
   1   2   8  122.19   11.00
   1   2   8  116.49    9.20
   1   2   8   97.69    9.40
  -2  -2  -8   23.50    5.10
  -2  -2  -8   23.70    5.40
  -2  -2  -8   29.70    6.30
   2   2   8   23.40    8.00
   2   2   8   24.60    6.60
   2   2   8   18.40    5.40
   2   2   8   23.30    6.70
   2   2   8   20.00    4.20
  -3  -2  -8   40.10    7.20
  -3  -2  -8   23.80    6.60
  -3  -2  -8   30.90    6.50
   3   2   8   38.00    8.00
   3   2   8   30.70    3.80
   3   2   8   30.50    7.30
   3   2   8   36.70    6.70
   3   2   8   43.70    4.00
   3   2   8   26.30    8.90
  -4  -2  -8   95.59   10.30
  -4  -2  -8  102.69    9.10
   4   2   8  122.39   11.70
   4   2   8   94.29   11.50
   4   2   8  104.69    9.80
   4   2   8  116.19   10.50
  -5  -2  -8   36.90    8.40
  -5  -2  -8   33.60    8.10
   5   2   8   44.60   11.00
   5   2   8   30.40    8.50
   5   2   8   25.20    6.40
   5   2   8   26.30    9.70
   5  -3  -8   14.10    3.10
   5  -3  -8    2.90    4.90
   5  -3  -8   20.50    6.40
   5  -3  -8    7.40    5.00
  -5   3   8   14.30    6.80
  -5   3   8    9.70    6.10
  -5   3   8   18.60    4.50
  -5   3   8    5.60    5.50
  -5   3   8   17.90    5.60
   4  -3  -8    3.80    3.80
   4  -3  -8   -0.50    4.90
   4  -3  -8    0.10    3.40
   4  -3  -8    2.90    4.80
   4  -3  -8    1.80    2.80
  -4   3   8   13.00    5.60
  -4   3   8    2.80    4.50
  -4   3   8    5.30    5.60
  -4   3   8    7.90    3.30
   3  -3  -8   -8.20    4.10
   3  -3  -8    6.00    4.90
   3  -3  -8    7.40    3.40
   3  -3  -8    1.50    3.60
   3  -3  -8    4.10    3.10
  -3   3   8    0.50    5.50
  -3   3   8    7.50    5.80
  -3   3   8    5.90    5.40
  -3   3   8   12.10    6.10
   2  -3  -8   20.90    4.70
   2  -3  -8   30.80    5.10
   2  -3  -8   19.30    4.90
   2  -3  -8   15.20    5.10
   2  -3  -8   33.60    5.80
  -2   3   8   15.10    6.10
  -2   3   8   25.40    5.80
  -2   3   8   28.20    7.70
  -2   3   8   24.10    5.70
   1  -3  -8  231.18   11.90
   1  -3  -8  224.08   12.30
   1  -3  -8  223.28   11.20
   1  -3  -8  237.48   11.90
   1  -3  -8  244.98   11.10
   1  -3  -8  223.08    9.20
  -1   3   8  240.18    9.90
  -1   3   8  242.38   12.30
  -1   3   8  247.28   14.30
  -1   3   8  237.28   15.30
  -1   3   8  242.68   11.70
   0  -3  -8   -0.20    4.50
   0  -3  -8   -4.60    3.00
   0  -3  -8   -2.30    3.80
   0  -3  -8   -1.00    3.60
   0  -3  -8    3.40    4.40
   0   3   8   -4.80    4.20
   0   3   8   10.40    6.20
   0   3   8    1.90    3.80
   0   3   8    5.20    4.40
   0   3   8    0.30    6.70
  -1  -3  -8  246.08   11.70
  -1  -3  -8  242.88   12.20
  -1  -3  -8  241.18   12.90
  -1  -3  -8  261.57   12.90
  -1  -3  -8  242.68   12.20
   1   3   8  229.48   11.50
   1   3   8  266.67   14.40
   1   3   8  247.38   16.10
   1   3   8  228.98   11.40
  -2  -3  -8   26.50    6.00
  -2  -3  -8   25.50    5.50
  -2  -3  -8   19.90    5.70
   2   3   8   28.90    5.90
   2   3   8   28.30    8.30
   2   3   8   20.50    4.30
   2   3   8   27.00    5.30
   2   3   8   27.40    6.90
  -3  -3  -8    9.30    5.60
  -3  -3  -8   11.40    5.90
  -3  -3  -8   -2.90    4.30
   3   3   8    4.80    3.20
   3   3   8    8.70    5.30
   3   3   8    6.10    4.50
  -4  -3  -8    5.40    5.70
  -4  -3  -8   -0.60    5.30
  -4  -3  -8   -6.80    4.60
   4   3   8    3.80    4.40
   4   3   8   11.10    5.60
   4   3   8   -2.20    6.90
   5   3   8    4.20    8.20
   5   3   8    3.10    5.00
   5   3   8   11.60    7.20
   5  -4  -8   35.80    4.60
   5  -4  -8   25.50    6.40
   5  -4  -8   43.60    8.20
   5  -4  -8   31.30    7.30
  -5   4   8   33.10    7.80
  -5   4   8   34.70    7.20
   4  -4  -8   96.69    6.80
   4  -4  -8   90.49    8.30
   4  -4  -8  105.39    8.80
   4  -4  -8   94.09    9.70
  -4   4   8   73.09    9.90
  -4   4   8   79.59    8.50
  -4   4   8   99.19   10.30
  -4   4   8  108.89   11.60
   3  -4  -8  937.31   30.70
   3  -4  -8  959.70   27.70
   3  -4  -8  921.71   30.10
   3  -4  -8  942.01   26.60
   3  -4  -8  879.71   26.20
  -3   4   8  905.21   29.70
  -3   4   8  947.01   32.30
  -3   4   8  953.60   32.00
   2  -4  -8  182.88   11.70
   2  -4  -8  171.78    9.70
   2  -4  -8  174.98    9.30
   2  -4  -8  184.68   12.90
  -2   4   8  180.68    7.20
  -2   4   8  164.28   13.90
  -2   4   8  179.48   12.30
   1  -4  -8  199.48   11.80
   1  -4  -8  213.18   11.00
   1  -4  -8  203.28   10.60
   1  -4  -8  216.28   12.50
   1  -4  -8  187.28    9.70
  -1   4   8  211.78    6.80
  -1   4   8  194.28    6.60
  -1   4   8  203.18   12.60
  -1   4   8  213.78   12.50
  -1   4   8  196.78   13.80
   0  -4  -8  144.89    9.70
   0  -4  -8  128.69    9.00
   0  -4  -8  147.89   10.00
   0  -4  -8  145.89    8.90
   0  -4  -8  136.79    9.10
   0  -4  -8  134.79   10.20
   0   4   8  135.99    9.80
   0   4   8  141.29    6.60
   0   4   8  138.09   12.10
   0   4   8  119.19   10.10
   0   4   8  149.29    8.80
  -1  -4  -8  210.38   12.20
  -1  -4  -8  209.08   11.90
  -1  -4  -8  193.18   11.30
  -1  -4  -8  209.28   11.50
  -1  -4  -8  211.28   12.50
   1   4   8  190.58   11.20
   1   4   8  211.28    9.80
   1   4   8  208.38   11.70
   1   4   8  197.08   12.60
   1   4   8  217.08   15.00
  -2  -4  -8  173.18   11.50
  -2  -4  -8  187.88   12.80
  -2  -4  -8  187.68   11.90
  -2  -4  -8  179.78   10.40
   2   4   8  181.58   10.00
   2   4   8  180.98   10.50
   2   4   8  174.68   11.50
   2   4   8  179.58   14.60
   2   4   8  180.88   12.70
  -3  -4  -8  937.01   32.00
  -3  -4  -8  937.81   30.60
  -3  -4  -8  940.71   30.50
  -3  -4  -8  894.11   27.60
   3   4   8  949.90   36.10
   3   4   8  916.91   30.90
   3   4   8  963.80   32.80
   3   4   8  900.11   25.30
  -4  -4  -8  115.99   12.40
  -4  -4  -8   99.39    8.90
  -4  -4  -8   87.99    9.60
  -4  -4  -8  111.79    8.10
   4   4   8  104.49   10.20
   4   4   8  122.59   10.90
   4   4   8  112.69   11.80
   4   4   8  102.49   13.60
  -5  -4  -8   22.80    7.10
  -5  -4  -8   30.50    8.90
   5   4   8   25.30    9.30
   5   4   8   38.90    8.00
   4  -5  -8   -1.90    4.10
   4  -5  -8   -4.20    3.20
   4  -5  -8    8.40    6.60
   4  -5  -8    9.90    6.10
   4  -5  -8   -3.60    4.50
  -4   5   8   -8.90    5.70
  -4   5   8   14.10    4.90
   3  -5  -8    7.50    4.30
   3  -5  -8    0.50    4.00
   3  -5  -8   -0.30    3.50
   3  -5  -8    4.50    5.00
  -3   5   8   -9.40    4.80
  -3   5   8    6.90    6.00
  -3   5   8  -13.90    5.90
   2  -5  -8    5.50    4.00
   2  -5  -8    3.30    4.30
   2  -5  -8    5.10    4.20
   2  -5  -8    8.40    5.50
   2  -5  -8    3.30    4.30
  -2   5   8   -0.50    5.10
  -2   5   8   -7.40    6.20
  -2   5   8    6.60    5.70
   1  -5  -8   94.69    9.10
   1  -5  -8   90.09   10.30
   1  -5  -8   82.09    9.90
   1  -5  -8   82.19    8.30
  -1   5   8   75.99    9.00
  -1   5   8   69.59    9.90
  -1   5   8   84.49    8.30
   0  -5  -8    4.60    4.40
   0  -5  -8    1.50    4.80
   0  -5  -8   -3.20    3.80
   0  -5  -8   -3.50    4.80
   0  -5  -8    2.40    4.90
   0   5   8   -1.90    4.90
   0   5   8   -5.60    4.50
   0   5   8  -11.00    5.60
   0   5   8   -3.20    3.70
  -1  -5  -8   79.79    8.00
  -1  -5  -8   88.59   10.70
  -1  -5  -8   83.79    8.80
  -1  -5  -8   85.89    8.00
   1   5   8   81.39    8.90
   1   5   8   90.99    5.40
   1   5   8   83.19    9.40
   1   5   8   86.09    8.50
   1   5   8   86.69   10.70
  -2  -5  -8    7.30    4.10
  -2  -5  -8    8.20    5.60
  -2  -5  -8    3.60    3.90
  -2  -5  -8   -2.60    5.60
   2   5   8    3.30    6.40
   2   5   8    7.30    4.80
   2   5   8    2.80    5.10
   2   5   8    4.80    4.80
   2   5   8    9.50    4.10
  -3  -5  -8   -5.80    3.80
  -3  -5  -8    5.80    3.50
  -3  -5  -8    5.70    5.10
  -3  -5  -8   -6.90    5.70
   3   5   8   -4.60    5.90
   3   5   8   10.10    5.30
   3   5   8   18.80    6.10
  -4  -5  -8    2.90    5.50
  -4  -5  -8    1.20    3.60
   4   5   8   11.80    5.40
   4   5   8    3.70    5.40
   4   5   8    3.40    5.60
   4   5   8   12.60    8.10
   3  -6  -8   40.90    7.10
   3  -6  -8   53.49    8.60
   3  -6  -8   44.90    6.70
  -3   6   8   45.90    9.20
   2  -6  -8   28.70    7.00
   2  -6  -8   30.60    7.70
   2  -6  -8   18.00    5.30
   2  -6  -8   27.60    5.60
  -2   6   8   10.80    6.80
  -2   6   8   37.70    7.40
  -2   6   8   23.40    5.70
   1  -6  -8   63.69    8.50
   1  -6  -8   66.49    9.00
   1  -6  -8   65.69    8.90
   1  -6  -8   68.49    9.40
  -1   6   8   65.49    8.70
  -1   6   8   69.79    9.60
  -1   6   8   55.99    7.50
   0  -6  -8  649.83   24.50
   0  -6  -8  656.03   24.10
   0  -6  -8  626.74   24.30
   0  -6  -8  650.43   23.60
   0   6   8  637.34   22.80
   0   6   8  610.74   24.10
   0   6   8  639.34   25.20
  -1  -6  -8   59.69    8.50
  -1  -6  -8   55.69    7.70
  -1  -6  -8   70.19    9.10
  -1  -6  -8   60.69   10.20
   1   6   8   62.29    9.70
   1   6   8   72.29    8.10
   1   6   8   58.09    8.60
  -2  -6  -8   28.80    7.10
  -2  -6  -8   30.70    9.30
  -2  -6  -8   27.60    6.90
   2   6   8   25.40    6.30
   2   6   8   31.50    6.60
   2   6   8   27.20    8.60
   2   6   8   35.20    7.20
  -3  -6  -8   61.69    8.90
  -3  -6  -8   52.19    9.10
  -3  -6  -8   59.89   10.90
  -3  -6  -8   66.69    7.90
   3   6   8   63.19   11.60
   3   6   8   46.00    7.10
   3   6   8   37.50    7.80
   3   6   8   62.89    6.80
   3   6   8   53.89    9.00
   2  -7  -8   -6.60    5.30
   2  -7  -8   -1.30    4.90
   1  -7  -8   32.40    7.50
   1  -7  -8   33.70    7.50
   1  -7  -8   36.80    8.00
   1  -7  -8   48.90    8.20
  -1   7   8   17.90    4.70
  -1   7   8   32.90    8.40
  -1   7   8   20.10    6.70
   0  -7  -8   -7.90    4.20
   0  -7  -8   -3.90    4.60
   0  -7  -8    4.50    6.30
   0  -7  -8    9.50    5.40
   0   7   8    8.10    6.30
   0   7   8  -12.00    5.00
  -1  -7  -8   19.30    5.60
  -1  -7  -8   11.20    6.10
  -1  -7  -8   20.50    7.10
  -1  -7  -8   24.30    8.30
   1   7   8   11.60    7.10
   1   7   8   30.00    6.50
  -2  -7  -8    6.50    5.50
  -2  -7  -8    2.30    4.40
   2   7   8   -7.20    6.50
   2   7   8   -3.20    4.90
   2   7   8   -5.60    5.40
   1   7  -9   18.50    7.40
   1   7  -9   21.60    7.30
  -1  -7   9   31.20    8.00
  -1  -7   9   -5.40    6.50
  -1  -7   9    0.10   10.80
  -1  -7   9    9.10    7.70
   0   7  -9   10.90    6.00
   0   7  -9   -6.30    4.20
   0   7  -9    0.50    5.70
   0  -7   9    0.00    9.80
   0  -7   9   -3.10    4.90
  -1   7  -9   12.90    5.60
   1  -7   9    0.70    7.00
   1  -7   9   27.70    9.90
   1  -7   9   19.80    6.80
   1  -7   9   22.80    6.40
   3   6  -9   10.70    5.90
   3   6  -9   13.80    6.00
  -3  -6   9    4.10   11.80
  -3  -6   9   14.60    6.60
  -3  -6   9   19.40    7.40
   2   6  -9  141.09   12.00
   2   6  -9  129.09   11.80
  -2  -6   9  126.19   18.30
  -2  -6   9  107.09   10.60
  -2  -6   9  125.29   12.50
  -2  -6   9  133.89   13.10
   1   6  -9  293.97   16.60
   1   6  -9  283.77   16.20
  -1  -6   9  277.57   15.00
  -1  -6   9  279.07   21.40
  -1  -6   9  289.47   18.70
  -1  -6   9  276.37   16.60
   0   6  -9   -6.30    3.80
   0   6  -9   12.00    6.20
   0   6  -9    0.90    4.90
   0  -6   9  -11.00    6.20
   0  -6   9    0.30    6.10
   0  -6   9    4.80    4.50
   0  -6   9   -1.50    3.60
  -1   6  -9  269.87   15.60
  -1   6  -9  294.77   14.00
   1  -6   9  279.47   18.60
   1  -6   9  300.47   15.80
   1  -6   9  273.77   15.10
   1  -6   9  265.67   16.10
  -2   6  -9  139.09   10.90
   2  -6   9  123.79   14.00
   2  -6   9  138.29   12.00
   2  -6   9  140.89   11.30
   2  -6   9  139.89   14.50
   2  -6   9  141.99   11.90
  -3   6  -9    1.10    4.60
  -3   6  -9    2.50    5.40
   3  -6   9    6.10    5.90
   3  -6   9    7.50    7.50
   3  -6   9    4.40    5.10
   3  -6   9   -7.90    5.40
  -4  -5   9   -1.80    5.80
  -4  -5   9    9.20    8.10
  -4  -5   9   11.20   11.20
   3   5  -9   19.50    6.10
   3   5  -9   19.40    5.90
  -3  -5   9   33.10    8.50
  -3  -5   9   21.50    8.10
  -3  -5   9   24.60    9.50
   2   5  -9   32.80    3.70
   2   5  -9   50.39    8.00
   2   5  -9   43.20    8.10
  -2  -5   9   43.90    6.90
  -2  -5   9   43.70   10.20
  -2  -5   9   34.60    8.50
  -2  -5   9   40.10    9.00
   1   5  -9   52.09    8.40
   1   5  -9   51.99    8.60
   1   5  -9   46.80    5.60
  -1  -5   9   41.90    6.50
  -1  -5   9   57.49   11.70
  -1  -5   9   40.10   10.00
   0   5  -9   -0.20    5.00
   0   5  -9   -2.10    3.10
   0   5  -9    0.70    3.80
   0  -5   9   -4.40    5.70
   0  -5   9    6.50    4.50
   0  -5   9   -6.00    9.00
   0  -5   9    7.00    4.80
   0  -5   9    1.10    6.60
  -1   5  -9   47.60    7.10
  -1   5  -9   35.70    7.50
  -1   5  -9   44.70    9.00
   1  -5   9   37.80   10.30
   1  -5   9   40.50    8.80
   1  -5   9   48.20    7.50
   1  -5   9   48.20   12.10
   1  -5   9   49.10    7.50
  -2   5  -9   52.59    7.80
  -2   5  -9   37.00    7.70
  -2   5  -9   33.50    6.80
   2  -5   9   17.90    8.90
   2  -5   9   39.90    7.30
   2  -5   9   41.60    8.20
   2  -5   9   37.90   11.20
   2  -5   9   51.49    7.70
  -3   5  -9   21.60    6.10
   3  -5   9    9.30    5.90
   3  -5   9   24.60    6.40
   3  -5   9   21.10    6.30
   3  -5   9   20.80    9.50
  -4   5  -9   -1.30    6.00
  -4   5  -9   -1.10    4.00
   4  -5   9   -2.40    6.20
   4  -5   9    4.00    6.90
   4  -5   9    3.20    5.20
   4  -5   9   10.10    5.70
   4  -5   9    5.00    4.70
   4   4  -9   12.80    4.10
   4   4  -9   12.40    5.20
   4   4  -9   12.50    5.50
  -4  -4   9   -2.30    5.40
  -4  -4   9   34.50    8.10
  -4  -4   9    3.10    6.30
  -4  -4   9    4.60    9.60
   3   4  -9   -2.60    4.20
   3   4  -9   11.60    6.00
  -3  -4   9    0.40    3.90
  -3  -4   9   -0.70    8.60
  -3  -4   9    1.30    3.60
  -3  -4   9   11.30    5.20
   2   4  -9  308.97   14.90
   2   4  -9  345.97   16.80
   2   4  -9  331.27   16.40
  -2  -4   9  346.97   19.70
  -2  -4   9  311.47   19.70
  -2  -4   9  311.27   17.60
   1   4  -9  111.49    9.10
   1   4  -9   94.19    7.00
   1   4  -9  115.79    9.70
  -1  -4   9  104.39   12.30
  -1  -4   9  105.39    7.40
  -1  -4   9  104.99   11.60
  -1  -4   9  110.49    8.30
  -1  -4   9  110.29   15.20
   0   4  -9   -5.20    3.20
   0   4  -9   -0.80    3.50
   0   4  -9   -0.80    4.60
   0  -4   9   -3.80    7.40
   0  -4   9   -2.80    5.70
   0  -4   9    0.80    3.70
   0  -4   9    0.70    3.80
   0  -4   9   -6.70    5.50
  -1   4  -9  119.89   10.40
  -1   4  -9  101.59    9.00
  -1   4  -9  106.39    8.90
   1  -4   9  113.59   13.10
   1  -4   9  101.89   13.60
   1  -4   9  111.09    9.10
   1  -4   9   99.39   11.00
   1  -4   9   98.79    8.30
  -2   4  -9  333.57   16.00
  -2   4  -9  339.87   16.70
  -2   4  -9  370.86   15.70
   2  -4   9  317.17   20.00
   2  -4   9  345.87   18.30
   2  -4   9  344.97   16.30
   2  -4   9  366.96   21.30
   2  -4   9  354.46   18.00
  -3   4  -9    9.10    3.90
  -3   4  -9    2.40    5.20
   3  -4   9    9.60    5.50
   3  -4   9    2.80    7.00
   3  -4   9   -2.10    6.20
   3  -4   9   -0.40    3.80
   3  -4   9   -4.10    4.80
  -4   4  -9   18.00    4.40
  -4   4  -9    9.10    6.40
   4  -4   9    0.10    5.60
   4  -4   9   21.60    9.50
   4  -4   9   11.80    5.60
   4  -4   9   12.50    5.30
   4  -4   9    0.40    7.30
   5   3  -9   38.90    8.20
   5   3  -9   30.90    6.40
  -5  -3   9   53.49   10.30
  -5  -3   9   34.20   11.80
  -5  -3   9   50.59   10.00
   4   3  -9   14.90    4.80
   4   3  -9   -1.80    3.60
   4   3  -9    4.30    4.80
  -4  -3   9   11.40    6.30
  -4  -3   9   13.00    5.90
   3   3  -9   59.89    7.00
   3   3  -9   50.99    8.40
   3   3  -9   52.29    7.00
   3   3  -9   54.89    3.80
   3   3  -9   45.10    7.20
  -3  -3   9   43.30    8.00
  -3  -3   9   48.10    9.50
  -3  -3   9   39.40    5.40
  -3  -3   9   37.60   11.00
   2   3  -9   87.09    8.60
   2   3  -9   84.69    5.90
  -2  -3   9   87.39    6.80
  -2  -3   9   90.29   12.70
  -2  -3   9   84.29   14.20
  -2  -3   9   87.59   13.60
  -2  -3   9   90.59    6.90
   1   3  -9  102.89    9.30
   1   3  -9  104.99    8.30
   1   3  -9   98.09    7.20
   1   3  -9  114.39    9.20
  -1  -3   9  103.19   11.30
  -1  -3   9  115.89   13.90
  -1  -3   9  106.09    6.00
  -1  -3   9  111.49   12.40
  -1  -3   9  101.39    7.60
   0   3  -9    0.10    4.40
   0   3  -9    3.30    4.40
   0   3  -9   -0.40    3.80
   0  -3   9   11.40    7.10
   0  -3   9   -1.10    4.70
   0  -3   9    8.40    4.20
   0  -3   9    1.60    2.70
   0  -3   9   -4.60    4.80
  -1   3  -9  114.79    9.10
  -1   3  -9  101.69    9.50
  -1   3  -9  113.29    8.90
   1  -3   9  101.29   11.00
   1  -3   9  105.59    7.80
   1  -3   9  122.49   13.70
   1  -3   9  109.89   12.90
   1  -3   9  105.29    8.70
  -2   3  -9   86.59    7.60
  -2   3  -9   81.59    8.80
  -2   3  -9   88.19    9.90
   2  -3   9   96.79   10.60
   2  -3   9   92.89    8.30
   2  -3   9   85.49    8.30
   2  -3   9   88.19   12.30
   2  -3   9   95.09   11.10
  -3   3  -9   42.90    7.40
  -3   3  -9   57.99    6.50
  -3   3  -9   47.00    7.50
   3  -3   9   53.09    7.70
   3  -3   9   43.30    8.20
   3  -3   9   53.09   11.00
   3  -3   9   64.99    8.50
   3  -3   9   58.69   10.60
  -4   3  -9   12.00    3.40
  -4   3  -9    8.20    5.50
  -4   3  -9   12.90    7.20
   4  -3   9    0.10    7.20
   4  -3   9    2.20    5.60
   4  -3   9   -0.30    6.80
   4  -3   9    4.10    5.60
   4  -3   9    9.70    5.30
  -5   3  -9   32.80    8.80
  -5   3  -9   36.20    7.80
   5  -3   9   18.90    9.10
   5  -3   9   32.50    9.40
   5  -3   9   16.30    6.10
   5  -3   9   32.80    8.00
   5  -3   9   35.50    8.70
   5   2  -9  398.46   18.90
  -5  -2   9  456.75   26.10
  -5  -2   9  357.66   23.10
  -5  -2   9  392.56   27.00
   4   2  -9  654.33   24.70
   4   2  -9  635.94   20.90
   4   2  -9  624.04   22.10
   4   2  -9  651.33   23.70
  -4  -2   9  667.23   29.60
  -4  -2   9  631.74   26.20
  -4  -2   9  616.34   28.50
   3   2  -9    2.70    4.10
   3   2  -9    9.00    3.60
   3   2  -9    9.40    5.00
   3   2  -9    6.00    2.80
   3   2  -9    3.10    3.70
  -3  -2   9    4.20    7.90
  -3  -2   9    9.60    6.80
  -3  -2   9    6.00    6.50
   2   2  -9  325.57   11.90
   2   2  -9  299.67   14.10
   2   2  -9  312.27   14.70
   2   2  -9  317.87   13.30
  -2  -2   9  289.77    7.60
  -2  -2   9  322.17   18.10
  -2  -2   9  289.07   17.90
  -2  -2   9  321.57   17.10
  -2  -2   9  299.07   11.70
   1   2  -9  967.80   29.20
   1   2  -9  986.60   30.40
   1   2  -9 1031.70   28.10
   1   2  -9 1016.60   30.80
  -1  -2   9  965.00   28.20
  -1  -2   9 1024.90   35.70
  -1  -2   9 1035.80   35.80
  -1  -2   9 1038.20   33.00
   0   2  -9   -5.30    3.50
   0   2  -9    6.10    5.00
   0   2  -9    0.00    4.00
   0   2  -9    7.00    3.90
   0  -2   9   -3.10    6.30
   0  -2   9    4.70    2.10
   0  -2   9   -3.50    7.70
   0  -2   9   -2.20    7.10
   0  -2   9    2.50    4.00
  -1   2  -9 1013.60   31.20
  -1   2  -9 1023.20   29.50
   1  -2   9  953.50   35.00
   1  -2   9  996.10   30.10
   1  -2   9 1018.60   35.40
   1  -2   9 1018.20   32.90
   1  -2   9 1006.10   26.80
  -2   2  -9  301.57   14.90
  -2   2  -9  321.57   13.20
  -2   2  -9  331.67   14.90
  -2   2  -9  327.67   13.50
   2  -2   9  313.37   13.40
   2  -2   9  341.47   18.30
   2  -2   9  329.27   19.20
   2  -2   9  311.57   17.50
   2  -2   9  317.87   16.80
  -3   2  -9    2.70    5.40
  -3   2  -9    2.80    4.60
  -3   2  -9    9.60    5.10
  -3   2  -9    5.00    3.50
   3  -2   9    4.20    5.80
   3  -2   9    4.20    4.30
   3  -2   9    9.30    7.40
   3  -2   9    5.60    7.20
  -4   2  -9  650.03   24.90
  -4   2  -9  650.93   25.50
   4  -2   9  599.34   27.90
   4  -2   9  642.84   25.00
   4  -2   9  651.13   28.80
   4  -2   9  670.73   25.70
  -5   2  -9  404.46   20.50
   5  -2   9  339.67   22.10
   5  -2   9  365.76   18.30
   5  -2   9  367.36   19.60
   5  -2   9  366.16   22.30
   5   1  -9   39.20    5.70
   5   1  -9   47.50    6.80
   5   1  -9   64.19    6.40
   5   1  -9   41.70    7.70
   5   1  -9   50.59    5.30
  -5  -1   9   32.70    5.90
  -5  -1   9   45.50   10.20
  -5  -1   9   53.69    4.60
  -5  -1   9   44.40    9.30
  -5  -1   9   62.59   10.60
   4   1  -9    6.00    3.90
   4   1  -9    3.60    3.60
   4   1  -9    2.20    3.10
   4   1  -9    9.20    5.40
   4   1  -9    8.20    3.80
  -4  -1   9    5.40    6.00
  -4  -1   9   20.50    6.50
  -4  -1   9    1.40    7.30
   3   1  -9   87.19    7.90
   3   1  -9   84.79    7.10
   3   1  -9   88.79    6.50
  -3  -1   9   91.39    3.20
  -3  -1   9  100.09   13.00
  -3  -1   9   90.89   12.20
  -3  -1   9   95.49   13.10
   2   1  -9  125.89    7.70
   2   1  -9  130.69    9.20
   2   1  -9  154.28    9.50
  -2  -1   9  116.99   11.50
  -2  -1   9  132.69   12.80
  -2  -1   9  134.19   11.80
   1   1  -9  178.88    9.50
   1   1  -9  151.88    9.00
   1   1  -9  174.78   10.70
   1   1  -9  170.68   10.40
  -1  -1   9  185.68   12.40
  -1  -1   9  166.58   14.40
  -1  -1   9  143.09    8.30
   0   1  -9    8.20    5.00
   0   1  -9   -0.20    3.40
   0   1  -9   -5.80    4.20
   0   1  -9   -3.50    2.70
   0  -1   9   -2.10    3.30
   0  -1   9    0.80    6.70
   0  -1   9    7.60    9.20
   0  -1   9    3.30    8.30
  -1   1  -9  166.88    9.50
  -1   1  -9  150.28   10.60
  -1   1  -9  152.38    7.10
   1  -1   9  158.48   13.40
   1  -1   9  155.38    9.90
   1  -1   9  162.28   14.80
   1  -1   9  171.58   13.10
  -2   1  -9  139.69    8.30
  -2   1  -9  124.89    7.80
  -2   1  -9  140.59   10.00
  -2   1  -9  142.49   10.40
   2  -1   9  142.59    9.90
   2  -1   9  130.09   12.60
   2  -1   9  148.99   12.00
   2  -1   9  155.28   14.20
  -3   1  -9   89.09    8.70
  -3   1  -9   86.89    6.10
  -3   1  -9   97.99    8.30
  -3   1  -9   86.29    9.60
   3  -1   9   80.09    9.60
   3  -1   9   77.79   10.00
   3  -1   9   87.79   12.40
   3  -1   9   95.69    8.90
  -4   1  -9    8.50    6.00
  -4   1  -9    9.90    5.10
   4  -1   9    1.20    7.00
   4  -1   9   -4.90    5.40
   4  -1   9   11.80    7.30
   4  -1   9    7.70    4.80
  -5   1  -9   44.30    9.30
  -5   1  -9   65.39    9.40
   5  -1   9   33.60   10.50
   5  -1   9   37.00    7.60
   5  -1   9   40.80    8.20
   5  -1   9   45.00    9.70
   5   0  -9   41.70    5.60
   5   0  -9   34.20    4.70
   5   0  -9   44.10    8.30
  -5   0   9   43.00    9.30
  -5   0   9   46.90    5.60
  -5   0   9   38.10    9.80
   4   0  -9    0.80    3.40
   4   0  -9    5.70    3.30
   4   0  -9   -2.70    3.20
   4   0  -9    3.20    3.80
   4   0  -9    4.80    4.50
  -4   0   9    1.40    4.40
  -4   0   9   11.20    5.40
  -4   0   9    1.50    6.40
   3   0  -9    4.50    3.50
   3   0  -9    1.70    2.90
   3   0  -9    1.30    4.10
  -3   0   9    0.30    6.70
  -3   0   9    4.60    6.00
  -3   0   9   10.40    6.50
   2   0  -9  584.84   19.80
   2   0  -9  580.24   18.60
   2   0  -9  602.34   20.60
   2   0  -9  552.14   20.60
   2   0  -9  553.34   18.80
  -2   0   9  564.54   25.00
  -2   0   9  560.54   22.50
  -2   0   9  569.04   23.50
   1   0  -9  103.39    8.10
   1   0  -9   92.79   10.60
   1   0  -9   92.49    8.40
   1   0  -9   97.39    8.20
  -1   0   9   77.59   11.90
  -1   0   9  102.19   11.90
  -1   0   9   91.59   11.20
   0   0  -9    2.50    4.50
   0   0  -9    2.70    3.40
   0   0  -9   -0.90    4.20
   0   0  -9   -3.40    3.50
   0   0   9    3.10    8.10
   0   0   9    2.80    7.10
   0   0   9    5.20    3.80
   0   0   9    4.50    6.80
  -1   0  -9   85.19    5.20
  -1   0  -9   85.89    5.30
  -1   0  -9   96.59   10.70
  -1   0  -9   86.39    8.60
  -1   0  -9   93.49    7.20
   1   0   9   91.89    9.50
   1   0   9   97.49   11.00
   1   0   9   83.39    7.70
   1   0   9  100.79   11.20
  -2   0  -9  554.84   18.20
  -2   0  -9  579.04   20.90
  -2   0  -9  555.84   17.90
  -2   0  -9  603.74   21.10
   2   0   9  565.24   20.70
   2   0   9  544.35   22.10
   2   0   9  578.54   24.80
   2   0   9  564.94   23.40
  -3   0  -9    4.60    2.80
  -3   0  -9   -8.10    4.90
  -3   0  -9    0.10    5.10
  -3   0  -9    4.60    4.20
   3   0   9    5.00    7.00
   3   0   9    7.10    9.50
   3   0   9    4.70    6.30
   3   0   9   12.00    3.30
   3   0   9    2.10    4.30
  -4   0  -9    3.00    5.50
  -4   0  -9   -0.30    5.10
  -4   0  -9   12.70    5.90
   4   0   9    1.50    4.20
   4   0   9   15.20    7.40
   4   0   9   -7.30    6.30
   4   0   9   -5.40    4.90
  -5   0  -9   61.39    9.10
  -5   0  -9   48.90    9.00
   5   0   9   41.30   11.00
   5   0   9   36.30    8.60
   5   0   9   52.19    8.40
   5   0   9   43.10    9.50
   5  -1  -9   50.29    7.50
   5  -1  -9   49.50    5.30
   5  -1  -9   41.00    7.90
   5  -1  -9   44.70    4.90
   5  -1  -9   51.99    7.10
  -5   1   9   52.09    9.30
  -5   1   9   48.80    8.90
  -5   1   9   57.39   11.00
  -5   1   9   62.39    9.20
   4  -1  -9    2.40    2.90
   4  -1  -9    6.20    5.10
   4  -1  -9    7.00    4.10
   4  -1  -9    5.80    3.40
  -4   1   9    5.00    5.70
  -4   1   9    1.20    6.40
  -4   1   9   20.80    6.60
   3  -1  -9   87.29    9.30
   3  -1  -9   91.99    8.50
   3  -1  -9   88.89    6.70
   3  -1  -9   90.89    9.00
   3  -1  -9   88.69    8.60
  -3   1   9   88.99   12.10
  -3   1   9   80.19   10.50
   2  -1  -9  130.39    9.90
   2  -1  -9  138.19    8.30
   2  -1  -9  123.69    8.70
   2  -1  -9  136.29    9.80
   2  -1  -9  143.19    9.30
  -2   1   9  138.19   11.90
  -2   1   9  151.38   13.30
  -2   1   9  142.79   11.60
   1  -1  -9  171.68   10.50
   1  -1  -9  172.88   10.00
   1  -1  -9  149.19    9.30
   1  -1  -9  167.38    9.40
   1  -1  -9  160.18   10.30
  -1   1   9  159.38   13.00
  -1   1   9  157.88    8.30
  -1   1   9  150.08   11.90
  -1   1   9  154.28   12.90
   0  -1  -9   -1.50    3.30
   0  -1  -9   -0.30    4.10
   0  -1  -9    0.70    3.70
   0   1   9    6.50    8.00
   0   1   9    3.20    6.40
   0   1   9   -0.30    3.20
   0   1   9   -1.40    6.60
  -1  -1  -9  166.88    7.50
  -1  -1  -9  143.69    7.70
  -1  -1  -9  161.68   10.70
  -1  -1  -9  169.88    9.50
  -1  -1  -9  165.08   11.00
  -1  -1  -9  161.68    9.70
   1   1   9  155.38   13.00
   1   1   9  159.18   11.50
   1   1   9  172.68   10.00
   1   1   9  169.18   12.00
  -2  -1  -9  134.99   10.60
  -2  -1  -9  145.89    7.90
  -2  -1  -9  147.79   10.50
  -2  -1  -9  151.58    8.80
   2   1   9  146.49   12.00
   2   1   9  143.69    9.80
   2   1   9  143.59   14.00
  -3  -1  -9   90.99    5.70
  -3  -1  -9   87.39    8.50
  -3  -1  -9   95.49    9.10
  -3  -1  -9  102.49    8.90
   3   1   9   77.39   12.70
   3   1   9  101.59    6.00
   3   1   9   87.19    8.60
   3   1   9   99.49   11.00
   3   1   9   85.29   11.70
  -4  -1  -9   -0.30    6.00
  -4  -1  -9    9.30    5.10
  -4  -1  -9    0.50    5.50
   4   1   9    6.90    6.00
   4   1   9   10.40    6.50
   4   1   9    2.40    4.20
   4   1   9   -1.20    7.20
  -5  -1  -9   51.49    9.40
  -5  -1  -9   48.90    8.60
   5   1   9   54.69    9.90
   5   1   9   59.49   10.80
   5   1   9   42.80    8.00
   5  -2  -9  362.76   18.40
   5  -2  -9  346.77   16.10
   5  -2  -9  369.86   12.70
   5  -2  -9  367.16   12.90
   5  -2  -9  364.36   17.00
  -5   2   9  351.26   20.40
  -5   2   9  399.26   19.70
  -5   2   9  358.26   19.60
  -5   2   9  377.76   19.80
   4  -2  -9  655.03   19.90
   4  -2  -9  623.74   19.20
   4  -2  -9  651.93   25.10
   4  -2  -9  638.44   22.80
   4  -2  -9  618.84   23.20
  -4   2   9  652.93   26.00
  -4   2   9  634.84   18.60
  -4   2   9  695.93   26.00
  -4   2   9  609.14   27.00
  -4   2   9  624.94   24.80
   3  -2  -9    3.80    3.70
   3  -2  -9   -0.10    4.10
   3  -2  -9   10.70    3.50
   3  -2  -9   -0.90    3.60
  -3   2   9    2.70    6.80
  -3   2   9    7.60    4.40
  -3   2   9   -0.80    5.40
  -3   2   9   13.40    6.50
   2  -2  -9  325.77   13.40
   2  -2  -9  313.07   13.00
   2  -2  -9  330.97   15.10
   2  -2  -9  326.67   14.80
   2  -2  -9  324.37   14.80
  -2   2   9  318.67   15.70
  -2   2   9  329.87   18.70
  -2   2   9  304.87   16.60
  -2   2   9  331.67   15.40
   1  -2  -9 1022.60   30.70
   1  -2  -9 1026.00   29.70
   1  -2  -9 1029.90   30.90
   1  -2  -9  980.10   30.60
   1  -2  -9  962.80   28.90
  -1   2   9 1075.19   33.40
  -1   2   9 1004.10   30.60
  -1   2   9 1071.29   36.20
   0  -2  -9   -4.60    4.50
   0  -2  -9    0.50    3.30
   0  -2  -9    1.10    3.40
   0  -2  -9    2.60    1.70
   0  -2  -9   -4.30    3.60
   0  -2  -9    0.30    3.80
   0  -2  -9   -2.80    1.90
   0   2   9    9.20    7.80
   0   2   9    2.90    4.30
   0   2   9   -4.90    5.10
   0   2   9    3.70    6.20
   0   2   9   -5.10    2.80
  -1  -2  -9 1034.60   31.20
  -1  -2  -9  952.00   29.90
  -1  -2  -9 1029.50   29.10
  -1  -2  -9  954.20   31.70
   1   2   9 1009.90   31.20
   1   2   9 1064.99   33.30
   1   2   9 1083.29   33.10
   1   2   9 1004.80   29.00
   1   2   9 1016.10   35.70
  -2  -2  -9  320.77   15.00
  -2  -2  -9  331.17   14.00
  -2  -2  -9  314.67   13.60
  -2  -2  -9  329.27   15.50
   2   2   9  343.37   19.60
   2   2   9  292.87   15.40
   2   2   9  325.17   15.10
   2   2   9  306.77   12.50
   2   2   9  314.67   16.70
  -3  -2  -9    5.30    5.60
  -3  -2  -9    2.70    5.10
  -3  -2  -9   10.50    5.40
   3   2   9    7.00    3.10
   3   2   9    1.80    5.90
   3   2   9   -2.40    6.90
   3   2   9   14.50    6.00
   3   2   9    2.90    4.80
  -4  -2  -9  688.73   25.40
  -4  -2  -9  647.34   24.30
  -4  -2  -9  620.54   24.70
   4   2   9  622.44   24.50
   4   2   9  630.14   26.30
   4   2   9  660.83   27.20
   4   2   9  627.64   29.40
  -5  -2  -9  386.66   19.50
  -5  -2  -9  389.86   23.50
   5   2   9  396.86   19.40
   5   2   9  377.26   21.50
   5  -3  -9   39.90    7.40
   5  -3  -9   30.80    8.20
   5  -3  -9   39.40    4.90
  -5   3   9   28.30    7.80
  -5   3   9   21.60    8.00
  -5   3   9   48.10    9.40
   4  -3  -9   15.20    6.30
   4  -3  -9    3.40    3.50
   4  -3  -9    3.80    3.30
   4  -3  -9    2.80    3.80
   4  -3  -9    7.90    4.60
  -4   3   9   -4.40    5.60
  -4   3   9    5.90    6.50
  -4   3   9    5.40    6.10
  -4   3   9    8.10    5.30
   3  -3  -9   61.79    8.30
   3  -3  -9   59.09    7.80
   3  -3  -9   64.19    6.40
   3  -3  -9   52.89    6.30
   3  -3  -9   47.30    7.70
  -3   3   9   56.99    8.40
  -3   3   9   62.49   10.80
  -3   3   9   57.69    8.60
  -3   3   9   41.50    8.80
   2  -3  -9   83.99    7.20
   2  -3  -9   90.19    8.80
   2  -3  -9   75.99    4.80
  -2   3   9   81.89   11.20
  -2   3   9   86.39    8.70
  -2   3   9   93.49   10.90
  -2   3   9   96.19    7.80
   1  -3  -9  114.59    9.60
   1  -3  -9  108.69    9.30
   1  -3  -9  107.89    8.00
   1  -3  -9  107.79    8.40
   1  -3  -9  103.09    5.50
   1  -3  -9  106.39    9.10
  -1   3   9  107.39    8.10
  -1   3   9  110.09   12.40
  -1   3   9   93.99    6.90
  -1   3   9  106.49    9.50
  -1   3   9  109.99    5.50
  -1   3   9  103.29   10.60
   0  -3  -9   -0.70    3.90
   0  -3  -9    8.10    3.90
   0  -3  -9    3.80    4.70
   0  -3  -9    4.30    3.70
   0  -3  -9    7.70    4.50
   0   3   9   -4.00    6.40
   0   3   9    4.80    4.40
   0   3   9   -2.20    5.40
   0   3   9   -0.50    2.90
   0   3   9    8.30    4.20
  -1  -3  -9  102.29    8.90
  -1  -3  -9  111.69    9.00
  -1  -3  -9  107.09    8.70
  -1  -3  -9  100.59    9.20
  -1  -3  -9   85.19    7.50
   1   3   9   93.29   10.50
   1   3   9  110.69    8.70
   1   3   9  112.89    9.00
   1   3   9   98.69   10.70
   1   3   9   98.59    9.20
  -2  -3  -9   87.59    8.40
  -2  -3  -9   84.09    8.90
  -2  -3  -9   90.39    9.40
  -2  -3  -9   76.49    8.50
   2   3   9   85.99    7.40
   2   3   9  105.49    9.60
   2   3   9  113.09   11.60
   2   3   9   91.09    9.30
   2   3   9  102.89    9.10
  -3  -3  -9   67.79    9.10
  -3  -3  -9   57.79    9.00
  -3  -3  -9   43.90    7.20
   3   3   9   42.50   10.00
   3   3   9   48.00    5.40
   3   3   9   54.99    8.30
   3   3   9   48.80    8.70
   3   3   9   71.79    8.70
  -4  -3  -9   -3.60    5.70
  -4  -3  -9    2.80    5.40
  -4  -3  -9   -1.20    5.70
   4   3   9   -0.60    4.60
   4   3   9    1.00    6.80
   4   3   9    4.40    5.50
   4   3   9    7.50    4.80
  -5  -3  -9   35.70    8.30
  -5  -3  -9   41.10    9.30
   5   3   9   29.70    7.50
   5   3   9   33.70   10.40
   5   3   9   28.70    8.80
   5   3   9   46.40    9.30
   4  -4  -9    5.60    3.70
   4  -4  -9   10.00    4.70
   4  -4  -9   13.90    6.30
   4  -4  -9    7.60    3.90
  -4   4   9   18.00    6.90
  -4   4   9   -8.00    5.80
   3  -4  -9    1.80    3.60
   3  -4  -9    8.60    5.30
   3  -4  -9    2.30    3.90
   3  -4  -9   -0.30    4.30
   3  -4  -9    1.20    3.40
  -3   4   9   -6.80    5.70
  -3   4   9   -0.40    7.10
  -3   4   9    7.70    4.70
   2  -4  -9  333.07   12.90
   2  -4  -9  347.27   14.40
   2  -4  -9  324.87   16.40
   2  -4  -9  350.66   16.40
   2  -4  -9  345.27   14.40
  -2   4   9  318.37   19.10
  -2   4   9  379.96   17.90
  -2   4   9  331.17   17.10
  -2   4   9  327.27   11.30
   1  -4  -9  103.19    7.30
   1  -4  -9   95.39    8.70
   1  -4  -9  101.49    8.90
   1  -4  -9   96.19    8.30
  -1   4   9  109.89    5.70
  -1   4   9   98.19   10.20
  -1   4   9  116.39   12.40
  -1   4   9  109.69   11.10
   0  -4  -9    5.50    4.60
   0  -4  -9    7.50    4.90
   0  -4  -9   -5.00    3.90
   0  -4  -9   -2.80    3.80
   0  -4  -9   -3.20    3.60
   0   4   9   10.00    5.30
   0   4   9   -5.60    6.10
   0   4   9   10.80    4.60
   0   4   9   -1.30    5.00
   0   4   9    2.70    4.30
  -1  -4  -9  102.79    9.70
  -1  -4  -9   94.29    9.10
  -1  -4  -9  101.29    9.30
  -1  -4  -9   98.39    8.90
   1   4   9  114.79   12.30
   1   4   9  103.49    9.60
   1   4   9   96.49    9.00
   1   4   9   93.69    9.90
   1   4   9  113.19    7.70
  -2  -4  -9  350.66   18.40
  -2  -4  -9  330.47   16.60
  -2  -4  -9  343.67   16.80
  -2  -4  -9  338.57   15.40
   2   4   9  353.86   16.60
   2   4   9  319.87   19.60
   2   4   9  378.86   23.40
   2   4   9  348.37   15.20
   2   4   9  347.57   14.40
  -3  -4  -9    1.20    3.80
  -3  -4  -9    3.90    5.40
  -3  -4  -9   -1.10    4.70
  -3  -4  -9    6.30    6.90
   3   4   9    5.30    4.80
   3   4   9   16.10    5.60
   3   4   9   -4.40    6.70
   3   4   9    2.20    5.80
  -4  -4  -9   23.60    6.50
  -4  -4  -9   17.90    7.60
   4   4   9   25.80    6.50
   4   4   9    7.80    6.30
   4   4   9    3.20    7.50
   4   4   9   10.70    5.90
   4  -5  -9   -2.10    3.70
   4  -5  -9    9.00    4.90
   4  -5  -9    6.40    5.70
   4  -5  -9    0.10    4.90
  -4   5   9   -5.90    7.40
  -4   5   9   -1.10    5.60
  -4   5   9  -12.10    6.00
   3  -5  -9   21.20    7.00
   3  -5  -9   11.40    4.50
   3  -5  -9   18.80    5.70
   3  -5  -9   19.70    5.10
  -3   5   9   10.10    6.10
  -3   5   9   -0.80    7.20
  -3   5   9    1.20    5.90
   2  -5  -9   46.30    7.10
   2  -5  -9   43.40    7.20
   2  -5  -9   46.90    8.40
   2  -5  -9   40.40    6.30
  -2   5   9   49.10    9.10
  -2   5   9   38.30    7.30
  -2   5   9   30.10    8.80
   1  -5  -9   49.20    6.70
   1  -5  -9   51.49    7.60
   1  -5  -9   43.90    7.70
   1  -5  -9   50.29    7.00
   1  -5  -9   47.50    8.80
  -1   5   9   39.00    9.40
  -1   5   9   59.89    9.00
  -1   5   9   43.20    8.30
   0  -5  -9    0.90    3.90
   0  -5  -9    0.20    5.30
   0  -5  -9   -1.70    4.40
   0  -5  -9    0.30    3.30
   0   5   9   -1.70    5.10
   0   5   9    3.60    5.00
   0   5   9   -1.00    5.80
  -1  -5  -9   48.50    8.10
  -1  -5  -9   37.90    7.80
  -1  -5  -9   59.39    8.00
   1   5   9   56.59    7.60
   1   5   9   41.00    7.80
   1   5   9   37.80    6.80
   1   5   9   32.80    8.90
  -2  -5  -9   47.00    7.80
  -2  -5  -9   43.50    8.00
  -2  -5  -9   39.10    9.00
  -2  -5  -9   32.90    7.30
   2   5   9   39.90    7.10
   2   5   9   45.60   10.10
   2   5   9   38.60    6.90
   2   5   9   46.90    8.40
  -3  -5  -9   23.00    6.00
  -3  -5  -9    8.50    6.30
  -3  -5  -9    4.10    7.60
   3   5   9   13.20    7.90
   3   5   9   12.90    5.20
   3   5   9   13.30    5.70
   3   5   9   26.40    6.80
  -4  -5  -9    4.90    4.60
  -4  -5  -9    4.50    5.80
  -4  -5  -9   -7.90    5.60
   4   5   9   -4.80    5.70
   4   5   9   11.20    5.10
   3  -6  -9    0.90    5.00
   3  -6  -9    4.90    5.50
   3  -6  -9   -0.60    3.80
   3  -6  -9    5.00    5.90
  -3   6   9   -0.10    5.90
   2  -6  -9  131.39   11.90
   2  -6  -9  128.39   10.40
   2  -6  -9  138.29   10.90
  -2   6   9   94.59   11.60
  -2   6   9  111.39   10.00
  -2   6   9  153.48   13.00
   1  -6  -9  286.97   15.70
   1  -6  -9  307.97   15.50
   1  -6  -9  289.07   14.90
   1  -6  -9  294.27   16.30
  -1   6   9  287.37   16.50
  -1   6   9  263.17   16.20
  -1   6   9  264.67   14.20
   0  -6  -9    3.10    4.60
   0  -6  -9    1.10    4.80
   0  -6  -9    1.00    3.90
   0  -6  -9   -2.90    4.80
   0   6   9    1.80    5.50
   0   6   9  -12.40    6.10
   0   6   9   -0.60    5.30
  -1  -6  -9  289.67   14.90
  -1  -6  -9  304.87   16.40
  -1  -6  -9  302.97   16.90
  -1  -6  -9  290.57   17.80
   1   6   9  311.27   16.00
  -2  -6  -9  129.69   11.70
  -2  -6  -9  134.69   11.70
  -2  -6  -9  144.99   10.30
  -2  -6  -9  109.99   13.20
   2   6   9  131.69   14.10
   2   6   9  146.29   12.00
  -3  -6  -9   -1.30    4.00
  -3  -6  -9   -3.60    5.60
  -3  -6  -9   -0.10    5.40
   3   6   9    2.60    8.00
   3   6   9   -4.00    5.50
   3   6   9    5.80    6.80
   1  -7  -9   18.30    7.20
   1  -7  -9   20.90    7.60
   1  -7  -9    6.80    6.50
  -1   7   9    3.60    7.00
  -1   7   9    1.30    4.30
   0  -7  -9    5.80    5.30
   0  -7  -9   -0.70    5.20
   0  -7  -9   -2.10    5.10
   0  -7  -9   -6.30    5.50
   0   7   9   -6.60    5.70
   0   7   9    6.60    4.80
   0   7   9   -4.90    5.70
  -1  -7  -9   12.80    6.40
  -1  -7  -9   11.60    6.40
  -1  -7  -9   23.90    6.20
  -1  -7  -9   -3.30    6.20
   1   7   9    1.40    7.00
   1   7   9   22.40    6.10
   1   7   9   11.50    7.90
   2   6 -10   40.50    8.80
   2   6 -10   35.50    7.90
  -2  -6  10   22.40   12.90
  -2  -6  10   43.90    9.10
   1   6 -10   70.89    7.40
   1   6 -10   82.69   10.80
  -1  -6  10   92.39    9.00
  -1  -6  10   61.79   11.70
  -1  -6  10   56.49   10.30
  -1  -6  10   93.19   16.50
   0   6 -10   18.50    5.20
   0   6 -10   29.10    7.30
   0   6 -10   23.00    7.10
   0  -6  10    8.90    8.70
   0  -6  10   15.40    5.40
   0  -6  10   26.20   11.90
   0  -6  10    0.30    7.00
  -1   6 -10   86.39    9.00
  -1   6 -10  101.59   10.50
  -1   6 -10  105.29   10.30
   1  -6  10   73.49   13.00
   1  -6  10   76.89   10.70
   1  -6  10  108.39   10.40
   1  -6  10  119.79   17.20
   1  -6  10   87.49    9.70
  -2   6 -10   32.00    7.10
   2  -6  10   23.70    7.30
   2  -6  10   22.30    8.10
   2  -6  10   43.50   11.60
   3   5 -10   14.00    6.30
  -3  -5  10    0.50    6.60
  -3  -5  10    8.70   11.20
  -3  -5  10   12.80    6.70
  -3  -5  10  -11.40    4.90
   2   5 -10   12.70    6.20
   2   5 -10    8.40    4.70
  -2  -5  10   13.40    6.60
  -2  -5  10    0.20    4.00
  -2  -5  10    6.30    6.30
  -2  -5  10    1.10   10.20
   1   5 -10   26.10    6.10
   1   5 -10   31.00    7.70
   1   5 -10   15.00    4.80
  -1  -5  10   20.50    8.80
  -1  -5  10   20.90    8.10
  -1  -5  10   35.10    5.80
   0   5 -10   38.50    7.40
   0   5 -10   29.50    7.00
   0   5 -10   36.90    5.90
   0  -5  10   27.80    5.40
   0  -5  10   32.40    8.70
   0  -5  10   30.00    9.80
   0  -5  10   18.10   12.30
   0  -5  10   22.30    5.50
  -1   5 -10   29.90    6.20
  -1   5 -10   30.30    6.60
  -1   5 -10   29.60    7.00
   1  -5  10   25.80    6.10
   1  -5  10   33.30    6.70
   1  -5  10   20.40    9.80
  -2   5 -10   16.10    5.50
  -2   5 -10   11.80    5.90
  -2   5 -10   12.10    5.50
   2  -5  10  -10.30    8.40
   2  -5  10    5.00    5.30
   2  -5  10   13.10    8.20
   2  -5  10    1.10    8.00
   2  -5  10    6.70    5.20
  -3   5 -10   -9.00    4.50
  -3   5 -10   11.90    5.40
   3  -5  10    0.30    5.00
   3  -5  10    6.00    5.10
   3  -5  10   -2.20    5.10
   3  -5  10  -14.80    5.80
   3  -5  10   -1.40    7.40
   4   4 -10   71.79    7.80
   4   4 -10   67.69   11.00
   4   4 -10   87.89   12.80
  -4  -4  10   75.59   15.60
  -4  -4  10   64.89   10.50
  -4  -4  10   96.59   12.20
   3   4 -10  286.27   15.30
   3   4 -10  283.57   16.10
  -3  -4  10  281.67   18.00
  -3  -4  10  268.37   21.40
  -3  -4  10  245.58   11.40
  -3  -4  10  275.07   18.80
   2   4 -10   66.99    5.50
   2   4 -10   76.99    8.70
   2   4 -10   89.79    8.70
  -2  -4  10   90.19   14.90
  -2  -4  10   66.29    6.20
  -2  -4  10   66.09   11.30
  -2  -4  10   74.49   11.10
   1   4 -10   39.00    7.10
   1   4 -10   26.80    6.80
   1   4 -10   27.40    5.40
  -1  -4  10   33.20    4.90
  -1  -4  10   43.80    6.60
  -1  -4  10   14.80   10.80
  -1  -4  10   30.90    8.70
  -1  -4  10   43.80   10.10
   0   4 -10 1236.78   34.70
   0   4 -10 1233.08   38.30
   0   4 -10 1229.98   37.50
   0  -4  10 1161.68   35.80
   0  -4  10 1233.38   44.10
  -1   4 -10   37.40    6.80
  -1   4 -10   27.50    7.30
  -1   4 -10   45.40    7.40
   1  -4  10   37.50    5.70
   1  -4  10   35.70    6.70
   1  -4  10   18.00    8.20
   1  -4  10   15.50   10.10
   1  -4  10   21.10    8.50
  -2   4 -10   89.59    9.50
  -2   4 -10   78.39    9.90
   2  -4  10   91.09    8.70
   2  -4  10   69.49    9.30
   2  -4  10   86.19   11.50
  -3   4 -10  301.17   14.10
   3  -4  10  286.17   16.20
   3  -4  10  294.87   19.10
   3  -4  10  275.97   15.80
   3  -4  10  305.57   20.50
   3  -4  10  292.37   16.50
  -4   4 -10   94.79   11.70
  -4   4 -10   73.89   10.10
  -4   4 -10   77.99    7.20
   4  -4  10   56.09    9.50
   4  -4  10   61.09    8.90
   4  -4  10   47.20   10.90
   4  -4  10  104.59   15.30
   4   3 -10   30.40    7.20
   4   3 -10   23.90    5.60
   4   3 -10   50.89    7.60
  -4  -3  10   37.00    8.20
  -4  -3  10   28.40    7.10
  -4  -3  10   22.90   10.40
   3   3 -10    6.20    4.10
   3   3 -10   -4.40    4.10
   3   3 -10    9.60    4.90
  -3  -3  10   -2.20    8.50
  -3  -3  10    9.30    6.70
  -3  -3  10    5.00    6.50
   2   3 -10   10.50    5.20
   2   3 -10    6.00    4.30
   2   3 -10   10.70    3.80
   2   3 -10    7.20    5.70
  -2  -3  10    9.00    9.70
  -2  -3  10   15.70    7.40
  -2  -3  10   11.20    2.40
  -2  -3  10   14.90    4.50
  -2  -3  10   14.00    7.40
   1   3 -10   87.49   11.50
   1   3 -10   76.19    8.60
   1   3 -10   68.49    6.90
   1   3 -10   74.59    9.30
  -1  -3  10   71.49    6.60
  -1  -3  10   74.49   13.60
  -1  -3  10   62.49    4.20
  -1  -3  10   87.09   14.00
   0   3 -10   70.99    7.30
   0   3 -10   58.09    8.70
   0  -3  10   76.79   13.20
   0  -3  10   86.09   11.30
   0  -3  10   63.89    7.10
   0  -3  10   69.09   12.20
  -1   3 -10   76.69    8.20
  -1   3 -10   59.89    8.80
  -1   3 -10   79.39    7.80
   1  -3  10   67.99    6.30
   1  -3  10   60.99    9.50
   1  -3  10   67.19   11.10
   1  -3  10   76.69   13.00
   1  -3  10   58.89    7.80
  -2   3 -10   14.80    5.60
  -2   3 -10   24.00    5.40
  -2   3 -10   16.60    5.10
   2  -3  10   12.90    4.90
   2  -3  10   19.60    5.70
   2  -3  10    7.20    7.80
   2  -3  10   15.50    8.50
  -3   3 -10    3.30    5.80
  -3   3 -10    8.10    4.40
  -3   3 -10    4.70    5.20
  -3   3 -10   12.10    4.30
   3  -3  10    4.10    6.10
   3  -3  10    8.60    4.60
   3  -3  10    7.30    5.10
   3  -3  10   -2.60    7.00
   3  -3  10   14.10    9.80
  -4   3 -10   31.40    4.70
  -4   3 -10   43.30    9.40
  -4   3 -10   47.50    8.50
   4  -3  10   23.30    9.30
   4  -3  10   36.30    9.20
   4  -3  10   29.10    7.20
   4  -3  10   31.70    7.70
   4  -3  10   35.30    8.00
   4   2 -10   61.69    7.80
   4   2 -10   64.49    7.60
   4   2 -10   71.59    9.40
   4   2 -10   59.89    5.20
  -4  -2  10   67.09   10.80
  -4  -2  10   95.19   11.80
   3   2 -10  204.08    9.30
   3   2 -10  207.68   11.50
   3   2 -10  217.38   13.50
   3   2 -10  208.18   12.20
  -3  -2  10  245.88   17.50
  -3  -2  10  237.48   16.00
  -3  -2  10  206.38   17.60
   2   2 -10   65.49    9.10
   2   2 -10   60.69    6.20
   2   2 -10   58.89    7.20
  -2  -2  10   57.79    9.90
  -2  -2  10   61.19   10.90
  -2  -2  10   72.49   11.60
   1   2 -10  288.27   12.70
   1   2 -10  281.77   14.40
   1   2 -10  255.67   13.90
   1   2 -10  274.37   13.10
  -1  -2  10  281.57   16.00
  -1  -2  10  257.27   12.00
  -1  -2  10  270.07   17.40
  -1  -2  10  268.67   18.50
   0   2 -10    8.50    1.50
   0   2 -10   -2.20    4.40
   0   2 -10    0.70    6.10
   0   2 -10    4.00    1.80
   0   2 -10    4.80    4.30
   0  -2  10    4.60    6.90
   0  -2  10   11.80    4.80
   0  -2  10    3.20    7.90
   0  -2  10    3.50    6.40
  -1   2 -10  262.77   13.50
  -1   2 -10  259.77   14.30
  -1   2 -10  259.27   12.70
   1  -2  10  268.17   16.70
   1  -2  10  234.28   10.80
   1  -2  10  257.97   13.20
   1  -2  10  282.97   16.70
   1  -2  10  275.47   18.60
  -2   2 -10   56.19    8.30
  -2   2 -10   67.39    9.00
  -2   2 -10   62.09    6.30
  -2   2 -10   55.69    6.20
   2  -2  10   63.49    9.30
   2  -2  10   62.79   11.40
   2  -2  10   57.19   14.10
   2  -2  10   51.29   10.90
   2  -2  10   63.09    6.50
  -3   2 -10  216.58   14.10
  -3   2 -10  211.78   10.50
  -3   2 -10  191.58   12.40
  -3   2 -10  224.18   12.70
   3  -2  10  193.28   12.80
   3  -2  10  214.18   12.40
   3  -2  10  228.48   16.80
   3  -2  10  216.48   14.80
   3  -2  10  217.98   17.20
  -4   2 -10   70.09   10.30
  -4   2 -10   69.19    8.60
   4  -2  10   54.89    9.50
   4  -2  10   61.49    9.10
   4  -2  10   51.79   11.40
   4  -2  10   59.29   10.60
   5   1 -10   -0.20    5.20
   5   1 -10    7.10    4.10
   5   1 -10    4.50    4.70
  -5  -1  10   -0.90    5.90
  -5  -1  10   -5.20    8.20
   4   1 -10   64.09    6.90
   4   1 -10   44.10    6.40
   4   1 -10   56.29    5.70
   4   1 -10   47.60    6.50
   4   1 -10   45.00    8.10
  -4  -1  10   37.90    7.70
  -4  -1  10   67.59   12.40
   3   1 -10    6.60    3.60
   3   1 -10   12.00    4.50
   3   1 -10    7.10    4.70
   3   1 -10   11.60    4.30
   3   1 -10    7.90    4.20
  -3  -1  10    4.80    8.40
  -3  -1  10   17.50    7.70
  -3  -1  10   10.40    7.30
   2   1 -10   13.00    4.60
   2   1 -10   14.40    4.60
   2   1 -10   19.10    5.40
   2   1 -10   18.80    5.90
   2   1 -10    8.60    5.20
  -2  -1  10   21.10    4.40
  -2  -1  10   24.60    9.30
  -2  -1  10   21.10    8.60
  -2  -1  10   21.30    9.40
   1   1 -10  116.79    8.40
   1   1 -10  111.29    9.40
   1   1 -10  126.19    8.70
   1   1 -10  135.99    9.90
  -1  -1  10  124.29   11.00
  -1  -1  10  137.89   13.80
  -1  -1  10  112.79   10.90
  -1  -1  10  112.29   12.00
   0   1 -10  112.49    8.90
   0   1 -10   96.69    8.40
   0   1 -10   92.99    9.00
   0  -1  10  113.09   12.60
   0  -1  10   93.69    7.70
   0  -1  10  114.39   11.90
   0  -1  10   95.29   12.90
  -1   1 -10  106.39    8.20
  -1   1 -10  104.49    9.40
  -1   1 -10  128.69    5.80
  -1   1 -10  120.59    9.90
   1  -1  10  112.09   12.00
   1  -1  10  111.79   13.90
   1  -1  10  130.69    9.30
   1  -1  10   95.09   12.00
  -2   1 -10   14.50    4.10
  -2   1 -10   15.40    6.20
  -2   1 -10   20.30    4.30
  -2   1 -10   19.90    6.50
   2  -1  10   26.90   10.20
   2  -1  10   17.10    5.40
   2  -1  10   15.80    6.00
   2  -1  10   11.80    7.50
  -3   1 -10   17.60    4.90
  -3   1 -10   11.90    3.90
  -3   1 -10    8.30    5.90
  -3   1 -10    5.10    5.20
   3  -1  10   11.10    6.50
   3  -1  10   17.20    7.20
   3  -1  10    0.70    6.90
   3  -1  10   11.00    5.10
  -4   1 -10   40.30    8.60
  -4   1 -10   45.80    4.10
   4  -1  10   39.20    8.80
   4  -1  10   37.60   10.40
   4  -1  10   48.50   10.00
  -5   1 -10    5.70    6.40
   5  -1  10   12.30    7.80
   5  -1  10    9.00    5.60
   5  -1  10   -4.80    8.60
   5  -1  10    8.30    7.40
   5   0 -10   52.49    9.10
   5   0 -10   73.49    8.90
   5   0 -10   73.39    7.20
   5   0 -10   68.39   11.20
  -5   0  10   62.49   12.40
   4   0 -10  133.29   10.80
   4   0 -10  123.29    8.50
   4   0 -10  127.69    8.90
   4   0 -10  122.29    9.30
   4   0 -10  108.89    8.00
  -4   0  10  134.79   13.40
  -4   0  10  100.99   11.90
  -4   0  10  125.19   13.50
   3   0 -10  484.35   18.30
   3   0 -10  498.05   19.50
   3   0 -10  481.85   20.70
   3   0 -10  511.45   21.00
  -3   0  10  461.75   22.90
  -3   0  10  495.55   22.70
  -3   0  10  531.85   25.20
   2   0 -10  137.09   10.00
   2   0 -10  137.99    9.80
  -2   0  10  122.79   12.80
  -2   0  10  138.59   13.60
   1   0 -10   39.60    6.90
   1   0 -10   42.80    6.90
   1   0 -10   40.00    6.10
  -1   0  10   42.80   10.20
  -1   0  10   41.90    9.00
  -1   0  10   33.20    5.00
  -1   0  10   46.90   11.50
   0   0 -10 2549.74   62.49
   0   0 -10 2407.26   61.79
   0   0 -10 2484.15   62.29
   0   0 -10 2466.65   62.99
   0   0  10 2658.43   71.89
   0   0  10 2394.66   69.29
   0   0  10 2392.76   60.99
   0   0  10 2492.55   66.19
  -1   0 -10   49.50    7.60
  -1   0 -10   35.30    7.00
  -1   0 -10   43.20    3.90
  -1   0 -10   52.59    6.70
   1   0  10   45.20    9.10
   1   0  10   47.60   10.80
   1   0  10   38.40    6.30
   1   0  10   38.90    9.00
  -2   0 -10  116.99   10.30
  -2   0 -10  119.69    7.60
  -2   0 -10  126.89   10.30
  -2   0 -10  126.49    7.70
   2   0  10  103.39   11.40
   2   0  10  124.89    9.80
  -3   0 -10  471.65   20.70
  -3   0 -10  462.35   15.40
  -3   0 -10  516.35   20.40
  -3   0 -10  499.65   18.70
   3   0  10  459.75   22.60
   3   0  10  509.65   22.70
   3   0  10  499.45   20.50
   3   0  10  470.65   25.00
  -4   0 -10  123.59   13.10
  -4   0 -10  133.69   11.00
   4   0  10  122.49   12.00
   4   0  10  132.39   14.70
   4   0  10  125.99   12.90
   4   0  10  114.19   10.40
  -5   0 -10   63.99   11.00
  -5   0 -10   60.79   10.30
   5   0  10   71.39   12.40
   5   0  10   78.59   10.00
   5  -1 -10    1.60    4.70
   5  -1 -10    1.30    4.20
   5  -1 -10   -2.80    3.60
   5  -1 -10   -1.50    4.50
  -5   1  10   15.20    6.80
  -5   1  10   -6.20    6.00
  -5   1  10  -16.70    7.50
   4  -1 -10   42.60    7.10
   4  -1 -10   45.00    5.60
   4  -1 -10   48.90    6.20
   4  -1 -10   55.39    8.60
   4  -1 -10   51.69    7.10
  -4   1  10   50.99    9.70
  -4   1  10   49.10    9.50
  -4   1  10   49.80   10.30
   3  -1 -10   -1.40    3.90
   3  -1 -10    7.50    4.30
   3  -1 -10    9.10    5.60
   3  -1 -10    3.70    3.50
   3  -1 -10   11.80    5.40
  -3   1  10    2.40    7.90
  -3   1  10    4.30    6.50
  -3   1  10    8.00    7.10
   2  -1 -10   21.90    5.90
   2  -1 -10   17.30    5.60
   2  -1 -10    8.60    4.20
   2  -1 -10   13.30    5.10
  -2   1  10    8.10    5.60
  -2   1  10   12.40    7.40
  -2   1  10   17.90    6.90
   1  -1 -10  121.59    9.60
   1  -1 -10   96.09    9.10
   1  -1 -10  114.69    8.90
   1  -1 -10  114.89    9.50
  -1   1  10  120.79    7.40
  -1   1  10  115.49   12.00
  -1   1  10  128.59   14.00
  -1   1  10  121.99   11.40
   0  -1 -10  102.99    9.10
   0  -1 -10  110.09    8.50
   0  -1 -10  105.39    8.30
   0  -1 -10   95.79    8.40
   0   1  10  101.29   11.50
   0   1  10  113.89   11.40
   0   1  10   94.79    9.80
  -1  -1 -10  106.29    6.10
  -1  -1 -10  123.59    9.90
  -1  -1 -10  120.39    9.20
  -1  -1 -10  118.39    6.30
  -1  -1 -10  127.09    8.60
   1   1  10  140.29    9.40
   1   1  10  103.29   14.10
   1   1  10  120.39   12.00
  -2  -1 -10   22.80    4.90
  -2  -1 -10   19.90    6.20
  -2  -1 -10   13.40    6.30
  -2  -1 -10   17.70    4.40
   2   1  10   17.00    9.70
   2   1  10   32.50    9.30
   2   1  10   21.10    7.10
   2   1  10   14.10    5.00
  -3  -1 -10   16.20    5.10
  -3  -1 -10   11.10    3.00
  -3  -1 -10    8.30    5.90
  -3  -1 -10    6.70    5.00
   3   1  10   12.40    5.40
   3   1  10   11.50    7.10
   3   1  10    6.80    7.70
   3   1  10   13.00    3.60
   3   1  10   12.20    6.40
  -4  -1 -10   43.20    7.60
  -4  -1 -10   62.79   11.20
   4   1  10   53.79    9.80
   4   1  10   56.29    8.90
   4   1  10   45.80   10.60
   4   1  10   45.30    8.30
  -5  -1 -10   10.30    7.30
   5   1  10    6.80    6.90
   5   1  10    0.30    5.10
   5   1  10    1.30    8.50
   5   1  10    7.30    6.10
   4  -2 -10   52.79    7.90
   4  -2 -10   73.29   10.10
   4  -2 -10   69.49    8.90
   4  -2 -10   57.99    6.20
   4  -2 -10   63.29    6.30
  -4   2  10   39.20   10.10
  -4   2  10   73.69   10.50
  -4   2  10   78.09   10.60
  -4   2  10   64.39   10.80
   3  -2 -10  225.98   10.80
   3  -2 -10  212.98   13.10
   3  -2 -10  199.38   12.00
   3  -2 -10  224.98   13.10
   3  -2 -10  201.28   10.90
  -3   2  10  214.48   13.90
  -3   2  10  208.88   16.50
  -3   2  10  230.58   15.40
  -3   2  10  223.08   16.60
   2  -2 -10   56.19    8.40
   2  -2 -10   71.09    7.60
   2  -2 -10   53.99    8.20
   2  -2 -10   65.69    8.40
   2  -2 -10   72.99    6.80
  -2   2  10   43.30    8.20
  -2   2  10   71.49   10.80
  -2   2  10   70.49   12.00
  -2   2  10   55.79    8.70
   1  -2 -10  260.17   13.30
   1  -2 -10  257.47   17.40
   1  -2 -10  285.67   13.80
   1  -2 -10  270.17   14.00
   1  -2 -10  281.57   16.50
  -1   2  10  271.77   18.40
  -1   2  10  275.97   14.60
  -1   2  10  283.07   16.50
  -1   2  10  267.77   11.40
  -1   2  10  263.57   13.70
   0  -2 -10    8.10    4.90
   0  -2 -10    0.50    4.80
   0  -2 -10    7.50    4.80
   0  -2 -10    2.70    4.10
   0  -2 -10    7.70    4.40
   0   2  10    4.70    4.60
   0   2  10   16.40    7.30
   0   2  10    3.20    5.10
   0   2  10   11.10    4.20
   0   2  10   10.20    8.50
  -1  -2 -10  255.37   13.50
  -1  -2 -10  269.07   14.20
  -1  -2 -10  270.27   12.40
   1   2  10  264.37   16.00
   1   2  10  273.97   18.40
   1   2  10  258.37   12.40
   1   2  10  279.97   14.80
  -2  -2 -10   71.49    8.90
  -2  -2 -10   74.69    9.20
  -2  -2 -10   56.39    6.00
  -2  -2 -10   54.59    7.20
   2   2  10   48.10    7.50
   2   2  10   62.19    9.90
   2   2  10   61.29    6.00
   2   2  10   73.19    8.80
   2   2  10   50.59   10.90
  -3  -2 -10  227.58   14.20
  -3  -2 -10  207.98   13.10
   3   2  10  211.18   16.40
   3   2  10  210.38    9.40
   3   2  10  219.68   14.50
   3   2  10  210.98   13.50
   3   2  10  217.88   14.50
  -4  -2 -10   56.39    8.80
  -4  -2 -10   62.19    9.90
   4   2  10   63.19    9.20
   4   2  10   70.19   11.20
   4   2  10   51.99   11.40
   4   2  10   61.99   10.10
   4  -3 -10   33.90    6.50
   4  -3 -10   34.30    7.10
   4  -3 -10   36.00    7.20
   4  -3 -10   36.10    7.40
   4  -3 -10   31.50    5.30
  -4   3  10   31.90    7.20
  -4   3  10   35.10   10.10
  -4   3  10   18.90    8.10
   3  -3 -10    1.40    3.70
   3  -3 -10    3.80    4.80
   3  -3 -10    5.40    4.50
   3  -3 -10    7.30    4.20
   3  -3 -10    9.10    4.30
  -3   3  10   -4.30    6.40
  -3   3  10    7.60    4.90
  -3   3  10    8.90    6.80
   2  -3 -10   18.90    5.80
   2  -3 -10   12.80    4.90
   2  -3 -10   10.00    4.50
   2  -3 -10   13.40    5.70
   2  -3 -10   10.80    4.80
  -2   3  10   11.80    5.70
  -2   3  10    6.30    7.80
  -2   3  10   20.20    6.60
  -2   3  10    3.10    6.30
   1  -3 -10   92.49   10.40
   1  -3 -10   62.09    3.50
   1  -3 -10   82.49   10.90
   1  -3 -10   74.49    9.20
  -1   3  10   63.09    7.70
  -1   3  10   57.19    9.70
  -1   3  10   64.19   11.70
  -1   3  10   81.39    3.40
   0  -3 -10   71.39    7.70
   0  -3 -10   70.19    7.60
   0  -3 -10   73.09    8.70
   0  -3 -10   73.99    8.00
   0  -3 -10   61.19    8.10
   0  -3 -10   50.09    4.90
   0   3  10   57.09    6.30
   0   3  10   62.69   11.50
   0   3  10   74.29   10.30
   0   3  10   88.09    8.10
   0   3  10   74.49    8.80
  -1  -3 -10   58.89    8.80
  -1  -3 -10   61.09    7.00
  -1  -3 -10   75.59    9.10
   1   3  10   73.59    8.50
   1   3  10   81.79   12.60
   1   3  10   74.79    7.90
   1   3  10   64.89    7.80
  -2  -3 -10   11.00    5.60
  -2  -3 -10   16.30    6.60
  -2  -3 -10    7.70    5.30
  -2  -3 -10   13.80    6.40
   2   3  10    9.20    4.30
   2   3  10    5.40    6.10
   2   3  10   21.00    5.70
   2   3  10    6.20    7.50
  -3  -3 -10   -2.00    5.10
  -3  -3 -10    5.30    5.10
  -3  -3 -10   -5.90    4.70
   3   3  10    8.70    5.20
   3   3  10    9.00    6.00
   3   3  10   -4.80    5.40
   3   3  10    2.90    7.20
  -4  -3 -10   43.70    8.70
  -4  -3 -10   31.10    8.30
   4   3  10   34.50    9.70
   4   3  10   45.10    7.80
   4   3  10   44.60    8.60
   4   3  10   38.20    7.80
   4  -4 -10   76.19    7.30
   4  -4 -10   84.09   12.10
   4  -4 -10   64.49    9.90
  -4   4  10   62.09   10.00
  -4   4  10   54.29   10.10
  -4   4  10   66.19   11.60
   3  -4 -10  286.17   16.10
   3  -4 -10  279.17   11.20
   3  -4 -10  284.37   13.20
  -3   4  10  272.57   18.40
  -3   4  10  287.17   16.80
  -3   4  10  273.87   16.60
   2  -4 -10   75.39    8.50
   2  -4 -10   78.59   10.00
   2  -4 -10   80.09    8.40
   2  -4 -10   82.69   10.90
   2  -4 -10   68.69    6.40
  -2   4  10   58.79    9.50
  -2   4  10   81.99   12.70
  -2   4  10   80.79   10.80
   1  -4 -10   45.80    8.10
   1  -4 -10   29.00    4.50
   1  -4 -10   32.60    6.40
   1  -4 -10   43.60    7.00
   1  -4 -10   36.50    7.30
  -1   4  10   28.20    8.30
  -1   4  10   36.00    7.60
  -1   4  10   15.80    9.50
   0  -4 -10 1229.08   37.00
   0  -4 -10 1140.29   35.70
   0  -4 -10 1250.47   37.50
   0   4  10 1202.18   41.10
   0   4  10 1213.38   38.10
   0   4  10 1190.98   31.60
  -1  -4 -10   45.20    7.80
  -1  -4 -10   39.00    7.60
  -1  -4 -10   45.90    8.60
  -1  -4 -10   33.80    6.50
   1   4  10   49.50    7.30
   1   4  10   52.29    6.10
   1   4  10   23.60    7.20
   1   4  10   36.80    6.50
   1   4  10   26.60    9.00
  -2  -4 -10   81.49    8.40
  -2  -4 -10   84.69   10.60
  -2  -4 -10   86.49    9.60
   2   4  10   85.49    9.60
   2   4  10   90.59    8.10
   2   4  10   85.19   12.50
   2   4  10  114.59    9.10
  -3  -4 -10  279.17   16.20
  -3  -4 -10  289.27   14.30
  -3  -4 -10  268.67   15.70
  -3  -4 -10  287.47   16.50
   3   4  10  261.67   16.50
   3   4  10  270.07   11.90
   3   4  10  291.07   15.30
   3   4  10  277.17   19.20
   3   4  10  264.87   15.60
  -4  -4 -10   54.59    9.90
  -4  -4 -10   72.89   10.60
   4   4  10   53.39   11.30
   4   4  10   46.30   12.10
   4   4  10   74.19   10.30
   3  -5 -10    8.30    5.10
   3  -5 -10    3.70    5.10
   3  -5 -10   -3.70    3.60
   3  -5 -10    0.00    5.10
  -3   5  10  -14.40    5.80
  -3   5  10  -10.40    8.30
  -3   5  10    5.40    6.40
   2  -5 -10    7.70    5.70
   2  -5 -10    1.70    3.70
   2  -5 -10   11.40    4.90
   2  -5 -10    7.00    4.70
  -2   5  10   14.10    7.00
  -2   5  10   16.10    6.20
  -2   5  10   -4.80    8.00
   1  -5 -10   32.60    7.00
   1  -5 -10   25.10    5.40
   1  -5 -10   28.60    9.00
   1  -5 -10   28.10    6.60
  -1   5  10   52.89    8.90
  -1   5  10   32.70    7.80
   0  -5 -10   29.30    7.00
   0  -5 -10   18.30    5.70
   0  -5 -10   47.70    8.10
   0   5  10   32.70    7.50
  -1  -5 -10   26.00    7.20
  -1  -5 -10   25.10    6.30
   1   5  10   37.30    8.00
   1   5  10   20.70    7.70
   1   5  10   35.10   10.30
  -2  -5 -10   12.80    6.80
  -2  -5 -10    6.40    4.70
  -2  -5 -10   -2.00    5.80
  -2  -5 -10   10.90    6.30
   2   5  10   -2.70    7.10
   2   5  10   -2.90    5.00
   2   5  10    8.10    5.40
   2   5  10   19.40    4.30
  -3  -5 -10    0.60    5.90
  -3  -5 -10   10.70    4.50
  -3  -5 -10  -15.50    6.40
  -3  -5 -10    2.60    6.00
   3   5  10   -0.60    4.70
   3   5  10    2.20    5.50
   3   5  10   -1.90    7.10
   2  -6 -10   30.30    7.60
   2  -6 -10   14.50    6.20
   2  -6 -10   28.00    6.20
   2  -6 -10   31.30    7.50
  -2   6  10    6.90    6.00
  -2   6  10   30.60    8.30
   1  -6 -10   86.89    9.40
   1  -6 -10   83.59    9.50
   1  -6 -10   86.49   11.10
   1  -6 -10   89.49    9.10
  -1   6  10   69.09    9.30
  -1   6  10   79.89   10.80
  -1   6  10   70.19   11.00
   0  -6 -10   31.30    8.00
   0  -6 -10   26.80    6.60
   0  -6 -10   25.60    7.50
   0   6  10   10.90    8.40
   0   6  10   32.40    7.70
   0   6  10   26.60    7.30
  -1  -6 -10   90.19   11.20
  -1  -6 -10   70.19   10.10
  -1  -6 -10   89.39   11.40
   1   6  10   76.39   12.40
   1   6  10   74.89    9.90
   1   6  10   67.49    9.10
  -2  -6 -10   24.90    6.10
  -2  -6 -10   17.30    7.90
  -2  -6 -10   28.00    8.00
  -2  -6 -10   20.80    7.10
   2   6  10   25.80    6.60
   2   6  10   18.30    9.50
   2   6  10   19.80    7.40
   2   5 -11   34.20    7.40
   2   5 -11   28.10    7.10
  -2  -5  11   23.50   12.80
  -2  -5  11   38.30    9.90
  -2  -5  11   33.60    9.50
   1   5 -11    4.20    4.10
   1   5 -11   11.40    4.80
   1   5 -11   21.00    6.50
  -1  -5  11   -2.30    7.90
  -1  -5  11  -10.80    7.10
  -1  -5  11    2.00    3.70
  -1  -5  11   -0.10    9.70
   0   5 -11    6.80    5.40
   0   5 -11   12.30    5.70
   0   5 -11    4.60    5.10
   0  -5  11    1.30    3.70
   0  -5  11  -18.20    8.60
   0  -5  11   -7.70    9.00
   0  -5  11   -6.20    7.80
  -1   5 -11   -1.60    5.50
  -1   5 -11    2.10    5.30
  -1   5 -11    2.50    4.10
   1  -5  11   -5.70    8.10
   1  -5  11    2.70    4.30
   1  -5  11   -4.10    5.60
   1  -5  11   -8.20    6.40
   1  -5  11   -1.40    5.00
  -2   5 -11   30.20    7.60
  -2   5 -11   26.60    5.60
   2  -5  11    0.80    9.80
   2  -5  11   22.30   10.80
   2  -5  11   15.20    6.40
   2  -5  11    8.70    7.90
   2  -5  11   30.50    6.30
   3   4 -11    8.30    6.20
   3   4 -11   -2.60    4.10
  -3  -4  11  -13.40    9.20
   2   4 -11   87.89    9.80
   2   4 -11  106.89   10.60
   2   4 -11   73.69    6.40
  -2  -4  11  106.39   13.50
  -2  -4  11   73.09   11.90
  -2  -4  11  110.49   17.60
   1   4 -11   92.29   10.10
   1   4 -11  111.29   10.00
   1   4 -11   99.49    8.00
  -1  -4  11  105.69   18.70
  -1  -4  11  104.49   11.50
  -1  -4  11  102.29   14.50
   0   4 -11    5.70    4.50
   0   4 -11   -1.40    4.20
   0   4 -11   -4.80    4.80
   0  -4  11   -5.50    8.00
   0  -4  11    1.80    7.30
   0  -4  11    3.90    3.10
   0  -4  11    6.30    4.30
  -1   4 -11  100.49    9.50
  -1   4 -11  134.29   10.40
  -1   4 -11   97.69   10.60
   1  -4  11  119.99    8.10
   1  -4  11   99.59    9.30
   1  -4  11   92.39   14.70
   1  -4  11  108.49   12.80
  -2   4 -11  104.69    9.20
  -2   4 -11   68.39    9.20
  -2   4 -11   89.59   19.00
   2  -4  11   81.79    8.10
   2  -4  11  106.89   15.90
   2  -4  11   71.39   10.80
   2  -4  11   82.49   13.70
   2  -4  11   99.99    9.70
  -3   4 -11   10.60    4.50
  -3   4 -11    5.30    4.90
  -3   4 -11    4.80    4.50
   3  -4  11  -14.30    6.30
   3  -4  11  -10.10    7.00
   3  -4  11    5.60    4.20
   3  -4  11    6.40    6.50
   3  -4  11    0.80    5.50
   3   3 -11    1.10    4.30
   3   3 -11    7.40    6.10
   3   3 -11    1.80    4.50
   3   3 -11    0.30    3.30
  -3  -3  11   -4.60    9.30
  -3  -3  11   -0.60    6.90
  -3  -3  11    9.40    7.90
   2   3 -11   52.99    5.90
   2   3 -11   57.99    8.50
   2   3 -11   57.09    8.50
  -2  -3  11   57.49   11.70
  -2  -3  11   46.40   10.50
  -2  -3  11   59.39   10.60
   1   3 -11    8.50    4.70
  -1  -3  11   -2.60    6.50
  -1  -3  11    2.80    7.80
  -1  -3  11    2.00    5.40
   0   3 -11   -4.70    4.10
   0   3 -11   -3.40    4.80
   0   3 -11    8.70    4.90
   0  -3  11   -9.50    6.90
   0  -3  11    1.10    4.00
   0  -3  11    4.30    2.10
   0  -3  11    6.20    8.80
   0  -3  11    5.30    8.80
  -1   3 -11    3.50    4.50
  -1   3 -11   -3.00    5.10
  -1   3 -11   10.60    4.10
   1  -3  11    0.50    2.90
   1  -3  11   -9.80    8.00
   1  -3  11    8.90    5.10
   1  -3  11    0.90    6.10
   1  -3  11   -5.20    6.70
  -2   3 -11   59.69    8.50
  -2   3 -11   73.59    6.80
  -2   3 -11   51.39    8.20
   2  -3  11   44.30    7.60
   2  -3  11   43.30   11.60
   2  -3  11   56.09    6.40
   2  -3  11   56.89    9.90
   2  -3  11   65.29   13.30
  -3   3 -11   13.40    7.10
  -3   3 -11   16.20    5.20
  -3   3 -11    6.70    4.10
   3  -3  11    6.70    5.00
   3  -3  11   -1.50    5.60
   3  -3  11    0.80    4.30
   3  -3  11   -3.00    7.40
   3  -3  11   -8.10    6.90
   4   2 -11  133.49   10.10
  -4  -2  11  130.59   17.20
  -4  -2  11  105.29   14.10
  -4  -2  11  130.09   16.00
   3   2 -11   16.80    5.50
   3   2 -11   15.80    5.40
   3   2 -11    8.80    3.90
   3   2 -11   22.60    6.50
  -3  -2  11   12.20   10.50
  -3  -2  11    7.30    7.10
  -3  -2  11   27.10    8.80
   2   2 -11  464.75   19.90
   2   2 -11  453.45   19.70
   2   2 -11  448.86   16.50
  -2  -2  11  471.45   24.20
  -2  -2  11  461.65   24.80
  -2  -2  11  454.25   22.80
   1   2 -11  454.55   18.90
   1   2 -11  389.06   17.20
   1   2 -11  424.36   16.40
   1   2 -11  402.56   18.40
  -1  -2  11  359.26   20.00
  -1  -2  11  407.66   23.00
  -1  -2  11  403.16   23.60
  -1  -2  11  420.96   21.80
   0   2 -11    1.70    5.40
   0   2 -11   -8.00    4.20
   0  -2  11   -9.10    7.70
   0  -2  11   -1.50    7.80
   0  -2  11    2.10    5.20
   0  -2  11   10.40    4.60
  -1   2 -11  413.06   18.00
  -1   2 -11  405.86   18.90
  -1   2 -11  397.26   17.10
   1  -2  11  411.56   21.10
   1  -2  11  418.56   22.70
   1  -2  11  404.06   17.60
   1  -2  11  445.66   24.30
  -2   2 -11  480.45   20.20
  -2   2 -11  467.85   16.30
  -2   2 -11  436.26   17.40
  -2   2 -11  456.75   20.50
   2  -2  11  452.15   22.10
   2  -2  11  417.76   24.20
   2  -2  11  448.26   23.90
   2  -2  11  440.06   19.30
  -3   2 -11   19.90    6.10
  -3   2 -11   21.20    5.00
  -3   2 -11   16.90    4.50
   3  -2  11   13.20    8.40
   3  -2  11    8.20    5.40
   3  -2  11    6.40    6.70
   3  -2  11   12.50    9.00
  -4   2 -11  142.89   10.40
  -4   2 -11  127.59   12.70
   4  -2  11  120.79   12.70
   4  -2  11  124.49   12.90
   4  -2  11  118.39   11.00
   4  -2  11  112.59   16.00
   4   1 -11   30.20    6.30
   4   1 -11   25.90    5.50
   4   1 -11   31.60   10.40
   4   1 -11   27.70    6.30
  -4  -1  11   26.10    8.90
  -4  -1  11   25.50   10.10
  -4  -1  11   21.80   10.60
   3   1 -11   -6.70    4.20
   3   1 -11    5.00    4.50
   3   1 -11    1.50    4.60
  -3  -1  11   -0.90    6.50
  -3  -1  11    5.00    6.60
  -3  -1  11   -9.10    7.00
   2   1 -11   79.09    9.00
   2   1 -11   97.39    9.50
   2   1 -11   81.29    7.70
   2   1 -11   86.99    8.50
   2   1 -11   99.29    8.40
  -2  -1  11   97.89   14.60
  -2  -1  11   90.29   12.30
  -2  -1  11   87.29   13.30
   1   1 -11    0.50    4.00
   1   1 -11   10.70    4.90
   1   1 -11    9.70    4.40
   1   1 -11    2.10    4.70
  -1  -1  11    4.30    3.60
  -1  -1  11    2.80    7.50
  -1  -1  11    8.70    8.80
  -1  -1  11   -0.20    8.00
   0   1 -11    1.50    4.40
   0   1 -11    3.70    4.80
   0   1 -11    1.00    4.80
   0   1 -11   -1.70    4.20
   0  -1  11    2.50    5.40
   0  -1  11    4.10    3.90
   0  -1  11   -6.80    6.70
   0  -1  11   -2.20    6.30
  -1   1 -11    1.70    5.10
  -1   1 -11   11.80    4.40
  -1   1 -11    7.20    2.20
  -1   1 -11   -2.50    5.10
   1  -1  11    3.30    5.70
   1  -1  11   -1.70    3.90
   1  -1  11    3.30    6.20
   1  -1  11   -0.10    6.60
  -2   1 -11   89.89   10.00
  -2   1 -11   84.99    7.30
  -2   1 -11   98.99    6.80
  -2   1 -11   82.49   10.00
   2  -1  11   76.79   10.50
   2  -1  11   85.89    8.90
   2  -1  11   77.49   12.20
   2  -1  11   91.89   13.00
  -3   1 -11   -2.50    4.70
  -3   1 -11   12.80    6.30
  -3   1 -11    4.50    3.30
  -3   1 -11   -0.60    6.70
   3  -1  11   -9.50    6.50
   3  -1  11    2.10    5.00
   3  -1  11   -4.70    5.60
   3  -1  11   11.30    5.50
  -4   1 -11   17.90    7.60
  -4   1 -11   35.80    6.00
   4  -1  11   28.70    9.00
   4  -1  11   31.70    8.50
   4  -1  11   11.30    9.10
   4  -1  11   30.30    7.40
   4   0 -11  134.29    9.50
   4   0 -11  135.89   11.00
   4   0 -11  132.39    9.40
   4   0 -11  129.99   10.80
  -4   0  11  146.89   14.90
  -4   0  11  121.59   13.30
   3   0 -11    6.90    4.10
   3   0 -11    6.10    4.80
   3   0 -11   -0.50    4.20
   3   0 -11   -3.30    3.40
   3   0 -11    2.50    4.40
  -3   0  11    8.00    7.40
  -3   0  11    0.20    6.90
  -3   0  11   -5.10    7.50
   2   0 -11   87.69    9.10
   2   0 -11  102.99    8.60
   2   0 -11  100.49    9.50
   2   0 -11  107.89    9.40
   2   0 -11   96.49    7.80
  -2   0  11  106.99   12.20
  -2   0  11   96.99   10.80
  -2   0  11  106.59   13.20
   1   0 -11  172.68   11.30
   1   0 -11  142.69    9.70
   1   0 -11  157.28   12.20
   1   0 -11  160.38   10.60
  -1   0  11  125.09   15.20
  -1   0  11  147.49   13.80
  -1   0  11  159.08   14.40
   0   0 -11   10.30    5.00
   0   0 -11   12.00    4.90
   0   0 -11    0.40    4.60
   0   0 -11    5.70    5.50
   0   0  11    4.40    6.90
   0   0  11    7.20    4.00
   0   0  11   -0.30    6.80
   0   0  11   -2.70    8.10
  -1   0 -11  147.99   11.10
  -1   0 -11  154.28   10.00
  -1   0 -11  154.28   11.30
  -1   0 -11  125.59    5.30
  -1   0 -11  140.69    5.40
   1   0  11  125.69   13.60
   1   0  11  158.18   13.50
   1   0  11  148.39   10.10
   1   0  11  127.39   11.80
  -2   0 -11  111.79   10.10
  -2   0 -11  119.09   11.10
  -2   0 -11  108.69    8.00
  -2   0 -11  110.09    7.20
   2   0  11   93.39   10.40
   2   0  11  101.09   12.20
   2   0  11  103.39    9.10
   2   0  11  104.79   11.60
  -3   0 -11    4.90    3.20
  -3   0 -11   -0.60    6.60
  -3   0 -11    0.10    4.70
   3   0  11    5.80    6.20
   3   0  11   10.50    6.80
   3   0  11    1.50    4.50
   3   0  11    5.00    4.30
  -4   0 -11  161.28   11.40
  -4   0 -11  137.39   11.80
   4   0  11  140.09   13.70
   4   0  11  134.29   13.30
   4   0  11  115.99   15.30
   4  -1 -11   28.80    6.00
   4  -1 -11   34.50    6.40
   4  -1 -11   33.60    7.70
   4  -1 -11   15.40    6.20
  -4   1  11    7.50    9.30
  -4   1  11   22.40    7.00
  -4   1  11   43.50    9.60
   3  -1 -11    8.10    5.60
   3  -1 -11    4.10    4.10
   3  -1 -11    8.70    5.10
   3  -1 -11    1.40    4.20
  -3   1  11   10.50    7.70
  -3   1  11   -9.90    6.10
   2  -1 -11   98.39    9.00
   2  -1 -11   84.29    9.20
   2  -1 -11  100.19    8.70
   2  -1 -11   82.09    9.10
  -2   1  11   85.39   12.10
  -2   1  11   99.89   14.40
  -2   1  11   92.49   13.20
   1  -1 -11   12.10    4.40
   1  -1 -11    8.50    5.40
   1  -1 -11   10.00    3.90
   1  -1 -11    9.90    4.50
  -1   1  11    2.90    7.20
  -1   1  11   10.10    3.80
  -1   1  11    6.60    7.00
  -1   1  11   11.90    8.90
   0  -1 -11    4.90    4.60
   0  -1 -11    4.00    4.70
   0  -1 -11    1.40    3.70
   0  -1 -11    0.00    4.00
   0   1  11   11.60    7.50
   0   1  11   -0.20    3.10
   0   1  11   -1.20    6.10
   0   1  11    3.80    5.50
  -1  -1 -11    4.00    4.20
  -1  -1 -11    1.70    5.00
  -1  -1 -11    4.70    3.90
   1   1  11   11.10    5.20
   1   1  11    7.80    6.40
   1   1  11   -7.70    8.30
   1   1  11   -2.30    6.60
  -2  -1 -11   92.99    9.90
  -2  -1 -11   82.99    7.20
  -2  -1 -11   81.39    8.60
  -2  -1 -11   92.49    7.20
   2   1  11   85.69   10.20
   2   1  11   76.59   13.30
   2   1  11   95.09   12.10
   2   1  11  106.89    9.60
  -3  -1 -11    8.10    4.90
  -3  -1 -11   -9.10    5.60
  -3  -1 -11    2.60    3.40
   3   1  11    1.50    4.70
   3   1  11    3.30    6.10
   3   1  11    3.00    5.80
   3   1  11    0.60    7.50
  -4  -1 -11   18.60    7.60
   4   1  11    4.60    7.60
   4   1  11   42.00    8.60
   4   1  11   18.10    6.50
   4  -2 -11   94.99    9.80
   4  -2 -11  126.69   10.90
  -4   2  11  118.29   13.90
  -4   2  11  112.99   13.80
  -4   2  11   95.69   13.60
   3  -2 -11   23.50    6.30
   3  -2 -11   12.40    4.80
   3  -2 -11   19.80    6.30
   3  -2 -11   15.90    5.60
  -3   2  11    9.20    6.10
  -3   2  11   34.00    9.70
  -3   2  11   11.90    7.80
  -3   2  11    8.20    8.10
   2  -2 -11  450.95   17.90
   2  -2 -11  457.45   19.90
   2  -2 -11  422.86   18.30
   2  -2 -11  457.75   20.10
   2  -2 -11  462.05   18.40
  -2   2  11  455.25   24.70
  -2   2  11  444.46   20.40
  -2   2  11  439.06   22.10
  -2   2  11  459.45   23.30
   1  -2 -11  417.06   17.90
   1  -2 -11  426.76   18.50
   1  -2 -11  409.66   17.00
   1  -2 -11  440.46   18.00
   1  -2 -11  413.26   18.30
  -1   2  11  405.06   18.70
  -1   2  11  413.36   21.00
  -1   2  11  402.66   23.40
  -1   2  11  446.16   19.20
   0  -2 -11    4.80    5.40
   0  -2 -11   -0.30    3.90
   0  -2 -11    1.70    4.40
   0  -2 -11   -9.20    4.80
   0  -2 -11    8.40    4.90
   0   2  11    1.70    3.40
   0   2  11   -2.20    4.60
   0   2  11    0.90    4.40
   0   2  11   -7.40    5.60
   0   2  11    0.40    5.00
  -1  -2 -11  407.86   18.10
  -1  -2 -11  421.16   18.60
  -1  -2 -11  405.16   16.40
  -1  -2 -11  386.26   12.80
   1   2  11  400.46   20.40
   1   2  11  422.66   23.50
   1   2  11  405.96   18.90
   1   2  11  350.06   19.00
   1   2  11  420.16   16.80
  -2  -2 -11  426.56   16.40
  -2  -2 -11  439.76   19.50
  -2  -2 -11  466.15   19.50
  -2  -2 -11  434.56   16.60
   2   2  11  452.25   19.20
   2   2  11  436.16   21.70
   2   2  11  480.05   21.10
   2   2  11  442.66   16.50
   2   2  11  461.65   24.90
  -3  -2 -11   14.40    6.10
  -3  -2 -11   16.00    6.30
  -3  -2 -11   19.10    5.90
   3   2  11   14.60    5.70
   3   2  11   15.80    5.90
   3   2  11   -0.10    5.90
   3   2  11   18.90    6.90
   3   2  11    8.30    8.30
  -4  -2 -11  115.59   13.40
  -4  -2 -11  116.29   10.80
   4   2  11  114.19   11.60
   4   2  11  128.09   12.70
   4   2  11  101.09   23.60
   3  -3 -11    2.90    4.10
   3  -3 -11    6.80    4.80
   3  -3 -11    3.50    4.50
   3  -3 -11   -2.90    5.00
  -3   3  11  -13.20    6.50
  -3   3  11  -14.90    6.60
  -3   3  11    1.90    4.50
   2  -3 -11   56.39    8.80
   2  -3 -11   58.49    8.90
   2  -3 -11   64.29    8.70
   2  -3 -11   65.09    8.00
  -2   3  11   73.69   10.20
  -2   3  11   60.69    8.10
  -2   3  11   53.69   10.00
  -2   3  11   52.19   11.90
   1  -3 -11    1.30    4.90
   1  -3 -11   -2.60    3.20
   1  -3 -11   -0.10    4.60
   1  -3 -11   -1.10    4.50
  -1   3  11    3.00    4.70
  -1   3  11   -4.60    6.10
  -1   3  11   12.40    5.10
  -1   3  11   -2.00    7.90
   0  -3 -11   -0.50    5.30
   0  -3 -11   -6.00    4.30
   0  -3 -11    7.80    4.50
   0  -3 -11   -2.90    2.00
   0  -3 -11   -4.40    5.00
   0   3  11   11.70    4.70
   0   3  11   -3.30    7.90
   0   3  11  -15.80    5.30
   0   3  11   -1.10    5.30
  -1  -3 -11    3.40    4.20
  -1  -3 -11    6.50    5.10
   1   3  11   -7.50    3.70
   1   3  11    1.60    4.90
   1   3  11    0.70    6.20
   1   3  11   10.30    5.10
   1   3  11    3.30    4.10
  -2  -3 -11   48.00    8.30
  -2  -3 -11   41.70    7.30
  -2  -3 -11   63.69    9.00
   2   3  11   68.19    7.90
   2   3  11   60.09    8.10
   2   3  11   63.29   10.10
   2   3  11   41.10   10.60
   2   3  11   74.49    7.40
  -3  -3 -11   -1.80    5.70
  -3  -3 -11   -9.90    4.90
  -3  -3 -11    2.50    4.40
   3   3  11   -3.90    3.90
   3   3  11    4.50    8.30
   3   3  11    9.50    5.40
   3   3  11   17.80    5.90
   3   3  11    2.80    6.30
   3  -4 -11   -2.80    5.00
   3  -4 -11   10.10    6.80
   3  -4 -11  -10.30    4.30
  -3   4  11   -0.30    6.20
  -3   4  11   -5.60    6.90
   2  -4 -11   86.59    8.90
   2  -4 -11   77.69    8.60
   2  -4 -11  107.49   12.00
  -2   4  11   75.39   13.90
  -2   4  11   93.39   11.60
  -2   4  11   85.39   11.60
   1  -4 -11  105.49    9.80
   1  -4 -11   97.79    9.90
  -1   4  11   90.89   13.90
  -1   4  11  103.19   12.20
  -1   4  11   99.29   10.40
   0  -4 -11    9.50    5.00
   0  -4 -11    3.40    4.60
   0  -4 -11    1.30    3.30
   0   4  11   -0.40    4.30
   0   4  11   -0.80    6.10
   0   4  11  -10.40    6.80
  -1  -4 -11   97.79    9.70
  -1  -4 -11  121.29   14.60
  -1  -4 -11  121.99   10.60
   1   4  11  129.59    8.60
   1   4  11   97.39   13.40
   1   4  11   96.69   12.00
  -2  -4 -11   99.69   10.60
  -2  -4 -11  106.99   10.00
  -2  -4 -11   74.59   11.60
  -2  -4 -11   95.09   11.50
   2   4  11  105.09   15.00
   2   4  11   88.89   11.80
   2   4  11  128.19    9.50
   2   4  11  102.49    9.10
  -3  -4 -11    9.40    6.20
  -3  -4 -11   -2.30    4.20
  -3  -4 -11   -2.90    5.50
  -3  -4 -11  -11.70    5.90
   3   4  11   -6.10    7.00
   3   4  11    2.80    4.90
   3   4  11   -8.40    8.80
   2  -5 -11   33.80    8.30
   2  -5 -11   18.30    7.50
  -2   5  11    3.80    9.50
  -2   5  11   14.60    7.30
  -2   5  11   18.20    7.30
   1  -5 -11    1.70    5.10
   1  -5 -11   -2.60    4.20
   1  -5 -11    1.20    4.00
  -1   5  11    0.10    5.50
  -1   5  11   -9.70    6.90
  -1   5  11   -8.50    5.30
   0  -5 -11    9.90    5.30
   0  -5 -11    2.40    5.10
   0  -5 -11   -4.40    4.80
   0   5  11   -7.80    5.30
   0   5  11   -5.70    8.40
   0   5  11    3.90    5.30
  -1  -5 -11   -3.20    5.20
  -1  -5 -11    0.20    4.30
  -1  -5 -11   -2.70    4.20
   1   5  11   -4.40    4.30
   1   5  11   -1.80    5.50
   1   5  11   -6.20    7.40
  -2  -5 -11    7.50    7.20
  -2  -5 -11   24.60    6.90
  -2  -5 -11   20.10    7.70
  -2  -5 -11   23.80    8.30
   2   5  11   14.70    7.60
   2   5  11   32.40    8.10
   2   5  11   16.60    9.00
   0   5 -12    4.50    5.50
   2   4 -12   -3.70    5.10
   2   4 -12    9.70    5.60
  -2  -4  12   -6.80   10.40
   1   4 -12   36.00    6.40
   1   4 -12   44.30    8.70
   1   4 -12   51.79    8.80
  -1  -4  12   27.90   10.70
  -1  -4  12   41.20   11.80
  -1  -4  12   46.10   13.40
   0   4 -12  323.87   15.80
   0   4 -12  338.47   17.30
   0  -4  12  291.27   22.40
   0  -4  12  356.56   24.20
   0  -4  12  341.17   20.80
  -1   4 -12   25.00    6.70
  -1   4 -12   49.90    8.50
   1  -4  12   27.40   11.50
   1  -4  12   38.30    9.90
   1  -4  12   61.19   13.90
   1  -4  12   25.00    5.10
  -2   4 -12   -3.10    5.30
  -2   4 -12    6.50    4.80
   2  -4  12    6.10    5.40
   2  -4  12  -15.20    8.10
   2  -4  12   -0.30    6.00
   2  -4  12  -12.60    6.40
   2  -4  12   -6.80    3.60
   3   3 -12   24.60    5.80
   3   3 -12   25.20    7.10
  -3  -3  12   33.50   10.00
  -3  -3  12    4.90    7.70
  -3  -3  12   18.50   12.60
   2   3 -12   26.90    7.30
   2   3 -12   28.00    7.50
  -2  -3  12   16.40   10.70
  -2  -3  12   13.00    9.10
  -2  -3  12   25.30   10.10
   1   3 -12   -2.00    5.20
   1   3 -12    1.50    4.00
   1   3 -12    3.50    5.00
  -1  -3  12    7.00    8.90
  -1  -3  12   -7.70    8.30
  -1  -3  12   -4.90    7.50
   0   3 -12    0.60    5.30
   0   3 -12    1.70    4.50
   0   3 -12    3.90    4.80
   0  -3  12   21.90   11.60
   0  -3  12   -6.50    6.20
   0  -3  12   -6.80    6.60
  -1   3 -12    0.50    5.20
  -1   3 -12    3.80    4.40
  -1   3 -12    2.50    5.60
   1  -3  12   -3.70    6.00
   1  -3  12   -9.30    3.80
   1  -3  12  -10.50    7.20
   1  -3  12   -7.90    9.10
  -2   3 -12   28.00    7.40
  -2   3 -12   27.90    6.00
  -2   3 -12   18.70    8.00
   2  -3  12   19.10    4.60
   2  -3  12   14.90    6.10
   2  -3  12    9.60   10.20
   2  -3  12   22.30    9.90
   2  -3  12    9.20    8.00
  -3   3 -12   33.70    6.10
  -3   3 -12   13.50    7.10
  -3   3 -12   19.60    4.90
   3  -3  12   23.80    6.80
   3  -3  12   12.50    8.20
   3  -3  12   10.30   10.10
   3  -3  12   24.50    9.90
   3   2 -12  227.18   13.90
   3   2 -12  234.58   13.50
  -3  -2  12  198.98   19.60
   2   2 -12  235.58   11.60
   2   2 -12  244.58   14.60
   2   2 -12  229.38   14.00
  -2  -2  12  241.28   19.20
  -2  -2  12  219.68   17.20
   1   2 -12  118.89   10.70
   1   2 -12  109.69    9.20
   1   2 -12   94.09    8.60
  -1  -2  12  102.59   13.30
  -1  -2  12   90.49   15.10
  -1  -2  12  111.09   16.30
   0   2 -12  136.49   10.50
   0   2 -12  148.99   10.80
   0   2 -12  151.18   11.70
   0  -2  12  130.79   16.70
   0  -2  12  149.09   15.50
   0  -2  12  118.99   14.10
  -1   2 -12  111.99   10.90
  -1   2 -12  108.69    9.70
  -1   2 -12   95.09   10.00
   1  -2  12  102.19   13.60
   1  -2  12   86.49   13.50
   1  -2  12  104.59    9.10
   1  -2  12   94.09   12.50
  -2   2 -12  216.28   14.40
   2  -2  12  219.68   16.90
   2  -2  12  225.38   19.60
   2  -2  12  233.98   13.90
   2  -2  12  226.78   17.90
  -3   2 -12  235.08   11.80
  -3   2 -12  226.08   15.40
  -3   2 -12  255.47   12.90
   3  -2  12  214.98   14.30
   3  -2  12  191.18   18.50
   3  -2  12  236.78   18.20
   3  -2  12  205.98   16.40
   3   1 -12   39.40    7.70
   3   1 -12   23.70    7.50
   3   1 -12   30.80    6.20
   3   1 -12   36.00    7.00
  -3  -1  12   33.40   10.00
  -3  -1  12   27.00    9.50
   2   1 -12   43.00    7.60
   2   1 -12   37.50    6.10
   2   1 -12   37.60    7.50
   2   1 -12   32.40    6.90
  -2  -1  12   40.80   11.60
  -2  -1  12   40.80   10.50
  -2  -1  12   46.90   11.70
   1   1 -12    5.20    4.30
   1   1 -12   -1.60    4.60
   1   1 -12    2.80    4.60
  -1  -1  12   -6.30    7.70
  -1  -1  12    2.90    6.80
  -1  -1  12    0.80    5.90
   0   1 -12    0.70    4.50
   0   1 -12   -8.90    4.30
   0   1 -12    1.50    4.40
   0  -1  12    6.10    4.60
   0  -1  12    0.60    9.00
   0  -1  12   -5.70    7.10
   0  -1  12  -11.40    4.20
  -1   1 -12   -2.60    4.70
  -1   1 -12   10.40    5.50
   1  -1  12    0.80    7.70
   1  -1  12    0.40    4.30
   1  -1  12   -1.50    9.30
   1  -1  12    6.80    7.70
  -2   1 -12   58.49    5.50
  -2   1 -12   29.90    7.50
  -2   1 -12   51.89    6.90
  -2   1 -12   50.09    9.00
   2  -1  12   47.50   11.20
   2  -1  12   40.90    9.50
   2  -1  12   42.30    9.00
   2  -1  12   27.70   11.10
  -3   1 -12   20.60    7.90
  -3   1 -12   26.80    5.10
   3  -1  12   24.00    7.40
   3  -1  12   16.90    9.80
   3  -1  12   26.20    8.40
   3  -1  12   19.50    8.30
   3   0 -12  150.38   10.70
   3   0 -12  170.58   12.10
   3   0 -12  149.99   10.20
   3   0 -12  155.18   11.80
  -3   0  12  168.78   15.90
  -3   0  12  161.18   16.70
  -3   0  12  161.98   16.20
   2   0 -12    6.50    4.90
   2   0 -12    6.90    5.10
   2   0 -12   17.00    5.40
   2   0 -12    0.60    5.10
  -2   0  12   -0.50    7.20
  -2   0  12    0.00    7.70
  -2   0  12   -1.80    7.50
   1   0 -12   54.29    8.10
   1   0 -12   63.19    9.30
   1   0 -12   59.19    8.80
  -1   0  12   48.50   10.40
  -1   0  12   60.99   12.70
  -1   0  12   62.39   11.50
   0   0 -12  555.04   21.40
   0   0 -12  544.65   21.70
   0   0 -12  590.74   25.00
   0   0  12  515.45   24.50
   0   0  12  543.95   25.40
   0   0  12  531.95   28.30
  -1   0 -12   59.89    9.20
  -1   0 -12   61.79    6.90
  -1   0 -12   52.99    8.60
   1   0  12   48.10   12.50
   1   0  12   62.79   10.70
   1   0  12   63.79   11.50
   1   0  12   42.70    7.10
  -2   0 -12    3.90    5.50
  -2   0 -12    8.00    7.50
  -2   0 -12    4.80    4.10
   2   0  12    6.00    6.80
   2   0  12    2.50    4.40
   2   0  12    1.70    6.50
   2   0  12    0.90    8.00
  -3   0 -12  153.28   11.20
  -3   0 -12  143.69   12.20
  -3   0 -12  150.68   13.20
   3   0  12  172.68   14.10
   3   0  12  161.28   12.00
   3   0  12  175.18   16.40
   3   0  12  159.08   15.90
   3  -1 -12   29.50    6.20
   3  -1 -12   23.70    6.30
   3  -1 -12   40.40    8.40
   3  -1 -12   40.50    7.70
  -3   1  12   12.50    9.80
  -3   1  12   28.20   10.50
  -3   1  12   25.30    9.50
   2  -1 -12   37.40    7.00
   2  -1 -12   35.50    7.00
   2  -1 -12   40.90    7.70
   2  -1 -12   30.90    7.00
  -2   1  12   36.60   10.20
  -2   1  12   40.80    9.80
  -2   1  12   42.20   11.60
   1  -1 -12    1.40    5.10
   1  -1 -12    9.10    5.20
   1  -1 -12    1.20    4.70
   1  -1 -12   -7.20    4.50
  -1   1  12    1.20    7.30
  -1   1  12  -11.80    7.60
  -1   1  12  -10.80    6.20
   0  -1 -12    0.60    3.90
   0  -1 -12    3.00    5.40
   0  -1 -12   -1.00    5.50
   0   1  12    5.70    7.00
   0   1  12    5.50    6.10
   0   1  12  -10.00    5.60
  -1  -1 -12   13.90    5.10
  -1  -1 -12    6.40    5.20
  -1  -1 -12    1.00    5.20
   1   1  12    0.00    6.60
   1   1  12    5.30    5.90
   1   1  12    1.10    8.60
  -2  -1 -12   37.10    7.90
  -2  -1 -12   35.20    6.10
  -2  -1 -12   28.10    5.20
   2   1  12   32.10    5.20
   2   1  12   39.00    9.50
   2   1  12   38.10   11.90
   2   1  12   49.10    9.60
   2   1  12   55.19    8.40
  -3  -1 -12   21.70    4.80
  -3  -1 -12   15.50    7.60
  -3  -1 -12   37.70    8.10
   3   1  12   19.90    8.50
   3   1  12   22.10    6.20
   3   1  12   34.30    8.30
   3   1  12   31.60    4.90
   3  -2 -12  211.28   15.40
   3  -2 -12  238.98   14.60
  -3   2  12  232.08   19.60
  -3   2  12  194.68   15.60
  -3   2  12  222.68   17.60
   2  -2 -12  245.18   14.40
   2  -2 -12  258.57   15.10
   2  -2 -12  234.18   14.00
   2  -2 -12  255.27   13.90
  -2   2  12  236.28   19.60
  -2   2  12  247.28   17.60
  -2   2  12  247.98   14.80
  -2   2  12  199.78   15.30
   1  -2 -12   98.39    9.70
   1  -2 -12  104.69   10.40
   1  -2 -12   97.89   10.10
   1  -2 -12  108.29    9.60
  -1   2  12  109.49   13.40
  -1   2  12   87.49   14.70
  -1   2  12  107.69   10.30
  -1   2  12  102.49   10.90
   0  -2 -12  156.88   11.80
   0  -2 -12  145.39   12.00
   0  -2 -12  137.39   11.10
   0  -2 -12  147.49   10.80
   0   2  12  158.18   11.10
   0   2  12  168.78   12.10
   0   2  12  149.59   14.50
   0   2  12  119.69   16.70
  -1  -2 -12  109.69   10.70
  -1  -2 -12  104.69   11.00
   1   2  12  107.59   11.20
   1   2  12  109.79   13.10
   1   2  12  104.29   10.20
   1   2  12  104.29    8.70
  -2  -2 -12  213.18   11.20
  -2  -2 -12  218.18   14.00
  -2  -2 -12  250.27   14.90
  -2  -2 -12  214.38   11.60
   2   2  12  242.58   15.20
   2   2  12  262.07   12.60
   2   2  12  230.58   19.10
   2   2  12  197.18   15.90
   2   2  12  227.68   15.80
  -3  -2 -12  217.98   14.50
  -3  -2 -12  200.48   13.20
  -3  -2 -12  213.98   14.50
   3   2  12  222.48   11.00
   3   2  12  238.88   15.50
   3   2  12  251.37   15.00
   3  -3 -12   31.50    7.20
   3  -3 -12   26.40    6.20
   3  -3 -12   28.30    7.40
   3  -3 -12   26.30    7.50
  -3   3  12   18.60    7.60
  -3   3  12    9.30    9.90
  -3   3  12    6.50    8.70
   2  -3 -12   25.30    7.20
   2  -3 -12   30.90    6.60
   2  -3 -12   12.30    6.10
   2  -3 -12   22.60    7.20
  -2   3  12    4.50   10.00
  -2   3  12    2.50    7.90
  -2   3  12   14.10    6.40
  -2   3  12   28.70    7.00
   1  -3 -12    7.50    5.60
   1  -3 -12   -1.10    5.80
   1  -3 -12    5.50    5.00
   1  -3 -12    8.50    5.30
  -1   3  12   -5.50    4.60
  -1   3  12   -6.70    6.60
  -1   3  12   -2.80    9.00
  -1   3  12    3.70    4.40
   0  -3 -12   -8.00    5.50
   0  -3 -12    3.70    5.30
   0  -3 -12    0.10    3.90
   0  -3 -12    3.80    4.70
   0   3  12   -5.60    6.10
   0   3  12    2.70    4.80
   0   3  12    8.40    5.20
   0   3  12   -3.90    8.00
  -1  -3 -12   -5.00    4.40
  -1  -3 -12   -2.10    5.40
  -1  -3 -12   -4.20    5.00
   1   3  12   -5.00    7.80
   1   3  12    9.30    5.10
   1   3  12    8.10    6.80
  -2  -3 -12   14.50    6.70
  -2  -3 -12   19.80    6.30
  -2  -3 -12   21.10    6.70
   2   3  12   35.80    7.10
   2   3  12   23.30   10.10
   2   3  12   25.00    6.00
   2   3  12   27.50    8.30
  -3  -3 -12   27.50    7.90
  -3  -3 -12   25.20    7.20
  -3  -3 -12   21.10    6.60
   3   3  12   25.80    8.10
   3   3  12   44.90    8.40
   2  -4 -12    1.30    5.60
   2  -4 -12    0.20    5.20
   2  -4 -12   -5.70    4.50
  -2   4  12    7.00    6.00
  -2   4  12   -6.50    7.20
   1  -4 -12   44.50    8.70
   1  -4 -12   42.50    7.80
  -1   4  12   34.70    7.90
  -1   4  12   18.00   10.70
  -1   4  12   35.50    9.30
   0  -4 -12  331.47   17.60
   0  -4 -12  319.37   17.90
   0  -4 -12  351.36   17.60
   0   4  12  323.87   17.10
   0   4  12  300.87   18.70
   0   4  12  319.57   21.80
  -1  -4 -12   41.00    8.50
  -1  -4 -12   51.99    9.60
  -1  -4 -12   57.09   10.00
   1   4  12   39.20    9.10
   1   4  12   38.60   11.10
   1   4  12   50.79    8.30
  -2  -4 -12   -8.00    4.90
  -2  -4 -12    4.90    6.10
  -2  -4 -12   -0.60    4.10
   2   4  12   -3.90    7.00
   2   4  12   -0.10    9.60
   0  -5 -12   -2.10    3.60
   0   5  12   -4.90    6.80
   0   5  12    0.60    5.40
   0   5  12  -18.70    7.90
   1   3 -13    1.80    5.00
   1   3 -13    8.50    5.50
  -1  -3  13    2.40    7.60
   0   3 -13    6.20    4.80
   0   3 -13   -3.00    3.60
   0   3 -13    7.50    6.80
   0  -3  13    2.20    9.10
   0  -3  13  -22.70    8.30
   0  -3  13  -11.80    6.80
  -1   3 -13   -0.10    5.50
  -1   3 -13    6.20    5.10
  -1   3 -13   -7.70    5.20
   1  -3  13    5.20    6.50
   1  -3  13   -2.00   10.70
   1  -3  13  -10.80    7.10
   2   2 -13   40.50    9.20
   2   2 -13   21.40    6.00
   2   2 -13   22.60    7.10
   2   2 -13   26.50    6.80
  -2  -2  13   25.30   10.10
  -2  -2  13   28.00   11.20
  -2  -2  13   29.40   12.40
   1   2 -13   63.49    8.50
   1   2 -13   57.79    9.10
   1   2 -13   62.29    9.70
  -1  -2  13   60.59   12.40
  -1  -2  13   54.09   13.80
  -1  -2  13   63.29   13.90
   0   2 -13    4.40    4.40
   0   2 -13   -3.30    4.70
   0   2 -13   -4.80    4.80
   0  -2  13   -6.00    9.60
   0  -2  13   -6.10    7.70
   0  -2  13   -7.90    8.30
  -1   2 -13   64.29    8.80
  -1   2 -13   82.39   10.70
   1  -2  13   35.30   10.30
   1  -2  13   61.19   13.00
   1  -2  13   39.30   13.00
  -2   2 -13   31.50    8.60
  -2   2 -13   35.90    8.00
  -2   2 -13   31.50    6.40
   2  -2  13   49.10   11.00
   2  -2  13   25.40   10.60
   2   1 -13   33.10    6.40
   2   1 -13   27.10    7.10
   2   1 -13   31.30    6.50
   2   1 -13   41.90    9.60
  -2  -1  13   12.40   10.20
   1   1 -13    8.20    5.50
   1   1 -13    9.70    5.30
   1   1 -13    8.90    5.60
  -1  -1  13  -10.60    7.40
  -1  -1  13    8.50    9.80
  -1  -1  13    0.50    8.80
   0   1 -13    1.10    5.00
   0   1 -13    1.20    4.00
   0   1 -13   -3.50    4.60
   0  -1  13   -1.70    6.60
   0  -1  13  -13.10    8.20
   0  -1  13   -8.80    7.00
  -1   1 -13    7.10    4.50
  -1   1 -13    5.00    5.90
   1  -1  13    5.90    8.60
  -2   1 -13   36.90    8.40
  -2   1 -13   19.70    7.30
  -2   1 -13   45.90    6.70
   2  -1  13   16.70   11.10
   2  -1  13   35.20    9.80
   2  -1  13   25.80    9.50
   2   0 -13  431.86   19.30
   2   0 -13  421.76   18.30
   2   0 -13  414.66   19.70
   2   0 -13  382.16   19.00
  -2   0  13  425.36   23.70
  -2   0  13  423.76   31.80
  -2   0  13  361.96   23.10
   1   0 -13  304.37   16.00
   1   0 -13  297.57   16.00
   1   0 -13  322.17   16.70
   1   0 -13  331.37   17.20
  -1   0  13  322.97   20.30
  -1   0  13  296.77   20.20
  -1   0  13  304.27   23.40
   0   0 -13   -3.20    5.10
   0   0 -13   -2.90    4.00
   0   0 -13   -8.90    4.60
   0   0  13   -0.60    9.30
   0   0  13    4.70    8.10
   0   0  13   -5.20    7.40
  -1   0 -13  304.07   16.40
  -1   0 -13  328.67   15.50
   1   0  13  329.17   20.10
   1   0  13  320.77   23.40
   1   0  13  289.07   19.70
  -2   0 -13  414.46   20.70
  -2   0 -13  393.36   19.80
   2   0  13  494.15   34.10
   2   0  13  411.66   23.10
   2   0  13  448.86   26.60
   2  -1 -13   46.20    8.10
   2  -1 -13   38.40    7.80
   2  -1 -13   34.10    7.60
   2  -1 -13   35.80    7.30
  -2   1  13   27.30   11.80
  -2   1  13   22.20    9.30
   1  -1 -13    5.60    4.60
   1  -1 -13    6.80    4.70
   1  -1 -13   -1.20    4.20
   1  -1 -13   14.10    6.10
  -1   1  13    5.00    6.30
  -1   1  13   -3.00    9.40
  -1   1  13    1.60    6.40
   0  -1 -13    9.80    4.30
   0  -1 -13   -1.10    5.10
   0  -1 -13   12.60    5.00
   0   1  13    1.50    6.20
   0   1  13   -7.90    9.30
   0   1  13   13.60    9.50
  -1  -1 -13    9.80    5.40
  -1  -1 -13    8.40    6.40
  -1  -1 -13   10.60    6.10
   1   1  13   -0.60    7.20
   1   1  13   17.70    7.20
   1   1  13    5.10    9.70
  -2  -1 -13   22.60    7.60
  -2  -1 -13   36.30    8.50
   2   1  13   35.50    6.40
   2   1  13   30.40    8.00
   2  -2 -13   37.80    8.00
  -2   2  13   14.20    8.30
  -2   2  13   10.70   11.00
  -2   2  13    2.10    8.40
   1  -2 -13   66.19    9.70
   1  -2 -13   67.59    9.60
   1  -2 -13   77.19   10.30
   1  -2 -13   52.19    9.10
  -1   2  13   57.19   12.40
  -1   2  13   63.89    9.40
  -1   2  13   61.29   10.10
  -1   2  13   54.79   10.50
   0  -2 -13   -0.50    4.60
   0  -2 -13   -1.40    5.00
   0  -2 -13    7.20    5.00
   0  -2 -13   -1.30    3.60
   0   2  13   -5.60    7.00
   0   2  13   -8.20    9.00
   0   2  13   12.20    5.60
   0   2  13   11.10    5.60
  -1  -2 -13   71.39   10.70
  -1  -2 -13   69.29    9.60
  -1  -2 -13   61.89    9.80
   1   2  13   48.30   13.30
   1   2  13   55.19   11.30
   1   2  13   78.59   10.00
   1   2  13   73.69    8.00
  -2  -2 -13   37.00    9.10
   2   2  13   23.10    9.80
   2   2  13   21.10   11.60
   2   2  13   35.30    7.90
   1  -3 -13    7.90    4.50
   1  -3 -13    4.50    5.40
   1  -3 -13   -6.00    3.50
   1  -3 -13    3.90    5.50
  -1   3  13    4.30    5.40
  -1   3  13    7.50    8.00
  -1   3  13   -9.10    9.00
   0  -3 -13   -4.30    5.60
   0  -3 -13    5.60    5.20
   0  -3 -13    1.70    5.20
   0   3  13  -12.30    8.50
   0   3  13    5.90    5.50
   0   3  13   14.10    5.00
   0   3  13    1.90    7.70
  -1  -3 -13    3.30    6.40
  -1  -3 -13    2.30    6.00
   1   3  13    8.60    5.30
   1   3  13   -3.30    8.00
   1   1 -14   28.20    8.40
  -1  -1  14    1.80    9.40
   0   1 -14   10.60    6.10
   0   1 -14   12.60    6.40
   0   1 -14   29.50    6.80
   0  -1  14  -13.30   10.10
   0  -1  14    8.00    9.20
   0  -1  14    8.80    9.30
   1   0 -14   24.10    7.20
   1   0 -14   28.60    7.30
   1   0 -14    9.60    6.50
  -1   0  14   10.80    9.60
  -1   0  14   29.40    9.80
  -1   0  14   13.70    9.60
   0   0 -14   -1.70    5.40
   0   0 -14    4.20    6.50
   0   0 -14   12.50    5.10
   0   0  14    7.10    9.10
   0   0  14  -18.30    9.50
   0   0  14   12.80    8.10
  -1   0 -14   18.20    7.20
  -1   0 -14   29.90    7.10
  -1   0 -14   33.40    8.20
   1   0  14   20.30    8.60
   1   0  14   23.50    9.90
   1   0  14   -2.20   10.90
  -1   1  14    5.10    8.90
   0  -1 -14   18.30    6.40
   0  -1 -14    1.70    5.90
   0  -1 -14   26.10    7.30
   0  -1 -14   19.20    6.20
   0   1  14   -2.70    8.20
   0   1  14   22.80    7.80
   0   1  14   -6.90   10.20
   0   0   0    0.00    0.00

_computing_structure_solution     'SHELXT 2014/5 (Sheldrick, 2014)'
;
_shelx_hkl_checksum              88188
_olex2_submission_special_instructions 'No special instructions were received'
loop_
_space_group_symop_operation_xyz
'x, y, z'
'-x, -y, z+1/2'
'x, -y+1/2, -z'
'-x, y+1/2, -z+1/2'
'-x, -y, -z'
'x, y, -z-1/2'
'-x, y-1/2, z'
'x, -y-1/2, z-1/2'
loop_
_atom_site_label
_atom_site_type_symbol
_atom_site_fract_x
_atom_site_fract_y
_atom_site_fract_z
_atom_site_U_iso_or_equiv
_atom_site_adp_type
_atom_site_occupancy
_atom_site_site_symmetry_order
_atom_site_calc_flag
_atom_site_refinement_flags_posn
_atom_site_refinement_flags_adp
_atom_site_refinement_flags_occupancy
_atom_site_disorder_assembly
_atom_site_disorder_group
O1 O 0.4576(2) 0.42825(12) 0.250000 0.0239(3) Uani 1 2 d S T P . .
H1 H 0.528877 0.495604 0.250000 0.049(8) Uiso 1 2 d R . P . .
O3 O 0.0570(2) 0.34343(12) 0.250000 0.0262(3) Uani 1 2 d S T P . .
H3 H 0.133694 0.286304 0.250000 0.047(9) Uiso 1 2 d R . P . .
O2 O 0.1208(2) 0.56537(12) 0.250000 0.0292(4) Uani 1 2 d S T P . .
H2 H -0.019720 0.579342 0.250000 0.055(9) Uiso 1 2 d R . P . .
B1 B 0.2087(4) 0.4450(2) 0.250000 0.0197(4) Uani 1 2 d S T P . .
F1 F 0.32773(19) 0.14199(10) 0.250000 0.0295(3) Uani 1 2 d S T P . .
K1 K 0.66251(7) 0.250000 0.000000 0.02272(14) Uani 1 2 d S T P . .
loop_
_atom_site_aniso_label
_atom_site_aniso_U_11
_atom_site_aniso_U_22
_atom_site_aniso_U_33
_atom_site_aniso_U_23
_atom_site_aniso_U_13
_atom_site_aniso_U_12
O1 0.0151(6) 0.0130(6) 0.0436(8) 0.000 0.000 -0.0002(5)
O3 0.0147(6) 0.0138(6) 0.0500(9) 0.000 0.000 0.0010(5)
O2 0.0138(6) 0.0150(6) 0.0587(10) 0.000 0.000 0.0024(5)
B1 0.0150(8) 0.0157(9) 0.0282(10) 0.000 0.000 0.0000(7)
F1 0.0169(5) 0.0161(6) 0.0554(8) 0.000 0.000 0.0010(4)
K1 0.0234(2) 0.0226(2) 0.0222(2) -0.00009(16) 0.000 0.000
loop_
_atom_type_symbol
_atom_type_description
_atom_type_scat_dispersion_real
_atom_type_scat_dispersion_imag
_atom_type_scat_source
B B 0.0013 0.0007 'International Tables Vol C Tables 4.2.6.8 and 6.1.1.4'
F F 0.0171 0.0103 'International Tables Vol C Tables 4.2.6.8 and 6.1.1.4'
H H 0.0000 0.0000 'International Tables Vol C Tables 4.2.6.8 and 6.1.1.4'
K K 0.2009 0.2494 'International Tables Vol C Tables 4.2.6.8 and 6.1.1.4'
O O 0.0106 0.0060 'International Tables Vol C Tables 4.2.6.8 and 6.1.1.4'
loop_
_geom_angle_atom_site_label_1
_geom_angle_atom_site_label_2
_geom_angle_atom_site_label_3
_geom_angle
_geom_angle_site_symmetry_1
_geom_angle_site_symmetry_3
_geom_angle_publ_flag
B1 O1 H1 111.0 . . ?
B1 O1 K1 118.79(8) . 6_556 ?
B1 O1 K1 118.79(8) . . ?
K1 O1 H1 113.8 6_556 . ?
K1 O1 H1 113.8 . . ?
K1 O1 K1 77.05(3) 6_556 . ?
B1 O3 H3 108.0 . . ?
B1 O3 K1 135.34(6) . 6_456 ?
B1 O3 K1 135.34(6) . 1_455 ?
K1 O3 H3 97.8 1_455 . ?
K1 O3 H3 97.8 6_456 . ?
K1 O3 K1 72.99(3) 1_455 6_456 ?
B1 O2 H2 121.5 . . ?
B1 O2 K1 119.60(8) . 5_665 ?
B1 O2 K1 119.60(8) . 2_665 ?
K1 O2 H2 105.8 2_665 . ?
K1 O2 H2 105.8 5_665 . ?
K1 O2 K1 74.79(3) 2_665 5_665 ?
O3 B1 O1 119.92(17) . . ?
O3 B1 O2 122.05(17) . . ?
O2 B1 O1 118.03(17) . . ?
K1 F1 K1 78.19(3) 6_556 . ?
O1 K1 O1 133.21(5) . 3 ?
O1 K1 O3 72.05(3) . 1_655 ?
O1 K1 O3 72.05(3) 3 3_655 ?
O1 K1 O3 152.57(4) . 3_655 ?
O1 K1 O3 152.57(4) 3 1_655 ?
O1 K1 O2 94.70(3) 3 7_655 ?
O1 K1 O2 104.08(2) . 7_655 ?
O1 K1 O2 94.70(3) . 5_665 ?
O1 K1 O2 104.08(2) 3 5_665 ?
O1 K1 K1 51.474(16) . 6_556 ?
O1 K1 K1 51.475(16) 3 6 ?
O1 K1 K1 128.525(16) . 6 ?
O1 K1 K1 128.525(16) 3 6_556 ?
O3 K1 O3 86.27(4) 1_655 3_655 ?
O3 K1 K1 126.493(16) 1_655 6 ?
O3 K1 K1 53.508(16) 1_655 6_556 ?
O3 K1 K1 126.493(15) 3_655 6_556 ?
O3 K1 K1 53.508(15) 3_655 6 ?
O2 K1 O3 80.37(3) 7_655 3_655 ?
O2 K1 O3 64.51(3) 7_655 1_655 ?
O2 K1 O3 64.51(3) 5_665 3_655 ?
O2 K1 O3 80.37(3) 5_665 1_655 ?
O2 K1 O2 131.66(5) 5_665 7_655 ?
O2 K1 K1 127.398(16) 5_665 6_556 ?
O2 K1 K1 52.603(16) 5_665 6 ?
O2 K1 K1 52.603(16) 7_655 6_556 ?
O2 K1 K1 127.398(16) 7_655 6 ?
F1 K1 O1 81.56(2) 3 . ?
F1 K1 O1 67.99(3) . . ?
F1 K1 O1 81.56(2) . 3 ?
F1 K1 O1 67.99(3) 3 3 ?
F1 K1 O3 104.10(2) . 1_655 ?
F1 K1 O3 135.62(3) . 3_655 ?
F1 K1 O3 104.10(2) 3 3_655 ?
F1 K1 O3 135.62(3) 3 1_655 ?
F1 K1 O2 158.98(4) 3 7_655 ?
F1 K1 O2 66.69(3) 3 5_665 ?
F1 K1 O2 66.69(3) . 7_655 ?
F1 K1 O2 158.98(4) . 5_665 ?
F1 K1 F1 97.90(4) . 3 ?
F1 K1 K1 129.097(15) . 6 ?
F1 K1 K1 129.097(15) 3 6_556 ?
F1 K1 K1 50.903(15) . 6_556 ?
F1 K1 K1 50.903(15) 3 6 ?
K1 K1 K1 180.0 6_556 6 ?
loop_
_geom_bond_atom_site_label_1
_geom_bond_atom_site_label_2
_geom_bond_distance
_geom_bond_site_symmetry_2
_geom_bond_publ_flag
O1 H1 0.8143 . ?
O1 B1 1.367(2) . ?
O1 K1 2.8106(10) 6_556 ?
O1 K1 2.8106(10) . ?
O3 H3 0.7371 . ?
O3 B1 1.360(2) . ?
O3 K1 2.9436(11) 6_456 ?
O3 K1 2.9436(11) 1_455 ?
O2 H2 0.7792 . ?
O2 B1 1.366(2) . ?
O2 K1 2.8824(11) 2_665 ?
O2 K1 2.8824(11) 5_665 ?
F1 K1 2.7759(9) 6_556 ?
F1 K1 2.7759(9) . ?
K1 K1 3.5012(2) 6_556 ?
K1 K1 3.5012(2) 6 ?
loop_
_geom_hbond_atom_site_label_D
_geom_hbond_atom_site_label_H
_geom_hbond_atom_site_label_A
_geom_hbond_distance_DH
_geom_hbond_distance_HA
_geom_hbond_distance_DA
_geom_hbond_angle_DHA
_geom_hbond_site_symmetry_A
_geom_hbond_publ_flag
O1 H1 F1 0.81 1.74 2.5549(17) 178.2 4_655 yes
O3 H3 F1 0.74 1.86 2.5995(17) 180.0 . yes
O2 H2 F1 0.78 1.80 2.5743(17) 169.3 4 yes
loop_
_geom_torsion_atom_site_label_1
_geom_torsion_atom_site_label_2
_geom_torsion_atom_site_label_3
_geom_torsion_atom_site_label_4
_geom_torsion
_geom_torsion_site_symmetry_1
_geom_torsion_site_symmetry_2
_geom_torsion_site_symmetry_3
_geom_torsion_site_symmetry_4
_geom_torsion_publ_flag
K1 O1 B1 O3 45.30(6) . . . . ?
K1 O1 B1 O3 -45.30(6) 6_556 . . . ?
K1 O1 B1 O2 -134.70(6) . . . . ?
K1 O1 B1 O2 134.70(6) 6_556 . . . ?
K1 O3 B1 O1 -122.20(11) 1_455 . . . ?
K1 O3 B1 O1 122.20(11) 6_456 . . . ?
K1 O3 B1 O2 -57.80(11) 6_456 . . . ?
K1 O3 B1 O2 57.80(11) 1_455 . . . ?
K1 O2 B1 O1 -44.31(5) 2_665 . . . ?
K1 O2 B1 O1 44.31(5) 5_665 . . . ?
K1 O2 B1 O3 135.69(5) 2_665 . . . ?
K1 O2 B1 O3 -135.69(5) 5_665 . . . ?
