#------------------------------------------------------------------------------
#$Date: 2022-06-01 00:55:28 +0300 (Wed, 01 Jun 2022) $
#$Revision: 275703 $
#$URL: file:///home/coder/svn-repositories/cod/cif/7/13/01/7130162.cif $
#------------------------------------------------------------------------------
#
# This file is available in the Crystallography Open Database (COD),
# http://www.crystallography.net/
#
# All data on this site have been placed in the public domain by the
# contributors.
#
data_7130162
loop_
_publ_author_name
'Cao, Shujun'
'Yuan, Weidong'
'Li, Yun'
'Teng, Xinjie'
'Si, Huaxing'
'Chen, Rongshun'
'Zhu, Yingguang'
_publ_section_title
;
 Photoredox/copper cocatalyzed domino cyclization of oxime esters with
 TMSCN: access to antifungal active tetrasubstituted pyrazines
;
_journal_name_full               'Chemical Communications'
_journal_paper_doi               10.1039/D2CC02480B
_journal_year                    2022
_chemical_formula_moiety         'C19 H16 N4'
_chemical_formula_sum            'C19 H16 N4'
_chemical_formula_weight         300.36
_space_group_crystal_system      triclinic
_space_group_IT_number           2
_space_group_name_Hall           '-P 1'
_space_group_name_H-M_alt        'P -1'
_atom_sites_solution_hydrogens   geom
_audit_creation_method           SHELXL-2018/3
_audit_update_record
;
2021-08-04 deposited with the CCDC.	2022-05-31 downloaded from the CCDC.
;
_cell_angle_alpha                80.485(4)
_cell_angle_beta                 88.980(5)
_cell_angle_gamma                82.009(5)
_cell_formula_units_Z            2
_cell_length_a                   6.3310(9)
_cell_length_b                   9.7410(13)
_cell_length_c                   13.1586(19)
_cell_measurement_reflns_used    3615
_cell_measurement_temperature    296(2)
_cell_measurement_theta_max      27.13
_cell_measurement_theta_min      2.44
_cell_volume                     792.55(19)
_computing_cell_refinement       'Bruker SAINT'
_computing_data_collection       'Bruker APEX3'
_computing_data_reduction        'Bruker SAINT'
_computing_molecular_graphics    'Bruker SHELXTL'
_computing_publication_material  'Bruker SHELXTL'
_computing_structure_refinement  'SHELXL-2018/3 (Sheldrick, 2018)'
_computing_structure_solution    'SHELXT 2014/5 (Sheldrick, 2014)'
_diffrn_ambient_temperature      296(2)
_diffrn_measured_fraction_theta_full 0.989
_diffrn_measured_fraction_theta_max 0.989
_diffrn_measurement_device_type  'Bruker D8 QUEST PHOTON 100'
_diffrn_measurement_method       '\f and \w scans'
_diffrn_radiation_type           MoK\a
_diffrn_radiation_wavelength     0.71073
_diffrn_reflns_av_R_equivalents  0.0368
_diffrn_reflns_av_unetI/netI     0.0405
_diffrn_reflns_Laue_measured_fraction_full 0.989
_diffrn_reflns_Laue_measured_fraction_max 0.989
_diffrn_reflns_limit_h_max       7
_diffrn_reflns_limit_h_min       -7
_diffrn_reflns_limit_k_max       11
_diffrn_reflns_limit_k_min       -11
_diffrn_reflns_limit_l_max       15
_diffrn_reflns_limit_l_min       -15
_diffrn_reflns_number            10488
_diffrn_reflns_point_group_measured_fraction_full 0.989
_diffrn_reflns_point_group_measured_fraction_max 0.989
_diffrn_reflns_theta_full        24.999
_diffrn_reflns_theta_max         24.999
_diffrn_reflns_theta_min         2.437
_diffrn_source.source            'Ius 2.0'
_diffrn_source.type              microfocus
_exptl_absorpt_coefficient_mu    0.077
_exptl_absorpt_correction_T_max  0.7456
_exptl_absorpt_correction_T_min  0.6905
_exptl_absorpt_correction_type   multi-scan
_exptl_absorpt_process_details   sadabs
_exptl_crystal_colour            yellow
_exptl_crystal_density_diffrn    1.259
_exptl_crystal_description       plate
_exptl_crystal_F_000             316
_exptl_crystal_size_max          0.200
_exptl_crystal_size_mid          0.180
_exptl_crystal_size_min          0.050
_refine_diff_density_max         0.153
_refine_diff_density_min         -0.148
_refine_diff_density_rms         0.033
_refine_ls_extinction_method     none
_refine_ls_goodness_of_fit_ref   1.027
_refine_ls_hydrogen_treatment    constr
_refine_ls_matrix_type           full
_refine_ls_number_parameters     208
_refine_ls_number_reflns         2766
_refine_ls_number_restraints     0
_refine_ls_restrained_S_all      1.027
_refine_ls_R_factor_all          0.0886
_refine_ls_R_factor_gt           0.0499
_refine_ls_shift/su_max          0.000
_refine_ls_shift/su_mean         0.000
_refine_ls_structure_factor_coef Fsqd
_refine_ls_weighting_details
'w=1/[\s^2^(Fo^2^)+(0.0631P)^2^+0.1625P] where P=(Fo^2^+2Fc^2^)/3'
_refine_ls_weighting_scheme      calc
_refine_ls_wR_factor_gt          0.1184
_refine_ls_wR_factor_ref         0.1374
_reflns_Friedel_coverage         0.000
_reflns_number_gt                1791
_reflns_number_total             2766
_reflns_threshold_expression     'I > 2\s(I)'
_cod_data_source_file            d2cc02480b2.cif
_cod_data_source_block           CSJ06_86_1_a
_cod_database_code               7130162
_shelx_shelxl_version_number     2018/3
_shelx_space_group_comment
;
The symmetry employed for this shelxl refinement is uniquely defined
by the following loop, which should always be used as a source of
symmetry information in preference to the above space-group names.
They are only intended as comments.
;
_shelx_estimated_absorpt_t_min   0.985
_shelx_estimated_absorpt_t_max   0.996
_shelx_res_file
;
TITL CSJ06_86_1_a.res in P-1
    CSJ06_86_1_a.res
    created by SHELXL-2018/3 at 10:16:02 on 07-Jul-2020
CELL 0.71073 6.3310 9.7410 13.1586 80.485 88.980 82.009
ZERR 2.00 0.0009 0.0013 0.0019 0.004 0.005 0.005
LATT 1
SFAC C  H  N
UNIT 38  32  8
omit 0   0   1
omit  3   0   6
omit   1   0   1
omit   2   0   4
omit   0   1   0
omit   0   6   0
L.S. 10
omit -3 50
ACTA
BOND $H
FMAP 2
PLAN -5
HTAB N4 N3_$2
EQIV $2 -x+2, -y+2, -z
HTAB N4 N2_$1
EQIV $1 -x+2, -y+1, -z
CONF
size 0.20 0.18 0.05
TEMP 23.000
WGHT    0.063100    0.162500
FVAR       1.47825
C1    1   -0.307954    0.708418    0.516082    11.00000    0.07319    0.09897 =
         0.07188   -0.00820    0.03713   -0.01029
AFIX  43
H1    2   -0.419913    0.701690    0.562555    11.00000   -1.20000
AFIX   0
C2    1   -0.276100    0.621520    0.445052    11.00000    0.07358    0.13802 =
         0.08443   -0.03155    0.03013   -0.05626
AFIX  43
H2    2   -0.364566    0.553217    0.443607    11.00000   -1.20000
AFIX   0
C3    1   -0.112706    0.634332    0.374984    11.00000    0.07403    0.12469 =
         0.07280   -0.04591    0.03133   -0.04918
AFIX  43
H3    2   -0.092998    0.574166    0.326585    11.00000   -1.20000
AFIX   0
C4    1    0.021229    0.733104    0.374691    11.00000    0.04626    0.05543 =
         0.05346   -0.00678    0.01340   -0.00619
C5    1   -0.012044    0.816838    0.448579    11.00000    0.09975    0.06404 =
         0.08888   -0.02822    0.04564   -0.02887
AFIX  43
H5    2    0.077967    0.883793    0.451716    11.00000   -1.20000
AFIX   0
C6    1   -0.174941    0.804862    0.518441    11.00000    0.13404    0.08099 =
         0.09651   -0.03441    0.06702   -0.03072
AFIX  43
H6    2   -0.193780    0.863662    0.567775    11.00000   -1.20000
AFIX   0
C7    1    0.196778    0.753329    0.296749    11.00000    0.05881    0.05646 =
         0.07498   -0.01387    0.02706   -0.01276
AFIX  23
H7A   2    0.141251    0.824713    0.239616    11.00000   -1.20000
H7B   2    0.310767    0.788612    0.328520    11.00000   -1.20000
AFIX   0
C8    1    0.289012    0.624119    0.254965    11.00000    0.05533    0.05382 =
         0.06266   -0.01050    0.02231   -0.01486
AFIX  23
H8A   2    0.179236    0.594766    0.216210    11.00000   -1.20000
H8B   2    0.330659    0.549288    0.312242    11.00000   -1.20000
AFIX   0
C9    1    0.479932    0.643285    0.186196    11.00000    0.04614    0.04462 =
         0.05090   -0.00746    0.01362   -0.01073
C10   1    0.613113    0.530151    0.155925    11.00000    0.04706    0.04547 =
         0.04243   -0.00909    0.00886   -0.01532
C11   1    0.583474    0.381199    0.192242    11.00000    0.05261    0.04276 =
         0.04688   -0.01135    0.01724   -0.01494
C12   1    0.396763    0.329722    0.173711    11.00000    0.06406    0.05927 =
         0.06297   -0.01734    0.01367   -0.02294
AFIX  43
H12   2    0.284741    0.389534    0.138478    11.00000   -1.20000
AFIX   0
C13   1    0.376149    0.190478    0.207177    11.00000    0.08346    0.06419 =
         0.07959   -0.02582    0.02993   -0.04010
AFIX  43
H13   2    0.252534    0.155836    0.192369    11.00000   -1.20000
AFIX   0
C14   1    0.537087    0.103526    0.262010    11.00000    0.10917    0.04639 =
         0.08319   -0.01240    0.04240   -0.02999
AFIX  43
H14   2    0.521120    0.010287    0.286120    11.00000   -1.20000
AFIX   0
C15   1    0.722247    0.152694    0.281813    11.00000    0.08875    0.04859 =
         0.09106    0.00348    0.01462   -0.00831
AFIX  43
H15   2    0.831648    0.092975    0.319131    11.00000   -1.20000
AFIX   0
C16   1    0.745641    0.290853    0.246238    11.00000    0.06170    0.05097 =
         0.07641   -0.00539    0.01221   -0.01364
AFIX  43
H16   2    0.872278    0.323590    0.258779    11.00000   -1.20000
AFIX   0
C17   1    0.829387    0.679998    0.066963    11.00000    0.05018    0.04336 =
         0.04600   -0.00929    0.01360   -0.01443
C18   1    0.694628    0.791156    0.098309    11.00000    0.05526    0.04027 =
         0.05757   -0.00782    0.01967   -0.01178
C19   1    0.737627    0.933046    0.067956    11.00000    0.06386    0.04288 =
         0.08746   -0.01415    0.04103   -0.01083
N1    3    0.523977    0.772879    0.157419    11.00000    0.05520    0.04589 =
         0.06281   -0.00682    0.02416   -0.00987
N2    3    0.784488    0.548513    0.096602    11.00000    0.04965    0.04043 =
         0.05022   -0.01018    0.01654   -0.01413
N3    3    0.778087    1.043166    0.042233    11.00000    0.09236    0.04829 =
         0.13183   -0.01648    0.06018   -0.01887
N4    3    1.002681    0.697229    0.008815    11.00000    0.06122    0.04306 =
         0.07446   -0.01353    0.03417   -0.01690
AFIX  93
H4A   2    1.081130    0.625357   -0.008367    11.00000   -1.20000
H4B   2    1.035433    0.780159   -0.011316    11.00000   -1.20000
AFIX   0
HKLF 4 1 1 0 0 0 1 0 0 0 1




REM  CSJ06_86_1_a.res in P-1
REM wR2 = 0.1374, GooF = S = 1.027, Restrained GooF = 1.027 for all data
REM R1 = 0.0499 for 1791 Fo > 4sig(Fo) and 0.0886 for all 2766 data
REM 208 parameters refined using 0 restraints

END

WGHT      0.0617      0.1726

REM Highest difference peak  0.153,  deepest hole -0.148,  1-sigma level  0.033
Q1    1   1.0402  0.6195 -0.0486  11.00000  0.05    0.15
Q2    1   0.2632  0.8464  0.2818  11.00000  0.05    0.15
Q3    1   0.8946  1.0268  0.1020  11.00000  0.05    0.13
Q4    1   0.6937  0.7460  0.0455  11.00000  0.05    0.13
Q5    1   0.4556  0.8643  0.1840  11.00000  0.05    0.13
;
_shelx_res_checksum              98828
_shelx_hkl_file
;
  -1   0   0  606.64   15.80
  -1   0   0  607.74   16.40
  -1   0   0  583.94   15.50
   1   0   0  581.24   15.80
   1   0   0  614.94   16.50
   1   0   0  586.34   15.50
  -2   0   0 1247.88   34.70
  -2   0   0 1248.28   33.10
  -2   0   0 1331.67   33.80
   2   0   0 1247.48   33.00
   2   0   0 1280.37   33.70
   2   0   0 1311.87   35.00
  -3   0   0   31.40    3.60
  -3   0   0   38.10    4.80
  -3   0   0   32.70    3.20
   3   0   0   40.90    5.70
   3   0   0   33.20    3.30
  -4   0   0  745.63   23.40
  -4   0   0  774.72   25.20
  -4   0   0  765.92   22.30
   4   0   0  744.53   25.80
   4   0   0  768.22   23.30
   4   0   0  753.02   22.20
  -5   0   0   51.09    5.50
  -5   0   0   31.90    6.60
   5   0   0   30.40    9.10
   5   0   0   45.90    6.30
   5   0   0   42.90    5.00
  -6   0   0    3.50    6.80
  -6   0   0    7.50    4.80
   6   0   0   -3.30    5.20
  -7   0   0    3.50    9.40
  -7   0   0   21.60    6.80
   7   0   0    6.00    7.30
  -8   0   0    9.30    9.20
  -8   0   0   -0.50   13.60
   8   0   0   11.60   10.30
   8  -1   0   -7.80   10.00
   7  -1   0   -3.00    7.10
  -7   1   0   14.00   10.10
  -7   1   0  -17.10    6.60
  -6   1   0    8.80    7.90
  -6   1   0   -3.20    4.80
   5  -1   0  198.38   10.50
   5  -1   0  206.18   10.00
   5  -1   0  204.98   18.80
  -5   1   0  195.78   10.10
  -5   1   0  217.38   13.20
   4  -1   0   76.69    8.40
   4  -1   0   78.79    5.70
   4  -1   0   74.59    5.80
  -4   1   0   73.79    5.50
  -4   1   0   71.49    7.70
  -4   1   0   79.79    6.50
   3  -1   0    8.10    2.20
   3  -1   0   17.00    2.60
   3  -1   0   11.80    3.80
  -3   1   0   13.70    2.80
  -3   1   0   14.30    3.40
  -3   1   0   17.50    2.70
   2  -1   0  288.87    9.50
   2  -1   0  301.37    9.40
  -2   1   0  276.27    9.50
  -2   1   0  280.57   10.50
  -2   1   0  302.07    9.50
   1  -1   0 1480.55   38.90
   1  -1   0 1540.55   39.00
   1  -1   0 1525.55   39.50
  -1   1   0 1517.65   38.90
  -1   1   0 1549.74   39.10
  -1   1   0 1573.84   39.60
   0   1   0 1003.30   25.20
  -1  -1   0  560.64   15.20
  -1  -1   0  569.94   14.50
  -1  -1   0  577.14   15.70
   1   1   0  572.84   15.20
   1   1   0  575.54   14.50
   1   1   0  565.64   15.70
  -2  -1   0  116.39    4.20
  -2  -1   0  120.69    5.10
  -2  -1   0  121.29    5.80
   2   1   0  118.89    6.10
   2   1   0  127.59    5.10
   2   1   0  117.29    4.20
  -3  -1   0  220.78    8.40
  -3  -1   0  189.58    7.80
  -3  -1   0  208.08    9.40
   3   1   0  189.58    7.90
   3   1   0  220.88   10.10
   3   1   0  213.38    7.20
  -4  -1   0   65.29    4.60
  -4  -1   0   65.49    5.70
  -4  -1   0   68.89    6.80
   4   1   0   64.29    4.70
   4   1   0   70.99    5.50
   4   1   0   62.29    8.40
  -5  -1   0   55.79    8.10
  -5  -1   0   52.79    5.30
   5   1   0   60.29    6.70
   5   1   0   45.80    5.20
  -6  -1   0   20.00    4.90
  -6  -1   0   14.70    8.30
   6   1   0   16.00    4.80
  -7  -1   0    0.50    5.60
  -7  -1   0    6.90    9.00
   7   1   0   -1.50    6.60
  -8  -1   0  -17.90   13.00
  -8  -1   0    6.20    9.10
   8   1   0    5.30    9.90
   7  -2   0   11.50    7.60
  -7   2   0   10.30   11.30
  -7   2   0    5.70    7.60
  -6   2   0  114.19   10.70
   5  -2   0   40.30    6.00
   5  -2   0   44.80    6.00
  -5   2   0   47.20    6.40
  -5   2   0   45.60    7.80
   4  -2   0   28.60    6.00
   4  -2   0   29.50    4.20
   4  -2   0   36.50    5.10
  -4   2   0   25.50    5.50
  -4   2   0   24.30    4.20
  -4   2   0   25.60    4.10
   3  -2   0   80.49    5.30
   3  -2   0   77.69    6.60
   3  -2   0   79.19    5.40
  -3   2   0   69.29    6.30
  -3   2   0   75.19    5.10
  -3   2   0   75.39    5.30
   2  -2   0 1252.87   32.60
   2  -2   0 1250.27   33.70
   2  -2   0 1230.48   32.60
  -2   2   0 1067.29   33.20
  -2   2   0 1215.78   33.70
  -2   2   0 1248.48   32.80
   1  -2   0 1242.08   31.60
   1  -2   0 1182.28   31.70
  -1   2   0 1212.68   32.60
  -1   2   0 1223.18   31.60
  -1   2   0 1205.88   32.10
  -1  -2   0    0.80    0.70
  -1  -2   0   -0.40    0.80
  -1  -2   0    0.70    0.50
   1   2   0    0.30    0.50
   1   2   0   -0.70    0.70
   1   2   0    0.60    1.00
  -2  -2   0   43.30    3.60
  -2  -2   0   48.60    3.20
  -2  -2   0   46.30    2.10
   2   2   0   47.60    4.10
   2   2   0   47.80    3.10
   2   2   0   46.20    2.20
  -3  -2   0  304.57   10.50
  -3  -2   0  286.77    8.80
  -3  -2   0  282.87   11.40
   3   2   0  279.47    8.80
   3   2   0  287.57   10.30
   3   2   0  287.77   12.10
  -4  -2   0  231.28   11.20
  -4  -2   0  217.98    8.00
  -4  -2   0  230.48   10.00
   4   2   0  212.08    9.60
   4   2   0  240.38   12.70
   4   2   0  217.18    8.00
  -5  -2   0   14.00    3.20
  -5  -2   0   13.60    5.30
   5   2   0   12.80    3.10
   5   2   0   12.70    3.70
  -6  -2   0   77.99    6.90
   6   2   0   71.89    7.40
  -7  -2   0   45.20    6.40
  -7  -2   0   27.10    9.90
   7   2   0   33.10    8.20
  -8  -2   0    3.80   13.00
   8   2   0   -4.70    9.80
   7  -3   0    0.50    8.50
  -7   3   0   27.50   12.60
  -7   3   0   14.60    9.20
   6  -3   0   63.89    9.30
  -6   3   0   53.49    8.50
   5  -3   0   -0.50    4.10
  -5   3   0   -0.30    5.60
  -5   3   0   -0.80    4.30
   4  -3   0   40.40    5.30
   4  -3   0   33.70    4.80
   4  -3   0   48.20    7.50
  -4   3   0   45.20    5.70
  -4   3   0   40.30    5.60
  -4   3   0   43.00    6.50
   3  -3   0  243.38   10.00
   3  -3   0  221.08    9.80
   3  -3   0  241.68   11.20
  -3   3   0  240.98   10.10
  -3   3   0  247.98   11.70
  -3   3   0  265.67   10.40
   2  -3   0  657.43   19.00
   2  -3   0  641.34   19.20
  -2   3   0  624.74   19.30
  -2   3   0  661.93   20.30
  -2   3   0  656.83   19.10
   1  -3   0   43.70    3.30
  -1   3   0   47.60    3.30
  -1   3   0   48.70    3.70
  -1   3   0   47.70    3.70
  -1   3   0   53.59    3.30
   0  -3   0  596.04   15.80
   0  -3   0  590.64   16.40
   0  -3   0  613.24   16.60
   0  -3   0  570.94   16.20
   0   3   0  601.84   16.30
   0   3   0  578.14   16.40
  -1  -3   0   31.00    2.20
  -1  -3   0   28.10    1.90
  -1  -3   0   30.40    2.60
   1   3   0   28.60    1.80
   1   3   0   23.90    2.00
   1   3   0   28.30    2.60
  -2  -3   0  661.93   19.70
   2   3   0  659.03   17.20
   2   3   0  645.34   18.80
   2   3   0  658.23   19.90
   2   3   0  665.83   17.20
  -3  -3   0  158.58    7.30
  -3  -3   0  170.38    8.20
  -3  -3   0  157.08    5.30
   3   3   0  157.38    5.40
   3   3   0  158.98    7.20
   3   3   0  174.98    9.20
  -4  -3   0    2.60    3.20
  -4  -3   0   -3.30    2.80
   4   3   0    4.20    1.90
   4   3   0   11.30    5.10
   4   3   0    7.00    2.70
  -5  -3   0   29.70    3.60
  -5  -3   0   36.60    6.50
   5   3   0   28.40    3.50
   5   3   0   31.90    5.10
  -6  -3   0   74.39    6.30
   6   3   0   87.09    9.60
   6   3   0   74.19    6.80
  -7  -3   0   78.29   12.60
  -7  -3   0   81.29    8.00
   7   3   0   98.79   11.80
  -8  -3   0   14.80   13.00
   8   3   0    7.30    9.80
   7  -4   0   10.00    9.40
  -7   4   0   -7.10   13.00
  -7   4   0    0.60   10.30
   6  -4   0    1.80    6.70
  -6   4   0    1.60    7.30
   5  -4   0   15.90    5.40
  -5   4   0    5.70    7.90
  -5   4   0   -5.80    6.40
   4  -4   0   56.89    6.50
   4  -4   0   38.40    6.50
  -4   4   0   45.40    7.40
  -4   4   0   31.40    5.80
  -4   4   0   60.79    7.00
   3  -4   0   11.60    3.40
   3  -4   0   10.40    3.80
  -3   4   0   13.40    4.00
  -3   4   0   15.00    5.80
  -3   4   0    8.80    3.70
  -3   4   0   11.90    3.70
   2  -4   0    7.80    2.70
   2  -4   0   10.30    2.40
  -2   4   0    9.50    2.40
  -2   4   0    7.40    2.60
  -2   4   0    9.00    3.70
  -2   4   0    5.00    3.00
   1  -4   0    8.20    2.80
   1  -4   0    6.10    2.10
   1  -4   0    6.20    2.00
  -1   4   0    7.30    2.20
  -1   4   0    7.50    2.20
  -1   4   0    8.60    2.00
   0  -4   0   27.80    2.90
   0  -4   0   25.00    2.10
   0  -4   0   25.20    2.80
   0  -4   0   27.80    3.10
   0   4   0   21.50    2.60
   0   4   0   24.10    2.60
  -1  -4   0 1485.25   40.10
  -1  -4   0 1528.95   39.70
  -1  -4   0 1532.45   39.30
   1   4   0 1564.14   39.60
   1   4   0 1538.25   40.50
   1   4   0 1491.65   39.30
  -2  -4   0    6.20    2.00
  -2  -4   0    7.30    2.30
   2   4   0    7.40    2.70
   2   4   0    3.10    1.50
   2   4   0    5.30    1.30
   2   4   0    7.30    1.30
  -3  -4   0   10.10    3.00
  -3  -4   0   13.40    3.10
   3   4   0   15.40    1.90
   3   4   0   14.80    1.70
   3   4   0   15.30    4.30
   3   4   0   11.00    2.70
  -4  -4   0    0.20    1.80
  -4  -4   0    0.20    3.60
  -4  -4   0    3.60    3.10
   4   4   0   -2.20    4.80
   4   4   0    1.60    1.80
   4   4   0    0.00    2.50
  -5  -4   0  342.07   16.00
  -5  -4   0  325.37   10.40
   5   4   0  317.47   13.90
   5   4   0  314.27   10.40
  -6  -4   0   98.39    6.00
   6   4   0  109.19   10.30
   6   4   0   98.39    6.50
  -7  -4   0   13.30    9.00
   7   4   0   12.80    7.80
  -8  -4   0   -3.80   11.90
   8   4   0    3.20    9.50
   7  -5   0   -8.50   10.70
   6  -5   0   21.10    8.00
  -6   5   0   20.50   10.90
  -6   5   0   22.00    9.30
  -5   5   0   -2.30    7.40
  -5   5   0   -9.10    6.10
   4  -5   0   -0.90    4.40
  -4   5   0    0.30    5.50
  -4   5   0   -4.00    5.60
  -4   5   0    3.90    4.20
  -4   5   0  -14.80    7.80
   3  -5   0   17.30    4.40
   3  -5   0   28.00    4.70
  -3   5   0   18.90    4.30
  -3   5   0   22.60    5.40
  -3   5   0   25.70    6.20
  -3   5   0   25.30    4.70
   2  -5   0  301.57   12.10
   2  -5   0  330.77   11.70
  -2   5   0  310.07   12.30
  -2   5   0  327.67   13.10
  -2   5   0  333.57   13.00
  -2   5   0  328.47   12.20
   1  -5   0   26.40    3.70
   1  -5   0   16.50    2.90
   1  -5   0   16.80    3.60
  -1   5   0   16.70    2.90
  -1   5   0   27.50    3.70
   0  -5   0   29.20    3.50
   0  -5   0   24.70    3.40
   0  -5   0   34.00    4.00
   0  -5   0   25.80    2.70
   0   5   0   25.70    3.30
   0   5   0   27.60    3.30
  -1  -5   0  202.18    7.50
  -1  -5   0  206.18    8.00
   1   5   0  212.28    7.30
   1   5   0  201.48    8.30
   1   5   0  195.68    7.40
  -2  -5   0  247.58    9.80
  -2  -5   0  240.98    9.20
   2   5   0  247.18    8.10
   2   5   0  243.18   10.40
   2   5   0  250.27    9.00
  -3  -5   0    3.20    3.10
  -3  -5   0    0.30    2.70
   3   5   0    0.60    1.40
   3   5   0    1.20    1.40
   3   5   0    2.30    4.30
   3   5   0    0.00    2.00
  -4  -5   0   25.50    4.80
  -4  -5   0   18.80    3.90
   4   5   0   24.80    2.80
   4   5   0   24.70    2.60
   4   5   0   25.80    6.50
   4   5   0   30.80    5.00
  -5  -5   0  214.88   13.00
   5   5   0  206.98    7.40
   5   5   0  240.58   11.90
   5   5   0  227.18    7.30
  -6  -5   0    7.30    6.90
   6   5   0   18.10    6.30
   6   5   0   14.40    3.20
  -7  -5   0  -10.70    9.70
   7   5   0    2.90    7.60
   6  -6   0    9.10    9.20
  -6   6   0   11.80   12.90
  -6   6   0   -6.10   10.20
  -5   6   0    5.80    8.80
  -5   6   0    1.10    7.30
   4  -6   0   11.60    4.90
  -4   6   0   -0.70    8.90
  -4   6   0    1.50    6.90
   3  -6   0   11.10    4.30
  -3   6   0    6.90    4.30
  -3   6   0   -1.20    5.60
  -3   6   0   11.70    5.30
  -3   6   0    2.10    4.80
   2  -6   0    7.10    3.20
   2  -6   0   10.00    3.70
  -2   6   0   13.60    3.80
  -2   6   0   13.80    3.60
  -2   6   0    3.90    4.00
  -2   6   0   14.10    4.30
   1  -6   0    3.80    3.70
   1  -6   0    3.90    3.20
   1  -6   0    2.10    2.50
  -1   6   0    4.70    2.90
  -1   6   0    1.40    2.70
  -1   6   0    2.20    2.50
   0  -6   0   61.99    4.80
   0  -6   0   52.79    5.20
   0  -6   0   69.09    5.60
   0  -6   0   53.29    4.10
   0   6   0   62.09    4.80
   0   6   0   60.89    4.90
  -1  -6   0   12.00    2.70
  -1  -6   0   13.60    2.60
  -1  -6   0    9.80    2.60
  -1  -6   0   19.20    3.20
   1   6   0   20.10    3.60
   1   6   0   11.80    2.50
  -2  -6   0    3.30    2.10
  -2  -6   0   -2.50    2.30
  -2  -6   0    2.80    2.50
   2   6   0    2.40    2.00
   2   6   0    1.40    3.30
   2   6   0    1.90    1.90
  -3  -6   0   56.29    5.40
  -3  -6   0   52.39    5.90
   3   6   0   51.19    3.60
   3   6   0   63.09    8.20
   3   6   0   59.19    5.10
   3   6   0   52.19    3.80
  -4  -6   0  470.25   18.00
  -4  -6   0  442.16   16.60
   4   6   0  427.86   12.40
   4   6   0  465.25   16.50
   4   6   0  428.96   12.50
   4   6   0  479.35   24.80
   5   6   0   10.30    4.80
  -6  -6   0   81.39   11.30
   6   6   0   84.49   10.90
  -7  -6   0   15.10   10.70
   7   6   0    4.00    8.50
   6  -7   0   -0.30   10.40
  -6   7   0   10.40   15.10
  -6   7   0   -4.20   12.40
   5  -7   0    5.80    8.30
  -5   7   0    8.40    9.10
   4  -7   0   13.20    6.30
  -4   7   0    6.20    8.20
  -4   7   0    6.00   11.50
   3  -7   0  118.19    9.30
  -3   7   0   88.29   11.40
  -3   7   0   84.89    9.70
  -3   7   0   82.79   10.00
   2  -7   0   41.40    5.30
  -2   7   0   38.50    5.80
  -2   7   0   45.00    6.20
  -2   7   0   49.70    6.70
  -2   7   0   35.30    6.10
   1  -7   0  856.41   26.60
   1  -7   0  877.81   25.60
   1  -7   0  841.02   28.10
  -1   7   0  857.81   25.30
  -1   7   0  897.91   27.10
  -1   7   0  879.51   25.60
   0  -7   0  156.28    8.30
   0  -7   0  155.38    8.90
   0  -7   0  156.58    8.00
   0  -7   0  163.78    7.20
   0   7   0  161.88    8.30
   0   7   0  154.58    7.70
  -1  -7   0    2.10    3.00
  -1  -7   0    0.20    2.80
  -1  -7   0    7.20    2.80
  -1  -7   0    2.80    2.50
   1   7   0    4.40    2.60
   1   7   0    0.30    3.20
  -2  -7   0   20.70    4.30
  -2  -7   0   16.90    3.60
  -2  -7   0   23.90    3.50
   2   7   0   21.60    3.20
   2   7   0   25.30    3.50
   2   7   0   18.00    4.30
  -3  -7   0   18.50    4.70
  -3  -7   0   20.40    4.20
   3   7   0   17.90    2.80
   3   7   0   14.70    5.90
   3   7   0   16.80    3.70
   3   7   0   18.30    3.00
  -4  -7   0  183.78   11.60
   4   7   0  176.98   10.00
   4   7   0  160.78    6.10
   4   7   0  164.18    6.50
  -5  -7   0  106.69   11.20
   5   7   0   93.09   11.10
  -6  -7   0   55.29   10.50
   6   7   0   45.50    8.90
  -7  -7   0   -0.70   11.50
   7   7   0    1.10    9.40
   5  -8   0   14.10    9.20
  -5   8   0   -2.00   10.00
  -4   8   0   -0.60    9.70
  -4   8   0   13.00    8.20
   3  -8   0   -1.90    5.00
  -3   8   0   -7.90    7.40
  -3   8   0    2.50    7.30
  -3   8   0    2.00    6.10
  -3   8   0   -8.50    7.10
   2  -8   0   95.29    8.40
  -2   8   0  107.09    9.40
  -2   8   0   93.29    8.50
  -2   8   0  102.19   11.30
   1  -8   0  500.35   16.50
   1  -8   0  511.85   21.00
   1  -8   0  516.45   17.70
  -1   8   0  507.45   17.40
  -1   8   0  546.85   19.10
   0  -8   0   67.99    5.80
   0  -8   0   55.99    6.20
   0  -8   0   60.29    6.70
   0  -8   0   67.99    8.50
   0   8   0   73.69    7.00
   0   8   0   70.09    6.80
  -1  -8   0   54.19    6.00
  -1  -8   0   57.79    7.10
  -1  -8   0   46.20    6.00
  -1  -8   0   48.70    5.60
   1   8   0   42.30    5.60
   1   8   0   47.10    5.90
  -2  -8   0   28.10    4.60
  -2  -8   0   36.10    4.80
  -2  -8   0   30.60    4.40
  -2  -8   0   22.90    5.20
   2   8   0   24.90    4.00
   2   8   0   23.60    5.30
  -3  -8   0   79.19    7.80
  -3  -8   0  101.09    8.80
   3   8   0   81.89    6.70
   3   8   0   77.79    5.60
   3   8   0   92.79    6.20
   3   8   0   93.19   11.40
  -4  -8   0    6.20    5.60
   4   8   0    3.40    3.60
   4   8   0    0.70    4.40
   4   8   0    4.80    3.00
  -5  -8   0   65.89    9.60
   5   8   0   67.69    8.60
  -6  -8   0   19.70    9.80
   6   8   0  -16.70    7.10
  -4   9   0   11.10    9.60
  -4   9   0    6.60   11.60
   3  -9   0   11.90    6.70
  -3   9   0   11.30    7.50
  -3   9   0    3.50    9.10
   2  -9   0    9.40    5.40
  -2   9   0    9.20    6.80
  -2   9   0   -2.10    6.90
  -2   9   0   23.30    6.30
  -2   9   0    9.00    6.30
   1  -9   0  189.88    9.70
   1  -9   0  197.38   10.70
  -1   9   0  196.68   11.00
   0  -9   0    2.20    3.90
   0  -9   0    3.50    4.40
   0  -9   0    1.80    6.00
   0   9   0   -4.80    4.20
   0   9   0    2.40    4.70
  -1  -9   0   15.70    4.60
  -1  -9   0   15.30    5.70
  -1  -9   0   18.40    4.90
  -1  -9   0    1.40    4.70
   1   9   0   17.40    4.60
   1   9   0   19.70    5.50
  -2  -9   0   27.90    5.10
  -2  -9   0   45.20    5.50
  -2  -9   0   27.20    6.00
  -2  -9   0   30.10    5.60
   2   9   0   31.00    4.90
   2   9   0   26.80    7.00
  -3  -9   0  173.78   11.80
  -3  -9   0  161.58   11.30
   3   9   0  183.98    9.50
   3   9   0  156.68    8.60
   3   9   0  156.38    8.30
  -4  -9   0   23.20    7.20
   4   9   0   13.00    3.70
   4   9   0   27.20    5.70
  -5  -9   0   -1.70    8.10
  -6  -9   0   20.50   10.60
   6   9   0   31.80    9.30
   3 -10   0   46.50   11.50
  -3  10   0   25.70   10.80
   2 -10   0   -2.50    6.50
  -2  10   0    1.50    8.50
  -2  10   0   -2.20    7.30
   1 -10   0    8.80    6.20
  -1  10   0   -9.00    6.30
  -1  10   0   15.70    7.70
   0 -10   0   -2.30    5.30
   0 -10   0   -2.20    5.10
   0 -10   0   17.00    8.70
   0  10   0   -1.90    6.10
  -1 -10   0   -5.80    5.40
  -1 -10   0   13.40    5.30
  -1 -10   0   -5.10    6.80
   1  10   0   -0.20    7.00
   1  10   0    0.00    4.70
  -2 -10   0   62.79    7.50
  -2 -10   0   69.79    8.00
  -2 -10   0   51.69    8.50
  -2 -10   0   56.19    7.20
   2  10   0   60.49    8.00
  -3 -10   0   15.40    7.00
  -3 -10   0   27.70    7.20
   3  10   0   12.70    4.60
  -4 -10   0    2.80    7.60
   4  10   0    6.90    5.70
  -5 -10   0   -6.80    9.50
   5  10   0   11.90    7.20
  -2  11   0  -18.80    9.70
   1 -11   0   15.60    7.20
  -1  11   0   15.90   11.30
  -1  11   0   -2.20    7.80
   0 -11   0   -0.90    6.70
   0 -11   0   -3.20   10.60
   0  11   0    5.00    7.30
  -1 -11   0    4.90    9.00
  -1 -11   0    2.20    7.00
  -2 -11   0   17.00    7.40
  -2 -11   0    8.60    8.40
   2  11   0    4.20    6.00
  -3 -11   0    0.90    7.50
  -3 -11   0    2.20    8.20
  -4 -11   0  -10.10   10.60
  -4 -11   0   -0.60    9.70
  -1  12   0    0.10   10.80
   0  12   0   30.70   10.50
   1  12   0    7.30    9.20
  -2 -12   0   17.00   11.60
  -3 -12   0    1.20   11.30
   1  12  -1    4.90   10.10
   0  12  -1    0.20   10.30
  -4 -11   1   14.70   10.50
  -4 -11   1   11.10    9.20
  -3 -11   1   42.20    9.90
   2  11  -1    0.80    6.20
  -2 -11   1    7.30    8.40
  -2 -11   1    7.70    7.90
   1  11  -1   -9.70    7.10
  -1 -11   1    0.30    9.10
  -1 -11   1    6.80    8.00
   0  11  -1   11.40    7.90
   0 -11   1    9.00    7.40
   0 -11   1   -6.20   10.80
  -1  11  -1   19.40    9.00
   1 -11   1   30.60    8.50
  -2  11  -1   -5.40    9.90
   2 -11   1   -3.70   11.50
   5  10  -1    8.30    7.60
  -5 -10   1   -8.00    9.20
   4  10  -1   -1.70    5.60
  -4 -10   1   12.90    8.00
   3  10  -1   22.40    5.10
  -3 -10   1   13.80    6.60
  -3 -10   1    8.90    7.20
   2  10  -1   24.90    8.50
   2  10  -1   13.70    5.40
  -2 -10   1   17.50    6.90
  -2 -10   1   19.70    7.10
  -2 -10   1   18.50    6.50
   1  10  -1   14.50    7.00
   1  10  -1   11.00    5.50
  -1 -10   1    9.40    6.90
  -1 -10   1    3.00    6.30
  -1 -10   1   12.40    7.70
   0  10  -1  -13.00    8.90
   0 -10   1    8.90    8.00
   0 -10   1    4.20    5.90
   0 -10   1   -6.60    6.00
  -1  10  -1    3.50    6.90
  -1  10  -1   17.30    7.80
   1 -10   1    9.00    6.00
  -2  10  -1    9.10   10.20
  -2  10  -1   15.50    8.20
   2 -10   1   -1.30    7.10
  -3  10  -1   47.60   11.70
   6   9  -1    9.00    8.30
  -6  -9   1   29.90   11.50
   5   9  -1   -5.70    6.50
  -5  -9   1   -8.40    8.40
   4   9  -1   -1.60    4.80
  -4  -9   1    6.70   11.60
   3   9  -1    1.70    3.90
   3   9  -1   -0.20    3.40
  -3  -9   1   -4.00    4.90
   2   9  -1    2.60    3.80
   2   9  -1   -4.10    5.80
  -2  -9   1    2.90    5.10
  -2  -9   1    3.60    4.20
  -2  -9   1    5.40    5.30
  -2  -9   1   -0.40    4.60
   1   9  -1   49.60    7.00
   1   9  -1   61.59    7.50
  -1  -9   1   63.99    6.80
  -1  -9   1   59.29    6.50
  -1  -9   1   67.49    8.50
  -1  -9   1   55.59    7.60
   0   9  -1   -0.80    4.60
   0   9  -1    3.00    4.60
   0  -9   1    8.70    5.00
   0  -9   1    6.00    4.20
   0  -9   1  -10.10    5.80
  -1   9  -1    9.90    6.00
  -1   9  -1    1.80    4.50
   1  -9   1   11.50    5.30
   1  -9   1   12.50    5.00
  -2   9  -1    8.60    6.40
  -2   9  -1    7.50    6.80
   2  -9   1   -6.70    5.80
  -3   9  -1   18.00    8.70
  -3   9  -1   24.20    8.60
   3  -9   1    2.30    7.10
  -4   9  -1    1.40   10.40
   4  -9   1   -1.70    8.90
   6   8  -1    3.60    7.90
  -6  -8   1   14.00    9.70
   5   8  -1    0.00    5.70
  -5  -8   1    4.20    7.20
   4   8  -1    4.80    4.20
  -4  -8   1   -5.30    5.20
   3   8  -1  379.46   14.30
   3   8  -1  351.86   13.70
   3   8  -1  323.47   17.90
   3   8  -1  341.57   11.60
  -3  -8   1  325.57   14.50
  -3  -8   1  352.76   15.00
   2   8  -1   22.10    3.70
   2   8  -1   23.10    5.70
  -2  -8   1   24.80    4.90
  -2  -8   1   23.60    4.90
  -2  -8   1   30.20    4.10
  -2  -8   1   24.50    4.90
   1   8  -1   36.50    5.50
   1   8  -1   41.30    5.50
  -1  -8   1   36.40    5.50
  -1  -8   1   32.40    4.50
  -1  -8   1   34.00    4.80
  -1  -8   1   39.70    5.50
   0   8  -1   -6.50    3.40
   0   8  -1   -3.90    3.50
   0  -8   1   -4.60    4.10
   0  -8   1    4.20    4.60
   0  -8   1   -0.30    3.90
   0  -8   1    2.90    3.40
  -1   8  -1  603.74   20.30
  -1   8  -1  557.94   18.50
  -1   8  -1  614.54   21.00
   1  -8   1  587.64   19.90
   1  -8   1  547.85   18.50
  -2   8  -1    2.00    5.20
  -2   8  -1   -1.60    5.20
  -2   8  -1    4.80    4.80
  -2   8  -1   -1.50    5.60
   2  -8   1   13.10    5.40
  -3   8  -1   52.99    8.00
  -3   8  -1   45.20    8.30
  -3   8  -1   43.30    7.80
   3  -8   1   26.90    6.90
  -4   8  -1  -20.80    8.40
  -4   8  -1    6.50    8.30
  -5   8  -1    7.30   10.70
   5  -8   1    2.80    9.60
   7   7  -1   15.10    8.70
  -7  -7   1   -6.30   11.50
   6   7  -1   -3.30    6.00
  -6  -7   1   -9.70    7.90
   5   7  -1   28.30    6.60
  -5  -7   1   20.50    6.80
   4   7  -1    6.20    3.80
  -4  -7   1   -2.80    4.90
   3   7  -1   32.10    3.80
   3   7  -1   36.20    4.70
   3   7  -1   34.90    3.50
   3   7  -1   42.30    7.60
  -3  -7   1   33.90    5.60
  -3  -7   1   47.60    6.60
   2   7  -1    5.00    2.50
   2   7  -1    5.80    2.50
   2   7  -1    9.60    4.20
  -2  -7   1    7.90    2.60
  -2  -7   1    5.90    3.10
  -2  -7   1    9.00    3.40
   1   7  -1   17.00    3.40
   1   7  -1   19.60    3.90
  -1  -7   1   14.10    3.60
  -1  -7   1   22.20    3.90
  -1  -7   1   17.70    3.40
  -1  -7   1   23.10    3.70
   0   7  -1   30.20    4.00
   0   7  -1   26.40    4.00
   0  -7   1   24.50    4.30
   0  -7   1   29.70    4.10
   0  -7   1   31.60    4.30
   0  -7   1   41.00    5.80
  -1   7  -1  394.86   15.10
  -1   7  -1  390.96   14.00
  -1   7  -1  380.76   13.10
   1  -7   1  367.36   14.60
   1  -7   1  388.56   14.50
  -2   7  -1   12.40    5.20
  -2   7  -1   14.20    4.30
  -2   7  -1    7.10    4.60
  -2   7  -1   14.30    4.70
   2  -7   1   17.40    4.70
  -3   7  -1    6.10    6.00
  -3   7  -1    9.90    6.40
  -3   7  -1   14.80    6.70
   3  -7   1   21.20    5.80
  -4   7  -1  -10.50    8.80
  -4   7  -1    5.80    7.60
   4  -7   1   -1.30    6.20
  -5   7  -1  -15.30    9.50
  -5   7  -1   -3.00    8.50
   5  -7   1    3.30    7.80
   6  -7   1    1.40   10.60
   7   6  -1   42.80   10.00
  -7  -6   1   30.40   11.40
   6   6  -1    7.70    6.20
  -6  -6   1    7.40    7.90
   4   6  -1 1003.10   35.40
   4   6  -1 1091.39   32.20
  -4  -6   1 1069.99   34.10
  -4  -6   1 1071.09   33.30
   3   6  -1  200.08   11.70
   3   6  -1  197.98    6.40
   3   6  -1  190.18    6.20
   3   6  -1  199.28    9.10
  -3  -6   1  200.88    9.90
  -3  -6   1  188.88    9.40
   2   6  -1   78.79    5.10
   2   6  -1   79.59    4.60
   2   6  -1   84.89    6.80
  -2  -6   1   78.39    5.80
  -2  -6   1   77.39    4.40
  -2  -6   1   81.29    5.80
   1   6  -1  329.67   11.40
   1   6  -1  350.86   12.30
  -1  -6   1  326.27   12.00
  -1  -6   1  337.97   11.80
  -1  -6   1  330.57   11.70
  -1  -6   1  347.97   11.40
   0   6  -1   76.19    5.10
   0   6  -1   85.19    5.50
   0  -6   1   80.29    5.10
   0  -6   1   77.59    5.90
   0  -6   1   73.19    5.30
   0  -6   1   84.19    5.90
  -1   6  -1    2.60    2.90
  -1   6  -1    1.40    2.80
   1  -6   1    3.90    2.80
   1  -6   1   -0.80    2.90
  -2   6  -1   29.80    4.80
  -2   6  -1   35.30    5.10
  -2   6  -1   39.20    4.80
  -2   6  -1   33.50    5.10
   2  -6   1   20.00    4.80
   2  -6   1   40.80    5.10
  -3   6  -1   17.70    5.20
  -3   6  -1   19.50    6.10
  -3   6  -1   18.20    5.70
  -3   6  -1   23.40    5.40
   3  -6   1   11.50    4.60
  -4   6  -1  -11.40    8.60
  -4   6  -1   -7.20    6.30
   4  -6   1    3.70    5.30
  -5   6  -1   72.29   11.00
  -5   6  -1   59.99   10.40
  -6   6  -1   -0.10    9.50
  -6   6  -1   21.70   13.20
   6  -6   1   -5.20    9.10
   7   5  -1   12.00    7.70
  -7  -5   1    1.90    9.40
   6   5  -1   21.50    6.60
  -6  -5   1    0.40    7.50
   5   5  -1  711.13   24.50
  -5  -5   1  726.43   26.20
   4   5  -1   20.80    4.00
   4   5  -1   29.80    6.80
  -4  -5   1   22.10    4.60
  -4  -5   1   14.10    4.90
   3   5  -1  123.09    6.90
   3   5  -1  130.99    8.90
   3   5  -1  131.29    4.10
  -3  -5   1  132.89    7.20
  -3  -5   1  128.79    7.70
   2   5  -1    3.00    3.00
   2   5  -1   -2.60    1.60
   2   5  -1   -1.50    1.40
  -2  -5   1    2.40    1.40
  -2  -5   1   -0.20    2.20
  -2  -5   1    0.70    2.30
   1   5  -1   99.39    4.90
   1   5  -1  102.89    5.80
  -1  -5   1  102.39    5.30
  -1  -5   1  105.69    5.40
  -1  -5   1  113.59    5.00
  -1  -5   1   94.09    5.50
   0   5  -1 1272.77   33.50
   0   5  -1 1237.38   34.30
   0  -5   1 1254.17   34.60
   0  -5   1 1281.57   33.80
   0  -5   1 1273.97   34.20
  -1   5  -1  176.28    7.80
  -1   5  -1  170.88    7.00
  -1   5  -1  162.98    7.80
   1  -5   1  165.08    7.70
   1  -5   1  173.28    7.90
  -2   5  -1    2.10    3.10
  -2   5  -1   -2.10    2.80
  -2   5  -1    0.20    3.20
  -2   5  -1    1.20    3.20
   2  -5   1    0.10    2.70
   2  -5   1    0.70    3.00
  -3   5  -1   23.40    5.10
  -3   5  -1   15.20    4.90
  -3   5  -1   22.20    4.40
  -3   5  -1   16.40    5.70
   3  -5   1   18.70    4.30
   3  -5   1   15.90    5.20
  -4   5  -1    4.80    8.20
  -4   5  -1    2.10    5.30
  -4   5  -1   -2.00    4.70
   4  -5   1    0.60    4.40
  -5   5  -1   39.70    7.80
  -5   5  -1   26.80    8.80
   5  -5   1   47.90   10.10
  -6   5  -1  -19.90    7.70
   6  -5   1   -2.00    7.70
   8   4  -1   -8.80    9.90
  -8  -4   1  -31.70   15.70
   7   4  -1  -12.00    6.70
  -7  -4   1   10.20    8.80
   6   4  -1   -0.90    5.80
   6   4  -1    6.10    2.80
  -6  -4   1    4.30    7.40
   5   4  -1    0.30    1.60
   5   4  -1   -5.50    3.60
  -5  -4   1   -3.90    4.60
  -5  -4   1    3.00    1.90
   4   4  -1   38.10    6.70
   4   4  -1   36.00    5.00
  -4  -4   1   38.20    5.70
  -4  -4   1   37.40    4.80
   3   4  -1   30.30    4.00
   3   4  -1   29.10    5.30
  -3  -4   1   25.00    3.70
  -3  -4   1   34.10    4.70
   2   4  -1  204.18    8.80
   2   4  -1  193.18    5.90
   2   4  -1  192.38    5.90
   2   4  -1  207.28    7.90
  -2  -4   1  200.58    8.00
  -2  -4   1  196.98    8.10
   1   4  -1    6.70    1.60
   1   4  -1   13.50    2.30
   1   4  -1    4.30    1.40
  -1  -4   1    6.80    1.50
  -1  -4   1    5.00    1.90
   0   4  -1 1136.49   30.00
   0   4  -1 1146.09   30.80
   0  -4   1 1116.69   31.00
   0  -4   1 1157.38   30.80
   0  -4   1 1119.19   30.30
   0  -4   1 1190.88   30.40
  -1   4  -1  258.17    9.30
  -1   4  -1  240.88    9.30
  -1   4  -1  247.98    9.00
  -1   4  -1  251.87    8.70
   1  -4   1  259.77    9.30
   1  -4   1  252.67    9.30
  -2   4  -1   38.90    5.10
  -2   4  -1   37.50    5.20
  -2   4  -1   43.60    4.80
  -2   4  -1   46.60    4.50
   2  -4   1   32.90    4.40
   2  -4   1   40.50    4.50
  -3   4  -1    1.70    3.70
  -3   4  -1    2.40    3.70
  -3   4  -1   -2.50    3.10
  -3   4  -1    3.00    5.10
   3  -4   1    4.50    3.00
   3  -4   1    0.90    3.30
  -4   4  -1   -2.70    5.10
  -4   4  -1    3.70    5.00
  -4   4  -1   -4.40    4.20
   4  -4   1   10.10    5.60
   4  -4   1   -2.80    3.80
  -5   4  -1    3.70    6.70
  -5   4  -1    4.30    5.40
   5  -4   1   -1.00    5.90
  -6   4  -1   24.10    7.90
   6  -4   1   20.70    7.50
  -7   4  -1    7.70   10.70
  -7   4  -1   -5.30   13.30
   7  -4   1   22.30   10.50
   8   3  -1    8.80    9.50
  -8  -3   1   -2.20   12.20
   7   3  -1   37.40    8.70
  -7  -3   1   26.60   10.00
  -7  -3   1   41.80    5.40
   6   3  -1   29.60    4.30
  -6  -3   1   33.10    4.00
   5   3  -1  484.75   18.30
   5   3  -1  460.85   13.80
  -5  -3   1  461.75   13.90
  -5  -3   1  468.65   19.60
   4   3  -1  170.28    8.50
   4   3  -1  177.48    5.80
   4   3  -1  174.78   11.60
  -4  -3   1  174.28    5.90
  -4  -3   1  166.68    9.90
  -4  -3   1  166.18    8.60
   3   3  -1   94.19    3.10
   3   3  -1   92.79    5.60
   3   3  -1  105.49    7.80
  -3  -3   1   99.19    5.90
  -3  -3   1   99.49    6.50
   2   3  -1  488.75   15.90
   2   3  -1  463.15   14.60
  -2  -3   1  482.15   15.20
  -2  -3   1  485.95   14.70
   1   3  -1  707.43   19.50
   1   3  -1  703.43   18.60
   1   3  -1  712.83   19.80
  -1  -3   1  720.73   18.60
  -1  -3   1  714.43   19.60
  -1  -3   1  696.03   19.60
   0   3  -1 1032.70   27.20
   0   3  -1 1023.60   26.40
   0   3  -1 1019.20   27.10
   0  -3   1 1015.80   26.60
   0  -3   1  992.90   27.50
   0  -3   1 1041.30   27.00
  -1   3  -1  161.98    6.30
  -1   3  -1  170.98    6.70
  -1   3  -1  162.38    6.30
  -1   3  -1  167.48    6.70
   1  -3   1  166.08    6.60
   1  -3   1  162.58    6.60
  -2   3  -1 2151.88   55.49
  -2   3  -1 2139.19   55.49
  -2   3  -1 2047.00   55.09
   2  -3   1 2088.49   55.09
   2  -3   1 2095.89   55.09
   2  -3   1 2066.59   54.89
  -3   3  -1  318.27   13.00
  -3   3  -1  333.87   12.40
  -3   3  -1  301.87   12.20
   3  -3   1  317.67   13.20
   3  -3   1  328.27   12.20
   3  -3   1  311.77   12.00
  -4   3  -1   23.10    4.80
  -4   3  -1   20.20    5.10
  -4   3  -1   18.70    4.90
   4  -3   1   24.90    5.20
   4  -3   1   15.30    5.40
   4  -3   1   22.80    4.50
  -5   3  -1   20.70    6.90
  -5   3  -1   12.10    5.00
   5  -3   1   25.20   10.40
   5  -3   1   18.00    5.10
  -6   3  -1   38.20   10.60
  -6   3  -1   53.49    8.20
   6  -3   1   33.20    7.30
  -7   3  -1    4.00    9.10
  -7   3  -1   13.70   11.70
   7  -3   1   -1.90    8.30
   8   2  -1   11.10    9.50
  -8  -2   1  -12.30   12.50
   7   2  -1    0.10    7.00
  -7  -2   1   -6.60    8.80
  -7  -2   1   -2.30    4.70
   6   2  -1    5.70    3.80
  -6  -2   1    5.20    3.60
   5   2  -1   22.40    4.60
   5   2  -1   18.20    3.10
  -5  -2   1   19.10    3.20
  -5  -2   1   22.80    5.40
   4   2  -1   32.60    6.40
   4   2  -1   32.70    4.50
   4   2  -1   29.70    3.10
  -4  -2   1   30.90    4.30
  -4  -2   1   27.90    4.20
  -4  -2   1   31.10    5.60
   3   2  -1  550.04   17.30
   3   2  -1  578.84   19.30
   3   2  -1  555.44   15.00
  -3  -2   1  563.54   18.60
  -3  -2   1  554.94   15.00
  -3  -2   1  554.84   17.20
   2   2  -1  301.57   10.00
   2   2  -1  313.07   11.20
  -2  -2   1  300.07   10.60
   1   2  -1  380.36   11.20
   1   2  -1  378.86    9.90
   1   2  -1  382.96   11.40
  -1  -2   1  394.96   11.20
  -1  -2   1  369.16   11.20
  -1  -2   1  390.36    9.90
   0   2  -1 6078.69  151.08
   0   2  -1 6094.19  151.38
   0  -2   1 6001.50  151.48
   0  -2   1 6233.48  151.08
  -1   2  -1 1318.37   34.60
  -1   2  -1 1313.77   35.00
  -1   2  -1 1335.47   35.00
   1  -2   1 1367.86   34.90
   1  -2   1 1329.27   35.10
  -2   2  -1 2737.03   70.59
  -2   2  -1 2774.42   71.29
  -2   2  -1 2747.72   70.79
   2  -2   1 2805.42   71.09
   2  -2   1 2807.52   70.59
   2  -2   1 2609.44   70.29
  -3   2  -1    8.90    3.10
  -3   2  -1   10.10    2.70
  -3   2  -1    8.20    3.20
   3  -2   1   14.00    3.40
   3  -2   1    5.40    3.20
   3  -2   1   16.90    3.30
  -4   2  -1  131.19    8.60
  -4   2  -1  136.29    9.40
  -4   2  -1  138.89    8.00
   4  -2   1  122.19    9.80
   4  -2   1  137.99    7.90
   4  -2   1  148.09    8.30
  -5   2  -1    2.60    5.80
  -5   2  -1    4.60    4.20
   5  -2   1    5.90    7.20
   5  -2   1   -5.10    4.00
  -6   2  -1   11.00    8.10
  -6   2  -1   -5.00    7.60
   6  -2   1   -2.50    9.00
  -7   2  -1   28.10   11.10
  -7   2  -1   21.80    8.80
   7  -2   1   24.50    8.70
   8   1  -1   13.30    9.80
  -8  -1   1   -1.20   12.30
   7   1  -1   13.90    7.20
  -7  -1   1   13.00    9.50
  -7  -1   1   14.10    5.80
   6   1  -1   93.79    7.90
  -6  -1   1   93.69    7.70
   5   1  -1   79.69    7.10
   5   1  -1   83.39    5.70
  -5  -1   1   92.09    9.30
  -5  -1   1   81.59    5.70
   4   1  -1   80.29    4.90
   4   1  -1   82.09    5.80
   4   1  -1   66.19    8.70
  -4  -1   1   81.49    6.10
  -4  -1   1   87.99    7.60
  -4  -1   1   69.09    4.50
   3   1  -1 1043.90   28.00
   3   1  -1 1107.29   32.10
   3   1  -1 1117.19   29.90
  -3  -1   1 1064.39   29.80
  -3  -1   1 1031.40   28.10
  -3  -1   1 1044.50   31.20
   2   1  -1  467.15   13.50
   2   1  -1  448.06   14.60
   2   1  -1  455.35   11.90
  -2  -1   1  453.45   13.30
  -2  -1   1  428.96   14.20
  -2  -1   1  433.06   11.90
   1   1  -1 1192.28   31.30
   1   1  -1 1251.97   31.90
  -1  -1   1 1192.98   31.30
  -1  -1   1 1226.08   31.70
   0   1  -1  800.92   21.50
   0   1  -1  835.42   21.30
   0  -1   1  857.61   21.30
   0  -1   1  844.62   21.60
  -1   1  -1 1020.90   27.00
  -1   1  -1 1051.19   27.20
  -1   1  -1 1076.09   27.30
   1  -1   1 1024.30   27.10
   1  -1   1 1033.40   27.20
   1  -1   1 1022.50   27.10
  -2   1  -1 2006.10   56.09
  -2   1  -1 2068.99   54.29
  -2   1  -1 1946.21   55.39
   2  -1   1 2256.77   55.39
   2  -1   1 2207.68   54.29
   2  -1   1 2144.89   54.49
  -3   1  -1   31.00    4.20
  -3   1  -1   30.00    3.60
  -3   1  -1   31.90    4.00
   3  -1   1   29.70    4.40
   3  -1   1   29.50    3.60
   3  -1   1   25.80    3.70
  -4   1  -1   35.20    4.50
  -4   1  -1   39.30    5.70
  -4   1  -1   40.60    5.30
   4  -1   1   42.80    5.20
   4  -1   1   38.00    4.80
   4  -1   1   39.60    5.90
  -5   1  -1    2.90    5.20
  -5   1  -1   -4.00    3.70
   5  -1   1   -2.90    4.30
   5  -1   1   -2.60    6.40
   5  -1   1    2.70    3.80
  -6   1  -1  153.98   14.00
  -6   1  -1  145.19   10.80
  -7   1  -1   38.80   11.40
  -7   1  -1   21.00    8.00
   7  -1   1   17.20    7.70
   8  -1   1   22.20   11.40
   8   0  -1    3.80    9.60
  -8   0   1   10.40    9.20
  -8   0   1   -3.50   12.40
   7   0  -1   10.90    7.10
  -7   0   1   13.30    9.60
  -7   0   1    9.10    6.50
   6   0  -1   14.20    5.20
  -6   0   1   14.90    4.70
   5   0  -1    3.80    3.30
   5   0  -1    1.80    3.40
  -5   0   1    6.10    5.20
  -5   0   1    4.20    3.20
   4   0  -1  167.28    8.40
   4   0  -1  178.38    7.50
  -4   0   1  165.18    7.30
  -4   0   1  164.48   10.10
  -4   0   1  167.98    8.30
   3   0  -1   88.79    4.90
   3   0  -1   89.29    4.40
   3   0  -1   74.29    6.40
  -3   0   1   83.89    4.40
  -3   0   1   82.09    6.20
  -3   0   1   78.99    4.90
   2   0  -1   57.09    3.30
   2   0  -1   57.39    2.80
   2   0  -1   62.39    4.50
  -2   0   1   59.19    4.40
  -2   0   1   57.79    3.40
  -2   0   1   59.79    2.90
   1   0  -1 4957.60  122.49
  -1   0   1 4842.62  122.29
   0   0  -1    0.10    0.20
   0   0   1    0.00    0.20
   0   0   1    0.00    0.20
  -1   0  -1    6.80    1.00
  -1   0  -1    6.40    1.10
  -1   0  -1    6.10    1.10
   1   0   1    9.00    1.40
   1   0   1    7.90    1.10
   1   0   1    8.80    1.20
  -2   0  -1   16.10    2.40
  -2   0  -1   13.60    2.20
   2   0   1   15.80    2.70
   2   0   1   13.40    1.90
   2   0   1    8.20    1.70
  -3   0  -1  253.37   10.50
  -3   0  -1  250.67    9.10
  -3   0  -1  265.47    9.90
   3   0   1  257.57    9.00
   3   0   1  263.17   11.20
   3   0   1  246.48    9.50
  -4   0  -1   -3.70    3.00
  -4   0  -1    1.10    2.50
  -4   0  -1    1.90    3.30
   4   0   1    5.00    2.70
   4   0   1    8.30    5.20
   4   0   1   -0.30    2.50
  -5   0  -1  196.88   12.10
  -5   0  -1  182.48    9.40
   5   0   1  160.68   14.00
   5   0   1  188.28    9.30
   5   0   1  189.88   10.10
  -6   0  -1    8.50    6.90
  -6   0  -1   13.60    5.10
   6   0   1   12.90    6.90
  -7   0  -1   41.60   11.30
   7   0   1   41.00    8.60
  -8   0  -1   -0.90   13.10
  -8   0  -1   -3.20    8.90
   8   0   1  -13.00    9.80
   8  -1  -1    2.30   10.00
   7  -1  -1    1.00   10.10
  -7   1   1   -2.40    9.80
  -7   1   1   -0.90    6.70
  -6   1   1  177.68   11.00
   5  -1  -1  387.36   14.90
   5  -1  -1  345.27   13.60
  -5   1   1  361.56   17.20
  -5   1   1  344.97   13.70
   4  -1  -1   35.10    4.70
   4  -1  -1   41.10    6.90
   4  -1  -1   47.20    4.80
  -4   1   1   39.30    5.90
  -4   1   1   38.80    5.20
  -4   1   1   42.40    4.60
   3  -1  -1    5.20    3.30
   3  -1  -1    8.60    2.20
   3  -1  -1    9.40    2.30
  -3   1   1    4.60    1.90
  -3   1   1   11.30    2.60
  -3   1   1    7.40    3.20
   2  -1  -1  170.88    6.40
   2  -1  -1  174.98    6.30
   2  -1  -1  174.38    7.80
  -2   1   1  174.38    6.50
  -2   1   1  174.88    6.30
  -2   1   1  172.88    7.70
   1  -1  -1  715.13   19.30
   1  -1  -1  755.42   19.50
   1  -1  -1  746.53   20.40
  -1   1   1  724.43   19.50
  -1   1   1  733.43   20.50
  -1   1   1  758.62   19.40
   0  -1  -1  534.35   13.40
   0  -1  -1  439.16   12.90
   0   1   1  505.95   13.00
   0   1   1  496.25   13.20
  -1  -1  -1  696.43   18.00
  -1  -1  -1  713.53   18.80
  -1  -1  -1  672.83   18.20
   1   1   1  689.33   18.20
   1   1   1  701.83   18.80
   1   1   1  697.83   18.10
  -2  -1  -1  169.08    5.80
  -2  -1  -1  170.48    6.40
  -2  -1  -1  173.78    7.00
   2   1   1  160.88    6.20
   2   1   1  175.38    7.20
   2   1   1  168.18    5.80
  -3  -1  -1  281.37    9.40
  -3  -1  -1  279.37   11.20
  -3  -1  -1  275.47   10.30
   3   1   1  287.47    9.50
   3   1   1  289.17   10.20
   3   1   1  294.07   11.90
  -4  -1  -1  774.42   21.80
  -4  -1  -1  747.93   24.50
  -4  -1  -1  728.83   23.10
   4   1   1  713.13   25.20
   4   1   1  776.62   23.00
   4   1   1  729.93   21.60
  -5  -1  -1  125.99    7.20
  -5  -1  -1  122.99   10.00
   5   1   1  118.79    7.30
   5   1   1  123.19    8.40
   5   1   1  124.49   15.30
  -6  -1  -1    1.40    6.50
  -6  -1  -1   -2.20    4.40
   6   1   1    4.90    5.00
  -7  -1  -1   -0.30    9.00
  -7  -1  -1   10.70    6.10
   7   1   1    1.90    6.80
  -8  -1  -1    3.70   12.90
  -8  -1  -1    5.40    8.30
   8   1   1   -1.20    9.50
   7  -2  -1   -8.80    7.30
  -7   2   1   -2.00    7.60
  -7   2   1   14.70   11.60
  -6   2   1  384.66   16.60
   5  -2  -1  230.78   11.90
   5  -2  -1  285.97   12.60
  -5   2   1  275.17   15.30
  -5   2   1  251.77   12.10
   4  -2  -1  274.07   11.10
   4  -2  -1  261.47   13.70
   4  -2  -1  260.47   10.80
  -4   2   1  250.97   13.20
  -4   2   1  255.87   11.20
  -4   2   1  270.37   10.90
   3  -2  -1    2.90    3.70
   3  -2  -1    5.10    2.30
   3  -2  -1    4.90    2.10
  -3   2   1    7.40    2.30
  -3   2   1    8.20    2.70
  -3   2   1    9.60    3.80
   2  -2  -1 1071.29   29.10
   2  -2  -1 1094.69   29.50
  -2   2   1 1105.79   29.60
  -2   2   1 1062.39   31.00
  -2   2   1 1097.69   29.30
   1  -2  -1   47.80    2.80
   1  -2  -1   41.60    2.40
  -1   2   1   47.90    3.80
  -1   2   1   47.30    2.50
  -1   2   1   43.20    3.30
   0  -2  -1  193.08    5.80
   0  -2  -1  179.78    6.10
   0  -2  -1  174.58    5.00
   0  -2  -1  181.08    4.90
   0   2   1  177.08    5.70
  -1  -2  -1 1072.39   27.80
  -1  -2  -1 1041.20   26.90
   1   2   1 1026.60   26.80
   1   2   1 1033.00   26.90
   1   2   1 1059.59   26.80
  -2  -2  -1   99.29    3.80
  -2  -2  -1  101.19    5.20
  -2  -2  -1  101.79    4.60
   2   2   1   95.19    4.50
   2   2   1   98.39    3.90
  -3  -2  -1  314.97   12.10
  -3  -2  -1  328.47   11.20
  -3  -2  -1  300.07   10.50
   3   2   1  325.77   11.10
   3   2   1  315.17    9.90
   3   2   1  309.27   12.40
  -4  -2  -1  542.95   18.20
  -4  -2  -1  556.84   16.50
  -4  -2  -1  569.04   19.80
   4   2   1  563.14   18.20
   4   2   1  549.85   16.60
   4   2   1  536.35   20.50
  -5  -2  -1   29.60    6.30
  -5  -2  -1   47.90    4.80
   5   2   1   36.10    5.40
   5   2   1   40.90    4.90
  -6  -2  -1   92.29    7.30
   6   2   1   77.39    7.90
   6   2   1   94.39    9.80
  -7  -2  -1   -1.90    5.40
  -7  -2  -1  -14.40    8.30
   7   2   1    0.00    7.00
  -8  -2  -1    2.40   11.90
   8   2   1    6.50   10.00
   7  -3  -1    5.00    9.10
  -7   3   1    0.80    8.30
  -7   3   1    6.90   12.10
  -6   3   1   11.00    6.40
   5  -3  -1   36.40    6.30
  -5   3   1   26.90    5.30
  -5   3   1   26.30    7.40
   4  -3  -1   22.60    4.20
   4  -3  -1   32.80    4.80
   4  -3  -1   21.60    5.70
  -4   3   1   22.20    4.60
  -4   3   1   27.90    6.00
  -4   3   1   27.10    4.30
   3  -3  -1   19.40    3.50
   3  -3  -1   13.50    4.30
   3  -3  -1   23.20    3.80
  -3   3   1   21.50    3.90
  -3   3   1   16.20    3.10
  -3   3   1   12.60    4.20
   2  -3  -1  977.30   26.40
   2  -3  -1  980.90   27.00
  -2   3   1  981.70   29.30
  -2   3   1  978.30   28.50
  -2   3   1  992.30   27.20
  -2   3   1  868.61   27.20
   1  -3  -1 1207.68   33.80
   1  -3  -1 1203.58   31.80
   1  -3  -1 1209.18   34.60
  -1   3   1 1250.27   32.00
  -1   3   1 1259.87   33.70
  -1   3   1 1241.28   32.90
   0  -3  -1  168.68    5.90
   0  -3  -1  163.08    6.40
   0  -3  -1  162.38    5.20
   0  -3  -1  165.18    4.90
   0   3   1  165.38    6.10
  -1  -3  -1 1191.48   30.40
  -1  -3  -1 1197.88   30.20
  -1  -3  -1 1174.28   31.50
   1   3   1 1205.18   31.40
   1   3   1 1140.59   30.30
   1   3   1 1113.79   30.10
  -2  -3  -1   93.39    4.50
  -2  -3  -1   88.19    5.10
   2   3   1   92.49    3.70
   2   3   1   90.09    3.70
   2   3   1   94.59    5.60
   2   3   1   92.09    4.50
  -3  -3  -1  107.59    4.70
  -3  -3  -1  117.49    6.10
  -3  -3  -1  113.29    6.70
   3   3   1  116.29    5.80
   3   3   1  118.79    8.10
   3   3   1  112.89    4.90
  -4  -3  -1   -3.10    2.90
  -4  -3  -1    1.10    3.60
  -4  -3  -1   -1.40    1.90
   4   3   1   -0.40    2.50
   4   3   1    5.30    5.00
   4   3   1    1.30    2.30
  -5  -3  -1    5.40    4.90
  -5  -3  -1   15.20    3.10
   5   3   1   11.70    4.20
   5   3   1    5.20    3.10
  -6  -3  -1   10.80    3.80
   6   3   1   21.10    5.90
   6   3   1    7.50    4.60
  -7  -3  -1    9.00    9.40
  -7  -3  -1    6.50    5.10
   7   3   1    5.50    6.70
  -8  -3  -1   16.00   12.30
   8   3   1   15.90   10.90
   7  -4  -1    2.40    8.90
  -7   4   1    0.70   10.00
  -7   4   1    3.50   13.20
   6  -4  -1   18.10    6.90
  -6   4   1   23.70   10.60
  -6   4   1   15.10    7.20
   5  -4  -1   18.00    5.60
  -5   4   1   15.00    7.30
  -5   4   1   22.50    8.70
   4  -4  -1   19.50    4.50
  -4   4   1   12.10    4.30
  -4   4   1    9.40    4.50
  -4   4   1   12.70    5.90
  -4   4   1    7.30    7.30
   3  -4  -1   81.39    6.30
   3  -4  -1   93.29    6.10
  -3   4   1   87.19    8.40
  -3   4   1   68.99    6.10
  -3   4   1   80.79    9.50
  -3   4   1   95.89    6.20
   2  -4  -1  357.36   12.60
   2  -4  -1  361.46   11.80
  -2   4   1  361.36   14.30
  -2   4   1  350.86   12.60
  -2   4   1  366.06   12.00
  -2   4   1  350.86   13.70
   1  -4  -1    1.40    2.70
   1  -4  -1    2.00    1.80
   1  -4  -1    5.00    1.70
  -1   4   1    3.90    1.60
  -1   4   1    1.10    2.10
  -1   4   1    1.30    1.70
   0  -4  -1   58.19    4.20
   0  -4  -1   62.09    2.80
   0  -4  -1   61.39    3.20
   0   4   1   58.69    3.80
   0   4   1   61.59    3.70
  -1  -4  -1  431.06   14.00
  -1  -4  -1  455.65   13.00
  -1  -4  -1  479.25   13.30
   1   4   1  457.35   12.90
   1   4   1  439.06   13.90
  -2  -4  -1 1225.58   33.80
  -2  -4  -1 1088.19   35.20
   2   4   1 1234.38   31.60
   2   4   1 1234.18   31.60
   2   4   1 1250.87   32.60
   2   4   1 1237.98   34.20
  -3  -4  -1  147.19    8.00
  -3  -4  -1  142.99    7.00
   3   4   1  145.19    5.60
   3   4   1  136.59    5.50
   3   4   1  145.19    6.80
   3   4   1  150.48    8.90
  -4  -4  -1   29.30    3.30
  -4  -4  -1   24.10    4.50
  -4  -4  -1   21.30    4.10
   4   4   1   25.60    5.80
   4   4   1   20.90    3.70
   4   4   1   22.50    3.00
  -5  -4  -1    3.00    4.50
  -5  -4  -1   12.20    2.70
   5   4   1    7.90    4.00
   5   4   1   -0.40    2.80
  -6  -4  -1    8.00    3.50
   6   4   1    6.80    5.40
   6   4   1   -2.20    3.90
  -7  -4  -1    4.50    9.70
  -7  -4  -1    4.70    4.70
   7   4   1    1.30    7.30
  -8  -4  -1    5.40   12.00
   8   4   1    4.30   10.20
   7  -5  -1    9.10   10.70
   6  -5  -1    6.60    7.60
  -6   5   1  -14.00    7.60
  -6   5   1    3.70   10.40
   5  -5  -1   21.60    5.80
  -5   5   1    0.70    7.50
  -5   5   1    6.70    6.70
   4  -5  -1    8.20    4.10
  -4   5   1    5.70    4.70
  -4   5   1    0.60    6.10
  -4   5   1    1.80    8.20
  -4   5   1   -1.00    5.10
   3  -5  -1    7.30    3.70
   3  -5  -1    1.90    3.10
  -3   5   1    1.40    4.30
  -3   5   1    2.60    3.70
  -3   5   1   -4.20    5.30
  -3   5   1    1.40    3.50
   2  -5  -1   45.10    4.50
  -2   5   1   43.30    5.00
  -2   5   1   44.50    6.20
  -2   5   1   43.60    5.80
  -2   5   1   35.90    4.80
   1  -5  -1   62.49    5.00
   1  -5  -1   53.29    6.10
   1  -5  -1   53.99    4.10
  -1   5   1   60.19    4.10
  -1   5   1   55.49    4.50
  -1   5   1   58.29    5.00
   0  -5  -1  252.17   10.00
   0  -5  -1  237.78    8.50
   0  -5  -1  246.58    9.30
   0  -5  -1  256.17    8.00
   0   5   1  242.98    9.10
   0   5   1  247.78    9.20
  -1  -5  -1 3117.59   82.19
  -1  -5  -1 3240.88   80.79
  -1  -5  -1 3252.17   82.39
   1   5   1 3302.07   82.49
   1   5   1 3121.99   81.09
   1   5   1 3146.59   80.49
  -2  -5  -1   23.40    3.80
  -2  -5  -1   26.80    3.20
   2   5   1   18.70    2.50
   2   5   1   22.50    2.80
   2   5   1   27.20    3.10
   2   5   1   21.50    4.10
  -3  -5  -1  128.69    6.90
  -3  -5  -1  129.59    7.80
   3   5   1  122.19    8.60
   3   5   1  137.99    6.90
   3   5   1  139.69    5.60
  -4  -5  -1   15.50    4.80
  -4  -5  -1   21.60    4.00
   4   5   1    5.50    6.30
   4   5   1   17.90    3.10
   4   5   1   20.60    4.10
   4   5   1   17.70    2.80
  -5  -5  -1    5.20    5.00
   5   5   1   -0.10    2.50
   5   5   1    0.90    4.00
  -6  -5  -1   16.30    3.70
  -6  -5  -1   11.70    7.60
   6   5   1    6.80    5.30
   6   5   1   23.90    6.50
  -7  -5  -1   30.50   10.10
   7   5   1   18.30    8.00
   6  -6  -1   19.80    8.50
  -6   6   1   -3.80    9.30
  -6   6   1   -4.10   11.80
   5  -6  -1   21.90    7.70
  -5   6   1   22.80    7.60
   4  -6  -1  101.49    8.90
  -4   6   1  100.19   11.30
  -4   6   1   79.89   14.20
  -4   6   1   93.89   10.90
  -4   6   1   97.79   10.20
   3  -6  -1    8.20    3.90
  -3   6   1   12.60    5.50
  -3   6   1   10.10    4.50
  -3   6   1    6.80    5.70
  -3   6   1    4.00    3.90
   2  -6  -1  292.27   12.50
   2  -6  -1  308.47   11.50
  -2   6   1  280.77   13.00
  -2   6   1  318.87   14.00
  -2   6   1  321.77   12.90
  -2   6   1  313.17   11.80
   1  -6  -1  251.67    9.50
   1  -6  -1  261.87   12.70
   1  -6  -1  262.37   11.00
  -1   6   1  267.07   10.70
  -1   6   1  261.77   10.90
  -1   6   1  264.67    9.60
   0  -6  -1  180.38    8.90
   0  -6  -1  178.98    8.20
   0  -6  -1  179.98    7.50
   0  -6  -1  184.08    6.80
   0   6   1  177.28    8.00
   0   6   1  191.08    8.30
  -1  -6  -1   95.79    5.20
  -1  -6  -1   91.79    5.50
  -1  -6  -1   98.19    6.10
   1   6   1   96.09    5.40
   1   6   1   85.29    6.20
  -2  -6  -1  736.23   21.40
  -2  -6  -1  732.53   22.80
   2   6   1  750.82   23.40
   2   6   1  730.33   20.80
   2   6   1  718.93   21.10
  -3  -6  -1  112.69    7.80
  -3  -6  -1  111.19    6.70
   3   6   1   91.39    8.50
   3   6   1  110.29    6.40
   3   6   1  116.59    5.40
   3   6   1  110.29    5.30
  -4  -6  -1   10.80    4.70
  -4  -6  -1   11.60    4.10
   4   6   1   23.60    4.60
   4   6   1   10.90    2.60
   4   6   1   12.90    3.10
  -5  -6  -1  133.59   12.90
   5   6   1  154.98   10.00
   5   6   1  115.69    8.90
   5   6   1  133.59    6.80
  -6  -6  -1  104.59   12.60
   6   6   1   90.69   11.20
  -7  -6  -1    3.20    9.50
   7   6   1    1.30    8.10
   6  -7  -1   -4.30   10.40
  -6   7   1    4.10   15.10
  -6   7   1   12.70   11.70
  -5   7   1   -1.70    8.90
   4  -7  -1   58.59    7.50
  -4   7   1   44.80    9.40
   3  -7  -1    8.80    4.70
  -3   7   1    1.80    4.90
  -3   7   1   12.00    6.50
  -3   7   1    9.20    6.70
   2  -7  -1   15.20    3.90
  -2   7   1   13.10    4.70
  -2   7   1   11.40    4.00
  -2   7   1   19.00    5.80
  -2   7   1   12.70    4.90
   1  -7  -1   41.70    6.90
   1  -7  -1   37.10    4.90
   1  -7  -1   46.90    6.20
  -1   7   1   45.20    6.10
  -1   7   1   43.30    4.90
  -1   7   1   49.00    6.00
   0  -7  -1  141.69    7.20
   0  -7  -1  153.88    8.00
   0  -7  -1  148.99    6.50
   0  -7  -1  155.58    9.30
   0   7   1  157.68    8.20
   0   7   1  132.99    7.60
  -1  -7  -1   90.39    5.30
  -1  -7  -1   87.69    6.10
  -1  -7  -1   90.39    5.60
  -1  -7  -1   84.59    6.70
   1   7   1   91.69    6.80
   1   7   1   95.99    5.90
  -2  -7  -1  144.89    6.90
  -2  -7  -1  135.09    8.10
  -2  -7  -1  130.49    6.80
   2   7   1  137.89    8.80
   2   7   1  129.29    6.60
   2   7   1  137.19    6.40
  -3  -7  -1  205.68   10.80
  -3  -7  -1  197.78    9.40
   3   7   1  193.98    7.90
   3   7   1  218.78    9.30
   3   7   1  193.88   12.50
   3   7   1  201.78    8.00
  -4  -7  -1   -0.40    4.60
  -4  -7  -1    6.00    4.70
   4   7   1    5.00    3.30
   4   7   1    1.20    3.40
   4   7   1   -3.10    2.30
  -5  -7  -1   83.09   10.80
   5   7   1   88.69    9.20
   5   7   1   79.29    5.90
  -6  -7  -1    6.50    8.50
   6   7   1   -4.70    6.60
  -7  -7  -1   14.70   11.30
   7   7   1   19.50    9.20
   5  -8  -1    7.60    9.10
  -5   8   1   -2.70   10.20
  -5   8   1   -2.50   13.10
   4  -8  -1    6.80    6.50
  -4   8   1   13.70    8.70
  -4   8   1   13.60    9.60
   3  -8  -1   20.20    5.80
  -3   8   1    0.30    7.90
  -3   8   1   24.20    7.80
  -3   8   1    7.00    6.20
  -3   8   1    9.10    6.60
   2  -8  -1  374.16   14.20
  -2   8   1  376.86   17.80
  -2   8   1  334.87   15.70
  -2   8   1  367.36   14.10
   1  -8  -1   23.10    7.00
   1  -8  -1   10.90    3.90
   1  -8  -1   13.10    3.40
  -1   8   1    8.90    4.20
  -1   8   1   20.00    4.70
   0  -8  -1  561.04   18.10
   0  -8  -1  577.34   17.40
   0  -8  -1  602.04   21.40
   0  -8  -1  543.95   19.30
   0   8   1  553.24   19.00
   0   8   1  581.44   19.60
  -1  -8  -1   29.00    5.40
  -1  -8  -1   37.20    4.90
  -1  -8  -1   28.70    4.30
  -1  -8  -1   33.60    4.90
   1   8   1   31.00    4.50
   1   8   1   32.50    5.30
  -2  -8  -1    7.30    4.30
  -2  -8  -1   10.90    3.70
  -2  -8  -1    9.50    3.60
  -2  -8  -1   16.90    3.80
   2   8   1   13.60    3.50
   2   8   1   17.60    5.40
  -3  -8  -1  137.89    9.50
  -3  -8  -1  123.59    8.50
   3   8   1  136.79    7.70
   3   8   1  119.59    7.20
   3   8   1  132.09    7.00
  -4  -8  -1  141.79   11.30
   4   8   1  148.89    7.20
   4   8   1  149.39    9.40
  -5  -8  -1   16.70    7.70
   5   8   1   11.80    5.90
  -6  -8  -1   25.60    9.40
   6   8   1   -1.00    6.60
   7   8   1   10.00    9.20
  -4   9   1    8.60   14.00
  -4   9   1    6.50    9.50
   3  -9  -1   12.90    6.50
  -3   9   1    2.90    8.80
  -3   9   1    2.70    7.50
   2  -9  -1   -2.00    4.80
  -2   9   1   10.30    7.00
  -2   9   1   16.90    6.50
  -2   9   1   13.60    5.40
  -2   9   1   -1.50    7.20
   1  -9  -1   19.30    4.30
   1  -9  -1   27.90    8.30
   1  -9  -1   22.10    4.80
  -1   9   1   17.90    5.60
   0  -9  -1  217.38    9.80
   0  -9  -1  251.37   14.90
   0  -9  -1  223.48   10.50
   0   9   1  206.08   11.70
   0   9   1  229.18   11.80
  -1  -9  -1    8.90    5.10
  -1  -9  -1    7.00    3.80
  -1  -9  -1    5.10    4.40
  -1  -9  -1    6.90    5.90
   1   9   1    5.70    5.50
   1   9   1    2.30    3.90
  -2  -9  -1   27.10    5.90
  -2  -9  -1   14.40    4.50
  -2  -9  -1   27.80    4.80
  -2  -9  -1   27.30    5.10
   2   9   1    9.60    6.70
   2   9   1   17.10    4.10
  -3  -9  -1   19.20    5.80
  -3  -9  -1   19.60    5.50
   3   9   1    6.70    4.40
   3   9   1    4.40    3.60
   3   9   1    4.10    3.70
  -4  -9  -1    9.80    6.80
   4   9   1    5.60    3.40
   4   9   1   -0.70    4.50
  -5  -9  -1    1.40    8.20
   5   9   1    6.50    6.00
  -6  -9  -1   -5.10    9.70
   6   9   1  -13.10    8.10
   3 -10  -1    0.90    7.10
  -3  10   1   13.50   11.10
  -3  10   1    7.80    9.50
   2 -10  -1   11.50    6.40
  -2  10   1   10.40    9.30
  -2  10   1   24.50    7.70
   1 -10  -1   -0.50    5.20
   1 -10  -1  -16.00    9.90
  -1  10   1   -3.00    5.80
  -1  10   1    7.30    6.80
   0 -10  -1   -0.10    8.30
   0 -10  -1    9.30    5.10
   0 -10  -1    7.60    5.00
   0  10   1   17.00    7.30
  -1 -10  -1   -2.40    4.70
  -1 -10  -1    4.40    7.00
  -1 -10  -1   -1.70    5.10
   1  10   1   11.00    8.10
   1  10   1   -5.30    4.60
  -2 -10  -1   14.10    5.40
  -2 -10  -1   19.40    7.30
  -2 -10  -1   10.70    5.50
  -2 -10  -1   34.00    7.10
   2  10   1   22.00    5.40
  -3 -10  -1   10.60    7.80
  -3 -10  -1    1.80    5.90
  -3 -10  -1    0.10   12.20
   3  10   1    1.70    4.30
  -4 -10  -1    6.40    8.30
   4  10   1    3.20    5.40
  -5 -10  -1   18.00    9.90
   5  10   1    0.00    6.50
  -2  11   1    9.00   14.00
  -2  11   1   12.20    8.90
  -1  11   1   10.30    8.00
  -1  11   1   10.30   10.10
   0 -11  -1   63.09   12.30
   0 -11  -1   53.59    7.40
   0  11   1   31.20    7.50
  -1 -11  -1   -0.10    6.20
  -1 -11  -1   11.70    9.50
   1  11   1   -6.30    6.00
  -2 -11  -1   -1.20    6.50
   2  11   1   -0.30    5.60
  -3 -11  -1    3.20    8.80
  -3 -11  -1   16.00    7.10
   3  11   1   15.50    6.10
  -4 -11  -1   71.19   12.60
  -4 -11  -1   56.09   11.90
  -1  12   1   19.70   10.90
   0 -12  -1   28.70   18.80
   0  12   1   19.80    9.70
  -1 -12  -1   17.80   13.00
   1  12   1    0.70    8.40
  -2 -12  -1    9.00   11.40
   2  12   1  -14.00    7.70
  -3 -12  -1  -14.30   11.00
  -2 -12   2    4.60   12.10
   1  12  -2   20.20   11.50
  -1 -12   2    3.80   11.90
   0  12  -2    2.90   11.30
  -4 -11   2   14.30   11.30
  -4 -11   2    1.60    9.60
  -3 -11   2    5.50    8.70
  -3 -11   2    7.70    9.40
   2  11  -2   11.10    7.60
  -2 -11   2   -0.20    8.60
   1  11  -2    2.80    7.50
  -1 -11   2   -1.80    9.90
   0  11  -2   33.00    9.40
   0 -11   2   18.50    9.10
  -1  11  -2   -1.10    9.20
  -2  11  -2  -15.50   10.40
   2 -11   2   13.70   10.60
   5  10  -2   92.79   12.60
  -5 -10   2   55.09   11.50
  -4 -10   2   -1.90    7.40
  -3 -10   2    3.40    6.60
   2  10  -2    1.10    5.30
  -2 -10   2    7.60    6.40
  -2 -10   2   -2.70    6.20
   1  10  -2   59.49    7.60
  -1 -10   2   68.79    9.60
  -1 -10   2   55.69    8.60
   0  10  -2   -4.90    9.20
   0 -10   2    8.30    7.70
   0 -10   2    1.10    6.70
  -1  10  -2   17.30    7.80
   1 -10   2    6.60    7.10
  -2  10  -2    3.50    8.90
   2 -10   2   -3.50    8.10
  -3  10  -2   39.90   11.30
   3 -10   2   -5.50    9.60
   6   9  -2   -5.30    9.00
  -6  -9   2   -8.10   10.60
   5   9  -2   -4.20    6.20
  -5  -9   2    5.70    8.60
   4   9  -2   12.60    5.50
  -4  -9   2    4.40    7.80
   3   9  -2   -1.20    9.60
   3   9  -2    8.10    3.80
  -3  -9   2    2.10    6.20
  -3  -9   2    6.60    5.30
   2   9  -2   89.59   17.90
   2   9  -2  100.79    7.80
  -2  -9   2  100.59    9.20
  -2  -9   2   97.69    9.50
  -2  -9   2  105.09    7.80
   1   9  -2   36.50    5.60
   1   9  -2   26.30    6.20
  -1  -9   2   36.50    7.50
  -1  -9   2   31.40    6.10
  -1  -9   2   28.80    6.20
  -1  -9   2   12.50    5.10
   0   9  -2   -7.20    4.70
   0   9  -2    0.30    4.60
   0  -9   2    3.20    5.90
   0  -9   2   -7.80    5.60
   0  -9   2    3.10    5.10
  -1   9  -2   36.20    7.00
  -1   9  -2   28.10   10.70
  -1   9  -2   31.10    5.20
   1  -9   2   47.00    6.90
  -2   9  -2   34.50    7.80
  -2   9  -2   35.30    7.20
   2  -9   2   55.39    8.00
  -3   9  -2    1.00    9.00
  -4   9  -2   -2.40   10.60
   4  -9   2   -1.60    9.40
   6   8  -2   37.20    9.30
  -6  -8   2   39.10   11.00
   5   8  -2   -3.00    5.80
  -5  -8   2    7.30    7.50
  -4  -8   2   73.39    9.60
   3   8  -2   74.69   10.00
   3   8  -2   66.89    5.20
   3   8  -2   85.09    7.50
  -3  -8   2   84.79    8.40
   2   8  -2  140.89   11.30
   2   8  -2  129.79    7.50
  -2  -8   2  139.49    7.30
  -2  -8   2  130.39    8.40
  -2  -8   2  156.28    9.70
  -2  -8   2  124.29    9.10
   1   8  -2    4.80    4.00
   1   8  -2   -1.20    3.30
  -1  -8   2    3.80    3.70
  -1  -8   2    0.20    3.70
  -1  -8   2    6.00    3.90
  -1  -8   2    6.10    3.90
   0   8  -2   12.30    4.50
   0   8  -2   16.10    4.10
   0  -8   2    8.20    4.80
   0  -8   2   16.60    5.00
   0  -8   2   15.70    4.20
   0  -8   2    7.00    4.80
  -1   8  -2   60.59    7.40
  -1   8  -2   60.49    6.30
  -1   8  -2   53.79    6.40
   1  -8   2   61.19    6.90
   1  -8   2   61.09    8.20
  -2   8  -2   -2.40    5.50
  -2   8  -2    8.40    5.50
  -2   8  -2   13.40    4.60
   2  -8   2    3.40    5.10
  -3   8  -2    7.50    6.70
  -3   8  -2   23.10    7.10
   3  -8   2   23.20    6.40
  -4   8  -2  -12.20    8.40
  -4   8  -2   -9.90    8.80
   4  -8   2   -3.40    7.50
  -5   8  -2    9.30   11.50
   5  -8   2    2.00   10.20
   7   7  -2   -3.20    9.10
  -7  -7   2   16.70   12.50
   6   7  -2    8.40    7.50
  -6  -7   2   21.10    9.30
   5   7  -2   -0.10    5.20
  -5  -7   2    3.20    6.60
   4   7  -2   13.00    4.40
  -4  -7   2   10.80    5.90
   3   7  -2    4.00    2.10
   3   7  -2    1.00    3.00
   3   7  -2    3.90    6.10
   3   7  -2    5.40    1.90
  -3  -7   2    8.60    4.60
  -3  -7   2    7.50    4.10
   2   7  -2   22.60    5.40
   2   7  -2   26.40    3.60
  -2  -7   2   30.70    4.70
  -2  -7   2   32.60    4.50
  -2  -7   2   28.00    4.50
  -2  -7   2   27.80    3.60
   1   7  -2    0.30    3.10
   1   7  -2    0.50    2.70
  -1  -7   2   -1.10    2.80
  -1  -7   2    0.80    3.10
  -1  -7   2    6.50    3.30
  -1  -7   2    1.00    2.70
   0   7  -2   44.70    5.70
   0   7  -2   62.69    6.10
   0  -7   2   37.60    5.10
   0  -7   2   46.10    5.80
   0  -7   2   60.89    5.70
   0  -7   2   47.40    5.30
  -1   7  -2  221.88   10.10
  -1   7  -2  218.28    8.70
  -1   7  -2  233.88   11.40
  -1   7  -2  215.58   10.30
   1  -7   2  236.18   11.20
   1  -7   2  198.68   10.60
  -2   7  -2  539.05   17.60
  -2   7  -2  525.15   19.50
  -2   7  -2  585.84   21.00
  -2   7  -2  562.54   19.10
   2  -7   2  550.24   19.80
  -3   7  -2    1.60    5.40
  -3   7  -2    5.30    5.70
   3  -7   2    2.80    4.80
  -4   7  -2   -6.40    7.00
  -4   7  -2    3.30    6.70
   4  -7   2    9.60    7.40
  -5   7  -2   -1.60    9.80
  -5   7  -2   -8.60    8.90
   5  -7   2   31.50    9.40
   7   6  -2    7.50    8.50
  -7  -6   2   -1.40   11.20
   6   6  -2   16.30    6.70
  -6  -6   2   25.50    8.60
   5   6  -2  374.96   16.40
   4   6  -2   63.29    9.90
   4   6  -2   67.09    7.00
  -4  -6   2   92.79    8.80
   3   6  -2  106.09   10.20
   3   6  -2  128.59    7.40
  -3  -6   2  119.09    7.90
  -3  -6   2  112.09    7.90
   2   6  -2   17.30    2.90
   2   6  -2   30.00    4.90
  -2  -6   2   22.60    2.60
  -2  -6   2   19.10    3.40
  -2  -6   2   19.90    3.40
   1   6  -2  777.32   22.00
  -1  -6   2  746.13   23.10
  -1  -6   2  762.72   21.90
  -1  -6   2  754.62   21.70
  -1  -6   2  751.92   22.60
   0   6  -2  135.49    6.30
   0   6  -2  143.29    7.40
   0  -6   2  154.08    8.10
   0  -6   2  136.79    6.90
   0  -6   2  137.99    7.00
   0  -6   2  117.39    8.80
  -1   6  -2   -3.50    2.80
  -1   6  -2   -1.10    2.90
  -1   6  -2    0.60    2.00
   1  -6   2   -1.10    3.30
   1  -6   2    1.80    2.90
  -2   6  -2   -0.50    3.70
  -2   6  -2   10.20    4.30
  -2   6  -2    9.70    4.00
  -2   6  -2    6.40    5.80
   2  -6   2    6.30    4.00
   2  -6   2   10.40    4.30
  -3   6  -2    0.50    4.30
  -3   6  -2   -3.40    5.40
  -3   6  -2   -0.60    4.60
   3  -6   2    3.40    4.50
  -4   6  -2   10.20    6.10
  -4   6  -2   26.70   12.80
   4  -6   2   16.50    6.30
  -5   6  -2    4.10    8.40
  -5   6  -2   20.70    8.70
   5  -6   2   28.50    8.10
  -6   6  -2   -9.40   10.60
   6  -6   2   -0.10    9.40
   7   5  -2   27.40    8.60
  -7  -5   2  -10.10   10.10
   6   5  -2    3.20    6.10
  -6  -5   2    2.00    7.60
   5   5  -2    2.80    4.80
  -5  -5   2    3.10    5.50
   4   5  -2   95.49    7.20
   4   5  -2   74.89   10.70
  -4  -5   2   77.09    8.00
  -4  -5   2   93.59    8.30
   3   5  -2  126.59    7.30
   3   5  -2  149.59    9.70
  -3  -5   2  137.79    7.50
  -3  -5   2  125.79    7.90
   2   5  -2   23.00    4.10
   2   5  -2   21.00    3.10
   2   5  -2   18.50    2.10
  -2  -5   2   16.30    3.20
  -2  -5   2   17.90    2.20
  -2  -5   2   22.60    3.40
   1   5  -2  630.34   18.70
   1   5  -2  656.53   18.30
  -1  -5   2  631.74   18.20
  -1  -5   2  626.54   19.10
  -1  -5   2  618.74   19.30
  -1  -5   2  639.54   18.00
   0   5  -2  364.76   12.60
   0   5  -2  377.46   11.50
   0  -5   2  387.06   12.00
   0  -5   2  391.66   12.40
   0  -5   2  380.26   13.30
   0  -5   2  392.86   12.60
  -1   5  -2   16.60    3.40
  -1   5  -2   14.00    3.20
  -1   5  -2   15.20    2.30
  -1   5  -2   11.90    3.00
   1  -5   2   13.00    3.40
   1  -5   2   16.50    3.60
  -2   5  -2    7.90    3.30
  -2   5  -2    9.30    3.40
  -2   5  -2   14.20    3.70
  -2   5  -2    4.00    3.40
   2  -5   2   10.40    3.70
   2  -5   2    9.60    3.70
  -3   5  -2   23.80    4.80
  -3   5  -2   28.50    6.10
  -3   5  -2   32.00    5.00
  -3   5  -2   18.90    5.40
   3  -5   2   27.80    5.30
  -4   5  -2    2.90    5.70
  -4   5  -2   16.30    8.60
   4  -5   2    0.70    4.50
  -5   5  -2    9.60    7.30
  -5   5  -2    5.70    7.40
  -6   5  -2   13.80    9.70
   6  -5   2    5.30    8.70
   7   4  -2    1.80    7.40
  -7  -4   2   -7.20    9.90
   6   4  -2    7.00    5.30
  -6  -4   2   -5.40    7.30
   5   4  -2   16.40    4.50
  -5  -4   2   16.20    5.50
   4   4  -2    4.80    3.00
   4   4  -2    2.00    5.70
  -4  -4   2    3.80    3.70
  -4  -4   2   -1.40    3.80
   3   4  -2    9.80    2.70
   3   4  -2   12.50    4.40
  -3  -4   2   13.10    3.40
  -3  -4   2   13.50    3.50
   2   4  -2   94.89    5.30
   2   4  -2   96.49    3.30
   2   4  -2  104.19    6.50
  -2  -4   2  105.69    5.70
  -2  -4   2   95.09    3.20
  -2  -4   2   99.19    5.70
   1   4  -2 2736.63   71.69
   1   4  -2 2862.91   70.89
   1   4  -2 2872.91   71.69
  -1  -4   2 2848.22   72.09
  -1  -4   2 2792.02   70.59
  -1  -4   2 2728.23   71.19
   0   4  -2 1289.67   33.20
   0   4  -2 1281.87   34.50
   0  -4   2 1308.07   34.40
   0  -4   2 1289.17   35.20
   0  -4   2 1285.97   33.40
  -1   4  -2   27.00    2.70
  -1   4  -2   33.20    3.90
  -1   4  -2   32.30    4.10
  -1   4  -2   31.30    3.30
   1  -4   2   30.30    3.80
   1  -4   2   27.50    3.50
  -2   4  -2   59.49    5.50
  -2   4  -2   67.99    5.70
  -2   4  -2   68.49    5.60
  -2   4  -2   65.59    6.00
   2  -4   2   77.79    5.80
   2  -4   2   70.69    5.80
  -3   4  -2   44.20    5.80
  -3   4  -2   47.90    6.30
  -3   4  -2   56.49    6.50
   3  -4   2   53.89    5.90
   3  -4   2   57.99    6.30
  -4   4  -2    8.50    4.50
  -4   4  -2   12.20    5.30
   4  -4   2    8.60    4.70
   4  -4   2   13.80    5.50
  -5   4  -2    7.20    5.70
  -5   4  -2   -5.90    6.10
   5  -4   2    4.10    5.40
   5  -4   2   -0.10    8.40
  -6   4  -2   -5.00    7.30
  -6   4  -2   -0.60    9.00
   6  -4   2   -8.10    7.40
  -7   4  -2   -8.70   10.90
  -7   4  -2    7.70   13.90
   7  -4   2    1.30    9.80
   8   3  -2    3.30    9.80
  -8  -3   2   29.60   14.10
   7   3  -2    1.40    7.10
  -7  -3   2    3.80    9.40
   6   3  -2   29.40    3.70
  -6  -3   2   47.90    8.10
  -6  -3   2   30.90    3.70
   5   3  -2  252.97   12.30
   5   3  -2  236.58    7.70
  -5  -3   2  245.48    8.00
  -5  -3   2  251.67   13.80
   4   3  -2   25.50    4.00
   4   3  -2   20.50    5.80
  -4  -3   2   21.70    1.70
  -4  -3   2   24.50    4.80
  -4  -3   2   17.60    3.90
   3   3  -2    5.20    2.20
   3   3  -2    1.40    3.70
  -3  -3   2    0.60    2.40
  -3  -3   2    3.10    2.70
   2   3  -2   64.19    6.10
   2   3  -2   64.79    4.20
  -2  -3   2   72.99    4.70
  -2  -3   2   73.69    4.60
   1   3  -2    1.60    1.00
   1   3  -2    3.80    1.30
   1   3  -2    1.60    1.60
  -1  -3   2    1.40    1.30
  -1  -3   2    0.70    0.90
   0   3  -2   61.89    3.80
   0   3  -2   62.29    2.50
   0  -3   2   61.49    3.80
   0  -3   2   63.99    2.50
   0  -3   2   64.49    3.50
  -1   3  -2  471.75   13.50
  -1   3  -2  471.55   13.50
  -1   3  -2  492.55   15.00
  -1   3  -2  466.05   14.70
   1  -3   2  478.55   14.90
   1  -3   2  502.25   14.70
  -2   3  -2   57.49    4.60
  -2   3  -2   56.09    5.00
   2  -3   2   54.89    4.30
   2  -3   2   58.39    4.60
   2  -3   2   55.59    4.70
  -3   3  -2   11.20    3.60
  -3   3  -2   13.30    4.10
  -3   3  -2   17.40    3.50
   3  -3   2   16.50    4.40
   3  -3   2   22.00    4.10
   3  -3   2   14.70    3.90
  -4   3  -2   10.80    5.10
  -4   3  -2    7.10    4.60
  -4   3  -2   13.30    4.20
   4  -3   2   18.20    5.60
   4  -3   2    4.50    4.80
   4  -3   2   11.60    4.30
  -5   3  -2   -2.30    6.00
  -5   3  -2    9.80    5.30
   5  -3   2    3.80    5.00
   5  -3   2    6.10    8.00
  -6   3  -2   -3.20    6.80
  -6   3  -2    3.70    9.10
   6  -3   2    6.40    6.50
  -7   3  -2   18.70   11.40
  -7   3  -2    9.50   10.20
   7  -3   2    9.40    8.80
   8   2  -2   -1.30    8.80
  -8  -2   2    1.60   12.30
   7   2  -2   -1.10    6.60
  -7  -2   2    2.00    4.70
  -7  -2   2    5.10    9.70
   6   2  -2   70.49    6.40
  -6  -2   2   74.19    6.20
   5   2  -2  106.99    7.80
  -5  -2   2   95.39    5.50
  -5  -2   2   96.29    9.60
   4   2  -2  185.68    6.20
   4   2  -2  182.28    8.80
   4   2  -2  173.88   11.90
  -4  -2   2  183.28    9.00
  -4  -2   2  192.48   10.50
  -4  -2   2  177.98    6.60
   3   2  -2 1197.58   34.50
   3   2  -2 1138.59   29.10
   3   2  -2 1157.98   32.40
  -3  -2   2 1117.49   33.50
  -3  -2   2 1144.29   29.20
  -3  -2   2 1166.48   32.30
   2   2  -2  644.34   21.40
   2   2  -2  660.73   19.10
  -2  -2   2  648.74   19.70
  -2  -2   2  671.23   19.10
   1   2  -2    8.40    1.70
   1   2  -2    7.40    1.40
   1   2  -2    9.00    1.00
  -1  -2   2    7.70    1.00
  -1  -2   2   10.10    1.60
  -1  -2   2    9.20    1.50
   0   2  -2  186.08    6.30
   0   2  -2  165.08    4.80
   0   2  -2  180.08    6.00
   0  -2   2  176.48    4.70
   0  -2   2  170.58    6.50
   0  -2   2  184.68    5.90
  -1   2  -2  544.25   16.00
  -1   2  -2  524.75   14.50
  -1   2  -2  546.05   15.70
   1  -2   2  531.15   14.50
   1  -2   2  522.25   15.80
   1  -2   2  544.85   15.60
  -2   2  -2  454.65   14.60
  -2   2  -2  465.05   14.80
  -2   2  -2  454.05   15.60
   2  -2   2  462.75   14.50
   2  -2   2  445.16   14.50
   2  -2   2  475.95   14.60
  -3   2  -2  278.87   10.80
  -3   2  -2  290.87   11.30
  -3   2  -2  250.37   10.90
   3  -2   2  289.97   10.90
   3  -2   2  281.37   11.70
   3  -2   2  254.77   10.50
  -4   2  -2   18.90    4.00
  -4   2  -2   20.80    4.90
  -4   2  -2   25.70    5.10
   4  -2   2   24.30    4.70
   4  -2   2   28.40    5.30
   4  -2   2   20.80    4.20
  -5   2  -2   -0.40    4.40
  -5   2  -2    8.50    5.70
   5  -2   2    9.20    4.60
   5  -2   2   11.10    7.20
  -6   2  -2   -4.90   13.20
  -6   2  -2   26.30    7.00
   6  -2   2   18.60    6.30
  -7   2  -2   96.59   14.00
  -7   2  -2   80.79   11.00
   7  -2   2   95.09   11.50
   8   1  -2   -8.20   10.10
  -8  -1   2   21.20   12.90
   7   1  -2    0.60    7.20
  -7  -1   2    1.50    8.90
  -7  -1   2   -0.50    5.60
   6   1  -2   16.90    4.70
  -6  -1   2   34.50    5.20
   5   1  -2   31.90    5.10
   5   1  -2   25.30    3.60
  -5  -1   2   20.40    6.00
  -5  -1   2   26.20    3.70
   4   1  -2  288.17   14.40
   4   1  -2  311.97   12.00
   4   1  -2  311.67    9.90
  -4  -1   2  307.47   10.00
  -4  -1   2  288.47   13.60
  -4  -1   2  300.27   12.00
   3   1  -2 3105.69   81.99
   3   1  -2 3092.49   79.79
   3   1  -2 3005.00   77.39
  -3  -1   2 3101.49   79.59
  -3  -1   2 3164.88   81.69
  -3  -1   2 3087.19   77.59
   2   1  -2  266.17    9.00
   2   1  -2  267.07    7.30
   2   1  -2  264.37   10.20
  -2  -1   2  257.17    7.30
  -2  -1   2  255.27    9.90
   1   1  -2 2187.78   55.79
   1   1  -2 2254.57   56.29
  -1  -1   2 2243.38   56.19
  -1  -1   2 2145.49   54.49
  -1  -1   2 2158.38   55.79
   0   1  -2  465.65   12.90
   0  -1   2  443.56   11.80
   0  -1   2  477.65   12.50
   0  -1   2  451.65   11.90
   0  -1   2  465.45   13.00
  -2   1  -2  221.48    8.10
  -2   1  -2  220.48    8.20
   2  -1   2  222.68    8.50
   2  -1   2  213.88    8.10
   2  -1   2  215.88    8.10
  -3   1  -2   66.29    5.70
  -3   1  -2   71.89    5.40
  -3   1  -2   63.69    4.80
   3  -1   2   60.99    4.80
   3  -1   2   69.39    4.80
   3  -1   2   69.19    6.40
  -4   1  -2   -1.20    3.60
  -4   1  -2   -0.50    2.70
  -4   1  -2   10.20    4.20
   4  -1   2    3.50    4.60
   4  -1   2   -0.40    2.80
   4  -1   2   -1.30    2.90
  -5   1  -2  187.48   12.50
  -5   1  -2  179.58   10.40
   5  -1   2  162.48   10.20
   5  -1   2  198.38   10.60
   5  -1   2  182.88   13.20
  -6   1  -2  230.08   13.30
  -7   1  -2   20.10    8.10
  -7   1  -2   23.80   10.90
   7  -1   2   25.30    8.20
   8   0  -2   -3.30   10.00
  -8   0   2  -15.70   12.60
   7   0  -2   10.40    7.40
  -7   0   2    6.90    6.10
  -7   0   2    6.40    9.70
   6   0  -2    2.60    4.50
  -6   0   2   -0.40    4.20
   5   0  -2    4.30    3.40
   5   0  -2   -2.00    3.00
  -5   0   2   -0.50    3.00
  -5   0   2    3.40    4.40
   4   0  -2  428.16   13.50
   4   0  -2  421.96   17.90
   4   0  -2  464.95   15.30
  -4   0   2  413.76   17.20
  -4   0   2  425.46   13.70
  -4   0   2  399.16   14.80
   3   0  -2 1023.70   27.30
   3   0  -2 1060.69   31.30
   3   0  -2  981.40   28.50
  -3   0   2 1039.00   30.80
  -3   0   2 1018.50   28.60
  -3   0   2 1004.10   27.40
   2   0  -2  187.48    9.70
   2   0  -2  205.98    6.50
   2   0  -2  206.18    7.30
  -2   0   2  209.28    6.50
  -2   0   2  215.48    7.30
  -2   0   2  200.08    8.70
   1   0  -2 2083.89   51.59
   1   0  -2 1953.60   49.90
   1   0  -2 1948.51   50.49
  -1   0   2 1962.30   49.90
  -1   0   2 1962.70   50.39
  -1   0   2 2064.09   51.59
   0   0  -2  279.57    8.00
   0   0  -2  284.27    8.30
   0   0  -2  290.37    8.10
   0   0   2  290.97    8.00
   0   0   2  291.27    8.10
   0   0   2  287.57    8.10
  -2   0  -2  155.08    6.50
  -2   0  -2  158.28    6.20
  -2   0  -2  149.59    7.20
   2   0   2  154.98    6.30
   2   0   2  156.68    6.80
   2   0   2  151.18    6.10
  -3   0  -2    0.90    1.90
  -3   0  -2    0.10    2.10
  -3   0  -2   -0.40    2.30
   3   0   2    2.70    1.80
   3   0   2    1.90    2.10
   3   0   2    2.00    3.00
  -4   0  -2    2.00    3.40
  -4   0  -2    2.60    3.50
  -4   0  -2    6.90    3.10
   4   0   2    1.90    4.50
   4   0   2    2.00    2.60
   4   0   2    2.60    2.70
  -5   0  -2   27.60    4.80
  -5   0  -2   39.90    6.60
   5   0   2   43.10    6.30
   5   0   2   36.90    8.30
   5   0   2   30.90    4.90
  -6   0  -2   80.89   12.30
  -6   0  -2   69.39    8.70
  -7   0  -2   19.80    7.20
  -7   0  -2   16.30   10.20
   7   0   2   16.50    7.80
  -8   0  -2    6.60   13.30
  -8   0  -2   -4.70    8.80
   8   0   2    9.00   10.60
   7  -1  -2    6.80    7.20
  -7   1   2   -6.50   12.50
   6  -1  -2   -2.20    6.00
  -6   1   2    2.20    4.40
   5  -1  -2   60.59    6.30
   5  -1  -2   53.99    6.80
  -5   1   2   54.79    8.10
  -5   1   2   51.89    6.10
   4  -1  -2    3.20    2.50
   4  -1  -2   -2.80    4.40
   4  -1  -2    2.80    2.80
  -4   1   2    1.60    2.30
  -4   1   2    1.70    3.50
  -4   1   2    3.50    3.20
   3  -1  -2 1581.64   43.20
   3  -1  -2 1630.24   45.90
   3  -1  -2 1646.04   42.60
  -3   1   2 1625.94   45.80
  -3   1   2 1578.34   43.20
  -3   1   2 1628.04   42.70
   2  -1  -2  697.33   19.00
   2  -1  -2  708.63   19.30
   2  -1  -2  663.83   22.50
  -2   1   2  676.63   19.20
  -2   1   2  678.53   21.10
  -2   1   2  701.33   19.10
   1  -1  -2 1735.03   44.40
   1  -1  -2 1726.73   44.10
  -1   1   2 1721.13   44.10
  -1   1   2 1709.73   44.40
  -1   1   2 1819.92   46.60
  -1   1   2 1778.02   45.80
   0  -1  -2  149.88    5.40
   0   1   2  149.99    4.90
   0   1   2  156.48    5.30
   0   1   2  150.68    4.30
   0   1   2  154.18    4.90
  -2  -1  -2  250.17    8.70
  -2  -1  -2  261.27    9.30
   2   1   2  264.07    9.50
   2   1   2  264.37    8.50
   2   1   2  248.28    8.60
  -3  -1  -2    3.10    1.80
  -3  -1  -2    0.50    2.10
  -3  -1  -2   -0.80    2.00
   3   1   2    2.30    2.90
   3   1   2    2.40    2.00
   3   1   2    3.50    1.80
  -4  -1  -2  201.28    9.70
  -4  -1  -2  215.48   10.70
  -4  -1  -2  207.68    8.80
   4   1   2  208.68   11.90
   4   1   2  214.78    9.00
   4   1   2  214.68    9.50
  -5  -1  -2   90.89    7.00
  -5  -1  -2   91.99    9.60
   5   1   2   88.89    7.00
   5   1   2  119.79   14.30
   5   1   2  116.49    7.90
  -6  -1  -2    1.10    6.30
  -6  -1  -2    0.10    4.70
   6   1   2   -3.10    5.30
  -7  -1  -2   -2.10    9.60
  -7  -1  -2   11.70    6.40
   7   1   2    7.30    7.40
  -8  -1  -2  -14.90   12.50
  -8  -1  -2    8.60    8.80
   8   1   2   -5.90    9.00
   7  -2  -2   36.80    8.90
  -7   2   2   25.50    8.20
  -7   2   2   24.70   12.00
  -6   2   2  134.99   10.40
   5  -2  -2   38.40    6.00
   5  -2  -2   47.20    5.90
  -5   2   2   34.10    8.00
  -5   2   2   36.40    5.50
   4  -2  -2   47.80    5.60
   4  -2  -2   54.69    5.40
   4  -2  -2   53.69    7.30
  -4   2   2   60.29    5.50
  -4   2   2   44.70    5.80
  -4   2   2   64.89    8.30
   3  -2  -2   -1.70    3.90
   3  -2  -2   -0.10    2.00
   3  -2  -2    2.90    2.20
  -3   2   2   -0.60    2.30
  -3   2   2    2.00    2.10
  -3   2   2    2.70    3.40
   2  -2  -2  261.87   10.50
   2  -2  -2  264.07    9.00
   2  -2  -2  265.27    8.70
  -2   2   2  263.07    8.80
  -2   2   2  255.77    9.00
  -2   2   2  269.87   10.80
   1  -2  -2 3747.92   92.79
   1  -2  -2 3607.14   91.69
   1  -2  -2 3638.14   96.69
  -1   2   2 3606.34   92.69
  -1   2   2 3860.71   94.59
  -1   2   2 3686.23   91.79
   0  -2  -2 1060.89   29.10
   0  -2  -2 1110.49   28.40
   0   2   2 1063.99   28.30
   0   2   2 1114.49   28.90
  -1  -2  -2   20.40    1.70
  -1  -2  -2   19.50    1.90
  -1  -2  -2   14.80    2.30
   1   2   2   19.50    1.40
   1   2   2   22.50    2.40
   1   2   2   19.70    1.80
  -2  -2  -2 3276.57   80.69
  -2  -2  -2 3180.48   80.39
  -2  -2  -2 3123.09   81.69
   2   2   2 3156.58   80.59
   2   2   2 3199.18   82.19
   2   2   2 3183.98   80.29
  -3  -2  -2  195.48    7.10
  -3  -2  -2  179.38    8.60
  -3  -2  -2  192.38    8.00
   3   2   2  185.38    9.40
   3   2   2  179.58    7.60
  -4  -2  -2   29.80    3.70
  -4  -2  -2   29.50    4.30
  -4  -2  -2   22.80    4.50
   4   2   2   39.40    6.50
   4   2   2   26.30    3.60
   4   2   2   28.80    4.30
  -5  -2  -2   37.60    6.80
  -5  -2  -2   26.70    4.50
   5   2   2   20.00    3.80
   5   2   2   33.80    5.60
  -6  -2  -2   52.19    6.20
   6   2   2   43.20    6.00
   6   2   2   49.40    7.60
  -7  -2  -2   11.20    9.10
  -7  -2  -2   31.00    6.70
   7   2   2   20.30    7.50
  -8  -2  -2   -2.00    8.60
  -8  -2  -2   10.90   12.40
   8   2   2   -4.00    9.40
   7  -3  -2   -5.30    8.00
  -7   3   2    0.50    8.70
  -7   3   2    9.90   12.30
  -6   3   2    7.60    9.70
  -6   3   2    1.70    5.80
   5  -3  -2  259.87   12.50
  -5   3   2  229.98   15.40
  -5   3   2  230.48   12.10
   4  -3  -2   14.40    3.90
   4  -3  -2   12.80    5.90
   4  -3  -2   20.00    4.50
  -4   3   2   24.20    6.60
  -4   3   2   21.00    4.20
  -4   3   2   24.00    4.40
   3  -3  -2  566.94   17.50
   3  -3  -2  561.44   17.90
  -3   3   2  569.84   18.10
  -3   3   2  572.14   17.70
  -3   3   2  548.25   21.60
  -3   3   2  564.94   20.50
   2  -3  -2 1413.16   36.40
   2  -3  -2 1406.46   37.30
  -2   3   2 1398.16   36.50
  -2   3   2 1366.66   37.30
  -2   3   2 1361.16   39.90
  -2   3   2 1321.67   38.90
   1  -3  -2  741.13   22.90
   1  -3  -2  727.83   19.40
  -1   3   2  729.93   20.80
  -1   3   2  745.23   22.10
  -1   3   2  740.93   19.50
   0  -3  -2  221.98    7.40
   0  -3  -2  217.48    8.20
   0  -3  -2  210.68    5.80
   0  -3  -2  217.68    5.80
   0   3   2  219.48    7.40
   0   3   2  214.38    7.80
  -1  -3  -2   72.59    3.00
  -1  -3  -2   73.69    4.10
   1   3   2   74.19    2.90
   1   3   2   71.39    3.60
   1   3   2   75.79    3.70
   1   3   2   76.19    4.20
  -2  -3  -2  321.57   10.20
  -2  -3  -2  317.77   11.30
   2   3   2  335.87   11.80
   2   3   2  302.07   10.00
   2   3   2  319.67    9.80
  -3  -3  -2    8.80    2.40
  -3  -3  -2    9.60    2.80
  -3  -3  -2   12.00    2.10
   3   3   2   12.50    2.40
   3   3   2    6.10    3.20
   3   3   2   11.50    2.40
  -4  -3  -2   31.70    3.60
  -4  -3  -2   30.10    4.90
  -4  -3  -2   35.50    4.70
   4   3   2   30.60    3.70
   4   3   2   31.60    6.10
   4   3   2   37.80    4.80
  -5  -3  -2   44.50    6.60
  -5  -3  -2   43.10    4.60
   5   3   2   46.70    5.90
   5   3   2   46.60    5.70
  -6  -3  -2   72.69    7.00
   6   3   2   68.79    7.70
   6   3   2   68.09    9.20
  -7  -3  -2    6.80    5.40
  -7  -3  -2   -6.50    9.00
   7   3   2  -14.00    6.80
  -8  -3  -2   -6.20   11.60
   8   3   2   12.20   10.50
   7  -4  -2    7.90    9.50
  -7   4   2    4.50    9.70
  -7   4   2  -13.90   13.20
   6  -4  -2    4.80    6.70
  -6   4   2   11.30    7.20
  -6   4   2   18.50    9.80
   5  -4  -2   72.19    8.60
  -5   4   2   63.49   10.50
  -5   4   2   78.89   10.00
   4  -4  -2   12.60    4.10
  -4   4   2   13.70    4.50
  -4   4   2   11.00    4.20
  -4   4   2   28.70    8.80
  -4   4   2   18.10    6.40
   3  -4  -2   38.50    4.30
   3  -4  -2   32.30    4.70
  -3   4   2   39.80    5.10
  -3   4   2   31.80    4.50
  -3   4   2   30.60    5.40
  -3   4   2   32.00    6.10
   2  -4  -2    2.40    2.80
   2  -4  -2    1.40    1.80
  -2   4   2    3.10    2.90
  -2   4   2   -1.50    1.90
  -2   4   2    3.00    3.60
  -2   4   2    3.80    2.40
   1  -4  -2 1086.69   28.40
   1  -4  -2 1091.49   32.20
   1  -4  -2 1072.09   30.10
  -1   4   2 1105.69   30.30
  -1   4   2 1097.89   28.70
  -1   4   2 1092.29   31.10
   0  -4  -2  120.79    6.30
   0  -4  -2  119.39    3.90
   0  -4  -2  121.89    4.10
   0  -4  -2  124.59    5.50
   0   4   2  111.09    6.70
   0   4   2  122.89    5.40
  -1  -4  -2  606.64   16.30
  -1  -4  -2  631.14   17.30
  -1  -4  -2  592.34   18.20
   1   4   2  593.84   17.20
   1   4   2  604.84   18.20
   1   4   2  592.94   16.20
  -2  -4  -2  558.04   15.90
  -2  -4  -2  530.05   17.30
   2   4   2  538.55   15.60
   2   4   2  550.54   17.70
   2   4   2  536.65   15.60
   2   4   2  558.74   15.90
  -3  -4  -2    3.90    1.80
  -3  -4  -2    4.30    3.10
  -3  -4  -2    5.40    2.50
   3   4   2    4.80    3.70
   3   4   2    4.80    2.00
   3   4   2    3.90    1.90
  -4  -4  -2    6.10    2.30
  -4  -4  -2    2.90    3.00
  -4  -4  -2    5.60    3.70
   4   4   2    5.90    3.00
   4   4   2   10.80    5.90
   4   4   2    2.60    2.60
  -5  -4  -2   -0.40    4.80
  -5  -4  -2    3.50    2.80
   5   4   2    7.00    3.90
   5   4   2    2.00    3.40
  -6  -4  -2    5.40    4.00
   6   4   2   11.90    5.40
   6   4   2    6.60    4.50
  -7  -4  -2   -2.80    8.70
  -7  -4  -2   10.60    5.40
   7   4   2   19.50    7.70
  -8  -4  -2   -0.10   11.70
   8   4   2   -6.90   10.40
   7  -5  -2   25.80   11.20
   6  -5  -2    3.20    7.10
  -6   5   2   -1.60    8.10
  -6   5   2    4.10   11.00
   5  -5  -2    4.00    5.40
  -5   5   2    5.10    5.80
   4  -5  -2    4.20    3.60
  -4   5   2    1.60    4.10
  -4   5   2    7.40    5.10
  -4   5   2    5.80    9.00
  -4   5   2    6.10    6.40
   3  -5  -2   40.00    5.20
   3  -5  -2   37.50    5.50
  -3   5   2   44.30    5.30
  -3   5   2   24.70    6.20
  -3   5   2   48.60    6.00
  -3   5   2   38.80    6.30
   2  -5  -2   11.00    3.60
   2  -5  -2   10.60    2.50
  -2   5   2    8.40    3.90
  -2   5   2    4.40    2.70
  -2   5   2    7.60    4.00
  -2   5   2    7.20    2.80
   1  -5  -2  196.98   10.30
   1  -5  -2  191.28    7.00
   1  -5  -2  198.88    8.60
  -1   5   2  196.78    7.00
  -1   5   2  191.68    8.90
  -1   5   2  186.98    8.30
   0  -5  -2  109.59    4.50
   0  -5  -2  105.29    4.00
   0  -5  -2  104.99    6.50
   0  -5  -2  111.49    5.80
   0   5   2  107.59    5.60
   0   5   2  108.49    6.10
  -1  -5  -2  108.39    6.20
  -1  -5  -2  115.19    4.60
  -1  -5  -2  119.19    5.60
   1   5   2  112.79    4.40
   1   5   2  107.89    5.40
   1   5   2  120.89    6.40
  -2  -5  -2  387.36   13.40
  -2  -5  -2  337.77   13.20
   2   5   2  355.86   11.50
   2   5   2  381.36   13.80
   2   5   2  357.56   11.70
   2   5   2  360.96   11.50
  -3  -5  -2   11.60    2.90
  -3  -5  -2   14.50    3.60
   3   5   2   12.80    2.50
   3   5   2   13.20    2.80
   3   5   2   11.70    4.20
   3   5   2   11.40    3.00
  -4  -5  -2   17.00    4.00
  -4  -5  -2   19.40    4.80
   4   5   2   16.70    3.00
   4   5   2   21.00    6.50
   4   5   2   15.30    3.20
   4   5   2   23.90    4.00
  -5  -5  -2    7.50    3.10
  -5  -5  -2   -3.30    5.30
   5   5   2   11.60    4.50
   5   5   2    7.20    3.60
  -6  -5  -2  243.18   10.40
   6   5   2  221.98   10.80
   6   5   2  278.07   14.60
  -7  -5  -2    4.10    9.00
   7   5   2   -4.40    7.70
   6  -6  -2   15.70    9.20
  -6   6   2   20.40    9.30
  -6   6   2   30.30   13.30
   5  -6  -2    2.40    6.00
  -5   6   2   -8.30    6.70
   4  -6  -2   47.40    6.60
  -4   6   2   46.50    7.40
  -4   6   2   37.00    6.70
  -4   6   2   49.70    9.50
   3  -6  -2    0.20    3.20
  -3   6   2   -4.60    5.30
  -3   6   2   -3.70    3.90
  -3   6   2    1.20    6.10
  -3   6   2    4.20    3.80
   2  -6  -2   47.70    4.90
   2  -6  -2   56.09    6.50
  -2   6   2   54.89    6.60
  -2   6   2   47.10    5.70
  -2   6   2   56.19    5.30
  -2   6   2   60.99    7.60
   1  -6  -2   68.99    4.50
   1  -6  -2   58.59    5.90
   1  -6  -2   78.69    8.10
  -1   6   2   61.29    6.30
  -1   6   2   63.59    5.40
  -1   6   2   69.29    4.30
   0  -6  -2   71.29    5.50
   0  -6  -2   71.99    4.40
   0  -6  -2   67.29    6.30
   0  -6  -2   66.69    3.50
   0   6   2   72.59    5.40
   0   6   2   70.49    5.10
  -1  -6  -2    3.30    1.70
  -1  -6  -2    1.30    2.40
  -1  -6  -2    1.40    2.00
  -1  -6  -2    2.90    2.50
   1   6   2    3.80    2.90
   1   6   2   -0.40    2.00
  -2  -6  -2  610.84   20.20
  -2  -6  -2  636.44   18.30
   2   6   2  619.34   20.70
   2   6   2  600.44   18.00
   2   6   2  628.94   18.50
   2   6   2  627.64   18.40
  -3  -6  -2  151.38    9.00
  -3  -6  -2  145.59    7.40
   3   6   2  148.79    7.30
   3   6   2  136.89    6.40
   3   6   2  137.29    9.50
   3   6   2  149.09    6.70
  -4  -6  -2   51.79    6.60
  -4  -6  -2   57.59    7.50
   4   6   2   56.79    4.80
   4   6   2   65.29    6.40
   4   6   2   57.29    5.30
  -5  -6  -2   86.49   10.40
   5   6   2  111.09    6.60
   5   6   2   91.99    7.00
   5   6   2  108.39    9.30
  -6  -6  -2  151.38   14.00
   6   6   2  150.58   12.30
   6   6   2  137.79    8.10
  -7  -6  -2   -4.30    9.10
   7   6   2   19.00    8.60
   6  -7  -2   -2.70    9.90
  -6   7   2   33.70   16.20
  -6   7   2   -4.60   11.50
   5  -7  -2   16.90    7.40
  -5   7   2    3.20   20.40
  -5   7   2   15.80    8.10
   4  -7  -2    8.40    5.00
  -4   7   2   10.80    6.60
  -4   7   2    5.50    7.70
  -4   7   2   -2.20    8.10
   3  -7  -2   33.50    5.20
  -3   7   2   29.00    5.50
  -3   7   2   30.30    7.70
  -3   7   2   22.70    7.60
   2  -7  -2   77.79    6.20
  -2   7   2   94.09    9.70
  -2   7   2   70.69    8.80
  -2   7   2   76.69    6.60
  -2   7   2   83.09    7.60
   1  -7  -2   10.00    5.30
   1  -7  -2   -3.60    3.50
   1  -7  -2    3.40    2.40
  -1   7   2    1.10    3.10
  -1   7   2    3.70    3.80
   0  -7  -2  195.08    7.20
   0  -7  -2  191.68    7.90
   0  -7  -2  210.38    9.60
   0  -7  -2  203.18   11.10
   0   7   2  197.68    9.50
   0   7   2  207.18    9.50
  -1  -7  -2    3.40    2.30
  -1  -7  -2    5.90    3.20
  -1  -7  -2    1.50    3.10
  -1  -7  -2    4.30    2.90
   1   7   2    0.40    3.30
   1   7   2    4.00    2.70
  -2  -7  -2   -3.20    3.30
  -2  -7  -2    1.80    2.50
   2   7   2    1.70    2.70
   2   7   2   -0.50    2.30
   2   7   2    0.70    2.00
   2   7   2   -2.80    4.00
  -3  -7  -2   51.09    5.70
  -3  -7  -2   61.19    7.20
   3   7   2   44.80    5.00
   3   7   2   31.70    6.50
   3   7   2   49.99    4.80
   3   7   2   55.09    5.00
  -4  -7  -2   56.79    7.50
  -4  -7  -2   56.29    7.90
   4   7   2   54.19    5.50
   4   7   2   45.40    4.90
   4   7   2   41.90    5.50
  -5  -7  -2   48.80    8.60
   5   7   2   33.70    4.90
   5   7   2   42.50    5.30
   5   7   2   66.29    8.40
  -6  -7  -2   29.20    9.50
   6   7   2   43.40    8.40
  -7  -7  -2   14.80   11.20
   7   7   2  -11.90    9.10
  -5   8   2   -2.60   13.10
  -5   8   2   -4.00   10.30
   4  -8  -2   37.60    7.40
  -4   8   2   22.60    8.00
   3  -8  -2    9.40    4.80
  -3   8   2    7.10    6.50
  -3   8   2    6.60    6.00
  -3   8   2   12.50    8.10
   2  -8  -2   -3.60    3.70
  -2   8   2    0.50    6.10
  -2   8   2    5.20    5.90
  -2   8   2    6.30    3.90
  -2   8   2   -2.90    8.90
   1  -8  -2   62.19    5.50
   1  -8  -2   58.59    4.70
   1  -8  -2   66.69    9.80
  -1   8   2   56.49    6.70
  -1   8   2   56.79    7.20
   0  -8  -2 1265.67   39.00
   0  -8  -2 1266.27   34.40
   0  -8  -2 1262.27   36.60
   0  -8  -2 1245.48   33.90
   0   8   2 1353.46   37.10
   0   8   2 1207.38   36.50
  -1  -8  -2   63.49    7.80
  -1  -8  -2   64.19    5.00
  -1  -8  -2   66.39    5.50
  -1  -8  -2   63.79    6.30
   1   8   2   69.69    7.50
   1   8   2   64.79    6.30
  -2  -8  -2    7.80    3.10
  -2  -8  -2    3.50    4.40
  -2  -8  -2    1.80    3.40
   2   8   2    0.60    2.90
   2   8   2    5.70    5.20
  -3  -8  -2  191.18    9.60
  -3  -8  -2  214.48   12.00
   3   8   2  197.58    8.90
   3   8   2  181.58    9.00
   3   8   2  193.68    9.10
  -4  -8  -2  290.37   14.10
   4   8   2  329.57   13.40
   4   8   2  307.97   11.30
   4   8   2  311.27   11.80
  -5  -8  -2    5.10    7.30
   5   8   2   12.30    9.70
   5   8   2   10.80    3.60
  -6  -8  -2    0.70    9.10
   6   8   2   -6.60    7.20
  -7  -8  -2   32.30   12.40
   7   8   2   -2.70   10.30
   4  -9  -2   -3.40    6.90
  -4   9   2   -2.60    8.70
   3  -9  -2   17.00    5.80
  -3   9   2   14.40    9.30
  -3   9   2   10.30    6.90
   2  -9  -2   22.10    5.10
  -2   9   2   17.00    7.90
  -2   9   2   17.60    5.30
  -2   9   2   18.10    5.90
   1  -9  -2   70.49   11.00
   1  -9  -2   57.29    5.80
   1  -9  -2   69.79    6.60
  -1   9   2   55.39   10.80
  -1   9   2   62.39    7.90
   0  -9  -2   10.20    7.00
   0  -9  -2    7.80    3.70
   0  -9  -2    5.00    3.30
   0   9   2    0.40    4.20
   0   9   2    8.20    5.20
  -1  -9  -2    2.80    3.40
  -1  -9  -2   -0.70    4.90
  -1  -9  -2    5.20    5.90
  -1  -9  -2    1.10    3.50
   1   9   2    2.10    4.10
   1   9   2   -1.00    5.30
  -2  -9  -2   34.50    4.70
  -2  -9  -2   30.40    4.90
  -2  -9  -2   38.60    5.60
  -2  -9  -2   36.60    6.80
   2   9   2   31.40    5.20
  -3  -9  -2   -1.30    5.40
  -3  -9  -2    9.20    4.80
   3   9   2   11.40    4.20
   3   9   2   15.20    4.80
   3   9   2   11.80    3.60
  -4  -9  -2   23.30    7.20
   4   9   2   17.80    4.30
   4   9   2   16.70    5.00
  -5  -9  -2  -15.40    7.50
   5   9   2   -3.80    6.00
  -6  -9  -2   21.40   10.80
   6   9   2   21.10    8.60
  -4  10   2   15.50   12.10
  -4  10   2    2.40   15.90
  -3  10   2   -1.00    9.00
  -3  10   2   15.80   11.50
   2 -10  -2  107.99    9.70
  -2  10   2   88.99   13.00
  -2  10   2   98.89   12.50
   1 -10  -2   10.60    4.80
   1 -10  -2    6.40   10.40
  -1  10   2    9.30    6.50
   0 -10  -2   34.40    5.10
   0 -10  -2   21.50    9.10
   0  10   2   19.50    6.00
  -1 -10  -2   84.89   11.00
  -1 -10  -2   75.79    8.10
  -1 -10  -2   72.29    7.20
   1  10   2   65.59    8.50
  -2 -10  -2   -4.50    6.30
  -2 -10  -2    5.10    4.80
  -2 -10  -2    9.30    6.80
  -2 -10  -2   -0.10    4.50
   2  10   2   -3.40    4.50
  -3 -10  -2   -7.80    5.30
  -3 -10  -2    6.90    7.10
   3  10   2    5.50    4.80
  -4 -10  -2   47.60    9.40
   4  10   2   40.50    6.20
   4  10   2   38.80    5.90
  -5 -10  -2    6.00    9.80
   5  10   2   -8.60    6.30
  -2  11   2   12.00   12.50
  -2  11   2   -8.30    8.60
  -1  11   2   -3.70    7.80
   0 -11  -2   36.40   12.20
   0  11   2   20.20    7.10
  -1 -11  -2   10.10   11.10
  -1 -11  -2    6.00    5.70
   1  11   2    9.60    6.40
  -2 -11  -2    2.30    5.80
  -2 -11  -2   -0.40    8.80
   2  11   2    7.00    5.90
  -3 -11  -2    5.50    6.40
  -3 -11  -2   12.30    9.20
   3  11   2    3.70    5.70
  -4 -11  -2  -15.50    9.80
   5  11   2    7.00    7.50
  -1  12   2  -10.30    9.70
   0 -12  -2    7.60   14.90
   0  12   2   13.60    9.10
  -1 -12  -2   11.50   13.50
   1  12   2   24.20    8.50
  -2 -12  -2   12.00   11.80
  -3 -12  -2    1.80   11.10
  -4 -11   3   -4.40   11.00
  -3 -11   3    1.20    9.70
  -2 -11   3   13.30    9.60
   1  11  -3   -4.80    7.90
  -1 -11   3   -7.10   13.10
   0  11  -3   19.40    9.70
   0 -11   3    0.60   11.90
  -1  11  -3  -20.00   10.00
   1 -11   3   -4.50    9.60
   2 -11   3  -11.90   11.30
   5  10  -3  123.09   14.80
  -5 -10   3  106.19   12.70
  -4 -10   3   57.49    9.40
  -4 -10   3   41.40   10.20
  -3 -10   3    7.30    6.70
  -3 -10   3  -11.70    7.00
   2  10  -3   72.29    9.60
  -2 -10   3   43.90   10.40
  -2 -10   3   85.69   10.80
   1  10  -3   14.10    6.60
  -1 -10   3    4.50   13.80
  -1 -10   3   16.50    6.90
  -1  10  -3    6.90    7.90
   1 -10   3    0.40    9.00
  -2  10  -3   32.30   10.30
   2 -10   3   24.30    9.40
  -3  10  -3    2.00   11.10
   3 -10   3   20.30   10.80
   6   9  -3   18.40    9.20
   5   9  -3    6.60    7.10
  -5  -9   3    2.70    8.50
   4   9  -3   -1.60    5.90
  -4  -9   3   -6.50    6.70
   3   9  -3    5.70    4.00
   3   9  -3    0.00    9.20
  -3  -9   3   15.00    6.40
  -3  -9   3   13.90    5.70
   2   9  -3   12.80    4.80
   2   9  -3    0.60    7.60
  -2  -9   3   10.60    5.70
  -2  -9   3   14.00    4.50
  -2  -9   3   12.70    4.90
   1   9  -3   -6.80    5.90
   1   9  -3   -1.40    4.60
  -1  -9   3   -6.30    5.40
  -1  -9   3   -0.30    4.90
  -1  -9   3    8.90    5.20
   0   9  -3   10.20    5.70
   0  -9   3   -3.70    5.90
   0  -9   3   13.50    6.00
  -1   9  -3    2.30    6.40
  -1   9  -3    4.00    5.40
   1  -9   3    3.20    5.90
  -2   9  -3   17.20    7.40
   2  -9   3   10.60    7.00
  -3   9  -3    2.10    9.90
   3  -9   3    7.00    8.10
  -4   9  -3    4.70   10.60
   4  -9   3    0.60   10.10
   6   8  -3   23.50    8.40
  -6  -8   3   20.30   10.50
   5   8  -3   17.70    6.50
  -5  -8   3   13.30    7.80
   4   8  -3   56.69    7.30
  -4  -8   3   57.69    8.40
   3   8  -3   53.39    7.00
   3   8  -3   60.29    4.90
   3   8  -3   60.19    9.70
   3   8  -3   57.99    4.50
  -3  -8   3   71.99    8.40
   2   8  -3   10.20    3.50
   2   8  -3   13.70    6.20
  -2  -8   3    7.60    3.40
  -2  -8   3    1.90    4.30
  -2  -8   3   11.50    4.00
   1   8  -3   16.70    4.40
   1   8  -3   13.20    5.20
  -1  -8   3   12.00    4.80
  -1  -8   3   13.90    4.10
  -1  -8   3    9.60    4.90
  -1  -8   3    6.50    3.80
   0   8  -3   15.10    4.80
   0   8  -3   11.50    4.10
   0  -8   3   11.00    4.70
   0  -8   3   10.20    5.20
   0  -8   3   13.10    5.80
   0  -8   3    9.70    4.80
  -1   8  -3    8.70    5.00
  -1   8  -3   17.60    3.70
   1  -8   3   12.20    5.40
  -2   8  -3   76.19    7.00
  -2   8  -3   74.49    8.70
   2  -8   3   84.39   10.00
  -3   8  -3    6.90    5.80
  -3   8  -3    1.10    7.50
   3  -8   3    8.50    8.10
  -4   8  -3    2.80    8.80
   4  -8   3   -1.40    8.60
  -5   8  -3  -14.40   11.60
   5  -8   3   -2.30   10.50
   7   7  -3   30.80   10.50
  -7  -7   3   20.00   12.80
   6   7  -3   -3.20    6.90
  -6  -7   3   -2.50    8.70
   5   7  -3   -1.20    5.30
  -5  -7   3    8.10    7.10
  -4  -7   3  134.19   10.70
   3   7  -3   11.60    3.70
   3   7  -3   17.60    6.90
  -3  -7   3   10.70    4.40
   2   7  -3   71.79    7.60
   2   7  -3   66.89    5.20
  -2  -7   3   54.69    5.80
  -2  -7   3   55.99    6.90
  -2  -7   3   68.09    7.40
   1   7  -3  117.19    6.90
   1   7  -3  105.89    8.40
  -1  -7   3  121.39    6.70
  -1  -7   3  104.69    6.40
  -1  -7   3  102.19    7.50
  -1  -7   3  126.39    8.40
   0   7  -3   20.10    4.40
   0   7  -3   23.10    3.30
   0  -7   3   22.40    4.10
   0  -7   3   17.20    4.50
   0  -7   3   22.80    4.10
  -1   7  -3  620.24   18.80
  -1   7  -3  650.03   21.70
  -1   7  -3  615.24   17.60
  -1   7  -3  596.84   20.80
   1  -7   3  674.23   22.10
   1  -7   3  587.64   20.70
  -2   7  -3  681.33   23.20
  -2   7  -3  613.54   20.00
  -2   7  -3  597.84   18.70
   2  -7   3  677.83   22.60
  -3   7  -3    4.40    5.10
  -3   7  -3    1.00    5.00
   3  -7   3    8.90    5.50
  -4   7  -3  -14.50    7.50
  -4   7  -3    8.30    6.80
  -5   7  -3   -4.00    9.50
   5  -7   3    2.60    9.30
   7   6  -3    3.00    8.40
  -7  -6   3   17.70   11.10
   6   6  -3    0.80    5.90
  -6  -6   3   -2.60    7.90
   5   6  -3   -3.50    4.90
   4   6  -3  198.48   15.70
   4   6  -3  209.18   11.10
  -4  -6   3  200.88   12.10
   3   6  -3 1027.80   30.20
   3   6  -3  986.90   31.80
  -3  -6   3 1052.49   30.50
  -3  -6   3  943.81   30.10
   2   6  -3   -0.80    2.40
   2   6  -3    3.70    4.00
  -2  -6   3   -0.60    1.80
  -2  -6   3   -1.20    3.10
  -2  -6   3   -1.10    2.40
   1   6  -3   67.39    5.00
   1   6  -3   65.69    5.80
  -1  -6   3   58.39    5.90
  -1  -6   3   56.79    5.30
  -1  -6   3   71.59    4.70
  -1  -6   3   65.89    4.70
   0   6  -3   24.60    3.40
   0   6  -3   24.10    3.80
   0  -6   3   18.80    3.60
   0  -6   3   22.20    3.40
   0  -6   3   20.00    3.20
   0  -6   3   22.30    4.30
  -1   6  -3    8.30    2.70
  -1   6  -3    4.80    3.50
  -1   6  -3    3.40    1.90
  -1   6  -3    1.70    3.30
   1  -6   3    3.70    3.50
   1  -6   3    8.80    3.60
  -2   6  -3  116.59    6.40
  -2   6  -3  132.39    8.90
  -2   6  -3  120.89    9.20
   2  -6   3  137.59    9.20
  -3   6  -3   16.50    5.80
  -3   6  -3   23.00    5.00
  -3   6  -3   17.20    5.50
   3  -6   3   21.30    5.50
  -4   6  -3   16.00    8.70
  -4   6  -3   14.20    6.20
   4  -6   3   17.40    6.30
  -5   6  -3   -5.20    8.50
  -5   6  -3   12.50    8.50
   5  -6   3   -1.30    7.30
  -6   6  -3   -8.40   10.90
  -6   6  -3    5.40   14.10
   6  -6   3   -8.80   10.30
   7   5  -3   -3.30    7.40
  -7  -5   3  -12.90   10.30
   6   5  -3   -6.10    5.90
  -6  -5   3   -5.70    7.70
   5   5  -3   41.20    6.70
  -5  -5   3   32.00    7.60
   4   5  -3 1325.17   38.90
   4   5  -3 1305.57   41.50
  -4  -5   3 1334.37   39.70
   3   5  -3   22.20    5.60
   3   5  -3   24.70    3.80
  -3  -5   3   27.20    4.40
  -3  -5   3   25.90    4.20
   2   5  -3    0.10    1.60
   2   5  -3   -1.60    3.20
   2   5  -3    2.80    2.20
  -2  -5   3   -3.50    2.50
  -2  -5   3    2.10    1.40
  -2  -5   3   -0.40    2.30
   1   5  -3   30.10    3.80
   1   5  -3   35.00    3.70
  -1  -5   3   29.70    3.30
  -1  -5   3   31.20    4.00
  -1  -5   3   39.40    4.40
   0   5  -3  383.06   11.20
   0   5  -3  388.26   13.10
   0  -5   3  389.06   14.00
   0  -5   3  379.76   11.50
   0  -5   3  401.16   13.10
   0  -5   3  391.06   12.80
  -1   5  -3    1.20    1.30
  -1   5  -3    4.50    2.90
  -1   5  -3    2.70    2.80
  -1   5  -3    2.60    1.90
   1  -5   3    1.20    3.00
   1  -5   3    1.40    2.70
  -2   5  -3  240.28   10.90
  -2   5  -3  217.78    8.70
  -2   5  -3  226.38   10.80
  -2   5  -3  220.08    9.50
   2  -5   3  212.28   10.40
   2  -5   3  225.88   10.50
  -3   5  -3   50.99    6.70
  -3   5  -3   47.10    6.50
  -3   5  -3   41.90    6.70
  -3   5  -3   45.70    5.50
   3  -5   3   62.19    7.40
  -4   5  -3    0.80    8.60
  -4   5  -3   -1.70    5.10
   4  -5   3   -1.60    4.90
  -5   5  -3   -7.90    6.80
  -5   5  -3    9.70    7.30
  -5   5  -3   -1.70   12.90
   5  -5   3   -6.70    6.50
  -6   5  -3   29.80   11.00
  -6   5  -3    2.80    9.50
   6  -5   3    5.80    8.90
   7   4  -3   20.40    8.20
  -7  -4   3   17.30    9.80
   6   4  -3    0.20    5.40
  -6  -4   3   17.00    7.50
   5   4  -3  198.38   11.10
  -5  -4   3  163.48   12.30
   4   4  -3  509.25   17.80
   4   4  -3  507.25   20.70
  -4  -4   3  505.25   19.00
  -4  -4   3  459.25   17.70
   3   4  -3   56.49    7.60
   3   4  -3   66.89    5.30
  -3  -4   3   53.19    5.80
  -3  -4   3   50.99    5.50
   2   4  -3   31.50    4.50
   2   4  -3   30.20    3.60
   2   4  -3   31.30    1.80
  -2  -4   3   27.00    3.70
  -2  -4   3   31.40    4.20
  -2  -4   3   33.50    1.80
   1   4  -3  209.38    7.40
   1   4  -3  214.28    7.90
  -1  -4   3  207.98    8.60
  -1  -4   3  209.28    7.10
  -1  -4   3  207.78    8.40
  -1  -4   3  219.58    7.50
   0   4  -3  150.68    5.00
   0   4  -3  144.49    6.60
   0  -4   3  160.98    7.40
   0  -4   3  157.98    6.60
   0  -4   3  152.58    5.00
   0  -4   3  157.78    6.60
  -1   4  -3   72.19    2.80
  -1   4  -3   67.89    5.30
  -1   4  -3   66.29    3.30
  -1   4  -3   68.19    5.00
   1  -4   3   75.29    5.30
   1  -4   3   66.29    5.30
  -2   4  -3    4.90    2.90
  -2   4  -3    4.00    2.80
  -2   4  -3    4.60    2.70
  -2   4  -3   -3.40    3.10
   2  -4   3    5.30    3.30
   2  -4   3    6.00    2.80
  -3   4  -3   36.20    5.70
  -3   4  -3   32.90    5.60
  -3   4  -3   37.00    5.00
   3  -4   3   20.20    5.10
   3  -4   3   39.80    5.10
   3  -4   3   35.60    5.30
  -4   4  -3    3.30    4.50
  -4   4  -3    8.10    4.90
   4  -4   3    7.60    5.40
   4  -4   3    7.50    4.80
  -5   4  -3    6.70    6.60
  -5   4  -3    8.40    6.70
   5  -4   3    1.40    8.40
  -6   4  -3   22.10    9.00
   6  -4   3   -1.40    8.30
  -7   4  -3   19.70   14.20
  -7   4  -3  -18.90   11.50
   7  -4   3   22.90   10.20
   7   3  -3   14.20    7.30
  -7  -3   3   21.60   10.70
   6   3  -3  267.67    8.90
  -6  -3   3  272.97    9.10
  -6  -3   3  323.17   18.20
   5   3  -3   20.00    4.90
  -5  -3   3   32.60    6.10
   4   3  -3   50.99    5.50
   4   3  -3   48.50    6.90
  -4  -3   3   49.10    6.40
  -4  -3   3   39.40    5.30
   3   3  -3  117.59    9.00
   3   3  -3  120.29    6.50
  -3  -3   3  128.59    7.50
  -3  -3   3  117.39    7.00
   2   3  -3    4.00    1.70
   2   3  -3   -0.50    2.60
  -2  -3   3    1.60    2.00
  -2  -3   3    7.00    2.20
   1   3  -3  500.65   15.30
   1   3  -3  503.15   14.10
   1   3  -3  509.55   15.10
  -1  -3   3  515.15   14.00
  -1  -3   3  505.75   14.70
  -1  -3   3  537.75   15.70
   0   3  -3  237.48    8.60
   0   3  -3  229.08    8.10
   0  -3   3  232.98    8.00
   0  -3   3  224.38    8.70
  -1   3  -3 1971.10   49.80
  -1   3  -3 1972.70   49.80
  -1   3  -3 1973.20   52.39
  -1   3  -3 2014.40   52.79
   1  -3   3 2058.09   52.29
   1  -3   3 1974.10   52.79
  -2   3  -3  185.18    9.00
  -2   3  -3  188.08    7.50
  -2   3  -3  184.28    8.40
   2  -3   3  186.08    7.50
   2  -3   3  197.38    8.60
   2  -3   3  183.18    8.20
  -3   3  -3  202.38    9.50
  -3   3  -3  223.28   10.60
  -3   3  -3  215.18   10.10
   3  -3   3  208.78    9.80
   3  -3   3  208.58   10.00
   3  -3   3  205.48    9.80
  -4   3  -3  -10.30    8.70
  -4   3  -3    3.20    3.80
  -4   3  -3    2.90    4.00
   4  -3   3   -6.20    4.90
   4  -3   3    1.00    3.60
  -5   3  -3   22.60    6.60
  -5   3  -3    2.90    6.00
   5  -3   3    0.80    7.70
   5  -3   3    9.90    5.40
  -6   3  -3   -9.80    6.70
   6  -3   3    7.70    7.00
  -7   3  -3   17.50   10.60
  -7   3  -3    4.90   11.70
   7  -3   3   24.50   10.20
   8   2  -3    6.80    9.50
  -8  -2   3    4.90   13.40
   7   2  -3    5.90    7.50
  -7  -2   3    7.30    9.30
  -7  -2   3   12.80    6.00
   6   2  -3   64.79    5.90
  -6  -2   3   69.09    5.80
   5   2  -3   94.09    7.90
   5   2  -3   88.09    5.00
  -5  -2   3  103.99    9.90
  -5  -2   3   92.59    5.30
   4   2  -3  323.07   15.60
   4   2  -3  335.97    9.80
   4   2  -3  349.37   13.30
  -4  -2   3  341.47   13.20
  -4  -2   3  340.27   10.00
  -4  -2   3  348.57   14.80
   3   2  -3   21.70    3.10
   3   2  -3   22.90    4.40
  -3  -2   3   19.00    3.20
  -3  -2   3   13.60    3.50
  -3  -2   3   16.20    1.40
   2   2  -3  160.88    6.80
  -2  -2   3  166.28    7.50
  -2  -2   3  148.69    4.40
  -2  -2   3  168.08    7.00
   1   2  -3  225.88    7.80
   1   2  -3  210.68    7.60
   1   2  -3  215.18    6.40
  -1  -2   3  216.98    7.60
  -1  -2   3  215.68    6.50
   0   2  -3   54.69    3.50
   0  -2   3   57.19    3.20
  -1   2  -3    7.80    1.00
  -1   2  -3   11.00    2.20
  -1   2  -3    8.80    2.10
   1  -2   3   10.00    2.10
   1  -2   3    9.70    1.30
   1  -2   3   11.90    2.70
  -2   2  -3  149.19    7.00
  -2   2  -3  148.19    7.30
  -2   2  -3  150.48    6.50
   2  -2   3  158.48    7.20
   2  -2   3  164.78    6.90
   2  -2   3  155.08    7.20
  -3   2  -3 1224.78   33.50
  -3   2  -3 1149.98   32.70
  -3   2  -3 1126.29   33.40
   3  -2   3 1158.78   33.40
   3  -2   3 1179.58   33.30
   3  -2   3 1091.29   32.70
  -4   2  -3    7.60    4.10
  -4   2  -3   17.10    4.40
  -4   2  -3    7.20    5.10
   4  -2   3   13.00    4.30
   4  -2   3    7.30    3.90
   4  -2   3   15.40    5.20
  -5   2  -3   14.40    5.10
  -5   2  -3    0.80    5.50
   5  -2   3    9.10    4.70
   5  -2   3   17.20    7.50
  -6   2  -3    4.80    6.80
   6  -2   3   16.20    6.90
  -7   2  -3   23.80    9.40
  -7   2  -3   40.10   12.30
   7  -2   3   31.90    9.60
   8   1  -3   -6.80    9.00
  -8  -1   3  -23.40   12.50
   7   1  -3  -10.90    6.20
  -7  -1   3    1.20    9.80
  -7  -1   3   -2.50    5.30
   6   1  -3    8.70    4.00
  -6  -1   3    7.30    4.00
   5   1  -3   20.40    4.60
   5   1  -3   17.30    3.20
  -5  -1   3   10.60    2.90
  -5  -1   3   18.50    6.20
   4   1  -3   46.20    5.00
   4   1  -3   41.80    3.60
   4   1  -3   38.30    6.70
  -4  -1   3   47.30    5.30
  -4  -1   3   41.00    3.70
  -4  -1   3   41.20    5.90
   3   1  -3  446.86   12.80
   3   1  -3  457.25   17.20
   3   1  -3  443.96   15.00
  -3  -1   3  472.05   16.80
  -3  -1   3  479.65   15.10
  -3  -1   3  453.45   12.90
   2   1  -3  670.13   19.70
   2   1  -3  698.83   22.80
  -2  -1   3  679.83   19.70
  -2  -1   3  680.23   17.80
  -2  -1   3  692.43   21.00
   1   1  -3  536.05   14.00
   1   1  -3  534.65   15.60
   1   1  -3  500.25   15.00
  -1  -1   3  525.85   15.50
  -1  -1   3  538.65   14.00
  -1  -1   3  526.05   15.10
   0   1  -3 1457.65   37.70
   0  -1   3 1449.35   36.60
   0  -1   3 1500.15   37.30
   0  -1   3 1386.76   37.90
  -1   1  -3 9783.42  245.58
   1  -1   3 9999.00  245.28
  -2   1  -3    4.50    2.00
  -2   1  -3    2.10    1.90
  -2   1  -3    3.90    2.60
   2  -1   3    1.60    1.90
   2  -1   3    1.10    1.50
   2  -1   3    0.10    2.00
  -3   1  -3   40.10    4.40
  -3   1  -3   42.50    4.80
  -3   1  -3   36.60    4.60
   3  -1   3   40.50    5.70
   3  -1   3   40.00    4.80
   3  -1   3   44.60    4.60
  -4   1  -3   24.10    5.10
  -4   1  -3   32.90    5.00
  -4   1  -3   52.89    6.60
   4  -1   3   31.40    5.90
   4  -1   3   32.00    5.00
   4  -1   3   26.80    4.40
  -5   1  -3   -0.20    4.90
  -5   1  -3    3.90    4.30
   5  -1   3   -4.00    6.50
   5  -1   3   -1.90    4.00
  -6   1  -3   26.80   10.80
   6  -1   3   38.70   10.30
  -7   1  -3   19.40    9.10
  -7   1  -3   25.90   10.90
   7  -1   3   10.80    7.80
   8   0  -3    6.10    9.30
   7   0  -3   -3.50   10.20
  -7   0   3    0.10    9.50
  -7   0   3   11.40    5.90
   6   0  -3   11.70    4.90
  -6   0   3    2.40    4.10
   5   0  -3   46.20    6.30
   5   0  -3   29.40    4.30
  -5   0   3   38.20    4.50
  -5   0   3   26.00    6.90
   4   0  -3  182.28   11.60
   4   0  -3  158.08    8.20
   4   0  -3  154.38    6.90
  -4   0   3  153.48   10.30
  -4   0   3  154.58    6.80
  -4   0   3  151.18    8.10
   3   0  -3  673.43   20.10
   3   0  -3  662.93   18.70
  -3   0   3  677.73   22.30
  -3   0   3  675.93   18.70
  -3   0   3  649.93   19.90
   2   0  -3  369.16   10.90
   2   0  -3  379.26   11.90
   2   0  -3  400.76   13.70
  -2   0   3  379.76   11.00
  -2   0   3  368.76   13.40
   1   0  -3  510.05   14.20
   1   0  -3  508.55   15.10
  -1   0   3  500.05   13.70
  -1   0   3  490.05   15.10
  -1   0   3  500.15   13.70
  -1   0   3  511.65   14.20
   0   0  -3 1966.90   49.90
   0   0  -3 1993.50   50.39
   0   0  -3 1947.41   49.99
   0   0   3 1962.00   50.09
   0   0   3 2000.10   50.09
   0   0   3 1969.50   49.90
  -2   0  -3    2.60    1.80
  -2   0  -3    2.60    1.70
  -2   0  -3    4.90    1.80
   2   0   3    7.40    2.10
   2   0   3    4.70    2.00
   2   0   3    6.20    2.00
  -3   0  -3  137.99    7.30
  -3   0  -3  145.39    7.50
  -3   0  -3  138.59    6.70
   3   0   3  136.39    6.80
   3   0   3  153.48    8.30
   3   0   3  135.09    6.90
  -4   0  -3   36.80    4.90
  -4   0  -3   32.00    5.10
  -4   0  -3   42.20    5.90
   4   0   3   27.20    4.30
   4   0   3   30.70    6.40
   4   0   3   32.10    4.40
  -5   0  -3    5.70    4.20
  -5   0  -3    7.70    5.20
   5   0   3   -4.30    3.50
   5   0   3    0.50    4.10
   5   0   3   -7.70    7.30
  -6   0  -3   -3.00    5.40
  -6   0  -3   -6.60    8.80
  -7   0  -3   22.20   10.00
  -7   0  -3    6.30    7.50
   7   0   3   21.60    8.20
   7  -1  -3   11.00    7.90
  -7   1   3    0.80   10.60
  -7   1   3   13.60    6.70
   6  -1  -3   70.19    7.90
  -6   1   3   77.69    8.00
   5  -1  -3    4.50    3.90
   5  -1  -3   -5.20    3.60
  -5   1   3    7.70    3.80
  -5   1   3    8.70    5.90
   4  -1  -3   15.70    3.30
   4  -1  -3   15.90    3.30
   4  -1  -3   14.20    5.80
  -4   1   3   20.00    3.10
  -4   1   3   15.70    4.80
  -4   1   3   15.20    3.60
   3  -1  -3  272.77   10.30
   3  -1  -3  282.57    9.80
   3  -1  -3  283.47   12.90
  -3   1   3  287.47   10.40
  -3   1   3  296.67    9.90
  -3   1   3  297.77   12.80
   2  -1  -3   77.59    4.20
   2  -1  -3   74.79    3.90
   2  -1  -3   79.29    5.80
  -2   1   3   80.89    4.10
  -2   1   3   76.49    5.50
  -2   1   3   73.79    3.80
   1  -1  -3 4688.03  119.39
   1  -1  -3 4771.42  119.69
  -1   1   3 4707.33  122.69
  -1   1   3 5046.50  122.09
  -1   1   3 4788.42  119.29
  -1   1   3 4811.52  119.69
  -1  -1  -3    7.00    1.50
  -1  -1  -3   11.10    1.60
   1   1   3    6.40    1.60
   1   1   3    8.30    1.70
  -2  -1  -3 1179.68   31.60
  -2  -1  -3 1011.60   31.80
  -2  -1  -3 1162.58   30.90
   2   1   3 1193.58   31.90
   2   1   3 1184.88   31.20
   2   1   3 1178.48   31.10
  -3  -1  -3   55.79    5.00
  -3  -1  -3   50.79    4.10
  -3  -1  -3   58.29    4.80
   3   1   3   57.99    4.40
   3   1   3   56.69    4.40
   3   1   3   48.50    5.70
  -4  -1  -3  160.38    8.60
  -4  -1  -3  152.68    9.10
  -4  -1  -3  148.49    7.50
   4   1   3  160.78   10.30
   4   1   3  137.99    7.70
   4   1   3  147.79    7.90
  -5  -1  -3   38.80    7.10
  -5  -1  -3   50.39    6.10
   5   1   3   35.30   10.70
   5   1   3   39.80    5.40
   5   1   3   31.60    5.10
  -6  -1  -3   -1.30    4.90
  -6  -1  -3   -1.40    6.60
  -7  -1  -3    1.50    6.50
  -7  -1  -3   -5.10    9.30
   7   1   3   11.50    7.90
  -8  -1  -3   34.00   13.40
  -8  -1  -3    6.60    9.00
   8   1   3   -3.70   10.80
   7  -2  -3    9.10    7.90
  -7   2   3    4.80    7.70
  -7   2   3  -18.70   11.40
  -6   2   3   -5.00    7.80
  -6   2   3   -7.00    5.00
   5  -2  -3  796.22   26.30
   5  -2  -3  884.51   27.50
  -5   2   3  869.91   31.30
  -5   2   3  881.11   26.80
   4  -2  -3  309.97   12.10
   4  -2  -3  314.27   11.80
   4  -2  -3  280.77   15.10
  -4   2   3  295.37   11.90
  -4   2   3  301.47   15.20
  -4   2   3  309.97   11.70
   3  -2  -3  188.28   10.40
   3  -2  -3  192.48    8.00
   3  -2  -3  190.68    8.00
  -3   2   3  191.78   10.40
  -3   2   3  175.78    7.70
  -3   2   3  182.78    7.80
   2  -2  -3  182.18    6.70
   2  -2  -3  177.98    7.00
  -2   2   3  175.88    7.00
  -2   2   3  174.58    9.70
  -2   2   3  178.58    6.60
  -2   2   3  180.18    8.80
   1  -2  -3 8189.58  207.68
   1  -2  -3 8190.58  205.08
  -1   2   3 8401.46  207.18
   0  -2  -3  551.44   15.70
   0   2   3  581.44   16.40
   0   2   3  537.45   14.20
   0   2   3  559.94   14.10
  -1  -2  -3  973.80   24.50
  -1  -2  -3  939.51   25.70
  -1  -2  -3  862.61   25.80
   1   2   3  934.21   24.40
   1   2   3  965.10   25.70
   1   2   3  944.41   25.00
  -2  -2  -3  422.86   13.90
  -2  -2  -3  422.06   12.90
  -2  -2  -3  430.36   13.10
   2   2   3  435.86   14.20
   2   2   3  434.56   13.00
   2   2   3  433.46   13.00
  -3  -2  -3    4.00    1.80
  -3  -2  -3    5.30    2.20
  -3  -2  -3    4.80    2.70
   3   2   3    3.40    1.90
   3   2   3    8.60    3.50
   3   2   3    2.80    2.20
  -4  -2  -3   -2.60    3.30
  -4  -2  -3   -2.10    2.30
  -4  -2  -3   -1.30    3.30
   4   2   3    4.10    2.70
   4   2   3   -4.80    4.30
   4   2   3    4.00    2.90
  -5  -2  -3   70.09    6.40
  -5  -2  -3   76.89    8.90
   5   2   3   61.09    6.70
   5   2   3   66.79    7.20
  -6  -2  -3    0.80    4.50
   6   2   3    5.20    5.10
   6   2   3   -1.30    5.30
  -7  -2  -3    5.30    9.30
  -7  -2  -3    2.30    6.20
   7   2   3   19.10    7.80
  -8  -2  -3   24.20    9.20
  -8  -2  -3   18.60   13.60
   8   2   3   -9.00   10.00
   7  -3  -3   -6.10    8.00
  -7   3   3   -6.90    8.20
  -6   3   3    7.80    9.40
  -6   3   3    3.30    5.90
   5  -3  -3  169.78   10.40
  -5   3   3  155.68   14.20
  -5   3   3  165.58   10.30
   4  -3  -3    9.00    3.90
   4  -3  -3    2.40    5.50
   4  -3  -3    0.20    2.90
  -4   3   3   -2.60    3.00
  -4   3   3    8.70    3.80
  -4   3   3    4.80    4.80
   3  -3  -3    6.20    2.40
   3  -3  -3    7.80    3.20
  -3   3   3    6.60    3.40
  -3   3   3    4.10    2.20
  -3   3   3   16.10    5.90
  -3   3   3    5.60    2.70
   2  -3  -3  166.98    7.40
   2  -3  -3  165.28    6.30
  -2   3   3  169.78    8.90
  -2   3   3  155.98    9.60
  -2   3   3  169.98    7.20
  -2   3   3  164.18    6.40
   1  -3  -3  761.02   24.10
   1  -3  -3  781.02   21.70
   1  -3  -3  771.72   19.90
  -1   3   3  772.12   23.20
  -1   3   3  732.83   21.60
  -1   3   3  768.92   20.00
   0  -3  -3 1137.29   30.30
   0  -3  -3 1112.59   31.40
   0   3   3 1122.19   31.50
   0   3   3 1128.49   30.10
  -1  -3  -3  434.26   13.70
  -1  -3  -3  434.46   11.70
   1   3   3  420.06   12.80
   1   3   3  421.36   13.70
   1   3   3  433.16   11.60
   1   3   3  422.96   12.80
  -2  -3  -3  203.98    7.30
  -2  -3  -3  197.68    8.20
  -2  -3  -3  193.08    7.20
   2   3   3  199.38    7.10
   2   3   3  201.78    8.70
   2   3   3  196.48    7.90
  -3  -3  -3  836.72   23.90
  -3  -3  -3  784.92   25.00
  -3  -3  -3  820.82   23.00
   3   3   3  849.41   23.80
   3   3   3  815.62   25.70
   3   3   3  830.42   23.40
  -4  -3  -3   -0.30    2.30
  -4  -3  -3    3.80    3.30
  -4  -3  -3    3.90    3.30
   4   3   3    4.20    2.80
   4   3   3    0.80    5.00
   4   3   3    0.30    2.70
  -5  -3  -3   27.40    4.30
  -5  -3  -3   23.50    6.20
   5   3   3   29.60    4.70
   5   3   3   35.10    5.30
  -6  -3  -3   15.40    4.60
   6   3   3   20.40    6.20
   6   3   3    7.90    5.10
  -7  -3  -3   17.70   10.00
  -7  -3  -3    7.40    5.90
   7   3   3   -3.00    7.50
  -8  -3  -3  -16.20   12.40
   8   3   3   16.20   10.60
   7  -4  -3    5.40    8.70
  -7   4   3   -7.30    9.80
  -7   4   3    4.90   14.90
   6  -4  -3    6.40    9.60
  -6   4   3   14.70   10.60
  -6   4   3    6.60    6.80
   5  -4  -3   66.69    8.30
  -5   4   3   38.70    6.90
   4  -4  -3   66.89    6.70
  -4   4   3   75.59    7.10
  -4   4   3   71.19   11.10
  -4   4   3   78.39   10.40
  -4   4   3   72.59    7.00
   3  -4  -3   71.69    6.50
   3  -4  -3   76.69    5.30
  -3   4   3   75.89    8.20
  -3   4   3   76.39    6.10
  -3   4   3   72.69    9.00
  -3   4   3   75.19    5.90
   2  -4  -3  109.29    6.60
   2  -4  -3  115.79    5.30
  -2   4   3  123.39    8.60
  -2   4   3  110.49    7.90
  -2   4   3  127.29    5.70
  -2   4   3  116.99    6.40
   1  -4  -3  574.54   15.10
   1  -4  -3  546.35   19.60
   1  -4  -3  582.14   17.40
  -1   4   3  539.45   17.10
  -1   4   3  558.14   15.20
  -1   4   3  579.74   18.60
   0  -4  -3    1.00    2.10
   0  -4  -3    2.50    1.90
   0   4   3    2.10    1.90
   0   4   3    1.90    1.70
  -1  -4  -3    0.80    0.90
  -1  -4  -3    0.90    1.90
   1   4   3    2.50    1.80
   1   4   3    1.50    1.80
   1   4   3    1.30    0.90
   1   4   3   -1.80    1.40
  -2  -4  -3    1.90    1.60
  -2  -4  -3    2.10    2.20
   2   4   3    4.50    1.80
   2   4   3    4.30    1.80
   2   4   3    3.30    1.50
   2   4   3   -1.00    2.30
  -3  -4  -3   32.50    3.60
  -3  -4  -3   32.90    4.60
  -3  -4  -3   32.30    4.10
   3   4   3   33.00    3.90
   3   4   3   26.60    3.40
   3   4   3   33.10    5.20
  -4  -4  -3    1.60    2.30
  -4  -4  -3    2.70    3.50
  -4  -4  -3    7.90    3.40
   4   4   3    2.50    2.90
   4   4   3   -1.70    2.60
   4   4   3    2.20    5.50
  -5  -4  -3   22.40    5.80
  -5  -4  -3   24.20    3.90
   5   4   3   20.40    4.60
   5   4   3   16.50    4.10
  -6  -4  -3   23.00    4.80
   6   4   3   21.40    5.60
   6   4   3   18.10    5.60
  -7  -4  -3   20.20    9.30
  -7  -4  -3    2.50    5.70
   7   4   3   12.80    7.90
   8   4   3   -7.40   10.20
   6  -5  -3    7.20    7.30
  -6   5   3   -2.60    7.30
  -6   5   3   -1.00   11.10
   5  -5  -3  109.19   10.10
  -5   5   3  124.49   11.40
   4  -5  -3    6.10    3.90
  -4   5   3   -3.80    6.40
  -4   5   3   12.20    5.10
  -4   5   3    2.10    4.20
   3  -5  -3   17.90    3.40
   3  -5  -3    9.60    4.30
  -3   5   3   10.40    6.30
  -3   5   3   14.50    3.90
  -3   5   3   16.00    3.70
  -3   5   3   11.50    5.20
   2  -5  -3   59.49    6.00
   2  -5  -3   62.69    4.30
  -2   5   3   64.59    4.80
  -2   5   3   63.49    7.10
  -2   5   3   66.79    5.60
  -2   5   3   65.79    7.70
   1  -5  -3 1325.67   33.60
   1  -5  -3 1276.57   38.90
   1  -5  -3 1325.47   36.30
  -1   5   3 1298.27   33.70
  -1   5   3 1270.97   37.10
  -1   5   3 1323.87   36.30
   0  -5  -3  590.84   15.50
   0  -5  -3  603.84   19.90
   0  -5  -3  586.74   15.40
   0  -5  -3  610.84   18.40
   0   5   3  603.04   19.00
   0   5   3  599.54   18.30
  -1  -5  -3  330.47   12.50
  -1  -5  -3  342.67   11.50
  -1  -5  -3  332.27    9.60
   1   5   3  325.77   11.30
   1   5   3  330.67   12.20
   1   5   3  336.57    9.50
  -2  -5  -3  413.36   12.70
  -2  -5  -3  425.76   14.80
   2   5   3  410.16   13.20
   2   5   3  411.86   12.60
   2   5   3  413.36   15.20
   2   5   3  412.36   13.20
  -3  -5  -3   44.10    5.50
  -3  -5  -3   38.40    4.50
   3   5   3   45.00    4.20
   3   5   3   44.40    4.40
   3   5   3   40.80    4.10
   3   5   3   49.00    6.60
  -4  -5  -3    1.50    2.60
  -4  -5  -3   -1.80    3.70
  -4  -5  -3    2.90    3.40
   4   5   3   -1.70    6.00
   4   5   3   -1.30    2.70
   4   5   3   -1.10    3.10
  -5  -5  -3    7.70    3.40
   5   5   3    3.80    4.10
   5   5   3    9.00    4.30
  -6  -5  -3   56.99    7.00
   6   5   3   39.40    6.40
   6   5   3   48.10    7.80
  -7  -5  -3   -2.50    9.50
  -7  -5  -3   -4.70    5.80
   7   5   3   -7.70    8.00
   6  -6  -3    7.40    8.50
  -6   6   3    0.90    9.00
  -6   6   3  -16.30   12.70
   5  -6  -3   10.90    6.50
  -5   6   3   13.30    7.80
   4  -6  -3    5.10    4.50
  -4   6   3    6.00    8.40
  -4   6   3    8.80    5.80
  -4   6   3    6.80    5.30
   3  -6  -3    8.50    3.30
  -3   6   3    2.80    3.80
  -3   6   3    6.50    5.80
  -3   6   3    4.70    4.10
  -3   6   3    0.30    6.50
   2  -6  -3    1.40    3.90
   2  -6  -3    0.10    2.10
  -2   6   3    0.50    4.00
  -2   6   3    3.40    2.90
  -2   6   3   -9.30    4.20
  -2   6   3    2.90    3.10
   1  -6  -3    2.10    3.10
   1  -6  -3    8.80    5.00
   1  -6  -3    6.40    2.10
  -1   6   3    3.80    1.70
  -1   6   3    1.70    2.60
  -1   6   3    5.60    3.50
   0  -6  -3  606.24   16.50
   0  -6  -3  637.34   21.30
   0  -6  -3  612.54   16.40
   0  -6  -3  611.44   19.40
   0   6   3  621.74   19.90
   0   6   3  629.24   19.50
  -1  -6  -3   30.10    2.60
  -1  -6  -3   28.70    2.90
  -1  -6  -3   22.60    3.90
  -1  -6  -3   32.00    4.10
   1   6   3   35.10    5.00
   1   6   3   30.30    3.90
  -2  -6  -3  201.88    9.80
   2   6   3  202.68    7.50
   2   6   3  193.38   10.00
   2   6   3  196.18    8.20
   2   6   3  201.28    8.40
  -3  -6  -3   90.99    6.10
  -3  -6  -3  102.99    7.60
   3   6   3   88.09    5.80
   3   6   3   92.19    5.60
   3   6   3   87.49    8.40
   3   6   3   98.19    5.80
  -4  -6  -3   37.40    5.10
  -4  -6  -3   51.89    7.40
   4   6   3   35.70    4.40
   4   6   3   36.70    5.00
   4   6   3   37.90    5.00
  -5  -6  -3  162.48   11.90
   5   6   3  171.98   10.60
   5   6   3  150.18    8.30
   5   6   3  147.79    9.10
  -6  -6  -3    3.90    7.70
   6   6   3    7.50    4.50
   6   6   3   -1.10    6.20
  -7  -6  -3   53.69   11.60
   7   6   3   32.70    9.60
   6  -7  -3    0.50    9.80
  -6   7   3  -21.30   11.20
  -6   7   3  -16.70   15.30
   5  -7  -3   34.90    9.50
  -5   7   3   20.50    8.90
  -5   7   3   15.40   12.20
   4  -7  -3   95.59    9.20
  -4   7   3   95.39   12.00
  -4   7   3  115.99   11.20
   3  -7  -3   67.79    6.60
  -3   7   3   71.09   10.00
  -3   7   3   65.69    7.90
   2  -7  -3   33.60    4.50
  -2   7   3   30.20    6.70
  -2   7   3   37.50    5.70
  -2   7   3   22.10    6.10
  -2   7   3   33.60    4.30
   1  -7  -3   28.20    6.60
   1  -7  -3   26.90    5.00
   1  -7  -3   25.20    2.90
  -1   7   3   28.00    5.00
  -1   7   3   19.40    4.60
   0  -7  -3  600.14   16.80
   0  -7  -3  625.94   20.10
   0  -7  -3  618.44   22.10
   0  -7  -3  603.54   17.00
   0   7   3  616.64   20.40
   0   7   3  638.64   20.20
  -1  -7  -3   82.69    7.00
  -1  -7  -3   63.99    3.80
  -1  -7  -3   60.69    5.30
  -1  -7  -3   74.99    6.20
   1   7   3   69.09    6.60
   1   7   3   74.79    5.80
  -2  -7  -3    5.00    2.40
  -2  -7  -3    8.00    4.00
   2   7   3    8.30    3.00
   2   7   3    4.20    3.20
   2   7   3    8.20    2.10
   2   7   3    7.40    4.20
  -3  -7  -3  290.07   13.30
  -3  -7  -3  281.77   11.00
   3   7   3  287.87   10.90
   3   7   3  279.47   10.80
   3   7   3  289.27   10.80
  -4  -7  -3   37.30    6.70
  -4  -7  -3   42.90    5.60
   4   7   3   47.60    6.10
   4   7   3   43.60    5.30
   4   7   3   53.69    6.60
  -5  -7  -3    7.30    6.20
   5   7   3    0.70    4.80
   5   7   3   -6.40    5.00
   5   7   3   -3.80    3.70
  -6  -7  -3  139.29   15.70
   6   7   3  202.68   12.00
   6   7   3  181.48   14.10
  -7  -7  -3   41.40   12.20
   7   7   3   29.30   10.20
   5  -8  -3    6.10    8.20
  -5   8   3  -26.30   12.80
  -5   8   3   12.00   10.40
   4  -8  -3   22.80    6.50
  -4   8   3   17.70    7.40
   3  -8  -3   65.39    7.50
  -3   8   3   56.69   10.60
  -3   8   3   61.19    8.60
   2  -8  -3   43.30    5.60
  -2   8   3   34.40    7.90
  -2   8   3   50.79    8.70
  -2   8   3   32.50    5.60
  -2   8   3   43.10    4.80
   1  -8  -3  168.98    6.90
   1  -8  -3  191.38   14.80
   1  -8  -3  174.58    7.50
  -1   8   3  176.48   10.20
  -1   8   3  173.48   11.20
   0  -8  -3   13.20    6.10
   0  -8  -3   16.00    5.10
   0  -8  -3   21.40    2.80
   0   8   3   23.10    4.80
   0   8   3   25.60    5.10
  -1  -8  -3   -1.00    2.70
  -1  -8  -3    2.70    4.30
  -1  -8  -3    1.70    2.40
  -1  -8  -3    8.70    4.20
   1   8   3   -3.10    4.50
   1   8   3    0.10    3.40
  -2  -8  -3   30.80    5.60
  -2  -8  -3   34.00    3.90
   2   8   3   35.30    4.60
   2   8   3   35.60    5.10
   2   8   3   28.60    6.30
  -3  -8  -3    8.30    3.90
  -3  -8  -3    7.90    5.20
   3   8   3    5.40    3.90
   3   8   3   14.10    3.80
   3   8   3    6.20    3.10
  -4  -8  -3   19.70    6.00
  -4  -8  -3   23.80    5.80
   4   8   3   17.90    4.70
   4   8   3   20.90    5.00
   4   8   3   25.60    4.60
  -5  -8  -3    2.00    7.20
   5   8   3   10.30    5.60
   5   8   3    8.90    4.20
  -6  -8  -3   78.79   12.30
   6   8   3   77.09   10.20
   7   8   3    6.20   10.10
   4  -9  -3    4.60    6.80
  -4   9   3   -4.10   13.20
  -4   9   3   -0.90    8.80
   3  -9  -3   15.40    5.30
  -3   9   3    1.10   13.60
  -3   9   3    7.80    6.60
   2  -9  -3   -1.40    3.70
  -2   9   3   -2.50    6.00
  -2   9   3   -7.60    7.30
   1  -9  -3    6.30    3.50
   1  -9  -3    5.30    8.90
   1  -9  -3    8.00    3.30
  -1   9   3   11.30    4.80
   0  -9  -3  251.37   16.10
   0  -9  -3  225.18    9.00
   0  -9  -3  210.08    8.50
   0   9   3  218.78   14.40
   0   9   3  237.28   12.10
  -1  -9  -3   70.19    9.40
  -1  -9  -3   57.89    7.50
  -1  -9  -3   60.49    5.90
   1   9   3   68.49    7.70
  -2  -9  -3   22.30    4.10
  -2  -9  -3   29.80    6.70
  -2  -9  -3   18.60    4.10
   2   9   3   22.30    5.40
   2   9   3   21.50    4.80
  -3  -9  -3   28.40    5.10
   3   9   3   20.10    5.30
   3   9   3   32.70    5.30
   3   9   3   35.90    4.60
  -4  -9  -3   60.09    8.00
  -4  -9  -3   72.89    9.20
   4   9   3   65.39    7.30
   4   9   3   70.49    7.80
  -5  -9  -3   11.10    7.80
  -6  -9  -3    2.60   10.90
   6   9   3   13.00    7.60
  -4  10   3   31.30   16.70
  -4  10   3   12.90   16.70
  -3  10   3   10.60    8.40
  -2  10   3   66.79    9.20
   1 -10  -3   -8.10   10.30
   1 -10  -3    0.50    4.00
  -1  10   3   10.90    6.60
   0 -10  -3   15.30    4.10
   0 -10  -3   14.30   10.10
  -1 -10  -3   29.40    8.60
  -1 -10  -3   30.40    4.70
   1  10   3   45.60    6.60
  -2 -10  -3    2.50    4.30
   2  10   3    3.20    4.90
  -3 -10  -3   -3.90    5.00
  -3 -10  -3   -8.40    7.00
   3  10   3    4.40    5.00
   3  10   3    7.30    6.90
  -4 -10  -3   22.50    8.10
   4  10   3   15.00    5.40
   4  10   3   12.10    5.00
  -5 -10  -3   23.70   10.20
   5  10   3    9.70    6.70
  -2  11   3   32.60   10.10
   1 -11  -3   17.80   14.20
  -1  11   3    7.90    7.50
   0 -11  -3    2.10   11.80
   0  11   3    3.80    6.40
  -1 -11  -3   19.50   10.10
  -2 -11  -3   26.50    9.70
   2  11   3    4.40    6.70
  -3 -11  -3    5.50    9.30
   3  11   3    8.80    6.30
  -4 -11  -3    1.80   10.30
   4  11   3    1.10    6.00
  -1  12   3   -3.00    9.20
   0 -12  -3   15.70   15.10
   0  12   3    3.00    8.50
  -1 -12  -3   20.40   13.90
   1  12   3   16.30    8.50
  -2 -12  -3    8.60   12.60
   2  12   3   12.90    9.90
  -3 -12  -3   20.60   12.70
  -3 -11   4   26.20   11.10
  -2 -11   4    9.00   10.20
   1  11  -4  -13.50    9.90
  -1 -11   4   -6.50   10.90
   0  11  -4    5.10    9.90
   0 -11   4   -7.50   10.60
  -1  11  -4   35.40   11.80
   1 -11   4   19.80   11.40
  -4 -10   4   18.10   10.50
  -4 -10   4   22.20    9.50
  -3 -10   4   12.60    8.40
  -3 -10   4   -5.70    6.80
   2  10  -4   14.70    5.90
  -2 -10   4   25.40    8.00
  -2 -10   4   10.40    6.70
   1  10  -4   -0.30    6.50
   0  10  -4   17.10    7.90
  -1  10  -4    0.40    8.50
   1 -10   4    8.30    8.40
  -2  10  -4    0.10   10.00
   2 -10   4    2.40    9.60
  -3  10  -4   18.10   11.80
   3 -10   4   -5.70   10.90
   5   9  -4    8.40    7.50
  -5  -9   4   -5.60    8.80
   4   9  -4   13.20    6.30
  -4  -9   4   15.90    7.20
  -3  -9   4   26.90    6.50
   2   9  -4   28.60    5.10
  -2  -9   4   30.00    5.90
  -2  -9   4   24.10    6.60
   1   9  -4   -3.00    5.00
  -1  -9   4   -5.40    4.90
  -1  -9   4   -1.30    5.50
  -1  -9   4   -1.60    7.10
   0   9  -4    8.80    4.30
   0   9  -4    9.50    5.90
   0  -9   4  -13.30    7.60
   1  -9   4    2.20    6.80
  -2   9  -4   19.20    8.60
  -3   9  -4    2.40   10.20
   3  -9   4   11.20    8.80
  -4   9  -4   14.20   11.70
   4  -9   4    5.10   11.40
   6   8  -4    2.40    8.30
  -6  -8   4    1.10   10.90
   5   8  -4    0.20    6.30
  -5  -8   4    3.80    8.20
   4   8  -4   32.30    6.40
  -4  -8   4   18.30    6.80
   3   8  -4   83.19    4.20
   3   8  -4   93.29   10.90
  -3  -8   4   88.49   10.00
  -3  -8   4   71.89    8.40
   2   8  -4  232.28    9.90
   2   8  -4  214.78   13.30
  -2  -8   4  239.98   12.80
  -2  -8   4  234.18   10.50
  -2  -8   4  221.48    9.40
   1   8  -4  130.59    8.80
  -1  -8   4  142.59   10.30
  -1  -8   4  114.69    7.90
  -1  -8   4  114.89    8.00
   0   8  -4    8.90    4.90
   0   8  -4    3.30    3.30
   0   8  -4    0.00    3.00
   0  -8   4    3.50    5.20
   0  -8   4    8.20    5.20
  -1   8  -4   69.69    9.10
   1  -8   4   72.09   10.10
   2  -8   4  154.58   20.00
  -3   8  -4   17.30    8.70
   3  -8   4   15.60    9.00
  -4   8  -4    4.20   10.60
   4  -8   4  -15.60    8.80
   6   7  -4    7.10    7.30
  -6  -7   4   17.60   11.00
   5   7  -4    2.60    5.70
  -5  -7   4    1.60    7.70
   4   7  -4   29.80    5.50
  -4  -7   4   34.30    6.70
   3   7  -4    3.00    3.70
   3   7  -4    5.80    7.00
  -3  -7   4   -1.40    4.10
   2   7  -4   -1.70    5.00
   2   7  -4   -1.90    2.90
  -2  -7   4    7.40    3.30
  -2  -7   4   -0.90    3.00
  -2  -7   4    2.90    4.30
   1   7  -4    4.80    3.30
   1   7  -4   -1.60    3.80
  -1  -7   4    8.00    3.30
  -1  -7   4    5.90    4.40
  -1  -7   4    4.20    3.00
  -1  -7   4   -3.00    4.10
   0   7  -4   15.00    4.30
   0   7  -4   24.30    3.00
   0  -7   4   20.90    4.40
   0  -7   4   15.50    4.90
   0  -7   4   19.50    4.40
  -1   7  -4   36.60    8.40
  -1   7  -4   38.30    6.20
   1  -7   4   29.30    7.20
   1  -7   4   36.90    6.30
  -2   7  -4   -0.10    2.80
  -2   7  -4   -4.80    5.20
   2  -7   4    3.70    5.10
  -3   7  -4   23.50    4.90
  -3   7  -4   28.10    8.00
   3  -7   4   12.80    6.40
  -4   7  -4   -1.30    8.90
  -4   7  -4   -4.70    6.10
   4  -7   4    3.20    7.50
  -5   7  -4    4.70   10.60
   5  -7   4    2.80   10.10
   7   6  -4   -0.10    9.10
  -7  -6   4   -7.90   11.60
   6   6  -4   -0.50    7.20
  -6  -6   4   11.50    8.60
   5   6  -4   10.30    5.60
  -5  -6   4  -15.40   11.20
   4   6  -4 1355.76   40.90
   4   6  -4 1224.48   41.80
  -4  -6   4 1320.67   39.50
   3   6  -4   73.59    9.90
   3   6  -4   68.79    6.60
  -3  -6   4   59.89    6.90
   2   6  -4   15.20    4.50
  -2  -6   4   15.30    3.30
  -2  -6   4   10.20    3.90
  -2  -6   4   13.60    4.40
  -2  -6   4   15.30    2.50
   1   6  -4   16.20    3.60
   1   6  -4   13.10    3.20
  -1  -6   4   15.50    3.60
  -1  -6   4   19.20    3.20
  -1  -6   4   12.70    3.60
   0   6  -4  106.49    7.20
   0  -6   4  102.89    6.80
   0  -6   4  103.69    6.70
   0  -6   4  110.39    8.30
  -1   6  -4  255.87   11.70
  -1   6  -4  265.37   11.90
   1  -6   4  244.98   12.10
   1  -6   4  243.58   11.10
  -2   6  -4   13.40    5.40
  -2   6  -4   16.90    2.90
  -2   6  -4   17.60    2.50
  -2   6  -4   12.00    5.10
   2  -6   4   22.30    5.20
  -3   6  -4    6.70    4.10
  -3   6  -4    4.80    5.90
   3  -6   4   10.90    5.90
  -4   6  -4   13.80   10.00
  -4   6  -4   -1.40    6.70
  -4   6  -4    6.70    5.70
  -5   6  -4    7.10    8.60
  -5   6  -4    0.20    7.60
   5  -6   4  -10.80    7.90
  -6   6  -4   32.40   13.20
   6  -6   4   17.30   11.40
   7   5  -4  -14.40    8.00
  -7  -5   4  -15.60   11.20
   6   5  -4   12.20    6.70
  -6  -5   4   14.40    8.00
   5   5  -4  408.06   17.80
  -5  -5   4  418.46   18.90
   4   5  -4 1337.27   43.30
   4   5  -4 1436.26   41.00
  -4  -5   4 1389.66   41.50
   3   5  -4   35.10    6.40
   3   5  -4   32.20    4.60
  -3  -5   4   30.10    4.80
  -3  -5   4   34.80    5.10
   2   5  -4    7.10    3.80
   2   5  -4   11.70    2.10
   2   5  -4   11.90    3.20
  -2  -5   4    3.80    2.60
  -2  -5   4    7.70    1.70
  -2  -5   4    7.40    3.20
   1   5  -4   35.20    4.00
   1   5  -4   37.80    4.50
  -1  -5   4   41.30    3.60
  -1  -5   4   40.70    4.90
  -1  -5   4   33.10    4.60
  -1  -5   4   32.30    4.30
   0   5  -4  131.89    7.00
   0  -5   4  122.99    7.60
   0  -5   4  129.89    6.70
   0  -5   4  124.69    6.70
  -1   5  -4   94.39    6.80
  -1   5  -4  101.79    7.00
   1  -5   4   92.09    6.70
   1  -5   4  108.29    7.50
  -2   5  -4   14.30    2.40
  -2   5  -4    9.00    4.10
  -2   5  -4   16.50    4.50
  -2   5  -4   13.60    2.50
   2  -5   4   14.60    4.50
   2  -5   4   11.60    4.60
  -3   5  -4   -0.30    3.40
  -3   5  -4    3.90    4.60
   3  -5   4   -3.40    4.20
  -4   5  -4   12.10    5.20
  -4   5  -4    2.70    8.20
   4  -5   4   -9.60    5.90
  -5   5  -4   20.30    8.10
  -5   5  -4   19.40    7.40
   5  -5   4   11.10    7.60
  -6   5  -4    0.70   11.40
  -6   5  -4   19.80   10.10
   6  -5   4   -8.10    9.40
   7   4  -4   48.40    9.70
  -7  -4   4   53.19   11.60
   6   4  -4  -14.10    5.40
  -6  -4   4   -7.90    7.70
   5   4  -4   -1.00    3.80
  -5  -4   4    5.10    5.60
   4   4  -4  459.45   17.50
   4   4  -4  480.55   20.60
  -4  -4   4  480.95   18.50
   3   4  -4   22.00    5.20
   3   4  -4   16.30    3.20
  -3  -4   4   26.90    4.40
  -3  -4   4   19.00    3.90
   2   4  -4   39.20    2.30
   2   4  -4   41.70    5.90
   2   4  -4   35.60    3.90
  -2  -4   4   30.40    4.00
  -2  -4   4   39.80    2.30
  -2  -4   4   38.90    4.30
   1   4  -4   71.79    4.60
   1   4  -4   63.09    4.10
  -1  -4   4   74.09    4.10
  -1  -4   4   68.69    5.10
  -1  -4   4   73.19    5.30
  -1  -4   4   75.69    4.10
   0   4  -4  617.04   18.60
   0  -4   4  599.64   19.60
   0  -4   4  632.14   18.40
   0  -4   4  636.34   18.90
  -1   4  -4   50.89    5.00
  -1   4  -4   39.00    4.80
   1  -4   4   46.60    5.00
   1  -4   4   54.19    4.80
  -2   4  -4  156.88    6.30
  -2   4  -4  157.38    9.00
  -2   4  -4  151.78    7.00
  -2   4  -4  159.88    8.70
   2  -4   4  164.08    8.70
   2  -4   4  164.08    8.50
  -3   4  -4   77.69    8.70
  -3   4  -4   66.19    6.00
  -3   4  -4   68.49    7.50
   3  -4   4   71.19    7.60
   3  -4   4   84.39    9.90
   3  -4   4   91.09    7.70
  -4   4  -4   10.80    5.50
  -4   4  -4    6.00    4.70
   4  -4   4    1.00    5.40
   4  -4   4    4.80    4.70
  -5   4  -4    5.10    6.60
  -5   4  -4  -13.10    6.20
   5  -4   4   -5.50    7.10
   5  -4   4    8.50    8.90
  -6   4  -4    4.60    9.70
  -6   4  -4  -11.20    9.00
   6  -4   4   -8.70    7.60
   7   3  -4   10.00    7.40
  -7  -3   4   18.20    9.90
  -6  -3   4   18.70    8.00
  -5  -3   4   13.10    5.80
   4   3  -4  349.07   13.70
  -4  -3   4  328.47   14.90
  -4  -3   4  310.97   13.60
   3   3  -4   39.60    4.40
   3   3  -4   36.00    5.40
  -3  -3   4   39.50    5.50
  -3  -3   4   35.10    4.80
   2   3  -4  588.64   18.80
   2   3  -4  564.54   17.90
  -2  -3   4  559.24   18.10
  -2  -3   4  562.94   18.00
  -2  -3   4  609.74   15.10
   1   3  -4  267.47    9.20
   1   3  -4  257.57    8.30
  -1  -3   4  245.08    8.60
  -1  -3   4  267.97    8.30
  -1  -3   4  265.77    9.90
   0  -3   4  795.72   22.10
   0  -3   4  752.12   22.80
  -1   3  -4  207.08    9.00
  -1   3  -4  216.58    8.60
   1  -3   4  200.88    8.90
   1  -3   4  215.08    8.60
  -2   3  -4  140.69    8.20
  -2   3  -4  148.89    7.70
  -2   3  -4  141.29    5.90
   2  -3   4  139.29    6.30
   2  -3   4  136.39    7.50
   2  -3   4  149.19    7.80
  -3   3  -4  109.89    6.50
  -3   3  -4   90.69    7.20
  -3   3  -4   94.19    8.20
   3  -3   4  100.49    7.60
   3  -3   4  102.69    7.40
   3  -3   4  105.29    7.40
  -4   3  -4   12.40    4.50
  -4   3  -4    5.90    4.50
   4  -3   4    5.30    5.30
   4  -3   4    7.40    4.50
  -5   3  -4    3.90    6.00
  -5   3  -4    6.30    5.80
   5  -3   4  -16.20    8.00
  -6   3  -4    4.40    8.30
  -6   3  -4    4.90    7.70
   6  -3   4  -14.00    6.70
  -7   3  -4   -9.40   10.60
  -7   3  -4    3.00   11.90
   7  -3   4   -4.70    9.60
   7   2  -4   29.80    8.40
  -7  -2   4   38.70   10.80
   6   2  -4   -1.00    3.90
   6   2  -4    3.80    5.70
  -6  -2   4   11.20    8.10
  -6  -2   4   11.00    3.60
   5   2  -4   11.50    2.50
   5   2  -4    3.40    3.70
  -5  -2   4   17.70    5.90
   4   2  -4    6.40    5.00
   4   2  -4   21.20    3.70
  -4  -2   4   24.90    5.60
  -4  -2   4   24.00    4.50
  -4  -2   4   24.50    2.70
   3   2  -4   26.80    3.70
   3   2  -4   24.20    5.00
  -3  -2   4   32.90    4.30
  -3  -2   4   26.00    4.70
  -3  -2   4   21.80    1.70
  -3  -2   4   23.70    1.80
   2   2  -4   10.70    2.50
   2   2  -4   10.60    3.20
  -2  -2   4   15.50    3.00
  -2  -2   4    8.60    2.40
  -2  -2   4   13.60    1.50
  -2  -2   4   13.30    1.50
   1   2  -4  367.26   11.70
   1   2  -4  355.26   11.60
   1   2  -4  364.26   10.50
  -1  -2   4  371.66   10.70
  -1  -2   4  350.46   11.50
  -1  -2   4  385.66   12.00
   0   2  -4    8.10    1.90
   0   2  -4    7.60    1.90
   0  -2   4    4.20    1.80
   0  -2   4    7.70    1.10
   0  -2   4    8.20    1.00
   0  -2   4    8.10    1.80
  -1   2  -4  100.49    5.70
   1  -2   4  102.79    5.60
   1  -2   4   95.39    3.60
   1  -2   4  103.29    5.30
  -2   2  -4 1596.14   41.20
  -2   2  -4 1574.64   42.90
  -2   2  -4 1574.14   43.40
   2  -2   4 1572.54   41.60
   2  -2   4 1553.44   42.90
   2  -2   4 1578.24   42.80
  -3   2  -4  143.99    8.60
  -3   2  -4  152.28    8.30
  -3   2  -4  153.28    7.60
   3  -2   4  151.58    8.10
   3  -2   4  133.99    7.80
   3  -2   4  134.49    8.20
  -4   2  -4   24.80    6.90
  -4   2  -4   38.50    5.60
  -4   2  -4   52.39    6.60
   4  -2   4   47.70    6.90
   4  -2   4   24.40    4.80
   4  -2   4   44.00    6.10
  -5   2  -4   44.30    7.40
  -5   2  -4   36.20    6.50
   5  -2   4   38.60    7.30
   5  -2   4   35.10    8.10
  -6   2  -4   20.60    7.50
  -6   2  -4    4.30    8.60
   6  -2   4    2.60    6.70
  -7   2  -4  -11.60    9.20
  -7   2  -4    4.30   10.60
   7  -2   4    5.50    8.40
   7   1  -4   12.50    8.00
  -7  -1   4    8.60   10.10
  -7  -1   4   -1.60    5.40
   6   1  -4   21.30    4.50
  -6  -1   4   26.20    4.40
   5   1  -4   10.20    3.00
   5   1  -4    3.40    3.60
  -5  -1   4   10.00    2.90
  -5  -1   4   15.50    6.00
   4   1  -4   21.70    6.10
   4   1  -4   30.50    4.50
   4   1  -4   28.50    3.00
  -4  -1   4   26.70    4.20
  -4  -1   4   26.50    5.20
  -4  -1   4   27.60    3.40
   3   1  -4  247.78    7.90
   3   1  -4  254.47   10.00
   3   1  -4  238.28   12.10
  -3  -1   4  249.38    7.90
  -3  -1   4  249.68    9.90
  -3  -1   4  247.78   11.50
   2   1  -4 2433.96   62.69
   2   1  -4 2466.65   64.09
  -2  -1   4 2405.46   62.49
  -2  -1   4 2372.66   60.59
  -2  -1   4 2377.16   60.59
  -2  -1   4 2411.56   63.89
   1   1  -4   13.50    1.70
   1   1  -4   12.40    1.90
   1   1  -4   16.80    2.50
  -1  -1   4   12.80    1.70
  -1  -1   4   15.40    2.50
   0   1  -4    4.80    1.70
   0   1  -4    4.80    1.70
   0  -1   4    4.20    1.70
   0  -1   4    4.40    1.10
   0  -1   4    4.40    1.50
  -1   1  -4  101.79    5.00
  -1   1  -4   99.99    3.90
  -1   1  -4  104.19    5.40
   1  -1   4  103.39    5.20
   1  -1   4   97.09    5.10
   1  -1   4  100.09    4.00
  -2   1  -4   77.99    5.10
  -2   1  -4   97.99    5.90
   2  -1   4   87.09    5.30
   2  -1   4   93.09    5.60
   2  -1   4   89.89    5.00
  -3   1  -4   52.89    6.00
  -3   1  -4   50.79    5.20
  -3   1  -4   48.00    5.20
   3  -1   4   53.19    5.20
   3  -1   4   46.20    5.50
   3  -1   4   52.59    6.10
  -4   1  -4  147.19    8.80
  -4   1  -4  162.88    9.50
  -4   1  -4  156.28    9.80
   4  -1   4  162.28   10.60
   4  -1   4  172.18    9.40
   4  -1   4  141.79    8.70
  -5   1  -4   17.40    6.00
  -5   1  -4   21.00    5.60
   5  -1   4   14.80    8.00
  -6   1  -4    6.50    6.70
  -7   1  -4   27.70   10.90
  -7   1  -4   14.50    8.60
   7  -1   4   17.70    9.10
   7   0  -4   11.30    7.50
  -7   0   4    1.90    5.60
  -7   0   4    3.10   10.40
   6   0  -4    1.10    4.70
  -6   0   4   -1.90    4.10
   5   0  -4   -0.90    3.10
   5   0  -4   -2.60    3.70
  -5   0   4   -3.90    3.00
  -5   0   4    0.40    5.90
   4   0  -4  237.78    9.00
   4   0  -4  232.58   13.70
   4   0  -4  251.57   10.70
  -4   0   4  245.88    9.00
  -4   0   4  251.07   10.60
  -4   0   4  257.67   13.40
   3   0  -4  519.35   19.10
   3   0  -4  514.05   15.10
   3   0  -4  543.85   16.70
  -3   0   4  508.95   18.80
  -3   0   4  503.45   16.30
  -3   0   4  514.05   15.00
   2   0  -4  976.90   28.30
   2   0  -4  962.40   25.40
   2   0  -4  968.20   26.50
  -2   0   4  980.30   26.40
  -2   0   4  868.01   26.00
  -2   0   4  968.70   28.40
   1   0  -4 1680.53   43.40
  -1   0   4 1686.73   43.00
  -1   0   4 1669.63   43.40
  -1   0   4 1665.73   43.00
  -1   0   4 1703.23   45.40
  -1   0   4 1665.43   44.80
   0   0  -4 1072.19   28.20
   0   0  -4 1039.90   28.70
   0   0   4 1054.69   28.20
   0   0   4 1097.09   28.20
   0   0   4 1051.59   28.60
  -1   0  -4 1845.92   48.50
  -1   0  -4 1958.50   49.50
  -1   0  -4 1820.12   49.10
   1   0   4 1936.31   49.40
   1   0   4 1930.41   49.50
   1   0   4 1893.81   48.60
  -2   0  -4   96.09    5.20
  -2   0  -4   91.19    5.20
  -2   0  -4  107.89    5.80
   2   0   4   95.69    5.20
   2   0   4  100.89    5.40
   2   0   4   95.59    5.40
  -3   0  -4   10.20    2.80
  -3   0  -4    7.10    2.70
  -3   0  -4    8.60    3.40
   3   0   4    7.30    2.50
   3   0   4    5.30    3.30
   3   0   4   10.50    3.10
  -4   0  -4   44.50    6.40
  -4   0  -4   38.50    4.90
  -4   0  -4   38.70    5.40
   4   0   4   39.10    5.00
   4   0   4   40.00    6.50
   4   0   4   35.00    5.10
  -5   0  -4    6.60    4.10
  -5   0  -4    5.10    5.20
   5   0   4    9.30    4.50
   5   0   4    3.60    7.50
   5   0   4   13.90    9.80
  -6   0  -4   -1.80    7.90
  -6   0  -4    2.30    7.00
  -7   0  -4   -3.10    7.90
  -7   0  -4   12.90    9.80
   7   0   4    6.20    8.00
   7  -1  -4   21.50    8.30
  -7   1   4   17.10   10.60
  -7   1   4   13.90    6.70
   6  -1  -4   -0.40    5.80
  -6   1   4    4.10    8.10
  -6   1   4    9.30    4.90
   5  -1  -4   59.59    6.80
   5  -1  -4   54.99    7.40
  -5   1   4   66.19    9.40
  -5   1   4   62.39    6.30
   4  -1  -4  401.56   14.60
   4  -1  -4  401.76   13.50
   4  -1  -4  394.56   18.10
  -4   1   4  408.46   14.60
  -4   1   4  393.96   17.70
  -4   1   4  404.86   13.60
   3  -1  -4    1.50    1.80
   3  -1  -4    3.20    2.00
   3  -1  -4    0.30    3.70
  -3   1   4    9.40    3.80
  -3   1   4    0.80    1.80
  -3   1   4   -1.40    1.60
   2  -1  -4  132.29    5.80
   2  -1  -4  138.39    5.90
  -2   1   4  154.58    9.00
  -2   1   4  135.69    5.60
  -2   1   4  150.28    7.90
   1  -1  -4 4313.77  109.19
   1  -1  -4 4322.67  108.79
  -1   1   4 4310.37  108.79
  -1   1   4 4415.56  110.89
  -1   1   4 4491.25  111.59
  -1   1   4 4308.47  109.19
   0  -1  -4 2831.72   81.29
   0  -1  -4 3128.49   79.29
   0   1   4 3187.48   78.69
   0   1   4 3317.27   79.89
   0   1   4 3212.28   79.09
  -1  -1  -4 2944.01   75.09
  -1  -1  -4 2887.81   76.29
  -1  -1  -4 2999.60   75.39
   1   1   4 3002.90   75.39
   1   1   4 2983.80   75.39
   1   1   4 2973.80   75.09
  -2  -1  -4 1896.71   49.30
  -2  -1  -4 1847.62   48.90
  -2  -1  -4 1867.81   49.00
   2   1   4 1896.11   49.10
   2   1   4 1868.71   49.70
   2   1   4 1836.02   48.90
  -3  -1  -4  227.98    9.20
  -3  -1  -4  233.18   10.00
  -3  -1  -4  228.78    9.80
   3   1   4  228.48    9.40
   3   1   4  225.78   10.40
   3   1   4  237.88    9.50
  -4  -1  -4  198.58    8.90
  -4  -1  -4  196.28   10.20
  -4  -1  -4  200.58   10.30
   4   1   4  194.78    9.40
   4   1   4  178.28    9.20
   4   1   4  186.28   11.30
  -5  -1  -4  352.76   14.20
  -5  -1  -4  358.56   16.10
   5   1   4  381.46   15.00
   5   1   4  313.27   14.40
  -6  -1  -4   41.40    6.70
  -6  -1  -4   32.80    8.10
   6   1   4   43.30    7.60
  -7  -1  -4   17.30   10.10
  -7  -1  -4   11.80    7.20
   7   1   4   43.10    9.00
   7  -2  -4   11.40    8.60
  -7   2   4   19.20    7.60
  -7   2   4   22.60   12.10
  -6   2   4    0.20    5.50
  -6   2   4    0.00    8.30
   5  -2  -4  667.13   22.60
   5  -2  -4  731.53   23.70
  -5   2   4  680.23   22.50
  -5   2   4  710.73   27.80
   4  -2  -4  100.09   10.50
   4  -2  -4   81.89    6.40
   4  -2  -4   90.09    6.40
  -4   2   4   81.39    9.50
  -4   2   4   81.29    6.50
  -4   2   4   92.29    6.10
   3  -2  -4  212.48    8.60
   3  -2  -4  208.08    8.60
  -3   2   4  206.88   11.10
  -3   2   4  207.28    8.40
  -3   2   4  211.58   13.00
  -3   2   4  206.88    8.50
   2  -2  -4    1.40    1.70
   2  -2  -4    0.80    1.40
  -2   2   4    2.10    1.40
  -2   2   4   -2.30    3.20
  -2   2   4    3.10    2.40
   1  -2  -4   32.80    3.40
   1  -2  -4   41.60    5.10
   1  -2  -4   41.70    2.40
  -1   2   4   36.50    4.50
  -1   2   4   35.70    3.00
  -1   2   4   38.10    2.20
   0  -2  -4 1992.70   52.89
   0   2   4 1996.60   51.59
   0   2   4 2068.59   51.79
   0   2   4 2024.50   52.39
   0   2   4 1953.10   50.19
   0   2   4 1968.40   49.99
  -1  -2  -4 1611.54   40.90
  -1  -2  -4 1574.04   41.60
  -1  -2  -4 1626.64   42.30
   1   2   4 1575.14   43.10
   1   2   4 1565.14   40.70
  -2  -2  -4  491.95   18.20
  -2  -2  -4  538.05   16.10
  -2  -2  -4  551.74   16.90
   2   2   4  554.94   16.30
   2   2   4  546.45   17.10
   2   2   4  547.55   16.00
  -3  -2  -4  334.87   12.20
  -3  -2  -4  343.47   13.00
  -3  -2  -4  348.57   11.80
   3   2   4  345.87   12.20
   3   2   4  344.97   13.50
   3   2   4  342.97   12.00
  -4  -2  -4    5.20    3.60
  -4  -2  -4   10.10    3.80
  -4  -2  -4    9.80    3.00
   4   2   4    0.60    2.70
   4   2   4    8.70    4.90
   4   2   4    5.20    3.40
  -5  -2  -4   39.20    5.30
  -5  -2  -4   41.40    7.00
   5   2   4   34.00    5.50
   5   2   4   43.30    5.90
  -6  -2  -4   18.10    5.40
   6   2   4   18.20    5.90
  -7  -2  -4   -0.20    9.90
  -7  -2  -4   17.80    6.90
   7   2   4    4.10    7.50
   8   2   4  -19.70   11.30
   7  -3  -4   13.50    8.60
  -7   3   4  -10.70   13.50
  -7   3   4   -7.20    8.50
  -6   3   4   31.50    7.20
  -6   3   4   39.60   10.50
   5  -3  -4   -1.50    4.20
  -5   3   4    1.90    4.30
   4  -3  -4  265.97   12.00
   4  -3  -4  294.77   11.70
  -4   3   4  275.47   19.10
  -4   3   4  264.67   11.60
  -4   3   4  299.07   15.60
  -4   3   4  283.77   11.90
   3  -3  -4    2.70    2.00
   3  -3  -4    2.70    2.80
  -3   3   4    6.20    2.70
  -3   3   4   -1.40    5.50
  -3   3   4    5.10    4.20
  -3   3   4    2.50    2.30
   2  -3  -4   -0.40    1.50
   2  -3  -4    1.70    2.10
  -2   3   4   -5.90    2.70
  -2   3   4    2.30    1.70
  -2   3   4    4.00    4.00
  -2   3   4    0.40    1.70
   1  -3  -4  942.91   29.20
   1  -3  -4  961.10   26.50
   1  -3  -4  930.11   24.40
  -1   3   4  973.00   28.30
  -1   3   4  947.31   26.40
  -1   3   4  928.21   24.40
   0  -3  -4    4.40    2.20
   0  -3  -4    6.80    1.90
   0   3   4    8.90    2.40
   0   3   4    9.70    2.10
  -1  -3  -4  110.99    4.10
  -1  -3  -4  108.59    5.80
   1   3   4  109.79    3.90
   1   3   4  107.59    5.00
   1   3   4  108.89    5.20
   1   3   4  117.49    5.90
  -2  -3  -4   39.50    3.40
  -2  -3  -4   36.60    3.30
  -2  -3  -4   37.40    3.90
   2   3   4   33.20    4.30
   2   3   4   40.00    3.60
   2   3   4   35.20    2.90
  -3  -3  -4  464.75   14.70
  -3  -3  -4  471.15   16.50
  -3  -3  -4  455.55   15.10
   3   3   4  483.25   15.00
   3   3   4  465.75   15.10
   3   3   4  462.65   16.90
  -4  -3  -4   36.60    5.80
  -4  -3  -4   35.90    4.40
  -4  -3  -4   32.20    4.70
   4   3   4   35.80    4.60
   4   3   4   39.10    6.60
   4   3   4   26.90    4.30
  -5  -3  -4   -6.70    3.30
  -5  -3  -4   -6.40    4.60
   5   3   4   -0.80    4.10
   5   3   4    2.10    3.50
  -6  -3  -4    1.90    4.50
   6   3   4   -3.60    5.10
   6   3   4    4.20    6.00
  -7  -3  -4    9.90    6.50
  -7  -3  -4   21.40    9.90
   7   3   4   12.90    7.40
   8   3   4   -5.70   10.30
   7  -4  -4   22.40    9.50
  -7   4   4   38.10   15.00
  -7   4   4   27.40   10.30
  -6   4   4  -10.10   10.50
  -6   4   4    3.50    7.10
   5  -4  -4    9.60    4.50
  -5   4   4    2.60    5.20
   4  -4  -4   14.60    4.00
  -4   4   4   14.00    4.50
  -4   4   4   17.20    6.80
  -4   4   4   15.50    4.10
   3  -4  -4   14.50    3.00
   3  -4  -4    6.10    3.20
  -3   4   4   16.50    5.70
  -3   4   4   12.20    3.30
  -3   4   4   11.50    3.20
  -3   4   4   16.00    5.50
   2  -4  -4   10.30    2.10
   2  -4  -4   15.80    3.60
  -2   4   4   10.30    2.20
  -2   4   4   17.10    4.40
  -2   4   4    7.90    4.80
  -2   4   4   13.50    2.90
   1  -4  -4  542.35   16.80
   1  -4  -4  529.85   14.00
   1  -4  -4  516.65   19.30
  -1   4   4  557.54   18.30
  -1   4   4  504.25   16.50
  -1   4   4  524.45   14.10
   0  -4  -4   79.79    5.00
   0  -4  -4   83.59    5.90
   0   4   4   79.59    5.40
   0   4   4   73.29    4.60
  -1  -4  -4  292.97    8.20
  -1  -4  -4  274.37   10.90
   1   4   4  292.87   10.20
   1   4   4  286.47   10.00
   1   4   4  284.87   10.80
   1   4   4  280.97    8.00
  -2  -4  -4   18.00    2.60
  -2  -4  -4   19.30    3.50
   2   4   4   19.30    2.60
   2   4   4   18.00    3.70
   2   4   4   19.80    3.00
   2   4   4   20.00    2.70
  -3  -4  -4    7.70    3.50
  -3  -4  -4    2.10    2.30
  -3  -4  -4    9.00    2.90
   3   4   4    7.70    3.60
   3   4   4    3.60    1.90
   3   4   4    8.40    2.70
  -4  -4  -4   22.60    4.80
  -4  -4  -4   23.90    4.40
  -4  -4  -4   27.90    4.00
   4   4   4   28.10    4.30
   4   4   4   22.50    5.70
   4   4   4   29.40    4.40
  -5  -4  -4   20.00    4.00
  -5  -4  -4   14.90    5.30
   5   4   4   11.10    4.80
   5   4   4   11.00    4.50
  -6  -4  -4   -4.40    6.80
  -6  -4  -4    1.10    4.50
   6   4   4    0.70    6.00
   6   4   4    4.80    5.60
  -7  -4  -4   -8.80    9.10
  -7  -4  -4   10.60    6.10
   7   4   4   10.60    8.10
   6  -5  -4   26.80    7.20
  -6   5   4    3.60   11.70
  -6   5   4    8.60    8.20
   5  -5  -4    7.10    5.30
  -5   5   4    0.50    5.70
   4  -5  -4   63.19    7.10
  -4   5   4   68.29   10.10
  -4   5   4   62.19    7.90
  -4   5   4   52.59    6.40
   3  -5  -4   17.70    5.10
   3  -5  -4   20.10    3.30
  -3   5   4   19.80    7.60
  -3   5   4   16.00    3.90
  -3   5   4   20.90    4.10
  -3   5   4   18.40    5.70
   2  -5  -4  131.99    7.50
   2  -5  -4  125.79    5.60
  -2   5   4  124.29    9.50
  -2   5   4  124.79    9.20
  -2   5   4  116.59    5.80
  -2   5   4  121.79    7.20
   1  -5  -4  170.58   10.60
   1  -5  -4  164.68    5.10
   1  -5  -4  154.18    7.90
  -1   5   4  165.98    5.20
  -1   5   4  157.78    8.80
  -1   5   4  166.38    7.80
   0  -5  -4   19.60    3.90
   0  -5  -4   18.50    3.10
   0   5   4   19.30    2.90
   0   5   4   20.20    3.80
  -1  -5  -4  101.39    6.60
  -1  -5  -4  101.59    3.70
   1   5   4   94.79    5.50
   1   5   4   86.89    6.30
   1   5   4   94.89    3.40
   1   5   4  101.39    5.90
  -2  -5  -4  305.87   10.00
  -2  -5  -4  313.87   12.40
   2   5   4  305.67   10.80
   2   5   4  307.97   10.90
   2   5   4  296.37   12.50
   2   5   4  300.57    9.70
  -3  -5  -4   60.39    5.10
  -3  -5  -4   56.39    6.20
   3   5   4   44.10    5.00
   3   5   4   49.20    4.50
   3   5   4   57.39    7.10
   3   5   4   62.39    4.90
  -4  -5  -4    4.70    3.00
  -4  -5  -4    1.50    4.00
  -4  -5  -4    8.00    3.70
   4   5   4   -3.90    3.40
   4   5   4    4.40    3.00
  -5  -5  -4    6.80    3.70
   5   5   4    4.70    4.40
   5   5   4    0.40    4.20
  -6  -5  -4   35.70    5.80
  -6  -5  -4   30.30    8.30
   6   5   4   48.70    8.30
   6   5   4   13.40    6.20
  -7  -5  -4   13.20   10.00
  -7  -5  -4   -2.60    6.30
   7   5   4   -9.30    7.80
   6  -6  -4   -2.50    7.60
  -6   6   4    5.60   14.20
  -6   6   4    1.30    9.10
   5  -6  -4    5.90    6.10
  -5   6   4   -6.30    6.10
  -5   6   4   -9.10    9.40
   4  -6  -4    9.50    4.40
  -4   6   4    5.00    5.50
  -4   6   4   10.40    8.30
  -4   6   4    6.70    5.70
   3  -6  -4   52.39    5.50
  -3   6   4   50.79    8.40
  -3   6   4   46.50    6.60
  -3   6   4   51.59    6.80
   2  -6  -4    5.00    2.30
   2  -6  -4    8.30    4.40
  -2   6   4    8.10    5.00
  -2   6   4    5.70    3.20
  -2   6   4   -0.60    4.40
  -2   6   4    6.70    2.70
   1  -6  -4   96.39    9.30
   1  -6  -4   74.49    3.20
   1  -6  -4   75.49    6.20
  -1   6   4   74.59    6.10
  -1   6   4   77.59    3.30
  -1   6   4   78.79    7.30
   0  -6  -4    9.10    4.20
   0  -6  -4    6.10    3.20
   0   6   4    7.20    2.60
   0   6   4    7.10    3.40
  -1  -6  -4   53.19    6.00
  -1  -6  -4   56.69    3.00
  -1  -6  -4   60.49    3.00
  -1  -6  -4   64.89    5.40
   1   6   4   54.19    5.90
   1   6   4   65.79    5.10
  -2  -6  -4    2.00    2.20
  -2  -6  -4    3.70    3.20
   2   6   4    2.20    2.80
   2   6   4    1.40    1.70
   2   6   4    3.50    2.70
   2   6   4   -1.50    3.80
  -3  -6  -4  410.26   13.80
  -3  -6  -4  424.56   16.40
   3   6   4  369.96   16.50
   3   6   4  412.76   13.90
   3   6   4  411.46   13.60
   3   6   4  402.86   13.90
  -4  -6  -4   22.80    5.80
  -4  -6  -4   28.80    4.70
   4   6   4   11.90    4.00
   4   6   4   26.10    4.40
   4   6   4   18.60    4.00
   5   6   4   -3.70    4.20
   5   6   4    0.30    5.10
   5   6   4    0.30    3.90
  -6  -6  -4   44.40    9.20
   6   6   4   47.90    8.40
  -7  -6  -4   32.50   11.30
   7   6   4   38.80   10.00
   6  -7  -4    6.20    9.80
  -6   7   4  -10.90   15.40
  -6   7   4   -4.30   10.70
   5  -7  -4   20.20    7.50
  -5   7   4   17.60    9.00
  -5   7   4   12.10   11.40
   4  -7  -4    8.00    5.00
  -4   7   4   -2.80    6.30
  -4   7   4   11.30    6.40
   3  -7  -4   -3.70    3.10
  -3   7   4   -1.60    6.80
  -3   7   4   -0.20    4.30
   2  -7  -4   10.00    2.80
  -2   7   4    6.30    5.90
  -2   7   4   11.30    3.50
  -2   7   4   12.70    4.20
  -2   7   4    1.00    5.80
   1  -7  -4   37.80    2.80
   1  -7  -4   31.20    7.30
   1  -7  -4   20.90    4.80
   1  -7  -4   27.40    2.40
  -1   7   4   46.50    5.80
  -1   7   4   40.80    6.20
   0  -7  -4  129.69    8.10
   0  -7  -4  127.19    9.90
   0   7   4  118.79    8.30
   0   7   4  143.39    8.20
  -1  -7  -4   25.60    2.80
  -1  -7  -4   23.10    2.50
  -1  -7  -4   24.80    4.30
  -1  -7  -4   18.20    4.70
   1   7   4   31.80    4.50
   1   7   4   15.90    3.90
  -2  -7  -4    3.80    2.40
  -2  -7  -4    5.90    4.20
   2   7   4    8.00    4.80
   2   7   4   -0.80    2.90
   2   7   4   -0.40    3.30
  -3  -7  -4   17.60    3.80
  -3  -7  -4   10.00    4.40
   3   7   4    7.90    3.60
   3   7   4    7.70    3.00
   3   7   4   11.40    3.50
  -4  -7  -4   -1.00    4.40
  -4  -7  -4    0.10    6.00
   4   7   4    4.80    4.00
   4   7   4   -3.20    3.40
   4   7   4   -2.80    3.60
  -5  -7  -4   23.70    7.80
   5   7   4   16.20    4.80
   5   7   4    8.80    5.60
   5   7   4   15.00    5.40
  -6  -7  -4   30.50    9.40
   6   7   4   40.40    6.50
   6   7   4   31.20    8.10
  -7  -7  -4    1.00   11.10
   7   7   4   -7.10    9.60
  -5   8   4   16.00   14.10
  -5   8   4   25.50   10.70
   4  -8  -4   30.10    6.30
  -4   8   4   43.30   12.10
  -4   8   4   37.00    8.80
   3  -8  -4   -2.70    3.90
  -3   8   4    9.50    9.70
  -3   8   4    6.40    4.90
   2  -8  -4    5.80    2.90
  -2   8   4   -0.70    6.70
   1  -8  -4   18.90    2.40
   1  -8  -4   18.50    8.00
   1  -8  -4   22.30    2.60
  -1   8   4   21.30    4.80
  -1   8   4   28.10    6.50
   0  -8  -4   40.50    7.40
   0   8   4   42.40    5.80
   0   8   4   27.70    6.00
  -1  -8  -4 1178.08   35.90
  -1  -8  -4 1062.29   29.20
  -1  -8  -4 1132.09   33.00
  -1  -8  -4 1121.69   28.90
   1   8   4 1134.69   33.00
   1   8   4 1057.29   34.00
  -2  -8  -4   96.49    9.10
   2   8   4   97.99    7.20
   2   8   4   98.69    8.00
  -3  -8  -4   78.59    9.20
  -3  -8  -4   92.49    7.10
   3   8   4  104.59    7.30
   3   8   4   90.99    6.10
   3   8   4   78.89    7.50
  -4  -8  -4   50.39    7.70
  -4  -8  -4   50.49    6.60
   4   8   4   54.99    6.70
   4   8   4   55.49    6.70
   4   8   4   29.60    6.80
  -5  -8  -4    9.20    7.70
   5   8   4    6.80    4.60
   5   8   4   12.00    5.60
  -6  -8  -4   13.30    9.60
   6   8   4   16.30    8.10
  -4   9   4   12.00    8.90
  -4   9   4    5.90   13.50
   3  -9  -4   11.90    4.80
  -3   9   4   10.40    7.40
   2  -9  -4   93.99    6.20
  -2   9   4   77.69   10.30
  -2   9   4   98.39   13.60
   1  -9  -4    1.50    2.50
   1  -9  -4    1.70    2.40
   1  -9  -4    7.60    8.80
   0  -9  -4  319.17   18.40
   0   9   4  340.17   15.10
  -1  -9  -4  222.68    8.50
  -1  -9  -4  238.48    8.00
  -1  -9  -4  238.88   15.20
   1   9   4  256.27   12.50
  -2  -9  -4   57.99    5.70
  -2  -9  -4   57.79    8.20
  -2  -9  -4   60.69    5.80
   2   9   4   59.59    7.40
   2   9   4   57.29    7.20
  -3  -9  -4    9.90    4.60
  -3  -9  -4   11.30    6.50
   3   9   4    6.30    3.20
   3   9   4   -3.20    5.00
   3   9   4    8.50    4.40
  -4  -9  -4   39.10    8.60
  -4  -9  -4   23.20    6.70
   4   9   4   39.90    5.70
   4   9   4   37.50    5.90
   4   9   4   33.50    6.80
  -5  -9  -4    0.40    8.20
   5   9   4    4.40    5.20
   5   9   4   -2.80    5.70
  -6  -9  -4    1.50   10.30
   6   9   4    0.10    6.90
  -3  10   4    2.70   12.20
  -3  10   4    3.10    9.00
  -2  10   4   12.10    7.00
   1 -10  -4   31.10   13.80
  -1  10   4   31.40    7.10
   0 -10  -4   40.90   13.70
  -1 -10  -4    4.40    3.50
   1  10   4   -2.50    8.00
  -2 -10  -4   14.90    7.50
  -2 -10  -4   24.00    4.30
   2  10   4   29.50    6.00
  -3 -10  -4   25.50    5.40
  -3 -10  -4   26.60    8.40
   3  10   4   19.40    5.60
  -4 -10  -4    4.30    8.50
   4  10   4   -7.50    5.40
   4  10   4   -0.20    4.70
  -5 -10  -4   -1.10    9.80
   5  10   4    8.30    7.30
  -2  11   4   44.50   13.60
  -2  11   4   23.20    9.30
   1 -11  -4  -16.80   14.50
  -1  11   4   18.10    7.70
   0 -11  -4  -11.10   12.20
   0  11   4   -1.60    6.50
  -1 -11  -4   45.20   11.90
   1  11   4   31.70    8.90
  -2 -11  -4   -5.00   10.00
   2  11   4   -6.60    6.30
  -3 -11  -4    9.40    9.20
   3  11   4   -2.90    6.60
  -4 -11  -4   -7.90    9.70
   1 -12  -4  -11.40   17.30
  -1  12   4    1.50    9.20
   0 -12  -4   -6.40   16.10
   0  12   4    7.20    8.60
  -1 -12  -4   23.50   15.10
   1  12   4   22.90    8.40
  -2 -12  -4   29.10   13.70
   2  12   4   16.20    8.50
  -3 -12  -4   -0.20   12.80
  -2 -11   5    0.50   11.30
  -1 -11   5   22.20   12.90
   0  11  -5    8.10   10.70
   0 -11   5   21.70   12.00
  -4 -10   5  101.39   13.90
  -3 -10   5  -13.00    8.30
  -2 -10   5    4.70    9.00
   1  10  -5    7.20    7.40
  -1 -10   5   19.40    9.60
   0 -10   5   -5.90    9.20
  -1  10  -5   -1.90    9.20
   1 -10   5   -5.30    9.00
  -2  10  -5  -13.90   10.50
   2 -10   5   -5.30   10.80
   5   9  -5   42.00    9.50
  -5  -9   5   46.50   10.10
  -4  -9   5   11.00    9.60
  -4  -9   5    0.50    7.10
  -3  -9   5   12.60    5.50
  -3  -9   5    5.10    7.20
   2   9  -5    2.60    4.60
  -2  -9   5    0.70    4.80
  -2  -9   5    8.60    9.90
   1   9  -5    7.80    5.80
  -1  -9   5    9.40    6.10
  -1  -9   5    3.00    7.30
   0   9  -5    0.50    6.40
   1  -9   5   -7.50    7.60
  -2   9  -5   -0.80    9.00
   2  -9   5    6.60    7.80
  -3   9  -5    1.70   10.70
   3  -9   5   -3.70    9.90
   6   8  -5   -7.30    7.80
  -6  -8   5   -0.90   11.20
   5   8  -5    9.60    7.20
  -5  -8   5   -8.50    8.40
   4   8  -5  -10.90    5.70
  -4  -8   5   -5.00    6.20
   3   8  -5   13.10    8.70
  -3  -8   5   -0.40    4.80
   2   8  -5  162.18   12.20
   2   8  -5  166.88    8.70
  -2  -8   5  148.49    7.90
  -2  -8   5  150.28   12.90
  -2  -8   5  167.38    8.80
   1   8  -5   53.49    7.10
   1   8  -5   61.49    7.90
  -1  -8   5   48.90    5.80
  -1  -8   5   59.49    8.10
  -1  -8   5   59.19    7.70
   0   8  -5   10.20    5.60
   0  -8   5   20.80    6.50
   0  -8   5   12.30    6.40
  -1   8  -5   -1.90    5.80
   1  -8   5   -2.90    6.70
  -2   8  -5   11.30    7.90
  -3   8  -5    1.50    8.40
   3  -8   5    8.90    8.50
  -4   8  -5   10.50   10.40
   4  -8   5    6.40    9.80
   6   7  -5   -3.40    7.70
  -6  -7   5   -4.60   10.50
   5   7  -5   -2.90    6.00
  -5  -7   5    5.70    8.10
   4   7  -5   11.20    5.10
  -4  -7   5   11.10    6.30
   3   7  -5   -3.60    5.30
   3   7  -5    1.30    7.10
  -3  -7   5    0.60    4.40
   2   7  -5   19.20    3.60
   2   7  -5   17.00    6.00
  -2  -7   5   15.40    3.30
  -2  -7   5   17.50    3.70
  -2  -7   5   20.20    5.30
   1   7  -5   50.49    5.80
   1   7  -5   49.80    5.80
  -1  -7   5   47.50    5.10
  -1  -7   5   46.10    6.70
  -1  -7   5   54.09    5.80
   0   7  -5   17.70    4.60
   0  -7   5   20.20    4.70
   0  -7   5   25.80    5.90
  -1   7  -5    1.70    5.00
   1  -7   5    2.20    5.10
  -2   7  -5  118.69   12.40
   2  -7   5  166.18   17.80
  -3   7  -5   69.09    9.90
  -4   7  -5    5.00    8.80
   4  -7   5    1.60    8.00
  -5   7  -5   11.10   11.00
   5  -7   5   -7.60   10.00
   7   6  -5   63.69   12.10
  -7  -6   5   99.79   15.80
   6   6  -5    0.40    6.80
  -6  -6   5    9.40    9.60
   5   6  -5   94.29   10.30
  -5  -6   5   89.69   12.30
   4   6  -5   -2.90    4.30
   4   6  -5   10.50    8.30
  -4  -6   5    1.10    5.20
   3   6  -5  179.48   12.80
   3   6  -5  204.88   10.50
  -3  -6   5  183.68   10.40
   2   6  -5    1.20    4.30
   2   6  -5   -0.30    2.30
  -2  -6   5    0.50    2.90
  -2  -6   5   -2.00    3.70
  -2  -6   5    0.60    2.30
   1   6  -5    1.70    2.90
   1   6  -5    0.50    2.90
  -1  -6   5   -2.20    3.40
  -1  -6   5   -0.90    2.70
  -1  -6   5    3.00    3.50
  -1  -6   5    0.80    2.20
   0   6  -5    8.40    3.60
   0  -6   5    2.20    4.00
   0  -6   5   -0.80    3.60
   0  -6   5    2.00    3.70
  -1   6  -5    0.60    4.40
  -1   6  -5    7.90    4.70
   1  -6   5    4.30    4.40
   1  -6   5    2.80    4.60
  -2   6  -5  111.59    9.80
   2  -6   5   98.49    9.40
  -3   6  -5   63.99    6.00
  -3   6  -5   76.99    6.60
   3  -6   5   87.59   11.10
  -4   6  -5    3.40    5.00
  -4   6  -5   10.90    7.40
   4  -6   5    5.10    6.70
  -5   6  -5    4.40    9.20
   5  -6   5  -14.20    8.50
   7   5  -5   -0.30    8.70
  -7  -5   5   12.40   11.40
   6   5  -5   38.20    8.10
  -6  -5   5   32.20    9.90
   5   5  -5   88.29    9.20
  -5  -5   5  112.99   16.40
   4   5  -5    6.30    4.10
   4   5  -5   17.90    7.50
  -4  -5   5   10.30    5.10
   3   5  -5  104.79    9.80
   3   5  -5  109.89    7.70
  -3  -5   5  126.39    8.20
   2   5  -5   11.30    3.90
   2   5  -5    5.70    2.20
   2   5  -5    2.00    2.50
  -2  -5   5   10.30    3.70
  -2  -5   5    5.40    2.90
  -2  -5   5    7.40    1.90
   1   5  -5   36.20    4.30
   1   5  -5   30.10    4.30
  -1  -5   5   35.40    4.40
  -1  -5   5   29.90    4.30
  -1  -5   5   39.60    3.50
  -1  -5   5   32.90    4.30
   0   5  -5  284.97   11.10
   0  -5   5  270.37   11.00
   0  -5   5  291.97   12.40
   0  -5   5  271.87   10.60
  -1   5  -5  533.45   19.30
  -1   5  -5  612.24   19.70
   1  -5   5  584.84   20.40
   1  -5   5  566.04   18.80
  -2   5  -5    1.10    4.10
  -2   5  -5    1.50    4.80
   2  -5   5    7.40    4.70
   2  -5   5    0.40    4.20
  -3   5  -5   13.80    5.50
  -3   5  -5    6.80    4.00
  -3   5  -5    8.60    5.00
   3  -5   5    7.50    5.00
  -4   5  -5   14.30    5.10
  -4   5  -5    5.00    8.30
  -5   5  -5    6.00    8.40
  -5   5  -5    3.30    6.60
   5  -5   5   -2.00    7.30
  -6   5  -5   -0.40   11.70
   6  -5   5    9.70   10.10
   7   4  -5   22.40    8.10
  -7  -4   5   -9.50   11.40
   6   4  -5    7.00    5.80
  -6  -4   5   14.90    8.10
  -5  -4   5  -10.40    5.50
   4   4  -5  141.39   13.30
   4   4  -5  145.89    9.20
  -4  -4   5  163.78   10.60
   3   4  -5  340.37   13.00
   3   4  -5  302.67   14.40
  -3  -4   5  313.77   13.10
  -3  -4   5  291.37   12.80
   2   4  -5  148.99    8.60
   2   4  -5  149.29    7.50
   2   4  -5  143.79    5.20
  -2  -4   5  150.08    7.30
  -2  -4   5  146.59    5.30
  -2  -4   5  145.39    8.00
   1   4  -5  302.87   10.50
   1   4  -5  318.57   10.40
  -1  -4   5  309.37   10.00
  -1  -4   5  331.07   10.60
  -1  -4   5  320.87   12.30
  -1  -4   5  316.97   12.00
   0   4  -5  204.68    8.60
   0  -4   5  199.08    8.70
   0  -4   5  202.48    9.50
   0  -4   5  200.68    8.30
  -1   4  -5  154.08    8.50
  -1   4  -5  176.38    8.70
   1  -4   5  153.88    7.90
   1  -4   5  163.48    8.90
  -2   4  -5   94.09    3.90
  -2   4  -5   87.39    7.50
  -2   4  -5  110.69    7.90
  -2   4  -5   95.59    4.60
   2  -4   5   78.79    7.10
   2  -4   5  105.99    7.80
  -3   4  -5    4.30    4.20
  -3   4  -5    6.60    3.00
   3  -4   5   14.30    5.00
   3  -4   5    0.00    3.60
  -4   4  -5   54.39    7.40
   4  -4   5   52.09    7.20
  -5   4  -5    9.10    7.80
  -5   4  -5    6.90    6.20
   5  -4   5   -4.60    8.50
   5  -4   5  -15.50    6.50
  -6   4  -5    2.10    9.20
  -6   4  -5   16.60    8.90
   6  -4   5    6.50    8.30
   7   3  -5    9.80    8.20
  -7  -3   5   13.10   11.00
   6   3  -5    1.10    6.20
  -6  -3   5    3.10    8.20
  -5  -3   5  155.08   12.50
   4   3  -5   21.20    5.00
   4   3  -5   19.80    7.00
  -4  -3   5   21.50    5.50
   3   3  -5  118.49    7.10
   3   3  -5  107.39    8.90
  -3  -3   5  107.29    7.40
  -3  -3   5  103.29    7.10
   2   3  -5  267.37   10.10
   2   3  -5  240.08   10.80
   2   3  -5  246.88    7.60
  -2  -3   5  257.07    7.70
  -2  -3   5  238.28   10.10
  -2  -3   5  239.88    9.90
   1   3  -5   23.70    2.90
   1   3  -5   27.80    3.60
  -1  -3   5   23.60    3.40
  -1  -3   5   25.50    3.30
  -1  -3   5   32.10    3.20
  -1  -3   5   27.90    3.60
   0   3  -5  201.48    8.10
   0  -3   5  201.18    8.80
   0  -3   5  196.08    7.90
   0  -3   5  201.68    8.10
  -1   3  -5  104.99    6.60
   1  -3   5  100.69    6.20
   1  -3   5  106.19    6.70
  -2   3  -5   50.19    5.50
  -2   3  -5   40.20    3.20
  -2   3  -5   43.40    5.50
   2  -3   5   44.30    5.40
   2  -3   5   30.90    4.50
   2  -3   5   38.40    3.90
  -3   3  -5    3.30    5.00
  -3   3  -5   -2.40    3.70
  -3   3  -5    6.20    2.80
   3  -3   5    0.40    3.70
   3  -3   5   -2.90    3.70
  -4   3  -5   -0.20    3.90
  -4   3  -5    1.40    4.70
   4  -3   5    6.80    5.30
   4  -3   5    3.50    4.70
  -5   3  -5    2.00    6.70
  -5   3  -5   -1.10    5.60
   5  -3   5    4.10    8.20
  -6   3  -5   -4.80    8.10
  -6   3  -5    9.90    8.80
   6  -3   5    5.30    8.20
  -7   3  -5  -10.80   12.20
  -7   3  -5   11.50   12.10
   7  -3   5   13.10   10.80
   7   2  -5   12.10    7.00
  -7  -2   5   -8.20    9.80
   6   2  -5   24.30    6.40
  -6  -2   5   27.10    8.60
  -6  -2   5   12.00    3.50
   5   2  -5  158.58   10.40
  -5  -2   5  173.68   13.00
   4   2  -5   75.69   10.00
   4   2  -5   65.69    6.10
  -4  -2   5   58.39    8.10
  -4  -2   5   79.39    7.30
  -4  -2   5   60.99    3.50
  -4  -2   5   67.79    3.60
   3   2  -5   49.50    6.60
   3   2  -5   56.39    5.00
  -3  -2   5   49.80    2.80
  -3  -2   5   48.10    6.20
  -3  -2   5   50.39    2.60
  -3  -2   5   45.40    5.10
   2   2  -5 1118.19   31.90
   2   2  -5 1144.69   33.00
  -2  -2   5 1154.78   29.60
  -2  -2   5 1140.69   29.50
  -2  -2   5 1158.48   32.10
  -2  -2   5 1123.29   32.60
  -1  -2   5 1199.98   33.40
  -1  -2   5 1230.88   33.70
  -1  -2   5 1271.77   32.50
  -1  -2   5 1217.08   34.00
   0   2  -5   92.29    4.70
   0  -2   5   82.59    3.70
   0  -2   5   71.89    5.30
   0  -2   5   82.19    5.20
   0  -2   5   87.59    4.80
   0  -2   5   90.99    3.40
  -1   2  -5   86.09    5.50
  -1   2  -5   94.49    5.80
  -1   2  -5   93.69    3.60
   1  -2   5   97.49    5.70
   1  -2   5   88.19    3.60
   1  -2   5   89.89    5.70
  -2   2  -5  708.73   20.10
  -2   2  -5  742.53   23.00
  -2   2  -5  729.83   22.20
   2  -2   5  719.03   20.60
   2  -2   5  717.83   22.20
   2  -2   5  722.33   22.50
  -3   2  -5   32.30    5.20
  -3   2  -5   54.39    6.10
  -3   2  -5   42.90    4.90
   3  -2   5   45.30    5.70
   3  -2   5   39.60    5.40
   3  -2   5   32.80    4.90
  -4   2  -5   94.09    7.70
  -4   2  -5   90.19    7.90
   4  -2   5  101.89    8.30
   4  -2   5   81.79    8.80
  -5   2  -5    4.80    6.10
  -5   2  -5    0.30    5.30
   5  -2   5    1.10    7.60
  -6   2  -5   -1.80    7.10
  -6   2  -5   -4.10    7.50
   6  -2   5   -3.60    6.60
  -7   2  -5   12.40   11.40
  -7   2  -5   13.30   15.70
   7  -2   5   18.50    9.20
   7   1  -5    3.00    6.80
  -7  -1   5    6.30    9.90
   6   1  -5    1.30    4.30
   6   1  -5   -1.90    4.90
  -6  -1   5    7.70    3.70
  -6  -1   5    2.70    8.20
   5   1  -5   13.90    3.30
   5   1  -5   15.70    4.70
  -5  -1   5   13.60    3.20
  -5  -1   5    9.00    6.80
   4   1  -5   62.99    8.70
   4   1  -5   60.99    6.20
   4   1  -5   55.49    4.20
  -4  -1   5   63.09    4.20
  -4  -1   5   64.09    8.30
  -4  -1   5   59.19    6.50
   3   1  -5  398.06   14.10
   3   1  -5  404.46   16.50
  -3  -1   5  411.26   14.30
  -3  -1   5  402.46   12.00
  -3  -1   5  399.56   15.90
   2   1  -5   22.30    3.10
   2   1  -5   23.60    3.90
  -2  -1   5   25.80    3.80
  -2  -1   5   28.30    3.60
  -2  -1   5   18.30    2.30
  -2  -1   5   25.40    2.60
   1   1  -5  196.78    7.50
  -1  -1   5  199.68    8.80
  -1  -1   5  201.28    8.30
  -1  -1   5  214.78    7.10
  -1  -1   5  203.78    7.80
   0   1  -5    9.30    2.00
   0   1  -5   11.50    2.40
   0   1  -5    7.50    1.80
   0  -1   5   12.30    2.30
   0  -1   5    9.20    1.60
   0  -1   5   10.50    2.20
  -1   1  -5   14.00    2.60
  -1   1  -5   15.70    2.60
  -1   1  -5   12.60    1.90
   1  -1   5   11.00    2.50
   1  -1   5   14.20    2.70
   1  -1   5   11.70    1.80
  -2   1  -5  146.19    7.40
  -2   1  -5  148.59    6.50
  -2   1  -5  152.38    8.20
   2  -1   5  150.58    6.80
   2  -1   5  148.89    7.40
   2  -1   5  150.48    7.50
  -3   1  -5   35.10    4.30
  -3   1  -5   31.10    4.70
  -3   1  -5   36.00    5.10
   3  -1   5   34.40    5.00
   3  -1   5   27.60    4.50
   3  -1   5   35.60    4.90
  -4   1  -5   27.40    5.60
  -4   1  -5    6.30    5.60
  -4   1  -5   15.10    4.10
   4  -1   5   19.20    4.50
   4  -1   5   16.40    5.50
   4  -1   5   12.50    4.40
  -5   1  -5    9.10    5.10
  -5   1  -5    4.90    5.10
   5  -1   5    3.00    8.30
  -6   1  -5  -11.40    6.20
  -7   1  -5   41.50   11.00
  -7   1  -5   48.80   10.50
   7  -1   5   57.69   10.70
   7   0  -5   -3.70    7.30
  -7   0   5    4.90   10.80
  -7   0   5    6.10    5.80
   6   0  -5   21.40    5.20
   6   0  -5   26.50    8.90
  -6   0   5   23.20    4.90
   5   0  -5   11.50    4.20
   5   0  -5   13.00    3.80
  -5   0   5    7.20    6.30
  -5   0   5   11.50    3.30
   4   0  -5   19.50    3.90
   4   0  -5   21.30    7.10
   4   0  -5   14.00    2.80
  -4   0   5   15.20    2.80
  -4   0   5   14.70    3.80
  -4   0   5   11.00    5.10
   3   0  -5 1055.39   30.90
   3   0  -5 1164.48   31.90
   3   0  -5 1112.29   34.20
  -3   0   5 1102.09   34.10
  -3   0   5 1133.89   30.00
  -3   0   5 1120.09   31.60
   2   0  -5 3755.62   96.79
   2   0  -5 3602.44   94.79
  -2   0   5 3776.82   93.89
  -2   0   5 3720.33   93.79
  -2   0   5 3762.32   97.19
  -2   0   5 3746.63   94.79
   1   0  -5  730.03   20.60
  -1   0   5  724.13   22.50
  -1   0   5  725.83   21.90
  -1   0   5  762.22   20.40
  -1   0   5  747.03   20.30
   0   0  -5   -1.10    2.00
   0   0  -5    0.10    1.20
   0   0  -5   -0.90    1.40
   0   0   5    1.00    1.40
   0   0   5    1.60    1.60
   0   0   5    0.90    1.30
  -1   0  -5  196.68    7.60
  -1   0  -5  208.08    8.00
  -1   0  -5  197.98    7.70
   1   0   5  205.88    8.00
   1   0   5  214.78    8.10
   1   0   5  207.08    7.30
  -2   0  -5 2997.60   80.59
  -2   0  -5 3163.28   80.09
  -2   0  -5 3285.47   81.29
   2   0   5 3084.89   80.49
   2   0   5 3193.58   80.89
   2   0   5 3076.39   80.89
  -3   0  -5   51.39    5.00
  -3   0  -5   49.99    6.00
  -3   0  -5   43.70    5.10
   3   0   5   46.30    5.10
   3   0   5   43.00    5.50
   3   0   5   50.99    5.90
  -4   0  -5   13.20    4.20
  -4   0  -5   13.00    5.10
  -4   0  -5    6.40    3.60
   4   0   5    7.70    3.80
   4   0   5   14.10    3.80
   4   0   5    4.50    4.90
  -5   0  -5   69.59    9.00
  -5   0  -5   81.09    8.40
   5   0   5   68.59    8.10
   5   0   5   61.69    9.60
  -6   0  -5    0.70    5.70
  -6   0  -5    6.30    7.70
   6   0   5    8.10    5.70
  -7   0  -5   -0.80    7.80
  -7   0  -5    7.80    9.90
   7   0   5   -3.00    8.40
   7  -1  -5    2.90    7.90
  -7   1   5   11.10   11.60
  -7   1   5    5.50    6.60
   6  -1  -5    4.30    6.00
  -6   1   5   21.10    5.40
   5  -1  -5   10.20    4.30
   5  -1  -5   11.90    4.20
  -5   1   5   12.10    3.70
   4  -1  -5  107.79    6.20
   4  -1  -5   92.29    6.80
   4  -1  -5   90.09   10.80
  -4   1   5   85.29    6.70
  -4   1   5   98.79    5.90
  -4   1   5   96.99    9.80
   3  -1  -5  275.87   10.00
   3  -1  -5  271.87   10.50
   3  -1  -5  268.77   13.30
  -3   1   5  278.87    9.80
  -3   1   5  278.97   10.40
  -3   1   5  277.87   13.30
   2  -1  -5  551.44   16.90
   2  -1  -5  572.74   16.90
  -2   1   5  582.74   17.00
  -2   1   5  561.14   19.40
  -2   1   5  596.84   20.90
  -2   1   5  572.44   16.80
   1  -1  -5   26.90    4.20
   1  -1  -5   17.90    2.20
  -1   1   5   18.30    3.40
  -1   1   5   19.50    4.20
  -1   1   5   15.80    2.20
  -1   1   5   21.40    2.40
   0  -1  -5 1295.27   34.40
   0  -1  -5 1250.17   35.40
   0   1   5 1280.97   34.10
   0   1   5 1308.97   34.80
   0   1   5 1300.57   33.40
  -1  -1  -5 1966.60   51.49
  -1  -1  -5 1964.80   51.39
  -1  -1  -5 1919.61   51.59
   1   1   5 2020.90   51.69
   1   1   5 1986.60   51.29
   1   1   5 2006.10   51.49
  -2  -1  -5  910.41   26.10
  -2  -1  -5  885.31   25.80
  -2  -1  -5  952.90   26.10
   2   1   5  891.31   25.70
   2   1   5  908.51   26.10
   2   1   5  928.11   26.20
  -3  -1  -5   11.30    3.40
  -3  -1  -5    8.80    2.50
  -3  -1  -5   14.70    3.30
   3   1   5   10.40    3.20
   3   1   5   17.30    3.90
   3   1   5   12.30    3.20
  -4  -1  -5   -3.60    2.90
  -4  -1  -5   -4.70    4.20
  -4  -1  -5    2.10    3.60
   4   1   5    1.60    3.20
   4   1   5   10.00    3.80
   4   1   5    3.70    4.70
  -5  -1  -5   80.49    9.20
  -5  -1  -5   70.69    7.70
   5   1   5   94.29    8.60
  -6  -1  -5   -9.70    9.50
   6   1   5    0.30    5.70
  -7  -1  -5    2.40    7.50
  -7  -1  -5  -10.10    9.00
   7   1   5    2.70    8.00
   7  -2  -5    5.20    7.60
  -7   2   5    4.80    7.30
  -7   2   5   -6.10   12.50
  -6   2   5   41.90   10.90
  -6   2   5   31.30    6.20
   5  -2  -5   40.90    6.10
   5  -2  -5   29.90    5.70
  -5   2   5   39.80    5.80
   4  -2  -5  170.98    8.50
   4  -2  -5  140.09    8.10
  -4   2   5  140.29    8.10
  -4   2   5  146.09   11.70
  -4   2   5  157.68    8.10
   3  -2  -5   65.69    5.20
   3  -2  -5   73.99    5.40
  -3   2   5   73.99    5.00
  -3   2   5   80.19    7.90
  -3   2   5   75.69    9.30
  -3   2   5   77.29    5.10
   2  -2  -5  576.24   17.30
   2  -2  -5  567.94   16.80
  -2   2   5  567.64   17.30
  -2   2   5  579.14   20.90
  -2   2   5  563.34   19.80
   1  -2  -5  497.55   13.90
   1  -2  -5  498.55   15.10
   1  -2  -5  475.05   17.80
  -1   2   5  509.25   17.10
  -1   2   5  493.45   15.00
  -1   2   5  492.35   13.90
   0  -2  -5  983.50   28.80
   0   2   5  991.50   27.30
   0   2   5 1004.10   28.10
   0   2   5  980.90   26.10
   0   2   5  999.60   27.30
   0   2   5  997.00   25.70
  -1  -2  -5   13.80    2.40
  -1  -2  -5   10.50    2.10
  -1  -2  -5   18.60    2.40
   1   2   5   17.60    2.70
   1   2   5   18.20    2.80
   1   2   5   17.50    2.30
  -2  -2  -5   -0.70    1.80
  -2  -2  -5    2.20    2.20
  -2  -2  -5    0.40    1.90
   2   2   5    0.20    2.20
   2   2   5    1.90    2.20
   2   2   5   -0.80    1.50
  -3  -2  -5   80.89    6.20
  -3  -2  -5   83.79    6.30
  -3  -2  -5   90.09    5.60
   3   2   5   87.69    7.20
   3   2   5   90.39    6.10
   3   2   5   84.49    5.60
  -4  -2  -5    0.80    3.70
  -4  -2  -5    6.00    3.00
  -4  -2  -5    4.10    4.30
   4   2   5    8.70    5.10
   4   2   5   -0.90    2.80
   4   2   5    4.70    3.50
  -5  -2  -5   44.10    6.10
  -5  -2  -5   64.19    8.10
   5   2   5   43.30    6.20
   5   2   5   31.80    6.00
  -6  -2  -5   14.50    5.70
   6   2   5   12.90    6.00
  -7  -2  -5    3.70   10.00
  -7  -2  -5    0.40    7.00
   7   2   5    4.80    7.60
   7  -3  -5   18.90    8.60
  -7   3   5   15.90   13.40
  -7   3   5   14.20    8.70
  -6   3   5   55.09    8.10
  -6   3   5   56.29   12.30
   5  -3  -5   37.90    6.10
  -5   3   5   33.20    5.80
   4  -3  -5 1626.14   46.90
   4  -3  -5 1734.63   46.90
  -4   3   5 1726.23   47.20
  -4   3   5 1736.73   51.99
  -4   3   5 1649.93   46.50
   3  -3  -5   45.50    5.10
   3  -3  -5   40.90    4.20
  -3   3   5   37.20    4.70
  -3   3   5   40.80    4.70
  -3   3   5   44.30    7.40
  -3   3   5   27.30    5.40
   2  -3  -5   36.40    4.30
   2  -3  -5   34.10    3.20
  -2   3   5   29.00    4.50
  -2   3   5   36.20    3.80
  -2   3   5   38.50    6.40
  -2   3   5   32.50    3.30
   1  -3  -5  631.64   19.20
   1  -3  -5  650.13   17.10
   1  -3  -5  641.04   22.10
  -1   3   5  645.84   19.20
  -1   3   5  633.74   20.90
  -1   3   5  637.44   17.10
   0  -3  -5 2815.82   73.89
   0   3   5 2919.51   73.19
   0   3   5 2721.93   71.89
   0   3   5 2760.22   69.59
   0   3   5 2739.63   69.49
   0   3   5 2831.22   72.09
  -1  -3  -5  558.24   18.00
  -1  -3  -5  570.44   15.80
   1   3   5  565.34   17.70
   1   3   5  577.04   15.60
   1   3   5  566.74   17.10
  -2  -3  -5   89.49    5.10
  -2  -3  -5   86.19    5.60
   2   3   5   87.79    5.50
   2   3   5   90.39    4.60
   2   3   5   81.89    6.00
  -3  -3  -5   38.70    5.20
  -3  -3  -5   29.30    3.60
  -3  -3  -5   36.50    4.90
   3   3   5   27.80    3.80
   3   3   5   18.70    4.20
   3   3   5   38.30    4.70
  -4  -3  -5   13.50    3.30
  -4  -3  -5    7.90    4.20
  -4  -3  -5    2.30    3.80
   4   3   5   11.50    3.50
   4   3   5    8.60    3.80
   4   3   5   11.10    5.40
  -5  -3  -5    0.60    4.80
  -5  -3  -5   -1.30    3.60
   5   3   5   -7.40    4.80
   5   3   5   -2.50    3.70
  -6  -3  -5   19.30    5.60
  -6  -3  -5   -3.20   12.70
   6   3   5   37.40    6.80
  -7  -3  -5   -3.80    9.50
  -7  -3  -5   -2.90    6.80
   7   3   5    7.10    8.20
   7  -4  -5    1.90    8.40
  -7   4   5   19.70   15.40
   6  -4  -5   14.10   12.50
  -6   4   5   15.20   11.50
  -6   4   5    0.90    7.30
   5  -4  -5   -1.00    4.40
   4  -4  -5  175.58    9.00
  -4   4   5  158.38   13.70
  -4   4   5  155.08    9.20
  -4   4   5  172.68    9.60
   3  -4  -5  119.29    7.90
   3  -4  -5  116.49    6.30
  -3   4   5  106.29   11.20
  -3   4   5  122.99   10.30
  -3   4   5  121.49    6.80
  -3   4   5  124.49    7.60
   2  -4  -5    0.10    2.80
   2  -4  -5    2.00    1.70
  -2   4   5   -1.50    4.00
  -2   4   5    0.80    1.80
  -2   4   5    1.40    3.80
  -2   4   5   -2.00    2.20
   1  -4  -5    0.70    0.90
   1  -4  -5    1.40    3.70
   1  -4  -5   -3.00    2.40
  -1   4   5    0.40    2.80
  -1   4   5    0.80    2.00
  -1   4   5    2.00    1.10
   0  -4  -5  270.27   11.60
   0  -4  -5  242.18    9.60
   0   4   5  255.17    9.60
   0   4   5  259.07   10.70
  -1  -4  -5    2.90    1.40
  -1  -4  -5    2.90    2.40
   1   4   5    6.10    2.50
   1   4   5    3.80    1.00
   1   4   5    5.80    2.20
   1   4   5    3.60    2.40
  -2  -4  -5   95.09    6.30
  -2  -4  -5  104.99    5.90
  -2  -4  -5  102.79    5.20
   2   4   5   96.29    4.70
   2   4   5  102.89    5.90
   2   4   5  104.89    7.00
  -3  -4  -5    8.40    3.30
  -3  -4  -5    8.20    2.90
  -3  -4  -5   12.40    3.10
   3   4   5   12.70    2.80
   3   4   5   11.50    3.00
   3   4   5    2.30    3.50
  -4  -4  -5   11.70    4.30
  -4  -4  -5   12.30    3.50
  -4  -4  -5   11.50    3.90
   4   4   5   14.70    4.10
   4   4   5   18.00    3.80
   4   4   5    4.50    5.90
  -5  -4  -5   12.50    5.90
  -5  -4  -5    9.00    4.00
   5   4   5    7.30    4.20
   5   4   5   15.70    5.00
  -6  -4  -5   12.60    7.50
  -6  -4  -5   -0.20    4.70
   6   4   5    3.10    5.70
  -7  -4  -5   -2.30    9.60
   7   4   5   17.30    8.10
   6  -5  -5   64.69    9.40
  -6   5   5   71.09   10.20
  -6   5   5   45.20   13.70
   5  -5  -5   30.90    6.00
  -5   5   5   28.90    9.70
  -5   5   5   41.10    7.40
   4  -5  -5  260.97   11.50
  -4   5   5  252.47   16.60
  -4   5   5  224.08   11.60
  -4   5   5  268.57   13.20
   3  -5  -5    3.50    2.70
  -3   5   5    9.60    9.50
  -3   5   5   -1.30    4.90
  -3   5   5    3.40    3.60
  -3   5   5    9.50    3.50
   2  -5  -5    2.80    2.10
   2  -5  -5    1.70    3.10
  -2   5   5    4.10    2.90
  -2   5   5    1.30    4.80
  -2   5   5    0.20    4.50
  -2   5   5    0.80    2.20
   1  -5  -5  112.89    7.00
   1  -5  -5  112.09    9.60
  -1   5   5  103.59    7.80
  -1   5   5  123.99    6.90
   0  -5  -5  420.06   16.60
   0  -5  -5  412.76   14.50
   0   5   5  432.56   15.50
   0   5   5  423.76   14.40
  -1  -5  -5   72.69    6.00
  -1  -5  -5   66.19    2.80
   1   5   5   73.49    5.90
   1   5   5   67.89    2.60
   1   5   5   70.39    5.20
   1   5   5   72.79    5.40
  -2  -5  -5   22.50    2.80
  -2  -5  -5   20.70    3.90
   2   5   5   19.80    3.50
   2   5   5   20.10    3.40
   2   5   5   22.00    4.30
   2   5   5   21.90    2.70
  -3  -5  -5  407.56   15.60
  -3  -5  -5  391.56   13.30
   3   5   5  381.86   13.40
   3   5   5  353.96   15.70
   3   5   5  401.66   13.00
   3   5   5  371.86   13.50
  -4  -5  -5   13.10    3.80
  -4  -5  -5   15.10    4.70
  -4  -5  -5    1.70    4.10
   4   5   5    7.20    3.50
   4   5   5    9.40    4.20
  -5  -5  -5   30.40    5.50
   5   5   5   44.20    6.30
   5   5   5   26.10    5.90
  -6  -5  -5   -0.20    5.20
  -6  -5  -5    9.10    7.70
   6   5   5    5.90    6.20
  -7  -5  -5   26.80   10.70
  -7  -5  -5   13.10    7.50
   7   5   5   31.80    9.60
   6  -6  -5   -0.40    7.80
  -6   6   5   15.40   11.80
  -6   6   5   -4.30   13.30
  -5   6   5   -0.80   10.20
  -5   6   5   -0.70    6.60
   4  -6  -5   41.20    5.50
  -4   6   5   38.00    6.10
  -4   6   5   36.80    7.20
  -4   6   5   25.80    8.60
   3  -6  -5   41.10    4.90
  -3   6   5   52.99    6.90
  -3   6   5   41.00    4.90
  -3   6   5   30.60    7.40
  -2   6   5    4.50    2.50
  -2   6   5   -0.60    4.50
  -2   6   5    0.40    3.30
  -2   6   5   -4.60    5.00
   1  -6  -5  106.29   10.30
   1  -6  -5   69.99    6.70
  -1   6   5   90.19    6.60
  -1   6   5   79.99    7.80
   0  -6  -5  309.87   14.70
   0  -6  -5  327.37   12.60
   0   6   5  309.97   13.10
   0   6   5  308.67   12.20
  -1  -6  -5   71.79    7.20
   1   6   5   79.69    6.40
   1   6   5   88.49    6.10
   1   6   5   82.99    7.00
  -2  -6  -5  162.98    6.60
  -2  -6  -5  154.58    9.50
   2   6   5  162.08    6.20
   2   6   5  160.48    9.70
   2   6   5  149.39    8.00
   2   6   5  155.88    8.10
  -3  -6  -5  277.47   13.00
  -3  -6  -5  272.77   10.60
   3   6   5  255.97    9.90
   3   6   5  263.87   10.90
   3   6   5  284.07   11.20
  -4  -6  -5   -4.70    4.20
  -4  -6  -5   -5.70    4.40
   4   6   5    2.40    3.40
   4   6   5    4.90    4.00
   4   6   5   -2.90    3.30
   5   6   5    8.50    4.90
   5   6   5    3.90    4.00
   5   6   5   -2.80    5.40
  -6  -6  -5   51.09    7.20
  -6  -6  -5   42.50    9.70
   6   6   5   59.59    8.70
  -7  -6  -5   16.70    8.40
  -7  -6  -5    2.70   10.60
   7   6   5    6.90    9.40
   5  -7  -5   -1.10    6.20
  -5   7   5  -12.50   12.90
  -5   7   5    8.60    8.10
   4  -7  -5   42.40    6.00
  -4   7   5   45.00    7.90
  -4   7   5   26.70    7.60
   3  -7  -5   89.19    6.40
  -3   7   5   80.29   10.60
  -3   7   5   86.79    7.60
  -2   7   5    3.20    4.60
  -2   7   5   -1.50    5.70
  -2   7   5    1.60    2.70
   1  -7  -5   22.10    7.70
  -1   7   5   15.70    5.50
  -1   7   5   16.10    4.00
   0  -7  -5   -2.60    5.10
   0  -7  -5    8.10    4.50
   0   7   5   -3.70    3.80
   0   7   5    3.00    3.00
  -1  -7  -5  524.45   20.10
   1   7   5  538.85   18.30
   1   7   5  502.05   19.10
   1   7   5  536.65   18.00
  -2  -7  -5  621.14   22.20
  -2  -7  -5  598.24   17.30
   2   7   5  600.84   17.50
   2   7   5  591.04   19.70
   2   7   5  607.04   19.70
  -3  -7  -5   33.90    4.70
  -3  -7  -5   47.50    6.90
   3   7   5   44.10    5.30
   3   7   5   43.80    5.20
   3   7   5   38.70    4.70
  -4  -7  -5    3.10    4.70
  -4  -7  -5   10.50    5.30
   4   7   5   -1.20    3.60
   4   7   5    1.50    4.00
   4   7   5   10.70    4.50
  -5  -7  -5    2.30    6.80
   5   7   5   10.70    4.90
   5   7   5   12.30    6.70
   5   7   5    6.40    5.20
  -6  -7  -5   30.70    9.50
   6   7   5    6.70    7.20
   6   7   5   13.10    6.30
  -7  -7  -5   23.10   11.70
   7   7   5   -6.60    9.50
  -5   8   5   18.40   10.50
  -5   8   5   13.50   15.00
   4  -8  -5   -8.60    4.90
  -4   8   5   -0.10    7.30
  -4   8   5    4.90   11.40
   3  -8  -5  149.19    8.00
  -2   8   5   61.39    4.90
  -2   8   5   62.39    9.60
   1  -8  -5    6.70    8.00
  -1   8   5    6.20    4.30
   0  -8  -5   42.30    8.40
   0   8   5   42.70    5.80
  -1  -8  -5  428.46   18.70
   1   8   5  409.86   15.90
  -2  -8  -5   15.50    5.90
  -2  -8  -5   13.00    3.20
   2   8   5   10.70    4.80
   2   8   5   17.70    4.50
  -3  -8  -5    1.30    4.00
   3   8   5    3.60    4.10
   3   8   5    2.40    4.80
   3   8   5    2.20    2.80
  -4  -8  -5   -1.20    5.20
  -4  -8  -5   -0.50    6.20
   4   8   5    2.20    4.30
   4   8   5   -6.30    5.50
   4   8   5   -0.90    3.90
  -5  -8  -5   15.10    8.90
   5   8   5    8.00    5.90
  -6  -8  -5   15.70   10.00
   6   8   5    5.70    8.50
  -4   9   5    3.30    9.20
  -4   9   5    2.00   12.40
  -3   9   5   20.10   11.10
  -3   9   5   29.00    7.70
   2  -9  -5    2.40    3.00
  -2   9   5    7.70   10.00
  -2   9   5   -9.30    5.50
   1  -9  -5    2.20    9.70
   0  -9  -5  191.08   16.30
  -1  -9  -5   98.59   12.00
   1   9   5  101.79    9.20
  -2  -9  -5   74.19   14.50
  -2  -9  -5   65.09    5.60
   2   9   5   78.89    8.10
  -3  -9  -5   87.09   11.70
  -3  -9  -5   74.89    7.80
   3   9   5   92.79    8.50
   3   9   5   88.49    6.10
  -4  -9  -5   18.10    7.70
   4   9   5    4.40    4.30
   4   9   5    8.80    7.60
   4   9   5   11.50    5.50
  -5  -9  -5   49.80    9.80
   5   9   5   50.59    7.10
   5   9   5   54.39    7.20
  -6  -9  -5    0.70   11.50
   6   9   5   -7.90    8.20
  -3  10   5  -12.10   12.90
  -3  10   5    3.60    8.80
  -2  10   5   -5.10    7.30
  -2  10   5   10.90   10.90
   1 -10  -5   52.39   14.00
  -1  10   5   37.80    7.70
   0 -10  -5   -4.00   10.00
   0  10   5   11.60    8.20
  -1 -10  -5   16.00    9.40
   1  10   5    9.20    7.00
  -2 -10  -5    9.80    7.80
   2  10   5   -8.00    5.30
  -3 -10  -5   -0.30    8.30
   3  10   5    2.10    5.30
  -4 -10  -5   10.00    9.20
   4  10   5   15.30    6.50
   4  10   5    7.20    4.70
  -5 -10  -5   53.29   12.20
   5  10   5   56.59    8.10
  -2  11   5   12.90    9.20
  -2  11   5   13.00   13.20
   1 -11  -5   -4.50   15.10
  -1  11   5  -13.70    7.20
   0 -11  -5    1.40   13.50
   0  11   5   12.50    7.70
  -1 -11  -5    0.70   11.20
   1  11   5   10.70    7.00
  -2 -11  -5   -6.80   10.50
  -3 -11  -5   22.40   10.80
   3  11   5    8.00    7.20
  -4 -11  -5   17.00   17.30
   4  11   5    6.20    9.30
   1 -12  -5   18.00   19.70
  -1  12   5    9.50    9.40
   0 -12  -5   27.60   17.30
   0  12   5   15.90    9.00
  -1 -12  -5   -6.90   15.40
   1  12   5   -8.80    8.20
  -2 -12  -5   10.30   14.30
   2  12   5    9.10    9.10
  -3 -12  -5   31.20   13.10
   3  12   5    7.30    9.50
  -3 -10   6    7.60    9.70
  -2 -10   6   -1.30    9.70
   1  10  -6   40.90    8.70
  -1 -10   6   59.49   12.00
   0 -10   6    6.10   10.40
  -1  10  -6    6.40   10.40
   1 -10   6    4.20   10.30
  -2  10  -6    4.60   12.00
   2 -10   6   15.20   11.60
   5   9  -6   16.60    9.40
  -5  -9   6   20.80   10.70
  -4  -9   6   11.90    9.90
  -4  -9   6   -0.30    7.70
  -3  -9   6    7.30    7.60
  -3  -9   6    3.60    6.00
   2   9  -6   18.70    5.60
  -2  -9   6   22.90    8.40
   1   9  -6    7.60    6.30
  -1  -9   6    1.80    7.90
   0   9  -6   13.60    7.50
   0  -9   6   -2.60    8.50
  -1   9  -6    7.30    8.20
   1  -9   6    0.20    8.40
  -2   9  -6   13.10    9.60
   2  -9   6   10.90    9.00
  -3   9  -6   12.50   11.40
   3  -9   6   -1.00   11.20
   5   8  -6    8.70    7.50
  -5  -8   6   10.50    8.90
   4   8  -6    6.20    5.90
  -4  -8   6    7.20    6.80
  -3  -8   6   32.80    7.80
  -3  -8   6   35.90    6.20
   2   8  -6   14.60    4.20
  -2  -8   6    5.10    4.40
  -2  -8   6   10.40    4.00
   1   8  -6   43.20    6.40
  -1  -8   6   64.79    8.10
   0   8  -6   -2.20    5.70
  -1   8  -6    9.80    7.20
  -2   8  -6    8.20    7.80
   2  -8   6   -1.80    7.30
  -3   8  -6   57.69   10.80
   3  -8   6   80.49   11.40
  -4   8  -6   -2.70   12.10
   4  -8   6    4.20   10.60
   6   7  -6   -7.40    7.40
  -6  -7   6  -22.70   11.70
   5   7  -6   20.90    7.20
  -5  -7   6    0.20    8.60
   4   7  -6    1.20    5.10
  -4  -7   6   12.40    6.20
   3   7  -6   56.29    9.00
  -3  -7   6   56.29    8.10
   2   7  -6   69.49    5.90
   2   7  -6   72.29    9.40
  -2  -7   6   71.69    6.40
  -2  -7   6   70.89    5.60
   1   7  -6   92.09    7.80
  -1  -7   6  111.39    9.80
  -1  -7   6   95.39    7.30
   0   7  -6   -1.20    4.70
   0  -7   6    2.00    5.00
   0  -7   6    3.90    5.50
  -1   7  -6   11.00    5.70
  -3   7  -6  143.79   14.60
   3  -7   6  110.79   13.00
  -4   7  -6    7.80    9.70
   4  -7   6    2.40    9.10
  -5   7  -6   12.60   12.90
   5  -7   6   14.20   11.00
   6   6  -6   -0.50    7.70
  -6  -6   6   14.10   10.70
   5   6  -6   45.70    7.80
  -5  -6   6   68.89    9.80
   4   6  -6   90.69    9.30
   4   6  -6   69.39   13.70
  -4  -6   6   78.79    9.90
   3   6  -6  117.69   12.30
  -3  -6   6  159.38    9.60
   2   6  -6  178.78    7.50
   2   6  -6  188.28   10.60
  -2  -6   6  179.78    8.30
  -2  -6   6  180.28    9.10
  -2  -6   6  173.68   10.90
   1   6  -6   12.90    3.80
   1   6  -6   14.40    2.90
  -1  -6   6   10.20    3.70
  -1  -6   6   10.30    2.20
  -1  -6   6    5.90    4.30
   0   6  -6  187.08    9.90
   0  -6   6  182.48    9.40
   0  -6   6  183.88   11.50
  -1   6  -6  102.89    9.00
   1  -6   6  105.59    9.60
   1  -6   6   98.29    8.60
  -2   6  -6   96.19   10.30
   2  -6   6   93.59   10.00
  -4   6  -6   -6.80    7.80
   4  -6   6   -6.20    7.30
  -5   6  -6   -8.70   10.00
   5  -6   6   -2.90    9.30
   7   5  -6  113.79   13.70
  -7  -5   6  105.09   15.90
   6   5  -6   -4.30    6.80
  -6  -5   6    5.20    9.00
   5   5  -6   -1.40    5.30
  -5  -5   6   -3.00    7.40
   4   5  -6  141.89    9.70
   4   5  -6  122.69   14.30
  -4  -5   6  127.39   10.80
   3   5  -6 2468.05   69.09
   3   5  -6 2587.44   68.19
  -3  -5   6 2466.35   67.39
   2   5  -6  109.59    5.70
   2   5  -6  113.29    8.40
  -2  -5   6  103.89    6.60
  -2  -5   6  106.99    5.30
  -2  -5   6  121.89    8.50
   1   5  -6   10.20    3.00
   1   5  -6    6.10    2.60
  -1  -5   6    5.10    2.90
  -1  -5   6   10.20    4.20
  -1  -5   6    4.90    3.60
  -1  -5   6    6.90    2.20
   0   5  -6  106.09    7.10
   0  -5   6  112.79    7.00
   0  -5   6  103.69    8.20
   0  -5   6   91.49    7.00
  -1   5  -6  184.98   10.70
  -1   5  -6  225.38   11.00
   1  -5   6  231.68   11.90
   1  -5   6  206.18   10.20
  -2   5  -6   35.70    6.50
   2  -5   6   42.70    7.00
  -3   5  -6   35.80    7.60
  -3   5  -6   33.10    4.60
  -3   5  -6   32.80    4.20
   3  -5   6   34.60   11.80
  -4   5  -6    9.30    6.70
  -4   5  -6   -1.00    4.20
   4  -5   6   -6.50    6.50
  -5   5  -6   10.60    8.80
  -5   5  -6   -7.80    6.70
   5  -5   6   13.60    8.60
  -6   5  -6    6.50   11.30
   6  -5   6  -11.80   10.60
   7   4  -6   -5.50    8.60
  -7  -4   6   28.40   12.00
   6   4  -6   12.90    6.90
  -6  -4   6    9.50    8.80
   4   4  -6   -3.70    7.30
  -4  -4   6   -0.30    5.00
   3   4  -6   97.39    9.30
   3   4  -6  115.39    7.60
  -3  -4   6   97.19    7.90
   2   4  -6    7.00    3.90
   2   4  -6    4.80    2.10
   2   4  -6    0.20    2.50
  -2  -4   6    0.20    2.00
  -2  -4   6    5.10    3.70
  -2  -4   6    4.80    2.80
   1   4  -6  107.89    5.60
  -1  -4   6  113.79    5.40
  -1  -4   6  107.19    7.20
  -1  -4   6  112.69    7.20
  -1  -4   6  118.89    6.00
   0   4  -6   87.09    6.10
   0  -4   6   94.79    6.20
   0  -4   6   90.29    7.00
   0  -4   6  103.39    6.40
  -1   4  -6   29.80    4.60
  -1   4  -6   19.00    4.10
   1  -4   6   17.10    4.00
   1  -4   6   26.40    4.70
  -2   4  -6   21.40    5.30
  -2   4  -6   26.00    5.20
   2  -4   6   15.60    4.50
   2  -4   6   27.70    5.60
  -3   4  -6   54.29    7.40
   3  -4   6   63.69    8.10
   3  -4   6   68.19    6.40
  -4   4  -6   -1.50    4.10
   4  -4   6   -1.00    5.90
  -5   4  -6   -2.40    6.00
  -5   4  -6    3.40    7.60
   5  -4   6    2.20    7.00
  -6   4  -6   13.40   10.70
  -6   4  -6    3.80    9.20
   6  -4   6   -9.30    9.40
   7   3  -6   23.90    8.90
  -7  -3   6   19.30   11.40
   6   3  -6    3.40    5.60
  -6  -3   6  -17.30    8.20
  -5  -3   6  226.18   16.50
   4   3  -6    1.30    7.10
   4   3  -6    1.30    3.30
  -4  -3   6    3.70    4.60
   3   3  -6   97.59    9.00
   3   3  -6   99.89    6.90
  -3  -3   6   96.89    7.70
  -3  -3   6   91.89    3.50
  -3  -3   6   98.69    3.80
  -3  -3   6   91.79    7.30
   2   3  -6  355.56   13.80
   2   3  -6  355.16   13.00
   2   3  -6  355.66   10.90
  -2  -3   6  341.97   13.20
  -2  -3   6  359.66   13.20
  -2  -3   6  369.66   11.00
   1   3  -6   47.40    3.80
  -1  -3   6   39.00    4.30
  -1  -3   6   43.40    5.10
  -1  -3   6   54.49    4.90
  -1  -3   6   41.80    4.80
   0   3  -6   61.99    4.70
   0  -3   6   59.19    5.00
   0  -3   6   53.89    4.80
   0  -3   6   63.89    5.50
  -1   3  -6  196.08    9.20
  -1   3  -6  197.98    9.50
   1  -3   6  212.38    9.40
   1  -3   6  207.98   10.20
  -2   3  -6   18.50    2.10
  -2   3  -6   17.70    4.20
  -2   3  -6   15.80    4.10
   2  -3   6   21.80    4.60
   2  -3   6   16.70    2.60
   2  -3   6   20.40    4.50
  -3   3  -6   91.09    8.20
  -3   3  -6   92.89    6.10
   3  -3   6   89.99    8.80
   3  -3   6   91.59    8.00
  -4   3  -6   26.70    5.10
   4  -3   6   21.90    6.10
  -5   3  -6   -3.60    7.20
  -5   3  -6   -7.40    5.60
   5  -3   6  -10.00    8.00
   5  -3   6   -6.80    6.20
  -6   3  -6   13.70    8.50
  -6   3  -6    9.30    8.90
   6  -3   6  -14.90    8.20
   7   2  -6   16.60    8.60
  -7  -2   6   23.80   12.30
   6   2  -6   19.40    7.10
  -6  -2   6    7.90    3.50
  -6  -2   6    9.30    8.30
   5   2  -6   64.49    7.70
  -5  -2   6   64.09    4.50
  -5  -2   6   77.79   11.10
   4   2  -6   49.60    8.50
   4   2  -6   45.00    6.00
  -4  -2   6   38.00    3.50
  -4  -2   6   48.30    7.30
  -4  -2   6   43.20    3.50
   3   2  -6   19.30    3.60
   3   2  -6   21.60    5.20
  -3  -2   6   21.60    2.40
  -3  -2   6   24.40    5.10
  -3  -2   6   22.20    2.80
  -3  -2   6   24.20    4.40
   2   2  -6   15.30    3.10
   2   2  -6    7.40    3.70
  -2  -2   6   13.50    3.30
  -2  -2   6   15.90    2.40
  -2  -2   6   13.50    3.10
  -2  -2   6   18.20    3.60
   1   2  -6  372.96   11.70
  -1  -2   6  373.36   12.60
  -1  -2   6  378.56   13.40
  -1  -2   6  370.16   12.00
  -1  -2   6  380.86   13.40
  -1  -2   6  393.06   13.20
   0   2  -6  108.59    5.50
   0  -2   6  105.89    4.90
   0  -2   6  112.39    5.70
   0  -2   6  109.59    4.40
   0  -2   6  105.79    6.30
   0  -2   6  106.39    5.90
  -1   2  -6   42.00    5.00
  -1   2  -6   32.30    3.80
  -1   2  -6   35.30    3.10
   1  -2   6   32.90    2.60
   1  -2   6   34.30    4.40
   1  -2   6   36.40    4.40
  -2   2  -6    9.60    3.80
  -2   2  -6    3.90    2.90
  -2   2  -6    2.80    2.10
   2  -2   6   -1.30    2.50
   2  -2   6    5.10    2.50
   2  -2   6    8.70    3.40
  -3   2  -6   50.29    7.30
  -3   2  -6   57.59    6.70
  -3   2  -6   55.69    5.30
   3  -2   6   48.20    6.40
   3  -2   6   46.00    6.50
   3  -2   6   53.19    6.70
  -4   2  -6   60.79    7.80
  -4   2  -6   47.20    6.20
   4  -2   6   55.09    7.30
   4  -2   6   46.60    6.40
  -5   2  -6    7.00    6.50
  -5   2  -6    1.10    5.40
   5  -2   6  -10.20    8.10
  -6   2  -6  -10.00    7.50
  -6   2  -6   15.70    8.40
   6  -2   6   -6.70    7.50
  -7   2  -6    2.20   11.10
  -7   2  -6   -7.00   11.50
   7  -2   6    2.30   10.50
   7   1  -6    0.90    7.90
  -7  -1   6  -13.30   11.60
   6   1  -6   20.00    6.20
  -6  -1   6   24.00    9.30
  -6  -1   6   12.70    3.90
   5   1  -6    1.80    4.60
  -5  -1   6    1.50    2.90
  -5  -1   6    1.50    7.70
   4   1  -6   13.60    7.00
   4   1  -6   31.00    4.80
  -4  -1   6   19.60    5.60
  -4  -1   6   16.80    4.60
  -4  -1   6   27.20    3.50
   3   1  -6   73.19    8.10
   3   1  -6   64.59    5.50
  -3  -1   6   81.19    7.70
  -3  -1   6   73.29    6.00
  -3  -1   6   80.69    4.50
  -3  -1   6   77.29    4.20
   2   1  -6  424.76   14.40
  -2  -1   6  451.35   14.80
  -2  -1   6  433.96   13.10
  -2  -1   6  445.16   15.90
  -2  -1   6  441.76   13.10
   1   1  -6  157.98    6.30
  -1  -1   6  155.38    6.90
  -1  -1   6  153.18    6.80
  -1  -1   6  159.08    8.00
  -1  -1   6  146.99    7.30
  -1  -1   6  148.99    6.90
   0   1  -6  125.69    6.80
   0   1  -6  116.69    5.60
   0  -1   6  119.09    6.30
   0  -1   6  124.89    5.30
   0  -1   6  112.79    5.50
   0  -1   6  127.19    6.00
  -1   1  -6  112.39    6.40
  -1   1  -6  105.59    5.30
  -1   1  -6  109.99    5.80
   1  -1   6  103.19    6.20
   1  -1   6  113.29    6.30
   1  -1   6  113.59    4.90
  -2   1  -6  622.44   19.60
  -2   1  -6  617.44   18.00
  -2   1  -6  620.34   20.20
   2  -1   6  624.24   19.80
   2  -1   6  588.54   19.60
   2  -1   6  615.54   18.40
  -3   1  -6   93.79    7.80
  -3   1  -6   87.89    6.80
  -3   1  -6   88.29    6.10
   3  -1   6   66.79    7.10
   3  -1   6   81.59    7.00
   3  -1   6   96.19    6.90
  -4   1  -6    5.70    3.80
  -4   1  -6   -4.10    4.00
   4  -1   6   -0.40    4.00
   4  -1   6   -2.60    5.20
  -5   1  -6   10.20    5.90
  -5   1  -6   11.30    5.80
   5  -1   6   13.30    8.80
  -6   1  -6   11.30    7.30
   6  -1   6    3.70    6.40
  -7   1  -6   26.60   10.10
  -7   1  -6   17.00   11.20
   7  -1   6   -8.60    9.20
   7   0  -6   -7.30    7.20
  -7   0   6   -0.80   10.40
   6   0  -6   20.00    6.30
  -6   0   6   10.70    8.90
  -6   0   6   32.60    5.50
   5   0  -6  117.49    7.50
   5   0  -6  129.09    9.20
  -5   0   6  133.59    7.30
   4   0  -6    0.20    6.40
   4   0  -6    1.20    3.00
   4   0  -6    3.80    2.70
  -4   0   6    5.40    4.10
  -4   0   6    5.00    2.30
  -4   0   6   -0.30    5.00
   3   0  -6   73.39    8.20
   3   0  -6   80.49    5.70
  -3   0   6   65.69    5.50
  -3   0   6   78.19    7.70
  -3   0   6   82.39    4.40
   2   0  -6  451.65   14.60
  -2   0   6  449.76   14.60
  -2   0   6  429.36   13.80
  -2   0   6  461.75   16.70
  -2   0   6  476.25   18.00
  -2   0   6  440.36   13.60
   1   0  -6  472.75   14.90
  -1   0   6  487.65   16.90
  -1   0   6  515.15   15.30
  -1   0   6  511.65   15.00
  -1   0   6  508.35   16.50
   0   0  -6   -1.50    2.50
   0   0  -6    2.00    1.60
   0   0   6    0.00    1.60
   0   0   6   -1.20    1.30
   0   0   6    2.50    1.80
   0   0   6    1.20    1.90
  -1   0  -6  106.19    6.00
  -1   0  -6   95.49    5.50
  -1   0  -6  103.59    5.60
   1   0   6  106.79    5.10
   1   0   6  113.69    5.90
   1   0   6  104.59    5.90
  -2   0  -6 2645.94   68.89
  -2   0  -6 2782.22   70.49
  -2   0  -6 2569.14   69.59
   2   0   6 2630.34   69.09
   2   0   6 2644.44   69.99
   2   0   6 2720.53   69.99
  -3   0  -6   19.40    4.40
  -3   0  -6   37.70    4.80
   3   0   6   21.40    3.80
   3   0   6   27.20    4.50
   3   0   6   20.50    4.30
  -4   0  -6  147.79   16.20
  -4   0  -6  116.79    8.90
  -4   0  -6  117.79    8.10
   4   0   6   98.69    9.30
   4   0   6  130.49    8.80
   4   0   6  122.89   10.00
  -5   0  -6    8.50    5.40
  -5   0  -6   -1.70    4.80
   5   0   6   -8.70    9.00
   5   0   6   -0.40    4.90
  -6   0  -6  -11.40    6.70
  -6   0  -6    4.70    6.10
   6   0   6    2.80    6.10
  -7   0  -6   -2.00   10.20
  -7   0  -6  -13.10    8.80
   7   0   6   18.40    8.80
   7  -1  -6  -10.90    7.40
  -7   1   6    0.30   12.30
   6  -1  -6   -1.20    5.90
   6  -1  -6    1.00    5.50
  -6   1   6   10.30    9.60
  -6   1   6    1.80    5.10
   5  -1  -6   42.90    6.00
   5  -1  -6   62.49    7.10
  -5   1   6   55.79    6.40
   4  -1  -6   61.19    5.60
   4  -1  -6   67.09    6.50
  -4   1   6   71.99    5.40
  -4   1   6   60.59    6.20
  -4   1   6   61.69    8.50
   3  -1  -6    7.50    2.60
   3  -1  -6    5.90    2.70
  -3   1   6   12.50    6.10
  -3   1   6    2.40    2.50
  -3   1   6   11.20    2.40
  -3   1   6    1.80    3.60
   2  -1  -6  662.33   19.60
  -2   1   6  675.33   22.50
  -2   1   6  685.03   19.80
  -2   1   6  666.23   19.60
  -2   1   6  667.83   19.50
  -2   1   6  643.34   23.20
   1  -1  -6 1004.20   31.30
   1  -1  -6 1024.60   27.60
  -1   1   6 1040.40   28.20
  -1   1   6 1019.90   28.20
  -1   1   6 1030.60   30.30
   0  -1  -6  237.78    8.90
   0  -1  -6  228.68   10.00
   0   1   6  246.68    9.40
   0   1   6  247.48    8.10
   0   1   6  241.08    8.80
   0   1   6  238.88    8.60
  -1  -1  -6  844.92   23.90
  -1  -1  -6  821.22   24.20
  -1  -1  -6  825.02   24.00
   1   1   6  857.91   24.20
   1   1   6  838.42   23.90
   1   1   6  861.01   24.00
  -2  -1  -6   -4.70    2.00
  -2  -1  -6    4.20    2.80
  -2  -1  -6   -0.60    2.00
   2   1   6   -0.10    2.30
   2   1   6   -0.30    2.60
   2   1   6    1.90    2.10
  -3  -1  -6  285.17   11.50
  -3  -1  -6  277.47   11.90
  -3  -1  -6  288.97   11.40
   3   1   6  277.47   11.80
   3   1   6  283.37   12.20
   3   1   6  282.07   11.40
  -4  -1  -6   14.60    4.60
  -4  -1  -6   16.10    4.10
  -4  -1  -6   11.80    5.00
   4   1   6   11.30    5.30
   4   1   6   14.20    4.60
   4   1   6   12.20    4.00
  -5  -1  -6   10.80    5.60
  -5  -1  -6   10.30    4.80
   5   1   6   14.90    5.10
  -6  -1  -6   30.10    7.10
   6   1   6   30.10    7.00
  -7  -1  -6  -15.90    9.60
  -7  -1  -6   11.90    8.40
   7   1   6    8.50    9.00
   7  -2  -6   51.99    9.80
  -7   2   6   30.30    8.50
  -7   2   6   22.50   13.40
   6  -2  -6   30.00    7.40
  -6   2   6   36.40    6.70
  -6   2   6   42.70   11.70
   5  -2  -6   19.10    5.50
   5  -2  -6   22.60    5.30
  -5   2   6   12.00    4.30
   4  -2  -6  820.12   26.50
   4  -2  -6  947.71   27.60
  -4   2   6  927.11   26.90
  -4   2   6  907.01   31.90
  -4   2   6  888.31   26.90
   3  -2  -6  152.28    7.50
   3  -2  -6  142.19    7.20
  -3   2   6  139.99   10.30
  -3   2   6  145.79    7.10
  -3   2   6  140.09    7.00
  -3   2   6  120.79   11.00
   2  -2  -6    5.70    2.50
   2  -2  -6    4.90    1.90
  -2   2   6    6.50    2.20
  -2   2   6    3.70    3.30
  -2   2   6   12.40    4.50
  -2   2   6    5.40    2.10
   1  -2  -6  238.38    7.90
   1  -2  -6  231.78   11.70
  -1   2   6  238.58   10.90
  -1   2   6  234.38    8.00
  -1   2   6  241.78    9.00
  -1   2   6  238.58    9.10
   0  -2  -6  559.64   18.80
   0   2   6  559.14   17.10
   0   2   6  592.64   18.10
   0   2   6  576.14   15.80
   0   2   6  549.65   16.40
   0   2   6  569.64   17.20
  -1  -2  -6  142.69    6.20
  -1  -2  -6  139.39    6.60
  -1  -2  -6  148.89    7.20
   1   2   6  147.09    6.90
   1   2   6  136.79    6.60
   1   2   6  148.19    6.00
  -2  -2  -6 1495.75   39.50
  -2  -2  -6 1428.46   39.50
  -2  -2  -6 1462.95   40.10
   2   2   6 1448.26   40.10
   2   2   6 1433.06   39.60
   2   2   6 1424.46   38.90
  -3  -2  -6   35.40    4.70
  -3  -2  -6   46.10    5.30
  -3  -2  -6   54.49    5.70
   3   2   6   40.80    5.00
   3   2   6   46.00    5.90
   3   2   6   45.20    5.60
  -4  -2  -6   72.79    8.00
  -4  -2  -6   88.59    8.20
  -4  -2  -6   85.99    7.00
   4   2   6   80.49    7.20
   4   2   6   68.29    9.00
   4   2   6   69.49    7.70
  -5  -2  -6    7.70    4.40
  -5  -2  -6   10.00    5.50
   5   2   6    2.10    4.50
  -6  -2  -6   29.10    7.30
   6   2   6   48.50    8.10
  -7  -2  -6   -5.60    9.60
  -7  -2  -6    7.60    8.00
   7   2   6    5.70    7.70
   7  -3  -6    4.70    8.90
  -7   3   6   -8.20   13.40
  -7   3   6   -2.60    8.60
   6  -3  -6    8.70    7.70
  -6   3   6   -4.60    6.50
  -6   3   6   -3.50   10.20
   5  -3  -6   73.79    8.40
  -5   3   6   90.59    8.90
   4  -3  -6   56.19    7.40
   4  -3  -6   47.60    6.20
  -4   3   6   52.69    6.40
  -4   3   6   62.69    9.40
  -4   3   6   54.99    6.60
   3  -3  -6   54.89    5.80
   3  -3  -6   62.59    4.90
  -3   3   6   56.19    5.30
  -3   3   6   78.89   10.50
  -3   3   6   66.99    8.90
  -3   3   6   57.39    5.10
   2  -3  -6  307.37   11.50
   2  -3  -6  296.27   10.00
  -2   3   6  291.07   13.70
  -2   3   6  299.47   11.30
  -2   3   6  315.97   14.60
   1  -3  -6 1719.73   45.80
   1  -3  -6 1741.63   49.70
   1  -3  -6 1657.13   43.40
  -1   3   6 1726.03   47.90
  -1   3   6 1689.73   43.50
  -1   3   6 1699.23   45.70
   0  -3  -6   12.20    3.50
   0   3   6   10.60    1.50
   0   3   6   10.50    2.40
   0   3   6    9.60    1.60
   0   3   6    9.90    3.00
   0   3   6    4.00    2.20
  -1  -3  -6  540.35   18.10
  -1  -3  -6  524.45   17.10
  -1  -3  -6  546.85   15.70
   1   3   6  541.75   15.50
   1   3   6  565.64   17.80
   1   3   6  566.04   17.20
  -2  -3  -6  130.89    6.80
  -2  -3  -6  127.39    7.30
  -2  -3  -6  125.79    6.40
   2   3   6  121.29    7.40
   2   3   6  128.29    6.00
   2   3   6  132.79    7.00
  -3  -3  -6   47.70    4.90
  -3  -3  -6   45.40    5.50
  -3  -3  -6   50.89    5.80
   3   3   6   43.50    4.40
   3   3   6   46.50    5.50
   3   3   6   42.90    5.90
  -4  -3  -6   11.80    3.80
  -4  -3  -6   12.00    4.90
  -4  -3  -6   10.50    4.20
   4   3   6   16.20    4.70
   4   3   6   12.30    3.70
   4   3   6   -6.10    5.40
  -5  -3  -6   -2.40    5.10
  -5  -3  -6   -3.20    4.50
   5   3   6   -3.20    4.00
  -6  -3  -6   -3.40    7.00
  -6  -3  -6   14.10    5.80
   6   3   6    8.70    5.70
  -7  -3  -6   10.60    9.70
  -7  -3  -6    6.10    7.50
   7   3   6    0.20    8.00
   6  -4  -6   17.80    8.50
  -6   4   6   33.70    8.50
  -6   4   6   48.00   13.30
   5  -4  -6    1.80    4.60
  -5   4   6   -6.10    5.20
  -5   4   6    3.80    8.00
   4  -4  -6  183.38    9.20
  -4   4   6  168.28   14.10
  -4   4   6  177.68   10.30
  -4   4   6  147.89    9.40
   3  -4  -6  320.97   13.40
   3  -4  -6  331.17   11.80
  -3   4   6  333.67   16.60
  -3   4   6  330.67   19.10
  -3   4   6  350.36   13.60
  -3   4   6  343.07   12.10
   2  -4  -6    1.40    1.80
   2  -4  -6   -0.90    2.90
  -2   4   6    1.90    2.40
  -2   4   6    0.60    2.00
  -2   4   6   -4.10    4.70
  -2   4   6    0.70    4.00
   1  -4  -6   10.90    4.60
   1  -4  -6    9.20    2.90
  -1   4   6    6.60    4.10
  -1   4   6   12.00    1.50
  -1   4   6    6.50    2.40
   0  -4  -6 1593.74   46.00
   0   4   6 1569.54   43.30
   0   4   6 1594.74   43.60
   0   4   6 1633.34   44.70
  -1  -4  -6   15.70    2.00
  -1  -4  -6   10.50    2.90
   1   4   6   15.20    1.80
   1   4   6   10.70    2.50
   1   4   6   10.70    2.90
   1   4   6   14.00    3.40
  -2  -4  -6  200.18    9.70
  -2  -4  -6  199.38    8.80
  -2  -4  -6  186.18    8.60
   2   4   6  202.98    7.50
   2   4   6  200.68    8.80
   2   4   6  192.48    9.80
  -3  -4  -6    0.80    2.90
  -3  -4  -6   -3.00    3.10
  -3  -4  -6    1.20    3.60
   3   4   6    2.50    3.20
   3   4   6    3.80    3.80
   3   4   6    0.50    2.20
  -4  -4  -6    1.80    4.40
  -4  -4  -6   -1.60    4.30
  -4  -4  -6    4.80    3.40
   4   4   6    3.00    3.20
   4   4   6    8.10    4.40
  -5  -4  -6    5.80    4.20
  -5  -4  -6    0.10    7.90
   5   4   6    2.70    6.30
   5   4   6    2.50    4.00
  -6  -4  -6   18.90    6.00
  -6  -4  -6    6.30    7.80
   6   4   6   -9.50    5.90
  -7  -4  -6    6.40   10.30
  -7  -4  -6   13.10    7.30
   7   4   6   11.90    9.10
   6  -5  -6   26.10    8.20
  -6   5   6   50.49   14.10
  -6   5   6   30.00    9.50
   5  -5  -6    4.00    4.90
  -5   5   6    0.20    9.00
  -5   5   6    6.60    6.10
   4  -5  -6    3.00    3.80
  -4   5   6    1.50    4.50
  -4   5   6    3.20    7.30
   3  -5  -6    3.40    2.60
  -3   5   6    0.10    5.40
  -3   5   6    6.20    3.80
  -3   5   6   -0.60    3.20
   2  -5  -6   17.90    4.40
  -2   5   6   30.20    4.60
  -2   5   6   28.30    6.20
  -2   5   6   27.10    3.20
  -2   5   6   28.00    6.60
   1  -5  -6   59.29    5.90
   1  -5  -6   82.49    9.00
  -1   5   6   55.59    6.60
  -1   5   6   62.19    5.60
   0  -5  -6  132.79    9.30
   0  -5  -6  114.39    6.70
   0   5   6  146.79    7.40
   0   5   6  112.39    7.70
  -1  -5  -6    4.70    2.90
  -1  -5  -6    2.90    1.10
   1   5   6    1.20    2.80
   1   5   6    8.50    2.80
   1   5   6    2.10    0.90
   1   5   6   -0.30    2.80
  -2  -5  -6  214.38    7.90
  -2  -5  -6  208.18   10.60
   2   5   6  195.48   10.30
   2   5   6  203.28    7.40
   2   5   6  203.98    9.30
   2   5   6  195.68    9.20
  -3  -5  -6   41.90    5.30
  -3  -5  -6   41.30    5.90
  -3  -5  -6   50.99    5.50
   3   5   6   46.90    4.50
   3   5   6   35.40    5.80
   3   5   6   48.20    5.40
  -4  -5  -6    6.70    4.50
  -4  -5  -6    6.50    4.50
  -4  -5  -6   -1.50    3.90
   4   5   6   -2.30    4.40
   4   5   6    7.20    3.20
  -5  -5  -6   13.30    4.70
   5   5   6   14.40    6.90
   5   5   6    5.20    4.80
  -6  -5  -6    2.80    7.80
  -6  -5  -6  -13.50    5.60
   6   5   6    5.40    6.60
  -7  -5  -6   -8.30    7.50
  -7  -5  -6    9.30   10.60
   7   5   6   19.70    9.40
   6  -6  -6   22.30    8.70
  -6   6   6   26.40   10.40
  -6   6   6   -5.30   13.60
   5  -6  -6   -0.70    5.40
  -5   6   6  -13.80   10.10
  -5   6   6    9.50    7.10
   4  -6  -6   40.50    5.40
  -4   6   6   25.80    6.00
  -4   6   6   31.40    6.20
   3  -6  -6   74.99    5.60
  -3   6   6   72.59    6.50
  -3   6   6   80.19    9.30
  -3   6   6  107.09   12.80
   2  -6  -6   25.60    3.40
  -2   6   6   18.20    2.80
  -2   6   6   24.50    6.40
  -2   6   6   24.30    4.90
   1  -6  -6    8.30    3.70
   1  -6  -6    4.20    6.10
  -1   6   6    0.00    4.50
  -1   6   6    5.70    3.00
   0  -6  -6   54.59    6.00
   0  -6  -6   63.69    8.10
   0   6   6   57.79    5.90
   0   6   6   56.39    6.70
  -1  -6  -6   30.40    5.50
   1   6   6   28.20    4.90
   1   6   6   29.40    4.60
   1   6   6   25.80    4.30
  -2  -6  -6   16.90    4.60
  -2  -6  -6   14.70    2.70
   2   6   6   19.10    3.70
   2   6   6   19.90    3.90
   2   6   6    6.00    4.40
  -3  -6  -6   -1.10    3.80
  -3  -6  -6   -4.80    3.20
   3   6   6    1.30    2.50
   3   6   6   -3.50    3.80
   3   6   6    0.00    3.40
  -4  -6  -6   -4.60    4.20
   4   6   6    0.70    3.60
   4   6   6    4.50    4.70
   4   6   6   -4.40    3.60
  -5  -6  -6    3.90    5.10
   5   6   6    2.20    5.00
  -6  -6  -6   24.90    6.80
  -6  -6  -6   23.60    9.60
   6   6   6   15.10    7.70
  -7  -6  -6   12.10    8.20
  -7  -6  -6   20.00   10.70
   7   6   6    7.90    9.30
   5  -7  -6   10.20    6.30
  -5   7   6   -1.10    7.90
  -5   7   6    2.50   12.30
   4  -7  -6    2.60    4.40
  -4   7   6  -12.30    9.00
  -4   7   6    4.30    6.00
   3  -7  -6   50.79    5.50
  -3   7   6   30.00    9.00
  -3   7   6   55.19    6.90
  -3   7   6   44.30    6.80
   2  -7  -6   35.60    3.20
  -2   7   6   33.10    3.20
   1  -7  -6   70.19   10.80
  -1   7   6   57.59    6.80
   0  -7  -6   50.89    7.40
   0   7   6   52.69    6.10
   0   7   6   54.49    7.80
  -1  -7  -6   11.70    5.70
   1   7   6   10.50    4.70
   1   7   6   10.90    3.70
  -2  -7  -6   64.09    8.40
  -2  -7  -6   62.39    4.50
   2   7   6   46.90    5.90
   2   7   6   58.09    4.00
   2   7   6   60.59    6.80
  -3  -7  -6   -3.20    3.70
  -3  -7  -6    7.00    5.10
   3   7   6    8.20    4.20
   3   7   6    6.30    4.60
   3   7   6    6.00    2.80
  -4  -7  -6    3.30    4.90
   4   7   6   -5.80    3.60
   4   7   6    2.20    5.30
   4   7   6    6.70    4.30
  -5  -7  -6   10.00    8.60
   5   7   6   22.00    6.00
   5   7   6    8.90    5.20
  -6  -7  -6    4.20    8.10
   6   7   6    2.20    7.30
   6   7   6   18.60    7.30
  -7  -7  -6   65.99   14.60
   7   7   6   61.69   11.90
  -5   8   6    0.20   14.90
  -5   8   6   -8.50   10.00
  -4   8   6   10.80   11.30
  -4   8   6   11.10    8.70
   3  -8  -6  103.19    6.60
  -3   8   6  111.59   11.80
  -3   8   6   75.09   17.10
  -2   8   6    4.90    9.00
   1  -8  -6    2.70    8.40
  -1   8   6    1.10    8.00
   0  -8  -6   47.90    8.40
   0   8   6   37.60    5.50
  -1  -8  -6    8.80    6.80
   1   8   6   14.30    4.60
  -2  -8  -6  173.78   12.30
  -2  -8  -6  151.18    6.50
   2   8   6  176.98   10.00
  -3  -8  -6  153.08    8.70
  -3  -8  -6  175.78   12.90
   3   8   6  167.58   10.00
   3   8   6  154.48    7.60
  -4  -8  -6    1.80    5.60
  -4  -8  -6    5.80    6.90
   4   8   6   12.70    4.40
   4   8   6    7.20    5.00
  -5  -8  -6  -14.80    7.00
   5   8   6    8.70    5.90
   5   8   6    3.40    5.70
  -6  -8  -6   20.90   10.70
   6   8   6   15.60    8.10
   6   8   6   40.00    9.10
  -4   9   6    6.60   13.90
  -4   9   6   19.20    9.30
  -3   9   6   18.60    7.30
  -3   9   6   15.80   11.60
  -2   9   6   -0.20    5.90
   1  -9  -6    9.10   10.00
  -1   9   6    4.90    5.90
   0  -9  -6   14.40   10.00
   0   9   6   -4.50    5.70
  -1  -9  -6   80.19   10.90
   1   9   6   72.09    8.40
  -2  -9  -6   98.09   11.90
   2   9   6  113.69    9.60
  -3  -9  -6   52.39    9.10
   3   9   6   35.50    4.80
   3   9   6   45.10    6.40
  -4  -9  -6   -3.90    7.40
   4   9   6   -3.00    4.30
   4   9   6   -5.40    5.50
  -5  -9  -6   17.30    9.30
   5   9   6   10.10    6.00
   5   9   6   24.30    7.00
  -6  -9  -6    9.80   11.70
   6   9   6   -1.30    8.60
  -3  10   6   17.80    9.30
  -3  10   6   -2.80   13.60
  -2  10   6    0.10    8.00
  -2  10   6   17.30   11.00
   1 -10  -6   26.70   14.10
  -1  10   6   13.00    7.40
   0 -10  -6  -11.60   10.70
   0  10   6    2.90    6.10
  -1 -10  -6   25.90    9.80
  -2 -10  -6   -4.40    7.90
   2  10   6    1.80    5.20
  -3 -10  -6    0.20    8.20
  -4 -10  -6   -5.60    8.90
   4  10   6   -2.70    7.00
  -5 -10  -6   18.20   11.10
  -2  11   6    1.40    8.60
  -2  11   6  -11.90   13.10
   1 -11  -6   81.99   18.50
  -1  11   6   71.09   10.20
   0 -11  -6   23.70   14.90
   0  11   6   30.80    8.60
  -1 -11  -6    4.60   11.50
   1  11   6    4.60    7.20
  -2 -11  -6    4.90   11.30
   2  11   6    8.50    7.20
  -3 -11  -6   29.00   11.80
  -4 -11  -6  -12.10   11.20
   0 -12  -6   16.00   17.70
   0  12   6    4.80    9.50
  -1 -12  -6    4.70   16.50
   1  12   6   -8.30    9.00
  -2 -12  -6   -3.30   13.60
   2  12   6    2.30    9.70
  -3 -12  -6    5.10   13.20
  -3 -10   7   13.30   10.50
  -2 -10   7    3.60   10.60
  -1 -10   7   -9.20   11.40
   0  10  -7    4.10   10.40
   0 -10   7    4.50   11.30
  -1  10  -7   12.60   12.30
   1 -10   7    8.50   11.50
  -4  -9   7    2.40    9.70
  -3  -9   7   -2.20    8.40
  -2  -9   7    1.10    8.70
   1   9  -7   -1.00    6.70
  -1  -9   7   13.50    9.20
   0   9  -7    1.50    9.40
   0  -9   7   -8.90    8.90
  -1   9  -7    4.00    8.70
   1  -9   7   -1.00    9.40
  -2   9  -7  -11.20   10.50
   2  -9   7   11.60   10.20
   5   8  -7   14.20    9.00
  -5  -8   7    5.80    9.60
  -4  -8   7   -6.40    7.00
  -4  -8   7    5.00    9.10
  -3  -8   7   44.50    8.90
  -3  -8   7   43.40    6.60
   2   8  -7   10.20    4.40
  -2  -8   7   12.80    4.20
  -2  -8   7    2.80    7.30
   1   8  -7  125.09   10.40
  -1  -8   7  116.89   13.20
   0   8  -7   33.60    7.50
   0  -8   7   38.40    9.90
   1  -8   7   -9.20    7.70
  -2   8  -7    5.50    8.60
   2  -8   7    2.20    8.90
  -3   8  -7    2.90   10.30
   3  -8   7   16.20    9.90
   6   7  -7   -6.50    8.50
  -6  -7   7   14.70   11.80
   5   7  -7   18.50    7.30
  -5  -7   7   19.40    9.10
   4   7  -7    4.10    5.80
  -4  -7   7    2.90    6.70
   3   7  -7  136.79   14.20
  -3  -7   7  138.89   12.70
  -3  -7   7  128.59    9.50
   2   7  -7   43.10    6.70
   2   7  -7   45.90    6.00
  -2  -7   7   47.70    5.80
  -2  -7   7   33.40    4.30
   1   7  -7   16.50    4.80
  -1  -7   7    7.40    4.40
   0   7  -7   16.00    5.60
   0  -7   7   10.40    5.70
  -1   7  -7   61.49    8.40
  -2   7  -7   16.50   11.60
   2  -7   7   24.10    7.70
  -3   7  -7    5.70    8.80
   3  -7   7    6.00    8.40
  -4   7  -7    3.50   10.50
   4  -7   7    2.90    9.60
   6   6  -7   37.40    9.50
  -6  -6   7   23.80   12.40
   5   6  -7    1.20    6.30
  -5  -6   7   -7.00    7.90
   4   6  -7   23.90    6.60
  -4  -6   7   25.10    7.20
   3   6  -7  344.37   17.40
  -3  -6   7  395.06   15.30
   2   6  -7   77.29    5.70
   2   6  -7   81.59    9.10
  -2  -6   7   77.29    5.60
  -2  -6   7   81.99    6.50
   1   6  -7   -0.20    3.70
  -1  -6   7    7.80    5.10
  -1  -6   7    0.60    3.90
   0   6  -7   53.39    6.60
   0  -6   7   69.89    8.90
   0  -6   7   34.60    5.50
  -1   6  -7    0.20    4.80
   1  -6   7    3.20    8.60
  -2   6  -7   -7.70    6.20
  -3   6  -7   26.80    8.20
   3  -6   7   49.40    9.00
  -4   6  -7    3.00    9.20
   4  -6   7    3.70    8.50
  -5   6  -7   -7.20   10.90
   5  -6   7    8.20   10.50
   6   5  -7   39.90    8.30
  -6  -5   7   54.29   11.60
   5   5  -7   58.89    7.90
  -5  -5   7  101.89   13.40
   4   5  -7  295.27   21.90
  -4  -5   7  314.27   15.50
   3   5  -7  106.89   11.70
  -3  -5   7  125.29    9.20
   2   5  -7    2.00    2.40
   2   5  -7    5.60    4.30
  -2  -5   7    2.20    4.00
  -2  -5   7   -0.80    3.00
   1   5  -7   17.50    3.50
  -1  -5   7   17.40    3.90
  -1  -5   7   15.00    2.40
  -1  -5   7   15.20    4.30
  -1  -5   7   16.00    3.20
   0   5  -7    3.80    3.70
   0  -5   7    1.10    3.90
   0  -5   7   -4.80    3.80
  -1   5  -7  123.09    9.10
   1  -5   7  122.09    9.80
   1  -5   7   96.79    9.00
  -2   5  -7   37.70    6.80
   2  -5   7   43.20    6.70
  -4   5  -7   19.30    4.60
  -4   5  -7   22.10    8.40
   4  -5   7   22.50    7.70
  -5   5  -7   -2.40    9.10
   5  -5   7    6.00    9.10
   7   4  -7   21.00   10.20
  -7  -4   7   -4.30   12.50
   6   4  -7   35.70    8.00
  -6  -4   7   20.90    9.70
   5   4  -7   34.50    9.50
  -5  -4   7   38.90    8.80
   4   4  -7   22.20    8.90
  -4  -4   7   23.70    6.40
   3   4  -7  184.38    9.70
   3   4  -7  155.88   11.80
  -3  -4   7  163.28    5.60
  -3  -4   7  179.28    5.80
  -3  -4   7  173.98   10.40
   2   4  -7  172.08    7.00
   2   4  -7  173.38    9.70
  -2  -4   7  185.28    7.50
  -2  -4   7  184.78   10.20
  -2  -4   7  170.58    8.70
   1   4  -7   17.00    3.20
  -1  -4   7   10.20    3.20
  -1  -4   7   12.10    3.70
  -1  -4   7   11.90    4.40
  -1  -4   7   19.70    3.20
  -1  -4   7   17.20    3.60
   0   4  -7    6.30    3.20
   0  -4   7   10.60    3.70
   0  -4   7    6.80    3.60
   0  -4   7    8.60    3.40
  -1   4  -7  146.79    9.30
  -1   4  -7  179.18    9.70
   1  -4   7  148.79    9.10
   1  -4   7  156.08    9.80
  -2   4  -7   83.29    8.20
   2  -4   7   69.49    7.80
  -3   4  -7    1.00    2.60
  -3   4  -7    8.50    7.60
   3  -4   7    0.30    3.40
  -4   4  -7   16.60    6.00
   4  -4   7   11.30    6.30
   4  -4   7    7.10    6.20
  -5   4  -7   16.40    8.10
  -5   4  -7    2.20    6.20
   5  -4   7   13.20    7.80
  -6   4  -7   -9.40   10.70
   6  -4   7   -1.80   10.20
   7   3  -7   31.90   10.30
  -7  -3   7   30.40   12.50
   6   3  -7   58.69    9.70
  -6  -3   7   50.49   10.70
   5   3  -7  183.08   13.70
  -5  -3   7  175.88   14.00
   4   3  -7   49.99    6.80
   4   3  -7   40.00    8.80
  -4  -3   7   28.50    6.40
   3   3  -7   93.29    9.80
   3   3  -7   93.59    7.10
  -3  -3   7   87.79    4.30
  -3  -3   7   99.99    4.80
  -3  -3   7   77.29    8.10
   2   3  -7   48.60    6.40
   2   3  -7   49.80    5.00
   2   3  -7   42.20    3.90
  -2  -3   7   47.10    5.70
  -2  -3   7   42.80    4.30
  -2  -3   7   50.19    5.80
   1   3  -7   29.60    3.80
  -1  -3   7   23.90    4.20
  -1  -3   7   30.70    3.90
  -1  -3   7   33.00    4.40
  -1  -3   7   30.90    4.20
  -1  -3   7   29.20    3.90
   0   3  -7   37.30    4.50
   0  -3   7   36.40    4.80
   0  -3   7   35.10    5.30
   0  -3   7   34.40    2.80
   0  -3   7   39.60    4.50
   0  -3   7   35.90    2.40
  -1   3  -7  187.78    9.80
  -1   3  -7  179.88    9.20
   1  -3   7  198.38   10.40
   1  -3   7  194.78    9.40
  -2   3  -7   24.80    3.10
  -2   3  -7   28.50    5.60
  -2   3  -7   27.00    5.20
   2  -3   7   29.20    3.90
   2  -3   7   26.70    4.90
   2  -3   7   26.80    5.00
  -3   3  -7   35.50    5.00
  -3   3  -7   45.90    6.70
   3  -3   7   38.20    6.60
   3  -3   7   31.60    5.20
  -4   3  -7    2.90    4.10
   4  -3   7    4.50    5.80
  -5   3  -7    4.40    7.60
  -5   3  -7  -10.30    5.90
   5  -3   7    3.00    6.50
  -6   3  -7    7.30    8.80
  -6   3  -7    7.30   10.10
   6  -3   7   12.50    9.50
   7   2  -7    1.30    8.30
  -7  -2   7   39.40   13.20
   6   2  -7   18.50    6.80
  -6  -2   7   21.50    9.50
  -5  -2   7   16.20    3.20
  -5  -2   7    9.10    7.00
   4   2  -7  122.39   14.60
   4   2  -7  146.99    9.20
  -4  -2   7  160.58   11.60
  -4  -2   7  143.99    6.20
   3   2  -7   45.70    6.50
   3   2  -7   38.60    5.30
  -3  -2   7   44.50    3.90
  -3  -2   7   40.80    5.60
  -3  -2   7   56.49    7.60
  -3  -2   7   43.10    3.60
   2   2  -7  325.17   12.00
  -2  -2   7  315.07   10.20
  -2  -2   7  304.37   14.60
  -2  -2   7  316.17   13.00
  -2  -2   7  305.47   12.30
  -2  -2   7  324.07   11.30
   1   2  -7   94.39    5.20
  -1  -2   7   94.49    6.90
  -1  -2   7   93.99    6.30
  -1  -2   7  106.39    6.50
  -1  -2   7  105.19    5.70
  -1  -2   7  102.99    6.30
   0   2  -7   64.59    5.00
   0  -2   7   52.69    5.40
   0  -2   7   58.99    3.70
   0  -2   7   73.39    5.20
   0  -2   7   62.89    4.70
   0  -2   7   64.39    5.30
  -1   2  -7   32.20    4.30
  -1   2  -7   28.60    4.00
  -1   2  -7   34.10    4.70
   1  -2   7   20.60    3.80
   1  -2   7   31.30    4.50
   1  -2   7   27.10    2.90
  -2   2  -7    2.70    3.20
  -2   2  -7    2.40    3.70
  -2   2  -7   -1.90    2.50
   2  -2   7   -2.70    3.80
   2  -2   7   -1.40    3.20
   2  -2   7    0.20    2.60
  -3   2  -7   -1.20    3.60
  -3   2  -7    3.90    2.90
   3  -2   7   -2.30    4.10
   3  -2   7   -2.30    3.60
  -4   2  -7   14.20    4.60
   4  -2   7   -0.60    6.20
  -5   2  -7   14.60    6.00
  -5   2  -7   -2.20    6.90
   5  -2   7   31.20    9.20
  -6   2  -7   -7.50    8.20
  -6   2  -7    3.60    8.40
   6  -2   7   -4.80    7.80
   7   1  -7   -1.60    8.20
  -7  -1   7   17.70   11.80
   6   1  -7   18.50    6.70
  -6  -1   7    8.10    4.10
  -6  -1   7    6.70    9.30
   5   1  -7   80.29    8.60
  -5  -1   7   78.39   11.20
  -5  -1   7   67.59    5.50
  -5  -1   7   66.29    6.20
   4   1  -7   58.29    6.70
  -4  -1   7   61.09    4.40
  -4  -1   7   46.20    5.00
  -4  -1   7   55.49    7.90
   3   1  -7    4.80    2.70
   3   1  -7    3.00    4.80
  -3  -1   7    4.20    3.10
  -3  -1   7    4.80    2.60
  -3  -1   7    4.70    4.40
  -3  -1   7    8.70    2.30
   2   1  -7  111.29    6.40
  -2  -1   7  109.49    5.20
  -2  -1   7  105.09    7.80
  -2  -1   7  109.89    9.10
  -2  -1   7  101.89    6.50
  -2  -1   7  102.39    5.40
   1   1  -7  550.94   16.60
  -1  -1   7  550.34   17.40
  -1  -1   7  540.45   17.70
  -1  -1   7  558.34   16.70
  -1  -1   7  549.35   17.90
  -1  -1   7  558.84   18.30
   0   1  -7   27.60    4.30
   0   1  -7   31.00    3.80
   0  -1   7   29.10    4.10
   0  -1   7   30.20    3.80
   0  -1   7   33.00    4.10
   0  -1   7   29.70    3.50
  -1   1  -7  108.69    6.90
  -1   1  -7  104.49    6.20
   1  -1   7  105.99    5.20
   1  -1   7  107.39    6.70
   1  -1   7  114.59    6.90
  -2   1  -7   -0.30    2.20
  -2   1  -7    5.90    3.60
  -2   1  -7    4.70    3.10
   2  -1   7   -1.00    3.30
   2  -1   7    3.00    2.90
   2  -1   7    1.10    2.70
  -3   1  -7   13.80    3.40
  -3   1  -7   10.50    3.90
  -3   1  -7   13.40    5.40
   3  -1   7    6.40    4.40
   3  -1   7   12.50    3.80
   3  -1   7    4.80    3.80
  -4   1  -7   44.90    5.60
  -4   1  -7   47.40    7.00
   4  -1   7   50.39    6.90
   4  -1   7   45.40    7.30
  -5   1  -7   25.60    6.40
  -5   1  -7   25.30    7.10
   5  -1   7   43.10    9.60
  -6   1  -7   -2.00    7.60
   6  -1   7  -11.20    7.40
  -7   1  -7   -9.50   10.80
  -7   1  -7   -0.80   11.80
   7  -1   7   13.50   10.60
   7   0  -7    0.80    7.80
  -7   0   7   19.40   12.30
   6   0  -7   10.80    5.90
  -6   0   7    8.00    4.40
  -6   0   7  -18.70    8.80
   5   0  -7    6.80    4.30
   5   0  -7   13.20    7.60
  -5   0   7   -5.80    3.40
  -5   0   7   -2.60    6.80
   4   0  -7   32.40    5.00
  -4   0   7   28.60    6.70
  -4   0   7   36.80    4.70
  -4   0   7   33.80    5.60
  -4   0   7   39.40    4.50
   3   0  -7   17.30    3.70
  -3   0   7   17.30    3.40
  -3   0   7   22.50    3.50
  -3   0   7   25.00    7.10
  -3   0   7   21.10    2.90
  -3   0   7   11.20    4.60
   2   0  -7  460.85   15.40
  -2   0   7  483.95   17.70
  -2   0   7  463.75   14.60
  -2   0   7  467.65   18.60
  -2   0   7  471.15   14.60
  -2   0   7  477.85   15.50
   1   0  -7   74.39    4.80
  -1   0   7   72.29    5.70
  -1   0   7   73.39    4.70
  -1   0   7   68.99    4.90
  -1   0   7   66.99    6.20
  -1   0   7   77.89    5.00
   0   0  -7   11.50    3.40
   0   0  -7   11.50    2.40
   0   0   7    9.50    2.40
   0   0   7   12.50    4.30
   0   0   7   11.60    3.10
   0   0   7    9.30    2.30
  -1   0  -7  328.67   11.90
  -1   0  -7  335.57   12.20
  -1   0  -7  323.77   11.80
   1   0   7  326.97   12.10
   1   0   7  343.37   12.30
  -2   0  -7   71.99    5.80
  -2   0  -7   73.89    6.50
  -2   0  -7   78.69    5.50
   2   0   7   71.99    6.50
   2   0   7   89.49    6.00
   2   0   7   74.19    5.60
  -3   0  -7   57.49    5.70
  -3   0  -7   43.70    5.90
  -3   0  -7   50.69    6.00
   3   0   7   45.50    6.40
   3   0   7   48.90    6.00
   3   0   7   50.59    5.90
  -4   0  -7   27.10    5.60
  -4   0  -7   26.10    5.30
   4   0   7   18.10    4.80
   4   0   7   27.50    6.10
  -5   0  -7    0.60    5.40
  -5   0  -7    2.60    5.30
   5   0   7    0.20    5.50
  -6   0  -7   -7.40    7.80
  -6   0  -7    0.40    6.90
   6   0   7    6.70    6.60
  -7   0  -7   -5.50    9.70
  -7   0  -7    8.80   10.80
   7   0   7  -10.70    9.40
   7  -1  -7   40.10    9.30
  -7   1   7   24.70   13.00
   6  -1  -7   -2.90    5.70
  -6   1   7    8.10   10.00
  -6   1   7   -4.10    5.30
   5  -1  -7    9.50    4.50
   5  -1  -7    5.50    4.20
  -5   1   7   16.20    8.20
  -5   1   7    7.50    3.80
   4  -1  -7  227.48   10.10
   4  -1  -7  246.28   11.20
  -4   1   7  257.57   15.00
  -4   1   7  225.48   11.00
  -4   1   7  241.78   10.00
   3  -1  -7   34.20    4.80
  -3   1   7   26.60    5.40
  -3   1   7   32.50    7.10
  -3   1   7   29.50    4.20
  -3   1   7   30.10    3.70
   2  -1  -7    2.70    2.00
  -2   1   7    0.10    2.00
  -2   1   7    0.30    2.10
  -2   1   7    8.30    3.70
  -2   1   7    4.80    4.90
  -2   1   7    0.70    2.60
   1  -1  -7  642.54   22.90
  -1   1   7  658.63   19.50
  -1   1   7  656.03   19.20
  -1   1   7  674.33   19.50
  -1   1   7  668.83   21.70
  -1   1   7  647.74   19.60
   0  -1  -7   40.50    5.20
   0  -1  -7   39.10    3.90
   0   1   7   40.50    4.60
   0   1   7   52.19    4.30
   0   1   7   42.50    3.30
   0   1   7   38.00    3.70
  -1  -1  -7  523.25   16.70
  -1  -1  -7  536.75   17.30
  -1  -1  -7  524.45   16.80
   1   1   7  542.45   16.70
   1   1   7  521.85   16.50
   1   1   7  529.95   17.00
  -2  -1  -7  718.83   22.40
  -2  -1  -7  710.13   22.00
  -2  -1  -7  721.13   22.10
   2   1   7  719.53   21.90
   2   1   7  721.73   22.00
   2   1   7  721.83   22.50
  -3  -1  -7  674.03   21.30
  -3  -1  -7  642.94   21.80
  -3  -1  -7  688.03   21.50
   3   1   7  653.23   21.80
   3   1   7  678.63   21.40
   3   1   7  628.74   21.70
  -4  -1  -7   26.90    5.10
  -4  -1  -7   33.20    5.70
   4   1   7   30.40    5.40
   4   1   7   10.00    6.10
  -5  -1  -7   20.40    6.40
  -5  -1  -7   14.20    6.00
   5   1   7   16.40    6.00
  -6  -1  -7   11.90    6.80
   6   1   7   17.20    7.20
  -7  -1  -7  -26.30   10.10
  -7  -1  -7    2.30    9.50
   7   1   7   10.50    8.70
   7  -2  -7   52.59   10.60
  -7   2   7   38.90    9.40
  -7   2   7   30.60   15.00
   6  -2  -7    2.40    6.00
  -6   2   7    6.90    6.00
  -6   2   7   10.40   11.20
   5  -2  -7    9.40    5.60
   5  -2  -7    0.10    4.30
  -5   2   7   -0.90    4.20
   4  -2  -7  287.47   12.20
   4  -2  -7  299.77   12.60
  -4   2   7  275.97   12.10
  -4   2   7  299.97   11.90
  -4   2   7  308.17   16.70
   3  -2  -7  270.17   10.60
   3  -2  -7  252.37   10.60
  -3   2   7  273.67   10.50
  -3   2   7  254.67   10.30
  -3   2   7  229.88   15.00
  -3   2   7  281.17   14.50
   2  -2  -7  757.02   22.10
  -2   2   7  767.72   26.00
  -2   2   7  756.52   23.10
  -2   2   7  777.12   26.80
  -2   2   7  771.62   22.80
  -2   2   7  784.72   22.20
   1  -2  -7 1540.05   45.50
  -1   2   7 1532.55   41.50
  -1   2   7 1559.34   41.60
  -1   2   7 1486.35   43.50
  -1   2   7 1537.95   40.50
   0  -2  -7  112.99    7.70
   0   2   7  115.99    6.10
   0   2   7  110.49    5.50
   0   2   7  114.59    5.00
   0   2   7  110.49    6.90
   0   2   7  124.39    6.40
  -1  -2  -7  352.46   11.90
  -1  -2  -7  349.27   12.60
  -1  -2  -7  351.36   13.50
   1   2   7  366.46   11.80
   1   2   7  365.86   12.80
   1   2   7  354.06   12.70
  -2  -2  -7  484.35   16.10
  -2  -2  -7  471.55   16.50
  -2  -2  -7  504.05   16.20
   2   2   7  470.85   15.40
   2   2   7  475.35   16.40
   2   2   7  473.75   16.20
  -3  -2  -7   27.90    4.80
  -3  -2  -7   22.20    4.00
  -3  -2  -7   29.10    4.70
   3   2   7   25.20    4.30
   3   2   7   26.90    5.00
   3   2   7   31.30    5.00
  -4  -2  -7   48.60    6.70
  -4  -2  -7   62.29    7.60
  -4  -2  -7   52.59    6.60
   4   2   7   52.49    7.60
   4   2   7   49.99    7.20
   4   2   7   54.49    6.60
  -5  -2  -7   24.20    7.00
  -5  -2  -7   34.60    6.10
   5   2   7   20.10    6.60
  -6  -2  -7    0.50    6.40
  -6  -2  -7    1.10    8.00
   6   2   7    9.90    6.90
  -7  -2  -7   -4.90    8.70
  -7  -2  -7   -8.60   10.50
   7   2   7  -11.60    9.00
   7  -3  -7    5.90    8.60
  -7   3   7  -19.20   14.70
  -7   3   7   17.20    9.00
   6  -3  -7   16.90    6.60
  -6   3   7   22.70    7.40
  -6   3   7   47.00   12.80
   5  -3  -7   83.29    8.40
  -5   3   7   63.19    8.20
   4  -3  -7   30.30    5.70
   4  -3  -7   32.00    5.00
  -4   3   7   30.60    4.80
  -4   3   7   30.00    5.20
   3  -3  -7  577.44   18.10
   3  -3  -7  574.94   19.10
  -3   3   7  564.34   17.80
  -3   3   7  591.34   23.20
  -3   3   7  556.84   27.50
  -3   3   7  576.84   19.10
   2  -3  -7    4.40    1.90
   2  -3  -7    6.90    3.20
  -2   3   7    2.30    3.80
  -2   3   7    5.30    2.50
  -2   3   7    5.70    4.70
  -2   3   7    6.60    2.20
   1  -3  -7   31.80    6.50
  -1   3   7   35.70    4.60
  -1   3   7   27.10    3.10
  -1   3   7   30.20    4.00
  -1   3   7   21.90    4.20
  -1   3   7   26.90    2.60
   0  -3  -7  379.46   15.10
   0   3   7  365.56   13.90
   0   3   7  376.36   13.00
   0   3   7  363.36   10.80
   0   3   7  368.46   13.00
   0   3   7  352.16   11.30
  -1  -3  -7    0.60    2.40
  -1  -3  -7    1.50    3.00
  -1  -3  -7    1.60    1.90
   1   3   7   -1.10    2.80
   1   3   7    2.00    2.60
   1   3   7    3.90    1.80
  -2  -3  -7  167.18    8.20
  -2  -3  -7  196.48    9.60
  -2  -3  -7  173.08    8.00
   2   3   7  166.88    9.00
   2   3   7  163.48    8.50
   2   3   7  163.48    7.30
  -3  -3  -7    0.50    3.50
  -3  -3  -7    3.10    3.80
  -3  -3  -7    8.20    3.20
   3   3   7    6.40    3.60
   3   3   7    2.20    2.80
   3   3   7    0.70    3.70
  -4  -3  -7    8.10    3.60
  -4  -3  -7    9.50    5.50
  -4  -3  -7    5.30    4.30
   4   3   7    1.10    5.10
   4   3   7    8.00    3.90
  -5  -3  -7    4.40    5.00
  -5  -3  -7    2.30    6.40
   5   3   7   -7.20    4.30
  -6  -3  -7   -2.40    6.00
  -6  -3  -7   -0.50    7.60
   6   3   7    9.20    6.60
  -7  -3  -7   20.40   10.30
  -7  -3  -7   -4.10    8.40
   7   3   7   -2.60    8.40
   6  -4  -7    7.60    6.70
  -6   4   7    0.50    7.10
  -6   4   7   31.40   11.60
   5  -4  -7   -1.60    4.70
  -5   4   7   -3.90    9.40
  -5   4   7    1.20    5.40
   4  -4  -7    3.10    3.70
  -4   4   7   -0.10    3.90
  -4   4   7    5.10    4.30
   3  -4  -7  753.42   21.90
   3  -4  -7  688.23   23.50
  -3   4   7  727.13   23.50
  -3   4   7  722.23   21.70
  -3   4   7  759.22   28.10
   2  -4  -7   10.40    3.60
   2  -4  -7    7.80    2.20
  -2   4   7   13.70    2.60
  -2   4   7    7.50    5.00
  -2   4   7    2.50    3.20
  -2   4   7    6.30    5.20
   1  -4  -7   18.40    6.00
   1  -4  -7   19.90    3.80
  -1   4   7   18.60    3.70
  -1   4   7   13.00    4.00
  -1   4   7   17.30    2.20
  -1   4   7   23.00    2.40
   0  -4  -7   91.49    7.90
   0   4   7   81.59    5.90
   0   4   7   94.99    6.50
   0   4   7   87.59    3.50
   0   4   7   91.09    3.70
   0   4   7   87.09    7.10
  -1  -4  -7  204.28   10.50
  -1  -4  -7  199.08    7.00
   1   4   7  186.08    8.90
   1   4   7  190.88    9.50
   1   4   7  198.18    7.00
   1   4   7  190.18    8.80
  -2  -4  -7   20.10    3.40
  -2  -4  -7   26.00    4.10
  -2  -4  -7   14.80    3.70
   2   4   7   21.70    3.00
   2   4   7   19.50    4.60
   2   4   7   23.30    4.40
  -3  -4  -7    2.10    3.30
  -3  -4  -7    2.10    3.60
  -3  -4  -7    3.50    3.30
   3   4   7    2.70    4.60
   3   4   7    2.50    2.60
   3   4   7   10.00    3.90
  -4  -4  -7   27.10    5.60
  -4  -4  -7   22.90    4.60
  -4  -4  -7   33.00    6.10
   4   4   7   27.70    5.00
   4   4   7   10.20    5.30
  -5  -4  -7   -1.80    4.60
   5   4   7    1.00    4.60
  -6  -4  -7   14.40    8.20
  -6  -4  -7    6.30    5.80
   6   4   7    3.00    6.20
  -7  -4  -7    1.90    8.00
  -7  -4  -7   -4.00   10.30
   7   4   7    0.50    9.00
   6  -5  -7    3.40    7.90
  -6   5   7    5.40   13.90
  -6   5   7    4.10    8.60
   5  -5  -7  147.19   10.70
  -5   5   7  149.99   18.00
  -5   5   7  133.49   12.10
   4  -5  -7    4.10    3.70
  -4   5   7   -1.60    4.90
  -4   5   7   -0.50    4.70
   3  -5  -7   36.00    4.30
  -3   5   7   40.20    6.20
  -3   5   7   33.70    8.10
  -3   5   7   32.70    4.30
   2  -5  -7   -3.10    4.60
  -2   5   7    4.40    4.90
  -2   5   7    3.10    2.30
  -2   5   7    0.50    3.10
   1  -5  -7   59.09    6.00
   1  -5  -7   67.49    9.30
  -1   5   7   69.29    7.70
  -1   5   7   73.79    6.30
   0  -5  -7   12.60    4.60
   0   5   7   26.80    4.70
   0   5   7   21.90    4.50
   0   5   7   32.40    4.60
  -1  -5  -7   -1.30    3.70
  -1  -5  -7    2.30    1.40
   1   5   7   -6.30    3.30
   1   5   7    3.10    1.20
   1   5   7    2.40    2.90
   1   5   7   -0.10    3.10
  -2  -5  -7  115.59    6.30
  -2  -5  -7  124.39    8.80
   2   5   7  109.19    8.80
   2   5   7  120.89    7.60
   2   5   7  118.39    7.60
   2   5   7  127.79    5.60
  -3  -5  -7   73.59    7.90
  -3  -5  -7   70.29    6.30
  -3  -5  -7   74.49    7.10
   3   5   7   70.39    5.60
   3   5   7   56.89    6.90
  -4  -5  -7   32.00    6.80
  -4  -5  -7   33.50    6.00
  -4  -5  -7   30.40    5.30
   4   5   7   37.30    5.10
   4   5   7   21.70    6.10
  -5  -5  -7   15.80    5.40
   5   5   7   13.10    5.10
  -6  -5  -7    8.90    6.70
  -6  -5  -7   13.00    8.20
   6   5   7   10.00    6.70
  -7  -5  -7    1.50   10.90
  -7  -5  -7    4.00    8.50
   7   5   7   -4.10    9.10
   6  -6  -7   17.80    9.10
  -6   6   7   14.40   15.70
  -6   6   7    7.60    9.90
   5  -6  -7   23.60    6.70
  -5   6   7   29.10    8.30
  -5   6   7   14.40   12.00
   4  -6  -7   16.80    4.60
  -4   6   7   19.60    5.90
  -4   6   7   21.90    9.60
  -4   6   7   15.00    5.90
   3  -6  -7   77.69    5.80
  -3   6   7   72.79    8.50
  -3   6   7   91.19   13.00
  -3   6   7   76.39    6.80
   2  -6  -7   21.10    2.50
  -2   6   7   19.10    2.90
  -2   6   7   20.40    4.50
   1  -6  -7   49.10    9.00
  -1   6   7   47.30    6.00
   0  -6  -7  132.09   10.90
   0   6   7  131.89    8.20
   0   6   7  125.19    9.20
   0   6   7  129.99    8.90
  -1  -6  -7    7.20    5.20
   1   6   7   18.20    4.30
   1   6   7    9.90    4.10
   1   6   7    9.00    4.00
  -2  -6  -7   79.69    8.20
  -2  -6  -7   73.89    5.20
   2   6   7   76.79    7.00
   2   6   7   72.79    7.50
  -3  -6  -7   22.80    6.00
  -3  -6  -7   24.00    4.40
   3   6   7   19.90    4.70
   3   6   7   14.60    5.00
   3   6   7   21.30    3.60
  -4  -6  -7  109.69    9.60
   4   6   7  110.09    8.90
   4   6   7  117.39    8.00
  -5  -6  -7   -3.20    5.40
  -5  -6  -7   -3.40    6.60
   5   6   7    3.20    5.00
  -6  -6  -7   17.00    7.30
  -6  -6  -7   -5.90    8.50
   6   6   7   -1.50    6.90
  -7  -6  -7   38.80    9.80
  -7  -6  -7   18.30   11.20
   7   6   7   -9.40    9.70
  -5   7   7   23.50   14.10
  -5   7   7   -6.20    8.80
   4  -7  -7    2.70    4.50
  -4   7   7   -1.00    6.50
  -4   7   7  -14.20   10.30
   3  -7  -7   35.20    4.30
  -3   7   7   36.10    6.80
  -3   7   7   35.10    4.90
   1  -7  -7   23.20    7.90
  -1   7   7   37.00    5.70
   0  -7  -7    7.60    6.00
   0   7   7    8.70    4.40
  -1  -7  -7   56.19    8.70
   1   7   7   65.89    7.40
  -2  -7  -7   33.70    4.00
  -2  -7  -7   38.10    6.60
   2   7   7   39.10    3.40
   2   7   7   43.20    6.20
  -3  -7  -7  152.78    8.60
   3   7   7  148.49    7.20
   3   7   7  152.08   10.00
  -4  -7  -7   -3.00    6.20
   4   7   7    4.60    4.10
   4   7   7    3.00    4.80
  -5  -7  -7   17.30    7.20
   5   7   7    6.80    5.50
   5   7   7    0.90    6.10
  -6  -7  -7  -14.40    8.90
   6   7   7    2.40    7.80
   6   7   7    7.70    7.60
  -5   8   7  -10.90   10.20
  -5   8   7   -1.30   15.50
  -4   8   7    8.10    7.90
  -4   8   7   -0.50   11.80
  -3   8   7   26.70   11.00
  -3   8   7   13.60    7.20
   1  -8  -7   14.90   11.00
   0  -8  -7   43.60    9.90
   0   8   7   29.40    6.60
  -1  -8  -7   27.50    8.10
   1   8   7   44.90    6.40
  -2  -8  -7  875.91   31.60
   2   8   7  868.21   28.00
  -3  -8  -7   -2.00    4.30
  -3  -8  -7    8.30    7.10
   3   8   7   -3.00    2.80
   3   8   7    4.60    4.80
  -4  -8  -7   13.70    6.90
  -4  -8  -7    4.10    6.50
   4   8   7    1.90    5.40
   4   8   7   -1.90    4.20
  -5  -8  -7   -1.10    8.70
   5   8   7   10.30    6.00
   5   8   7    0.60    6.80
  -6  -8  -7   -5.60    9.40
   6   8   7    6.80    7.80
   6   8   7    5.80    9.00
  -4   9   7   14.00   14.90
  -4   9   7  -10.30    9.30
  -3   9   7  -13.30    7.90
  -3   9   7   20.50   12.30
  -2   9   7    7.80    9.40
  -2   9   7    9.50    6.60
   1  -9  -7   16.30   12.10
  -1   9   7   -0.30    5.50
   0  -9  -7   -0.20    9.30
  -1  -9  -7  403.76   21.80
   1   9   7  443.86   20.30
  -2  -9  -7  136.29   14.10
  -3  -9  -7   14.30    7.50
   3   9   7   24.40    7.20
   3   9   7   21.30    3.30
  -4  -9  -7    7.60    8.70
   4   9   7   -4.40    4.40
   4   9   7   17.40   11.50
  -5  -9  -7   -8.00    9.20
   5   9   7   -1.30    6.90
   5   9   7    2.80    6.60
   6   9   7   -8.50    9.40
  -3  10   7   -5.60   14.70
  -3  10   7   -2.70    8.90
  -2  10   7   12.40    8.10
  -2  10   7    4.90   11.30
   1 -10  -7   16.70   14.70
  -1  10   7   14.90    8.10
   0 -10  -7    2.60   11.50
   0  10   7   -2.80    6.80
  -1 -10  -7   11.00   10.50
   1  10   7   -3.10    5.90
  -2 -10  -7   58.09   12.70
  -3 -10  -7   -1.50    9.40
  -4 -10  -7    9.20   10.70
  -5 -10  -7   -0.60   11.70
  -2  11   7  -13.10   14.10
  -2  11   7   13.50    9.90
   1 -11  -7   70.39   19.20
  -1  11   7   44.40   10.20
   0 -11  -7   -0.90   15.50
   0  11   7   18.10    8.60
  -1 -11  -7   -0.30   13.10
   1  11   7   17.60    8.10
  -2 -11  -7   -9.30   11.80
   2  11   7    5.60    7.50
  -3 -11  -7    1.10   11.40
   3  11   7    7.90    7.80
  -4 -11  -7   16.10   13.10
   4  11   7   15.90    9.10
   0 -12  -7   14.80   19.60
   0  12   7   10.10   10.30
  -1 -12  -7  -13.80   17.10
   1  12   7   26.00   10.30
  -2 -12  -7    4.10   15.80
   2  12   7   12.10   10.30
  -1 -10   8   -5.10   13.10
  -3  -9   8   13.10    9.90
  -2  -9   8   18.30    9.80
   1   9  -8   12.70    7.50
  -1  -9   8    9.70   10.50
   0  -9   8    3.30   10.40
  -1   9  -8   -2.80    9.80
   1  -9   8  -18.50   10.30
  -2   9  -8  -21.00   11.10
   2  -9   8   -2.70   11.10
  -4  -8   8    4.10   10.40
  -3  -8   8   -4.60    7.90
  -2  -8   8    2.60    7.90
   1   8  -8    4.80    5.60
  -1  -8   8  -17.20    7.20
   0   8  -8   -0.90    6.80
   0  -8   8   11.50    8.90
  -1   8  -8    0.70    8.00
   1  -8   8   -9.80    8.60
  -2   8  -8   -3.20    9.10
   2  -8   8   -2.10    9.20
  -3   8  -8    0.50   11.30
   3  -8   8  -10.80   10.40
   5   7  -8    1.60    8.10
  -5  -7   8   -0.70    9.80
  -4  -7   8   12.80    7.40
  -4  -7   8   23.30    9.20
  -3  -7   8   15.70    7.30
  -3  -7   8   22.40    5.90
   2   7  -8    1.30    3.90
  -2  -7   8    7.30    5.80
  -2  -7   8   -0.40    3.60
   1   7  -8   -2.10    4.60
  -1  -7   8   -1.60    6.40
  -1  -7   8   -0.90    5.10
   0   7  -8  118.59   10.30
   0  -7   8   92.99   12.70
  -1   7  -8    7.10    6.70
   1  -7   8    5.40    7.30
  -2   7  -8   15.20    8.20
   2  -7   8   12.20    8.50
  -3   7  -8   28.90    9.90
   3  -7   8   -0.20    9.70
  -4   7  -8   50.59   13.10
   4  -7   8   51.49   12.60
   6   6  -8   59.79    9.70
  -6  -6   8   66.79   13.70
   5   6  -8    6.40    7.00
  -5  -6   8   10.00    8.90
   4   6  -8   56.49    8.60
  -4  -6   8   47.70    8.50
   3   6  -8   58.59    9.40
  -3  -6   8   67.79    7.60
  -3  -6   8   66.49    8.90
   2   6  -8  122.39    7.00
  -2  -6   8   88.29   10.80
  -2  -6   8   95.79    6.90
  -2  -6   8  102.79    7.20
   1   6  -8    1.60    4.00
  -1  -6   8    3.60    4.40
  -1  -6   8    6.40    7.90
   0   6  -8   22.40    5.70
   0  -6   8   18.20    6.00
   0  -6   8   21.50    7.60
  -1   6  -8   32.80    7.10
   2  -6   8    5.10    7.20
  -3   6  -8   25.90    9.00
   3  -6   8    4.90    7.90
  -4   6  -8    8.70    9.50
   4  -6   8   11.10    9.20
   5  -6   8   13.30   12.00
   6   5  -8   67.69   11.00
  -6  -5   8   74.79   14.30
   5   5  -8    6.30    6.20
  -5  -5   8   -0.50    7.90
  -4  -5   8   11.20    6.10
   3   5  -8   21.60    7.10
  -3  -5   8   24.30    5.30
  -3  -5   8   14.20    2.50
  -3  -5   8   18.20    2.50
   2   5  -8  376.76   12.40
  -2  -5   8  356.16   16.20
  -2  -5   8  379.66   12.70
  -2  -5   8  384.26   13.60
   1   5  -8   12.60    3.80
  -1  -5   8    9.70    4.10
  -1  -5   8   11.10    2.80
  -1  -5   8   15.10    2.40
  -1  -5   8   17.10    5.30
   0   5  -8   93.59    7.70
   0  -5   8  104.59    9.30
   0  -5   8   75.59    7.70
  -1   5  -8   25.30    5.90
   1  -5   8   23.40    7.00
  -2   5  -8    7.00    9.20
  -3   5  -8   11.80    7.30
   3  -5   8    4.60    6.60
  -4   5  -8    4.70    9.50
   4  -5   8   -0.90    7.40
  -5   5  -8   -9.80    9.60
   5  -5   8  -10.60    9.70
   6   4  -8   -5.80    6.90
  -6  -4   8    7.70   10.30
   5   4  -8   85.79   10.30
  -5  -4   8  102.79   12.40
  -4  -4   8   44.10    8.10
   3   4  -8  106.79   11.30
  -3  -4   8  105.59    9.50
  -3  -4   8  108.19    5.30
  -3  -4   8   91.89    6.90
   2   4  -8  328.77   11.30
  -2  -4   8  329.67   13.00
  -2  -4   8  349.77   15.00
  -2  -4   8  327.77   15.30
  -2  -4   8  343.57   11.80
   1   4  -8   -2.60    2.80
  -1  -4   8    4.80    3.80
  -1  -4   8    4.30    3.20
  -1  -4   8   -0.30    3.50
  -1  -4   8   -0.20    3.30
   0   4  -8   49.40    5.90
   0  -4   8   55.99    6.50
   0  -4   8   44.70    6.30
  -1   4  -8  204.48   10.80
   1  -4   8  217.08   12.10
   1  -4   8  197.38   10.80
  -2   4  -8   15.60    5.80
  -4   4  -8    1.10    4.00
  -4   4  -8   -5.00    7.40
   4  -4   8    9.50    6.90
  -5   4  -8   17.40    9.30
   5  -4   8   -6.10    8.50
   6  -4   8   34.60   13.60
   7   3  -8    7.50    9.60
   6   3  -8    1.00    6.20
  -6  -3   8   -9.10   10.30
   5   3  -8   -4.10    5.10
  -5  -3   8    7.50    7.50
   4   3  -8  160.18   11.30
  -4  -3   8  151.28   12.40
  -4  -3   8  119.09    4.80
  -4  -3   8  126.49    5.30
   3   3  -8   14.00    3.50
   3   3  -8    9.60    6.10
  -3  -3   8   13.80    2.80
  -3  -3   8   18.50    5.40
  -3  -3   8   21.80    3.40
   2   3  -8  120.79    6.20
  -2  -3   8  116.89   10.50
  -2  -3   8  139.69    8.80
  -2  -3   8  139.19   11.80
  -2  -3   8  126.19    6.70
  -2  -3   8  124.69    8.40
   1   3  -8  343.77   11.90
  -1  -3   8  330.37   12.10
  -1  -3   8  343.37   14.10
  -1  -3   8  341.07   12.30
  -1  -3   8  329.37   12.30
  -1  -3   8  323.17   13.40
   0   3  -8  107.39    6.90
   0  -3   8  123.99    8.40
   0  -3   8  107.39    5.20
   0  -3   8  116.19    4.60
   0  -3   8  121.39    7.60
   0  -3   8  110.59    7.20
  -1   3  -8    7.10    4.00
  -1   3  -8    7.90    4.00
   1  -3   8   13.90    4.50
   1  -3   8   22.00    5.00
  -2   3  -8   18.00    5.10
  -2   3  -8    9.90    2.60
   2  -3   8    9.30    2.70
   2  -3   8   10.60    4.80
  -3   3  -8   -0.20    3.10
  -3   3  -8    1.30    5.50
   3  -3   8    1.20    4.20
  -4   3  -8   24.20    4.90
   4  -3   8   22.20    6.80
  -5   3  -8    4.00    8.80
  -5   3  -8    3.40    6.00
   5  -3   8    4.90    8.00
  -6   3  -8    1.50   10.80
   6  -3   8   -8.60    8.90
   7   2  -8   17.90    9.10
  -7  -2   8  -19.90   13.30
   6   2  -8   19.40    7.10
  -6  -2   8   37.10   11.40
   5   2  -8    4.70    4.90
  -5  -2   8    2.10    2.90
  -5  -2   8    1.80    3.30
  -5  -2   8   -0.60    7.60
   4   2  -8   34.30    5.60
  -4  -2   8   44.20    4.30
  -4  -2   8   59.69    8.50
  -4  -2   8   49.60    4.90
   3   2  -8   55.09    6.10
  -3  -2   8   40.60    7.40
  -3  -2   8   52.59    4.20
  -3  -2   8   59.69    5.70
  -3  -2   8   59.99    8.10
   2   2  -8    3.00    2.40
  -2  -2   8    8.10    3.70
  -2  -2   8   -1.10    3.90
  -2  -2   8   -3.80    4.90
  -2  -2   8    5.50    2.10
  -2  -2   8    6.00    2.80
   1   2  -8  189.08    7.90
  -1  -2   8  176.78    9.20
  -1  -2   8  173.18    8.20
  -1  -2   8  162.88    8.70
  -1  -2   8  172.68    8.90
  -1  -2   8  182.48    8.90
   0   2  -8    7.10    2.90
   0  -2   8    9.10    3.50
   0  -2   8    9.00    3.40
   0  -2   8   10.10    3.20
   0  -2   8    5.50    2.20
  -1   2  -8    4.30    3.10
  -1   2  -8    9.10    3.50
  -1   2  -8    4.90    3.30
   1  -2   8    6.10    3.70
   1  -2   8   12.00    2.40
   1  -2   8    7.00    3.40
  -2   2  -8   -2.80    4.50
  -2   2  -8    0.30    3.90
  -2   2  -8   -2.80    4.00
   2  -2   8   -7.20    4.00
   2  -2   8    1.60    3.60
   2  -2   8    1.00    3.00
  -3   2  -8   31.70    4.30
  -3   2  -8   24.10    5.50
   3  -2   8   31.10    5.40
   3  -2   8   29.70    5.80
  -4   2  -8   -0.90    3.90
   4  -2   8    9.50    6.60
  -5   2  -8    9.60    7.40
  -5   2  -8    4.10    6.10
   5  -2   8    4.20    6.40
   5  -2   8  -10.40    9.70
  -6   2  -8   14.40    9.10
  -6   2  -8   13.00    8.80
   6  -2   8   -3.90    9.10
   7   1  -8    6.40    8.90
  -7  -1   8  -28.20   13.00
   6   1  -8   -4.60    6.70
  -6  -1   8   14.70   10.70
  -5  -1   8    2.10    3.20
  -5  -1   8   -7.90    7.60
  -5  -1   8   -3.90    3.70
   4   1  -8   40.40    5.90
  -4  -1   8   33.40    4.30
  -4  -1   8   29.50    7.00
  -4  -1   8   45.10    5.30
   3   1  -8   -0.20    2.80
  -3  -1   8    1.40    2.20
  -3  -1   8    5.80    6.90
  -3  -1   8   -3.60    3.70
  -3  -1   8    2.20    2.80
  -3  -1   8   -1.00    4.70
   2   1  -8   18.10    3.40
  -2  -1   8   22.90    3.20
  -2  -1   8   10.90    4.20
  -2  -1   8   23.90    3.70
  -2  -1   8    7.10    5.20
  -2  -1   8   21.60    4.00
   1   1  -8  161.38    7.50
  -1  -1   8  165.28    8.10
  -1  -1   8  159.58    7.60
  -1  -1   8  178.18    9.10
  -1  -1   8  170.68    8.80
  -1  -1   8  163.38    8.30
   0   1  -8    8.00    3.80
   0   1  -8   11.60    3.00
   0  -1   8   13.50    2.90
   0  -1   8   19.30    3.90
   0  -1   8   14.40    3.30
   0  -1   8   11.40    3.30
  -1   1  -8   27.00    4.10
  -1   1  -8   23.30    4.10
  -1   1  -8   31.90    4.60
   1  -1   8   22.60    4.60
   1  -1   8   19.30    3.90
   1  -1   8   27.30    3.40
  -2   1  -8   15.10    4.50
  -2   1  -8   13.50    3.80
  -2   1  -8   11.80    3.00
   2  -1   8   18.30    3.60
   2  -1   8   12.50    4.40
   2  -1   8    7.70    3.60
  -3   1  -8   19.20    4.60
  -3   1  -8    7.50    3.40
   3  -1   8    8.70    4.30
   3  -1   8   11.30    4.80
  -4   1  -8   26.80    5.40
  -4   1  -8   30.40    8.20
   4  -1   8   22.10    7.00
  -5   1  -8    4.10    5.80
  -5   1  -8   -5.60    6.00
   5  -1   8   18.50   10.10
   5  -1   8    3.30    6.80
  -6   1  -8   -1.60    8.10
  -6   1  -8   14.50    8.70
   6  -1   8    6.50    8.20
   7   0  -8   14.30    8.90
  -7   0   8   11.50   13.40
   6   0  -8   20.70    7.20
  -6   0   8   11.90   10.20
  -6   0   8   15.60    5.00
   5   0  -8   13.10    6.30
  -5   0   8   24.30    4.50
  -5   0   8   15.80    8.10
  -5   0   8   24.40    5.20
   4   0  -8   30.30    5.10
  -4   0   8   36.60    7.70
  -4   0   8   41.50    5.00
  -4   0   8   33.10    4.20
   3   0  -8   -4.00    2.50
  -3   0   8    1.50    3.40
  -3   0   8   -1.80    2.80
  -3   0   8    1.70    2.20
  -3   0   8   -1.20    4.50
  -3   0   8   -6.20    6.30
   2   0  -8  127.49    6.80
  -2   0   8  117.89    7.10
  -2   0   8  128.29   10.20
  -2   0   8  120.49    6.30
  -2   0   8  126.79    6.70
  -2   0   8  129.29    9.20
   1   0  -8  349.17   12.40
  -1   0   8  353.46   14.00
  -1   0   8  352.36   13.70
  -1   0   8  346.67   12.20
  -1   0   8  355.36   12.60
  -1   0   8  355.46   12.80
   0   0  -8   27.00    3.90
   0   0  -8   17.90    4.50
   0   0   8   26.80    3.90
   0   0   8   26.90    3.70
   0   0   8   32.20    4.20
   0   0   8   30.70    4.40
  -1   0  -8  193.28    9.20
  -1   0  -8  200.08    9.20
  -1   0  -8  193.38    8.90
   1   0   8  203.48    9.50
   1   0   8  200.68    9.30
   1   0   8  190.48    8.30
  -2   0  -8   27.50    4.00
  -2   0  -8   24.80    4.50
  -2   0  -8   36.00    5.10
   2   0   8   28.20    4.80
   2   0   8   28.70    4.20
   2   0   8   29.30    4.10
  -3   0  -8  186.28   10.20
  -3   0  -8  202.08    9.80
  -3   0  -8  191.68   11.70
   3   0   8  184.58   10.10
   3   0   8  219.28   10.70
  -4   0  -8   21.00    5.10
  -4   0  -8   24.10    5.60
   4   0   8   17.70    6.20
   4   0   8   28.90    6.40
  -5   0  -8    1.10    5.80
  -5   0  -8    1.30    5.70
   5   0   8    6.50    5.50
  -6   0  -8   -7.70    7.80
   6   0   8  -14.50    7.40
  -7   0  -8   14.00   11.00
  -7   0  -8  -13.70   11.60
   7   0   8   11.80   11.50
   7  -1  -8    7.80    8.80
  -7   1   8   -0.20   13.40
   6  -1  -8    7.40    6.30
  -6   1   8    8.60    5.50
  -6   1   8   13.10   11.00
   5  -1  -8   23.90    5.70
  -5   1   8   22.10    4.70
  -5   1   8   27.40    9.60
   4  -1  -8   23.60    4.70
  -4   1   8    5.60    5.40
  -4   1   8   20.50    3.90
  -4   1   8   24.40    7.30
  -4   1   8   16.30    4.60
   3  -1  -8   20.10    3.80
  -3   1   8   15.10    5.60
  -3   1   8   16.80    3.40
  -3   1   8   10.10    7.10
  -3   1   8   10.40    3.40
  -3   1   8   15.40    3.90
   2  -1  -8  225.08    9.10
  -2   1   8  215.28   12.60
  -2   1   8  213.98    9.30
  -2   1   8  226.08   12.00
  -2   1   8  229.88    9.10
  -2   1   8  232.08    9.50
  -1   1   8 1413.66   38.60
  -1   1   8 1400.76   38.50
  -1   1   8 1422.26   38.20
  -1   1   8 1395.56   40.50
  -1   1   8 1398.06   38.50
   0  -1  -8    2.20    2.50
   0  -1  -8    2.20    3.80
   0   1   8    2.20    2.70
   0   1   8    2.90    1.90
   0   1   8    1.70    2.10
   0   1   8    0.90    2.80
  -1  -1  -8   -2.10    2.90
  -1  -1  -8    1.90    2.30
  -1  -1  -8    0.90    2.40
   1   1   8    2.50    3.10
   1   1   8    4.40    2.40
   1   1   8   -0.10    2.40
  -2  -1  -8  221.88   10.00
  -2  -1  -8  213.78   10.30
  -2  -1  -8  221.08   10.00
   2   1   8  224.98   10.10
   2   1   8  201.58   10.10
   2   1   8  226.58    9.90
  -3  -1  -8  229.28   12.10
  -3  -1  -8  253.87   11.60
  -3  -1  -8  256.97   11.40
   3   1   8  246.18   11.20
   3   1   8  243.08   11.70
   3   1   8  232.38   12.20
  -4  -1  -8    0.80    4.20
  -4  -1  -8   10.50    4.40
   4   1   8    1.90    4.40
   4   1   8    0.70    6.10
  -5  -1  -8   23.40    6.40
  -5  -1  -8   19.40    6.00
   5   1   8   26.60    6.50
  -6  -1  -8   17.90    7.50
   6   1   8    6.20    7.60
  -7  -1  -8    1.80   10.90
  -7  -1  -8    9.50   10.20
   7   1   8   -4.20    9.70
   7  -2  -8   -0.50    8.90
   6  -2  -8    9.30    6.90
  -6   2   8    9.10    6.30
  -6   2   8   -3.20   10.80
   5  -2  -8   10.00    4.80
  -5   2   8   -1.20    8.30
  -5   2   8   15.90    4.90
   4  -2  -8  100.89    8.70
   4  -2  -8  100.89    7.90
  -4   2   8  130.29    8.20
  -4   2   8  111.39   14.30
  -4   2   8   97.49    8.10
   3  -2  -8  960.90   28.30
  -3   2   8 1014.30   28.70
  -3   2   8  938.41   28.10
  -3   2   8  951.40   33.20
   2  -2  -8   65.49    4.80
  -2   2   8   73.49    8.10
  -2   2   8   69.89    5.00
  -2   2   8   67.29    8.60
  -2   2   8   68.39    5.90
  -2   2   8   71.49    5.50
   1  -2  -8   19.00    5.60
  -1   2   8   14.20    3.30
  -1   2   8   12.10    2.60
  -1   2   8   15.90    2.90
  -1   2   8   19.30    4.60
  -1   2   8   14.20    3.20
   0  -2  -8  131.09    9.30
   0   2   8  132.29    7.50
   0   2   8  147.99    6.70
   0   2   8  142.89    8.10
   0   2   8  145.29    6.20
  -1  -2  -8  146.99    7.60
  -1  -2  -8  150.08    7.10
  -1  -2  -8  144.09    8.60
   1   2   8  135.49    7.70
   1   2   8  135.69    6.80
   1   2   8  137.89    7.80
  -2  -2  -8   40.50    5.10
  -2  -2  -8   36.40    5.00
  -2  -2  -8   41.60    5.30
   2   2   8   41.90    4.70
   2   2   8   40.80    5.40
   2   2   8   38.80    5.50
  -3  -2  -8   10.60    3.90
  -3  -2  -8   11.40    4.10
  -3  -2  -8   -0.30    4.30
   3   2   8    7.50    4.90
   3   2   8    8.00    3.40
   3   2   8    7.30    4.20
  -4  -2  -8   72.09    8.70
  -4  -2  -8   84.99    8.20
   4   2   8   78.79    8.00
   4   2   8   68.09    8.50
  -5  -2  -8   -3.00    5.70
  -5  -2  -8    3.40    5.20
   5   2   8   -1.20    5.30
  -6  -2  -8    8.20    7.90
  -6  -2  -8   -2.00    7.00
   6   2   8    6.10    6.90
  -7  -2  -8   -6.40    9.20
  -7  -2  -8    6.10   10.90
   7   2   8   23.60    9.80
   6  -3  -8   19.30    7.10
  -6   3   8   30.60    7.70
  -6   3   8  -12.50   11.70
   5  -3  -8   15.20    5.40
  -5   3   8   11.10    5.30
   4  -3  -8  135.99    8.60
  -4   3   8  130.49    9.10
  -4   3   8  114.19    8.90
   3  -3  -8 2093.29   54.99
   3  -3  -8 1966.10   55.89
  -3   3   8 2020.60   54.59
  -3   3   8 2144.59   61.49
  -3   3   8 2068.89   55.89
   2  -3  -8   14.60    2.70
  -2   3   8   -0.20    3.70
  -2   3   8   13.20    2.70
  -2   3   8   13.50    3.50
  -2   3   8   12.40    5.10
  -2   3   8   14.40    5.90
   1  -3  -8  274.07   15.30
  -1   3   8  279.97   11.70
  -1   3   8  304.87   11.70
  -1   3   8  292.67    9.90
  -1   3   8  292.17   13.30
  -1   3   8  299.17   10.00
   0  -3  -8  357.56   15.70
   0   3   8  364.76   11.20
   0   3   8  359.26   13.20
   0   3   8  360.46   11.70
   0   3   8  348.37   14.00
   0   3   8  364.66   13.30
  -1  -3  -8  177.08    7.40
  -1  -3  -8  173.48    9.80
  -1  -3  -8  166.68    8.60
   1   3   8  161.48    8.90
   1   3   8  180.18    8.80
   1   3   8  167.08    7.10
  -2  -3  -8   98.09    6.70
  -2  -3  -8   92.99    7.80
  -2  -3  -8  102.29    6.90
   2   3   8   96.59    7.10
   2   3   8  100.99    7.50
   2   3   8   97.49    5.90
  -3  -3  -8    1.30    4.10
  -3  -3  -8    4.00    3.60
  -3  -3  -8    1.30    3.80
   3   3   8   -8.30    4.50
   3   3   8   -2.00    4.70
   3   3   8    7.20    3.40
  -4  -3  -8   -0.30    5.60
  -4  -3  -8   -0.90    4.70
  -4  -3  -8    3.60    4.40
   4   3   8   -5.00    3.80
  -5  -3  -8    0.70    5.90
  -5  -3  -8    3.10    7.40
  -6  -3  -8   10.70    7.40
  -6  -3  -8   14.40    8.50
   6   3   8   10.40    7.20
  -7  -3  -8   22.60   11.30
  -7  -3  -8   23.60    9.90
   7   3   8   11.20    9.60
   6  -4  -8    7.70    7.40
  -6   4   8   19.80    8.50
  -6   4   8    9.00   12.90
   5  -4  -8    2.40    5.20
  -5   4   8    9.70    5.90
  -5   4   8    8.80    9.00
   4  -4  -8  206.28   10.20
  -4   4   8  191.78   11.60
  -4   4   8  196.18   10.50
   3  -4  -8  105.19    6.50
  -3   4   8  113.59   18.90
  -3   4   8   98.39    6.60
  -3   4   8   88.69    7.80
   2  -4  -8   41.10    5.60
   2  -4  -8   39.60    3.80
  -2   4   8   36.80    6.90
  -2   4   8   41.70    4.00
  -2   4   8   48.00    5.90
  -2   4   8   49.80   12.50
   1  -4  -8   13.60    5.40
  -1   4   8    6.30    3.10
  -1   4   8    5.50    1.80
  -1   4   8    6.40    4.20
  -1   4   8   10.00    3.20
  -1   4   8    5.30    4.30
   0  -4  -8   58.59    7.80
   0   4   8   49.20    3.70
   0   4   8   47.00    3.10
   0   4   8   45.80    5.50
   0   4   8   53.29    5.60
   0   4   8   51.39    6.40
  -1  -4  -8  248.88    8.70
  -1  -4  -8  244.48   12.60
   1   4   8  247.38   10.90
   1   4   8  266.57   11.00
   1   4   8  242.78   11.20
   1   4   8  256.07    8.70
  -2  -4  -8   20.10    3.80
  -2  -4  -8   23.40    4.50
  -2  -4  -8   30.30    5.70
   2   4   8   22.30    4.50
   2   4   8   26.10    3.40
   2   4   8   29.50    5.20
  -3  -4  -8   80.09    7.90
  -3  -4  -8   91.09    7.70
  -3  -4  -8   96.79    8.40
   3   4   8   87.39    9.30
   3   4   8  103.69    6.80
   3   4   8   92.49    8.00
  -4  -4  -8   54.99    6.90
  -4  -4  -8   50.79    7.30
  -4  -4  -8   48.20    7.40
   4   4   8   59.19    7.20
   5   4   8    5.90    5.00
  -6  -4  -8    9.10    8.00
  -6  -4  -8   -3.80    6.80
   6   4   8   -0.50    6.60
  -7  -4  -8   -6.80    8.90
  -7  -4  -8    0.00   11.00
   7   4   8   -1.30    9.50
   6  -5  -8   -7.10    8.00
  -6   5   8    7.20   14.00
  -6   5   8   10.00    9.70
   5  -5  -8   84.89    9.90
  -5   5   8   71.19    9.30
  -5   5   8   67.19   12.50
   4  -5  -8   30.60    5.00
  -4   5   8   21.70    5.90
  -4   5   8   22.20    8.70
  -4   5   8   23.90    5.80
   3  -5  -8  143.29    7.40
  -3   5   8  152.98    8.10
  -3   5   8  165.48   10.20
   2  -5  -8   83.69    4.60
  -2   5   8   77.69    4.90
  -2   5   8   76.89    7.40
  -2   5   8   75.89   10.20
   1  -5  -8   -0.50    6.10
  -1   5   8    1.00    3.30
  -1   5   8    1.90    5.30
  -1   5   8   10.70    5.00
  -1   5   8    2.90    1.50
  -1   5   8    3.50    1.40
   0  -5  -8   35.30    6.40
   0   5   8   23.40    4.90
   0   5   8   30.10    5.10
   0   5   8   27.40    4.80
  -1  -5  -8   90.19    8.80
   1   5   8   90.59    4.00
   1   5   8   90.49    7.10
   1   5   8   75.09    7.60
   1   5   8   95.29    7.30
  -2  -5  -8    9.80    4.70
  -2  -5  -8    4.70    3.60
   2   5   8    5.30    2.20
   2   5   8   -0.50    3.40
   2   5   8    6.90    4.80
   2   5   8    8.00    4.30
  -3  -5  -8    4.30    4.40
  -3  -5  -8   -0.80    4.10
  -3  -5  -8    5.30    4.40
   3   5   8    2.30    2.90
  -4  -5  -8   96.09    8.60
  -4  -5  -8   81.29    9.40
  -4  -5  -8   81.39   13.80
   4   5   8   89.59    8.20
  -5  -5  -8   -3.50    6.20
   5   5   8   -5.40    5.00
  -6  -5  -8   11.50    8.90
  -6  -5  -8    4.80    7.10
   6   5   8    5.00    7.40
  -7  -5  -8    4.00    9.30
  -7  -5  -8   -7.50   11.50
   7   5   8    6.40   10.20
   5  -6  -8   13.10    6.20
  -5   6   8   -0.10    7.70
  -5   6   8    3.50   11.40
   4  -6  -8   33.90    5.30
  -4   6   8   26.40    7.60
  -4   6   8   15.30   10.00
   3  -6  -8    2.10    2.90
  -3   6   8   -1.40    4.00
  -3   6   8    2.30    5.00
  -2   6   8   10.50    2.60
  -2   6   8   17.20    4.20
   1  -6  -8   10.80    7.50
  -1   6   8    4.30    4.10
   0  -6  -8   22.70    6.70
   0   6   8   23.50    4.90
  -1  -6  -8    0.00    5.10
   1   6   8    7.80    3.90
  -2  -6  -8   58.69    8.00
  -2  -6  -8   54.19    5.20
   2   6   8   56.19    6.40
   2   6   8   58.59    4.10
  -3  -6  -8  288.67   18.00
  -3  -6  -8  261.17   11.70
   3   6   8  293.57   13.40
   3   6   8  285.87   10.70
  -4  -6  -8   31.60    6.30
   4   6   8   42.30    6.50
   4   6   8   45.90    5.70
  -5  -6  -8    4.90    6.70
  -5  -6  -8    7.50    7.60
   5   6   8    3.60    5.70
  -6  -6  -8    8.00    9.00
  -6  -6  -8    2.40    7.80
   6   6   8    0.90    7.40
  -5   7   8   23.30   13.80
  -5   7   8   22.00    9.90
   4  -7  -8    1.10    5.70
  -4   7   8  -10.90   10.30
  -4   7   8    6.10    6.70
   3  -7  -8   22.20    3.50
  -3   7   8    9.70    9.30
  -3   7   8   18.30    7.10
   2  -7  -8  100.59   14.80
   1  -7  -8   41.70   12.30
   0  -7  -8   35.50    8.80
   0   7   8   37.50    5.90
  -1  -7  -8    5.00    5.50
   1   7   8   -3.90    4.00
  -2  -7  -8   18.60    2.90
   2   7   8   17.10    2.30
   2   7   8   16.90    5.10
  -3  -7  -8   74.59    7.60
   3   7   8   68.09    5.60
   3   7   8   77.09    8.20
  -4  -7  -8   -3.50    5.80
   4   7   8    3.50    4.20
   4   7   8   -0.30    5.50
  -5  -7  -8    4.00    7.50
   5   7   8    1.20    6.70
   5   7   8    2.70    5.60
  -6  -7  -8   -2.20    9.80
   6   7   8   13.40    8.20
   6   7   8    6.10    8.70
  -4   8   8    0.80    7.80
  -4   8   8   25.60   13.80
  -3   8   8   33.90    8.30
  -3   8   8   12.60   10.80
   1  -8  -8   14.90   11.20
   0  -8  -8    6.40    8.60
   0   8   8   13.50    8.50
  -1  -8  -8    7.00    7.80
  -2  -8  -8    5.20    7.10
   2   8   8    2.60    5.40
  -3  -8  -8    2.30    4.70
   3   8   8   -5.00    2.90
   3   8   8    3.60    9.50
  -4  -8  -8   -0.60    7.60
   4   8   8    7.60    6.20
   4   8   8    9.90    4.50
  -5  -8  -8   -1.60    8.70
   5   8   8    0.30    5.90
  -6  -8  -8    0.50   11.40
   6   8   8   -2.40    9.60
   6   8   8   10.40    8.60
  -4   9   8   14.10    9.60
  -4   9   8    3.50   15.40
  -3   9   8  -10.90    7.80
  -3   9   8   10.90   13.50
  -2   9   8   -3.80    9.30
  -2   9   8   11.50    7.40
   1  -9  -8   15.30   12.20
  -1   9   8   15.90    6.40
   0  -9  -8   10.00   10.40
   0   9   8   -5.90    5.10
  -1  -9  -8  230.28   19.10
  -2  -9  -8   -9.00    8.10
  -3  -9  -8   12.20    9.00
  -4  -9  -8   15.10    9.90
   4   9   8    6.40    5.40
  -5  -9  -8   11.70   10.00
   5   9   8  -16.30    8.10
  -3  10   8   40.80   10.70
  -3  10   8   43.10   16.60
  -2  10   8    1.20    8.50
  -2  10   8    5.60   12.80
   1 -10  -8   -1.30   15.00
  -1  10   8    7.80    7.70
   0 -10  -8   13.10   12.90
   0  10   8    6.20    6.70
  -1 -10  -8   -9.60   10.90
   1  10   8    5.50    6.50
  -2 -10  -8    8.50   11.10
   2  10   8   12.50    7.20
  -3 -10  -8    8.40   10.90
   3  10   8    7.50    7.10
  -4 -10  -8   14.30   10.90
   4  10   8    2.70    8.20
   1 -11  -8   55.99   19.90
  -1  11   8    3.70    8.90
   0 -11  -8   27.40   16.70
   0  11   8   24.20    8.90
  -1 -11  -8  -14.20   13.00
   1  11   8    0.30    8.10
  -2 -11  -8   13.00   12.60
   2  11   8    1.50    7.80
  -3 -11  -8   -7.10   12.10
   3  11   8   -2.90    8.40
  -2  -9   9    2.60   10.80
  -1  -9   9   16.90   11.50
   0   9  -9  -13.00    9.80
   0  -9   9   13.40   11.50
  -1   9  -9   10.10   11.90
   1  -9   9    2.80   11.10
  -4  -8   9   14.70    9.40
  -3  -8   9   11.70    9.70
  -2  -8   9   87.69   12.60
   1   8  -9   12.30    6.80
  -1  -8   9   22.00   10.10
   0   8  -9   22.90    8.40
   0  -8   9   15.70   10.50
  -1   8  -9   15.60    9.50
   1  -8   9    0.50    9.70
  -2   8  -9   -6.60   10.50
   2  -8   9    0.60   10.70
   5   7  -9  -18.70    8.40
  -5  -7   9  -11.80   10.80
  -4  -7   9    3.40    9.00
  -4  -7   9   -1.80    8.00
  -3  -7   9   -3.60    5.40
  -3  -7   9   -3.20    7.10
   2   7  -9    1.30    4.40
  -2  -7   9    0.40    7.30
   1   7  -9   -4.70    5.50
  -1  -7   9  -12.20    6.70
   0   7  -9   27.40    7.00
   0  -7   9   33.40    9.40
   1  -7   9    1.90    8.20
  -2   7  -9   -3.80    8.40
   2  -7   9   -4.30    9.00
  -3   7  -9   31.40   11.00
   3  -7   9   40.60   11.40
   5   6  -9   -3.20    7.20
  -5  -6   9   10.60    9.50
   4   6  -9    8.30    6.50
  -4  -6   9    5.20    7.30
  -3  -6   9    0.80    5.60
  -3  -6   9    3.30    7.00
   2   6  -9  254.67   10.30
  -2  -6   9  240.18   10.70
  -2  -6   9  244.58   15.20
  -2  -6   9  247.38   10.30
   1   6  -9    1.60    4.50
  -1  -6   9    3.40    5.30
  -1  -6   9    3.80    6.50
   0   6  -9    3.90    5.40
   0  -6   9   -2.70    6.20
   1  -6   9   14.80    7.20
  -2   6  -9  -12.90    6.80
   2  -6   9   11.20    7.90
  -3   6  -9    9.50    9.60
   3  -6   9   -7.50    9.10
  -4   6  -9   -4.80   10.90
   4  -6   9   17.00   10.70
   6   5  -9  145.39   15.50
  -6  -5   9  194.58   22.10
   5   5  -9   50.69    9.20
  -5  -5   9   54.39   10.60
   4   5  -9   -0.30    5.70
  -4  -5   9   -3.10    6.70
  -3  -5   9   44.20    5.00
  -3  -5   9   33.20    4.50
  -3  -5   9   49.40   10.30
  -3  -5   9   39.50    6.70
   2   5  -9  621.64   18.80
  -2  -5   9  590.44   18.80
  -2  -5   9  604.94   19.50
  -2  -5   9  617.44   21.50
   1   5  -9    4.10    4.00
  -1  -5   9    9.50    4.90
   0   5  -9  100.59    8.50
   0  -5   9   76.89    9.00
  -1   5  -9   15.50    5.60
   2  -5   9    4.40    6.40
  -3   5  -9    4.60    8.10
   3  -5   9   -5.60    6.80
  -4   5  -9   15.60    9.50
   4  -5   9   30.10    9.40
  -5   5  -9   -6.20   10.80
   5  -5   9   23.70   10.70
   6   4  -9    8.10    7.50
  -6  -4   9   30.30   12.50
   5   4  -9   42.70    8.00
  -5  -4   9   38.40    9.90
   4   4  -9   32.70    6.20
  -4  -4   9   28.90    7.80
  -3  -4   9   12.70    3.00
  -3  -4   9   19.20    5.70
  -3  -4   9   11.50    3.60
  -3  -4   9    2.60    8.30
   2   4  -9    5.40    3.20
  -2  -4   9   10.90    6.00
  -2  -4   9   -3.50    3.80
  -2  -4   9   -2.20    3.60
   1   4  -9    8.10    3.60
  -1  -4   9    9.70    4.30
  -1  -4   9   14.70    3.50
  -1  -4   9    5.90    4.30
   0   4  -9   37.10    5.40
   0  -4   9   21.30    5.00
  -1   4  -9   63.19    7.80
  -2   4  -9   28.20    6.80
  -3   4  -9   -5.30    6.20
  -4   4  -9  -15.30    7.40
   4  -4   9   -2.90    6.60
  -5   4  -9   -1.20   10.60
   5  -4   9    2.60    9.50
   6   3  -9   10.20    7.50
  -6  -3   9    0.80   11.20
   5   3  -9   17.80    6.40
  -5  -3   9   26.00    9.10
  -4  -3   9  265.87   16.20
  -4  -3   9  256.07    9.30
  -3  -3   9   31.90    3.70
  -3  -3   9   43.00    7.10
  -3  -3   9   25.50    8.70
  -3  -3   9   36.10    4.40
   2   3  -9   38.80    4.30
  -2  -3   9   39.90    5.90
  -2  -3   9   39.30    6.20
  -2  -3   9   46.40    5.80
  -2  -3   9   37.90    6.90
   1   3  -9   11.60    3.10
  -1  -3   9    7.90    3.90
  -1  -3   9    6.60    4.00
  -1  -3   9   10.50    3.70
   0   3  -9   71.29    6.70
   0  -3   9   54.09    5.10
   0  -3   9   58.29    7.70
   0  -3   9   54.49    3.90
   0  -3   9   68.29    7.00
  -1   3  -9    2.70    3.70
   1  -3   9    6.20    4.20
   1  -3   9   -0.70    5.10
  -2   3  -9   91.79    9.10
   2  -3   9  100.89    9.50
  -3   3  -9   12.40    4.00
   3  -3   9   19.70    4.80
  -4   3  -9   -0.80    6.70
  -4   3  -9   -2.60    4.20
   4  -3   9   -9.60    7.60
  -5   3  -9    7.70    8.60
   5  -3   9   -8.30    8.10
  -6   3  -9    1.30   10.80
   6  -3   9   19.00   12.00
   6   2  -9    3.10    6.70
  -6  -2   9   20.30   11.30
   5   2  -9   46.30    8.10
  -5  -2   9   47.40    5.20
  -5  -2   9   59.09   11.40
  -4  -2   9   40.00    4.40
  -4  -2   9   36.30    8.50
  -4  -2   9   37.90    4.30
   3   2  -9  247.38   11.70
  -3  -2   9  245.78    9.70
  -3  -2   9  261.27   14.30
  -3  -2   9  237.28   16.30
  -3  -2   9  245.28    9.20
  -2  -2   9    4.90    3.70
  -2  -2   9    6.60    2.60
  -2  -2   9    1.00    3.80
  -2  -2   9    7.00    4.50
  -2  -2   9    3.30    5.40
   1   2  -9   29.30    4.10
  -1  -2   9   26.70    4.70
  -1  -2   9   34.70    5.00
  -1  -2   9   28.60    4.90
  -1  -2   9   27.90    4.50
  -1  -2   9   30.80    5.20
   0   2  -9   48.90    5.60
   0  -2   9   43.20    5.00
   0  -2   9   48.60    6.50
   0  -2   9   45.80    5.40
   0  -2   9   43.60    5.70
   0  -2   9   50.49    4.60
  -1   2  -9    2.90    3.90
  -1   2  -9   -1.30    3.40
   1  -2   9    2.90    2.60
   1  -2   9   14.40    4.50
   1  -2   9    3.70    3.60
  -2   2  -9    3.80    3.50
  -2   2  -9   10.10    4.40
   2  -2   9    4.10    3.40
   2  -2   9    4.50    4.50
  -3   2  -9   -0.10    3.40
   3  -2   9    9.70    5.10
  -4   2  -9   13.80    4.90
   4  -2   9   17.20    7.50
   4  -2   9    7.00    6.10
  -5   2  -9   14.10    6.40
  -5   2  -9   11.40    8.20
   5  -2   9   -8.50    7.70
  -6   2  -9    0.50    9.90
  -6   2  -9    3.00   12.70
   6  -2   9    9.70    9.70
   6   1  -9   18.00    7.50
  -6  -1   9   -2.40   11.10
   5   1  -9   51.79    7.60
  -5  -1   9   59.99    6.20
  -5  -1   9   64.99   11.10
   4   1  -9   61.79    8.10
  -4  -1   9   63.09    6.40
  -4  -1   9   70.69   10.00
  -4  -1   9   60.79    5.50
   3   1  -9    2.00    3.10
  -3  -1   9    1.80    7.10
  -3  -1   9    0.80    5.10
  -3  -1   9    0.50    2.60
  -3  -1   9   -0.70    3.20
  -2  -1   9    4.50    2.70
  -2  -1   9   12.40    3.50
  -2  -1   9    9.80    4.00
  -2  -1   9    1.90    4.50
  -2  -1   9   11.70    3.50
  -2  -1   9    9.50    5.50
   1   1  -9   70.59    5.90
  -1  -1   9   70.49    7.20
  -1  -1   9   69.59    6.10
  -1  -1   9   74.99    6.10
  -1  -1   9   66.49    7.00
  -1  -1   9   73.49    6.20
   0   1  -9    2.60    3.00
   0  -1   9    3.50    3.50
   0  -1   9    3.10    2.70
   0  -1   9    2.70    3.30
   0  -1   9    3.60    2.90
   0  -1   9    4.00    3.00
  -1   1  -9   -0.90    3.30
  -1   1  -9   -4.30    3.60
  -1   1  -9    3.30    3.70
   1  -1   9    4.70    2.70
   1  -1   9    0.80    4.20
   1  -1   9    5.10    3.40
  -2   1  -9   38.90    5.60
  -2   1  -9   51.89    6.40
  -2   1  -9   28.10    5.40
   2  -1   9   46.00    5.70
   2  -1   9   26.10    5.20
  -3   1  -9   79.79    8.30
  -3   1  -9   79.99    7.40
   3  -1   9   91.39    8.70
   3  -1   9   71.09    8.30
  -4   1  -9    4.90    4.60
   4  -1   9   17.60    7.10
   4  -1   9   10.40    5.50
  -5   1  -9   -1.90    6.30
  -5   1  -9   12.20    7.50
   5  -1   9    0.20    6.70
  -6   1  -9   23.50    9.60
  -6   1  -9    3.80    9.40
   6  -1   9   -3.10    8.70
   6   0  -9   -6.30    6.60
  -6   0   9   -6.70   11.40
  -6   0   9   11.40    6.20
  -5   0   9   -5.30    8.60
  -5   0   9   -0.50    3.80
  -5   0   9    3.20    5.30
   4   0  -9   75.39    7.80
  -4   0   9   87.39    7.30
  -4   0   9   83.39    6.40
  -4   0   9   85.09   11.10
   3   0  -9   25.10    4.40
  -3   0   9   32.50    4.40
  -3   0   9   24.10    8.30
  -3   0   9   30.60    5.20
  -3   0   9   18.40    6.20
  -3   0   9   24.10    3.70
   2   0  -9    1.60    2.50
  -2   0   9    1.40    3.10
  -2   0   9    2.10    4.50
  -2   0   9    1.40    3.20
  -2   0   9    1.40    2.70
  -2   0   9   -1.70    5.30
   1   0  -9  412.26   14.60
  -1   0   9  410.86   15.80
  -1   0   9  416.76   15.00
  -1   0   9  415.16   16.00
  -1   0   9  402.16   14.40
  -1   0   9  414.46   14.40
   0   0  -9  238.48   12.30
   0   0  -9  227.68   10.20
   0   0   9  234.68   10.50
   0   0   9  231.68   10.30
   0   0   9  223.78    9.50
   0   0   9  247.88   10.20
  -1   0  -9   34.50    5.20
  -1   0  -9   32.30    4.60
  -1   0  -9   30.40    4.60
   1   0   9   36.40    5.20
   1   0   9   38.00    5.30
   1   0   9   35.80    4.80
  -2   0  -9   17.10    4.90
  -2   0  -9   20.90    4.60
  -2   0  -9   13.70    3.70
   2   0   9   12.40    3.90
   2   0   9   16.60    4.30
   2   0   9   20.20    4.90
  -3   0  -9  134.29    9.10
  -3   0  -9  126.19    8.50
   3   0   9  123.29    9.50
   3   0   9  111.79    8.90
  -4   0  -9    6.30    5.60
  -4   0  -9    0.70    4.60
   4   0   9  -11.00    6.30
   4   0   9   -1.90    5.80
  -5   0  -9    1.20    6.10
  -5   0  -9   -3.20    6.40
   5   0   9  -10.80    6.10
  -6   0  -9    2.80    8.40
   6   0   9    4.40    8.00
   6  -1  -9   -8.80    6.70
  -6   1   9  -15.60   10.20
  -6   1   9    6.20    5.80
  -5   1   9   16.50    5.00
  -5   1   9   20.20    6.50
  -5   1   9   30.80    9.70
   4  -1  -9   42.50    5.80
  -4   1   9   34.70    6.00
  -4   1   9   44.00    5.20
   3  -1  -9  156.18    8.50
  -3   1   9  146.19    8.70
  -3   1   9  148.69    8.50
  -3   1   9  145.69   12.30
  -3   1   9  151.78    8.00
   2  -1  -9  519.85   16.90
  -2   1   9  541.15   20.70
  -2   1   9  529.05   17.20
  -2   1   9  524.65   20.70
  -2   1   9  504.65   17.00
  -2   1   9  507.95   17.10
  -1   1   9   19.90    3.80
  -1   1   9   20.90    3.90
  -1   1   9   16.90    3.30
  -1   1   9   22.80    4.80
  -1   1   9   25.40    4.80
  -1   1   9   17.20    3.60
   0  -1  -9   17.50    5.50
   0  -1  -9   22.50    4.40
   0   1   9   26.60    4.10
   0   1   9   25.30    4.30
   0   1   9   22.20    3.60
   0   1   9   21.10    3.50
  -1  -1  -9    2.80    2.80
  -1  -1  -9   -2.70    2.80
  -1  -1  -9   -1.40    3.50
   1   1   9   -2.30    3.70
   1   1   9    1.40    2.80
   1   1   9   -1.80    2.70
  -2  -1  -9  365.06   14.50
  -2  -1  -9  379.76   14.50
  -2  -1  -9  379.96   14.70
   2   1   9  349.57   14.80
   2   1   9  391.96   14.40
   2   1   9  377.06   14.20
  -3  -1  -9   91.39    8.10
  -3  -1  -9   66.39    7.50
   3   1   9   81.79    8.40
   3   1   9   80.29    7.70
  -4  -1  -9  149.19   10.60
  -4  -1  -9  122.49   12.10
   4   1   9  140.39   10.30
   4   1   9  105.39   12.20
  -5  -1  -9    1.30    6.00
  -5  -1  -9   13.90    6.80
   5   1   9   18.80    7.00
  -6  -1  -9    6.60    8.20
  -6  -1  -9   11.20    8.60
   6   1   9    5.60    7.80
   6  -2  -9   84.29   11.80
  -6   2   9   70.49   13.50
  -6   2   9   81.59   10.10
   5  -2  -9    0.90    6.00
  -5   2   9    4.20    9.40
  -5   2   9    4.50    5.00
   4  -2  -9   10.30    4.10
  -4   2   9    4.20    6.00
  -4   2   9   -0.30    7.00
  -4   2   9   11.50    4.20
   3  -2  -9  135.59    7.80
  -3   2   9  115.39    8.90
  -3   2   9  156.58    8.70
  -3   2   9  102.69   11.90
  -3   2   9  132.69    7.80
   2  -2  -9   10.70    2.80
  -2   2   9    7.80    6.00
  -2   2   9    6.80    5.00
  -2   2   9    8.40    3.20
  -2   2   9   11.20    3.00
  -2   2   9   13.30    4.30
  -1   2   9   30.80    4.80
  -1   2   9   31.70    4.20
  -1   2   9   38.40    4.30
  -1   2   9   27.20    5.40
  -1   2   9   35.70    4.70
   0  -2  -9   13.20    5.40
   0   2   9   16.40    2.80
   0   2   9    6.60    3.70
   0   2   9   15.20    3.10
   0   2   9   23.30    4.20
  -1  -2  -9   31.30    5.60
  -1  -2  -9   30.40    4.20
  -1  -2  -9   26.00    4.50
   1   2   9   29.70    4.80
   1   2   9   30.00    4.50
   1   2   9   26.60    3.80
  -2  -2  -9    9.30    4.30
  -2  -2  -9    3.90    3.20
  -2  -2  -9    9.00    3.80
   2   2   9    4.60    2.90
   2   2   9   11.10    3.80
   2   2   9    6.90    4.30
  -3  -2  -9  199.38   10.50
  -3  -2  -9  196.08   11.20
  -3  -2  -9  165.58   11.10
   3   2   9  175.58   10.70
   3   2   9  195.08   10.40
  -4  -2  -9   63.29    9.20
  -4  -2  -9   65.89    9.20
   4   2   9   90.49    9.10
  -5  -2  -9   -3.90    6.00
   5   2   9   -1.90    5.70
  -6  -2  -9    0.30    7.80
  -6  -2  -9    1.20    8.50
   6   2   9    6.60    7.90
  -7  -2  -9   10.00   10.90
  -7  -2  -9  -20.20   11.70
   7   2   9  -20.60   10.10
   6  -3  -9   15.70    7.50
  -6   3   9   13.00    7.70
  -6   3   9    5.10   11.80
   5  -3  -9   -1.00    5.50
  -5   3   9    9.30   10.50
  -5   3   9  -10.00    5.60
   4  -3  -9   72.79    7.40
  -4   3   9   84.99    8.30
  -4   3   9   71.39    8.40
  -4   3   9   65.39   10.50
   3  -3  -9   18.50    3.70
  -3   3   9   22.90    7.20
  -3   3   9   16.70    4.30
  -3   3   9   10.50    3.40
  -3   3   9    7.30    5.90
   2  -3  -9  265.37    9.90
  -2   3   9  265.57   14.90
  -2   3   9  249.48   11.90
  -2   3   9  258.07   10.00
  -2   3   9  285.57   11.90
  -2   3   9  304.37   22.60
   1  -3  -9   -0.10    5.70
  -1   3   9    1.50    2.40
  -1   3   9    1.40    2.20
  -1   3   9   -1.50    4.20
  -1   3   9    1.60    3.30
  -1   3   9   -4.20    3.60
   0  -3  -9  103.19   10.20
   0   3   9  101.69    7.10
   0   3   9   92.29    7.50
   0   3   9  104.79    7.20
   0   3   9  104.49    5.80
   0   3   9   91.69    5.10
  -1  -3  -9   28.50    5.10
  -1  -3  -9   27.90    5.80
  -1  -3  -9   23.10    3.60
   1   3   9   23.00    4.80
   1   3   9   22.00    4.60
   1   3   9   22.20    3.30
  -2  -3  -9    1.40    3.50
  -2  -3  -9   -6.90    3.30
  -2  -3  -9    1.10    3.80
   2   3   9   -1.60    3.90
   2   3   9    2.20    2.70
   2   3   9    0.50    4.50
  -3  -3  -9    8.90    4.10
  -3  -3  -9    6.60    5.00
  -3  -3  -9    8.00    4.70
   3   3   9   17.70    4.40
   3   3   9   21.50    6.00
  -4  -3  -9    4.10    5.10
  -4  -3  -9   -4.30    4.70
   4   3   9    7.20    4.70
  -5  -3  -9    5.90    5.90
   5   3   9   -4.90    5.60
  -6  -3  -9    2.30    8.50
  -6  -3  -9    2.90    8.00
   6   3   9   17.40    8.40
  -7  -3  -9   -4.10   10.00
  -7  -3  -9  -10.30   11.50
   7   3   9    9.70   10.30
   6  -4  -9   11.60    7.80
  -6   4   9   20.10   13.40
  -6   4   9    4.40    8.50
   5  -4  -9    5.90    5.50
  -5   4   9   -3.50    6.20
  -5   4   9    6.90   11.30
   4  -4  -9   13.50    4.40
  -4   4   9   -3.30    5.60
  -4   4   9   24.20    5.80
   3  -4  -9   64.29    5.70
  -3   4   9   45.00    5.70
  -3   4   9   56.79    7.10
  -3   4   9   45.00   11.60
   2  -4  -9   35.60    3.80
  -2   4   9   44.40    6.00
  -2   4   9   32.10    4.30
  -2   4   9   56.59    8.70
   1  -4  -9   68.79    9.80
  -1   4   9   50.29    6.20
  -1   4   9   61.19    6.50
  -1   4   9   55.69    4.10
  -1   4   9   58.99    4.60
  -1   4   9   57.49    7.60
   0  -4  -9   25.90    6.50
   0   4   9   37.80    5.30
   0   4   9   28.90    3.80
   0   4   9   31.10    3.40
   0   4   9   27.30    4.60
  -1  -4  -9  563.74   21.40
   1   4   9  516.45   19.40
   1   4   9  573.24   16.60
   1   4   9  530.25   19.00
   1   4   9  576.04   19.20
  -2  -4  -9   35.50    5.90
  -2  -4  -9   38.60    4.90
  -2  -4  -9   45.60    6.30
   2   4   9   29.40    5.60
   2   4   9   35.80    4.80
  -3  -4  -9   24.10    5.50
  -3  -4  -9   32.30    6.10
  -3  -4  -9   31.40    6.50
   3   4   9   44.40    5.90
  -4  -4  -9   17.00    7.10
  -4  -4  -9    3.90    7.20
  -4  -4  -9   16.20    5.70
   4   4   9   14.00    4.80
  -5  -4  -9   -0.30    7.10
  -5  -4  -9   10.40    6.20
   5   4   9   -4.30    6.10
  -6  -4  -9   -1.70    7.70
  -6  -4  -9   -3.80    9.10
   6   4   9   -3.70    7.40
   7   4   9   19.00   10.30
   6  -5  -9   20.70    9.20
   5  -5  -9    9.10    5.90
  -5   5   9   -3.70   10.90
  -5   5   9   23.60    7.40
   4  -5  -9   64.39    7.50
  -4   5   9   65.99    7.50
  -4   5   9   69.59   11.80
  -4   5   9   60.19    8.30
   3  -5  -9    9.00    3.30
  -3   5   9    3.70    5.20
  -3   5   9   12.90    3.70
  -2   5   9  184.78   10.70
  -2   5   9  166.58    7.20
   1  -5  -9   -6.40    6.40
  -1   5   9    1.20    1.60
  -1   5   9    3.00    2.10
  -1   5   9   -8.10    5.90
   0  -5  -9   -0.70    5.70
   0   5   9   -0.60    1.30
   0   5   9   -1.50    3.80
   0   5   9   -0.50    1.60
  -1  -5  -9  126.19   11.00
   1   5   9  135.29    6.40
   1   5   9  135.49    8.90
   1   5   9  131.89    5.20
  -2  -5  -9   22.90    5.70
  -2  -5  -9   17.50    3.90
   2   5   9   20.30    3.10
   2   5   9   14.00    4.70
  -3  -5  -9    7.60    5.30
  -3  -5  -9    6.00    5.10
  -3  -5  -9   11.40    4.90
   3   5   9   10.10    3.50
  -4  -5  -9   -3.60    6.70
   4   5   9   -7.80    4.20
  -5  -5  -9    1.90    7.50
  -5  -5  -9   -9.10    6.30
   5   5   9    0.10    6.40
  -6  -5  -9    2.40    9.10
  -6  -5  -9   12.10    8.70
   6   5   9   -3.70    7.60
  -5   6   9   27.70    9.10
  -5   6   9   27.10   13.40
   4  -6  -9   22.80    5.00
  -4   6   9   10.30    7.30
  -4   6   9   10.50   10.80
   3  -6  -9    6.00    2.90
  -3   6   9   -2.60    5.30
  -3   6   9   14.10    9.30
  -3   6   9    1.50    4.10
  -2   6   9    0.70    4.50
  -2   6   9   -1.10    2.50
  -2   6   9    6.50    2.40
  -1   6   9    2.40    4.20
   0  -6  -9   32.60    8.70
   0   6   9   29.20    5.50
  -1  -6  -9   20.10    6.80
   1   6   9   19.20    5.30
  -2  -6  -9   14.80    3.50
  -2  -6  -9   13.40    6.10
   2   6   9    7.80    4.80
   2   6   9   11.60    2.70
  -3  -6  -9   13.60    6.90
  -3  -6  -9   10.70    4.90
   3   6   9   13.50    5.50
   3   6   9   16.90    3.60
  -4  -6  -9   20.10    7.60
  -4  -6  -9   11.90    6.80
   4   6   9   15.60    4.80
   4   6   9   20.40    6.00
  -5  -6  -9    0.00    7.00
  -5  -6  -9   -5.30    7.70
   5   6   9    0.70    5.80
  -6  -6  -9    5.90    8.80
  -6  -6  -9    0.40   10.40
   6   6   9  -14.90    7.80
  -5   7   9   10.50   16.20
  -5   7   9   26.40   10.30
  -4   7   9  -11.40    7.40
  -4   7   9   15.30   11.50
  -3   7   9    6.60   10.50
  -3   7   9    0.20    6.20
  -2   7   9  107.19    9.80
   1  -7  -9   61.89   12.20
   0   7   9    3.90    5.30
   1   7   9    1.40    7.40
  -2  -7  -9    9.30    2.60
   2   7   9   10.40    6.20
   2   7   9   12.30    2.20
  -3  -7  -9   -1.00    4.70
   3   7   9    4.90    6.40
   3   7   9    8.50    3.30
  -4  -7  -9    4.00    7.60
   4   7   9   -2.10    4.20
  -5  -7  -9   10.30    8.90
   5   7   9    5.50    6.00
   5   7   9    5.40    7.30
  -6  -7  -9  -14.10   11.00
   6   7   9   -5.00    8.10
   6   7   9   19.50    9.70
  -4   8   9   45.70   14.90
  -4   8   9   11.90    9.20
  -3   8   9    1.40   11.90
  -3   8   9  -10.30    7.30
  -2   8   9  102.69   10.90
  -2   8   9   68.89   11.30
   1  -8  -9    2.70   11.50
   0  -8  -9   19.00   10.50
  -1  -8  -9   -2.50   12.20
   3   8   9   79.99    5.80
  -4  -8  -9   -1.10    8.30
   4   8   9    0.50    4.30
   4   8   9    0.50    9.10
  -5  -8  -9  -21.90   10.20
   5   8   9    1.20    8.30
   5   8   9    3.50    6.50
  -3   9   9   -2.20   12.70
  -3   9   9   26.20    9.60
  -2   9   9    1.90    7.10
  -2   9   9  -11.70    9.90
   1  -9  -9   -9.30   12.70
  -1   9   9   22.10    7.70
   0  -9  -9   -4.30   10.90
   0   9   9    5.10    6.30
  -1  -9  -9    0.40   10.40
   1   9   9    6.80    6.80
  -2  -9  -9  200.28   17.90
   2   9   9  215.78   14.70
  -3  -9  -9   69.79   12.20
   3   9   9  103.89   11.80
  -4  -9  -9   17.70   10.70
   4   9   9    7.40    7.70
  -5  -9  -9    1.10   10.80
   5   9   9   11.20    9.40
  -2  10   9   -3.00    8.40
  -2  10   9   -4.20   13.30
   1 -10  -9    2.50   16.20
  -1  10   9    5.90    8.10
   0 -10  -9  -18.30   13.20
   0  10   9   11.80    7.20
  -1 -10  -9  -12.50   11.30
   1  10   9    0.90    7.10
  -2 -10  -9  -13.60   10.70
   2  10   9   -3.60    7.50
  -3 -10  -9   11.70   10.80
   3  10   9    0.10    7.80
  -4 -10  -9    4.00   12.20
   4  10   9   21.30    9.70
   1 -11  -9    7.70   20.40
  -1  11   9    9.90    9.70
   0 -11  -9   45.10   17.90
   0  11   9   13.20    9.50
  -1 -11  -9   -5.90   15.60
   1  11   9    5.20    8.60
  -2 -11  -9  -22.40   13.80
   2  11   9    8.10    8.80
  -3 -11  -9  -15.40   14.60
   3  11   9  -10.70    9.20
  -3  -8  10    3.20    9.90
  -2  -8  10    0.70   10.00
  -1  -8  10    8.60   10.80
   0  -8  10   -7.10   11.20
  -1   8 -10   -3.00    9.90
   1  -8  10   13.90   10.70
  -4  -7  10   16.90   10.00
  -3  -7  10   -8.90    7.70
  -2  -7  10    0.10    7.90
   1   7 -10    5.40    6.00
  -1  -7  10    3.20    8.80
   0  -7  10   11.00    9.50
  -1   7 -10    1.00    7.90
   1  -7  10   -1.60    9.30
  -2   7 -10   -3.90    9.70
   2  -7  10  -10.60    9.90
  -3   7 -10   11.80   12.00
   3  -7  10    4.70   11.70
   5   6 -10   32.70    9.30
  -4  -6  10   19.40    8.30
  -4  -6  10    7.30    9.30
  -3  -6  10    3.00    6.80
  -3  -6  10    1.30    6.10
   2   6 -10   60.69    7.50
  -2  -6  10   59.19   10.00
  -2  -6  10   65.89    7.50
   1   6 -10   30.20    6.00
  -1  -6  10   12.20    7.80
  -1  -6  10   28.70    7.00
   0   6 -10   11.50    6.00
   0  -6  10   -4.30    7.40
   1  -6  10    4.90    7.00
  -2   6 -10   -1.20    8.10
   2  -6  10    4.30    8.10
  -3   6 -10   -7.00    9.80
   3  -6  10    6.40    9.70
   4  -6  10    9.70   11.70
   5   5 -10   10.90    8.00
  -5  -5  10   24.40   10.70
   4   5 -10    7.30    6.50
  -4  -5  10   -9.40    7.60
  -3  -5  10   42.50    8.60
  -3  -5  10   42.20    4.40
  -3  -5  10   47.70    7.30
   2   5 -10  108.99    7.80
  -2  -5  10  100.09   10.00
  -2  -5  10   87.59    8.00
  -2  -5  10   73.99    8.40
   1   5 -10   58.59    7.80
  -1  -5  10   67.79    8.70
   0   5 -10   67.79    9.00
  -2   5 -10   -1.20    6.70
   2  -5  10   -5.90    6.80
  -3   5 -10   -1.90    8.00
   3  -5  10    3.50    8.90
  -4   5 -10   15.60    9.80
   4  -5  10   -3.70    9.90
   6   4 -10    8.60    8.60
  -6  -4  10   17.30   13.00
   5   4 -10   17.60    7.10
  -5  -4  10   28.50   11.00
   4   4 -10   20.50    6.50
  -4  -4  10   10.10    7.80
  -3  -4  10   13.10    6.30
  -3  -4  10   17.10    9.50
  -3  -4  10   19.70    3.60
  -3  -4  10   30.90    6.70
  -3  -4  10   16.60    4.40
   2   4 -10  169.28    9.00
  -2  -4  10  172.08    9.60
  -2  -4  10  155.38   11.60
  -2  -4  10  160.38    9.90
  -2  -4  10  164.38   12.10
   1   4 -10   84.69    7.40
  -1  -4  10  105.29    8.40
  -1  -4  10   79.79    6.40
  -1  -4  10   79.19    6.80
  -1  -4  10   95.29   10.20
   0   4 -10    1.30    4.50
   0  -4  10    3.20    5.90
  -1   4 -10   75.19    9.30
  -3   4 -10    3.70    7.80
   3  -4  10   -4.00    7.30
  -4   4 -10   30.80    9.00
   4  -4  10   -0.90    7.70
  -5   4 -10    1.60   11.00
   5  -4  10  -11.30   10.30
   6   3 -10   12.30    8.00
  -6  -3  10   -2.30   12.20
   5   3 -10   29.50    7.70
  -5  -3  10   18.10   10.70
   4   3 -10    6.80    5.50
  -4  -3  10    4.70    2.80
  -4  -3  10    4.70    7.90
  -3  -3  10   21.00    6.10
  -3  -3  10   27.90    4.60
  -3  -3  10   23.60    6.90
  -3  -3  10   23.80    3.80
  -3  -3  10   21.10    9.60
   2   3 -10  154.18    8.60
  -2  -3  10  180.18   11.10
  -2  -3  10  170.88   12.10
  -2  -3  10  175.88    9.40
   1   3 -10   12.20    3.80
  -1  -3  10    5.40    4.20
  -1  -3  10   10.60    4.90
  -1  -3  10    5.60    4.10
  -1  -3  10   16.30    5.10
   0   3 -10   14.10    4.30
   0  -3  10    6.10    4.90
   0  -3  10    9.80    2.70
   0  -3  10    6.10    3.80
   0  -3  10    7.90    5.30
  -1   3 -10    1.20    4.40
   1  -3  10    2.60    4.90
   2  -3  10   30.00    7.30
  -3   3 -10    5.10    6.00
   3  -3  10    2.00    6.60
   3  -3  10    4.30    5.20
  -4   3 -10    4.70    7.50
   4  -3  10    4.60    7.40
  -5   3 -10    5.30    9.80
   5  -3  10    1.00    9.50
   6   2 -10    2.50    7.30
  -6  -2  10   15.50   12.10
   5   2 -10   10.40    6.30
  -5  -2  10   11.50   10.00
  -4  -2  10   91.09   12.70
  -4  -2  10   73.79    5.60
  -4  -2  10   51.69    6.90
  -3  -2  10   67.29    6.60
  -3  -2  10   42.70    9.90
  -3  -2  10   44.60    5.40
  -3  -2  10   46.30    8.40
  -2  -2  10   22.20    6.80
  -2  -2  10   23.70    4.80
  -2  -2  10   27.70    5.70
  -2  -2  10   15.20    5.50
  -2  -2  10   27.20    4.00
   1   2 -10    1.60    3.20
  -1  -2  10    1.40    3.50
  -1  -2  10    6.50    4.00
  -1  -2  10    1.60    4.20
  -1  -2  10   -5.50    4.30
   0   2 -10   51.49    6.00
   0  -2  10   64.39    7.30
   0  -2  10   65.09    7.70
   0  -2  10   52.29    7.00
   0  -2  10   58.59    6.80
  -1   2 -10   11.30    4.80
   1  -2  10    4.00    4.40
   1  -2  10    7.70    3.30
  -2   2 -10    3.10    4.20
  -2   2 -10    4.10    4.70
   2  -2  10    0.20    4.10
   2  -2  10    4.20    5.10
  -3   2 -10    6.90    4.40
   3  -2  10   10.80    5.90
   3  -2  10    5.90    5.50
  -4   2 -10   -3.70    6.70
  -4   2 -10   -4.10    5.30
   4  -2  10   -4.50    6.60
  -5   2 -10   -2.40    8.50
  -5   2 -10   -8.50    6.50
   5  -2  10   -1.80    8.10
  -6   2 -10   -2.10   11.00
   6  -2  10    0.60   12.50
   6   1 -10   -3.30    7.20
  -6  -1  10   23.00   12.20
   5   1 -10    3.20    5.70
  -5  -1  10    1.30    9.10
  -5  -1  10   -0.60    4.00
  -4  -1  10   66.19    6.00
  -4  -1  10   60.19    7.30
   3   1 -10   18.20    4.50
  -3  -1  10   31.60    9.40
  -3  -1  10   18.50    4.60
  -3  -1  10   24.90    4.00
  -3  -1  10   18.90    6.60
  -2  -1  10   12.70    3.60
  -2  -1  10   10.20    5.20
  -2  -1  10   18.60    6.40
  -2  -1  10   16.30    4.80
  -2  -1  10   17.60    4.20
   1   1 -10    3.20    3.30
  -1  -1  10    4.10    4.40
  -1  -1  10   -0.40    3.80
  -1  -1  10    6.30    3.70
  -1  -1  10    6.00    4.20
  -1  -1  10    3.90    4.10
   0   1 -10    1.60    3.50
   0  -1  10   -0.80    3.20
   0  -1  10    0.40    3.80
   0  -1  10    3.60    4.20
   0  -1  10   -3.40    3.50
   0  -1  10   -4.70    3.40
  -1   1 -10   14.80    4.40
  -1   1 -10    7.70    4.90
  -1   1 -10   17.10    5.00
   1  -1  10   25.40    3.90
   1  -1  10   18.00    4.70
   1  -1  10   20.60    5.50
  -2   1 -10    1.70    3.90
  -2   1 -10   -1.90    4.30
   2  -1  10   -1.20    3.80
   2  -1  10   -1.50    4.10
  -3   1 -10    6.40    4.40
   3  -1  10   -5.20    5.40
   3  -1  10   12.90    8.70
  -4   1 -10    5.60    5.30
   4  -1  10    2.50    6.10
   4  -1  10  -10.00    7.60
  -5   1 -10    7.10    7.00
  -5   1 -10   -9.40    8.50
   5  -1  10   11.80    7.80
  -6   1 -10    2.50   10.70
   6  -1  10    0.80    9.50
   6   0 -10   -1.40    6.80
  -6   0  10   -4.60   13.00
   5   0 -10   14.20    5.90
  -5   0  10   19.70    4.90
  -5   0  10   31.00   10.60
  -4   0  10   31.60    9.10
  -4   0  10   47.30    5.30
  -4   0  10   51.09    6.40
   3   0 -10   10.20    3.70
  -3   0  10   -6.70    6.20
  -3   0  10   17.90    3.90
  -3   0  10   11.90    4.50
  -2   0  10    1.00    5.00
  -2   0  10    3.50    3.90
  -2   0  10   -3.50    3.50
  -2   0  10   -3.30    5.60
  -2   0  10   -0.30    3.00
  -2   0  10   -1.40    3.90
  -1   0  10   31.90    5.00
  -1   0  10   36.50    5.00
  -1   0  10   30.00    5.50
  -1   0  10   32.90    4.90
  -1   0  10   33.40    5.60
   0   0 -10    4.80    5.00
   0   0 -10    1.70    3.10
   0   0  10    0.60    3.00
   0   0  10    1.10    3.40
   0   0  10    1.00    3.50
   0   0  10   -2.40    4.00
  -1   0 -10   -3.80    4.10
  -1   0 -10   -2.00    3.80
  -1   0 -10   -3.10    3.20
   1   0  10    1.20    3.90
   1   0  10   -0.90    4.00
   1   0  10    3.20    3.30
  -2   0 -10   -2.70    4.20
  -2   0 -10    3.50    4.20
  -2   0 -10   -3.60    4.80
   2   0  10    0.10    3.70
   2   0  10    3.00    4.00
  -3   0 -10   -0.40    4.40
   3   0  10   -0.50    5.30
   3   0  10    0.70    4.60
  -4   0 -10   10.00    5.50
   4   0  10  -10.10    7.80
   4   0  10    0.50    6.30
  -5   0 -10   15.60    7.80
  -5   0 -10   12.80    7.20
   5   0  10   10.10    7.70
  -6   0 -10    6.00   13.30
  -6   0 -10    3.40   10.00
   6   0  10    8.50    9.60
   6  -1 -10   45.20    8.40
  -6   1  10   19.40    7.40
  -6   1  10   25.80   12.80
  -5   1  10    3.30    4.90
  -5   1  10   -5.90   10.10
   4  -1 -10    0.60    4.00
  -4   1  10   -1.80    7.50
  -4   1  10   14.40    5.80
  -4   1  10    3.50    4.00
   3  -1 -10    9.10    3.40
  -3   1  10    8.20    3.80
  -3   1  10   12.90    6.60
  -3   1  10    6.50    4.20
  -3   1  10    3.30    4.30
  -2   1  10  297.17   15.70
  -2   1  10  273.17   15.80
  -2   1  10  290.97   12.00
  -2   1  10  298.17   12.70
  -2   1  10  323.87   12.40
  -2   1  10  286.27   12.00
  -1   1  10    0.10    3.30
  -1   1  10    7.80    4.30
  -1   1  10    4.50    3.10
  -1   1  10    6.40    4.30
  -1   1  10    9.40    4.10
  -1   1  10    1.00    3.20
   0  -1 -10   39.70    6.80
   0  -1 -10   49.80    6.00
   0   1  10   46.20    6.40
   0   1  10   42.60    4.90
   0   1  10   43.40    5.80
   0   1  10   44.10    6.30
  -1  -1 -10   59.49    7.90
  -1  -1 -10   65.89    6.70
  -1  -1 -10   64.59    6.60
   1   1  10   57.09    6.30
   1   1  10   54.69    7.00
   1   1  10   54.89    6.40
  -2  -1 -10   -4.40    4.50
  -2  -1 -10    1.60    4.10
  -2  -1 -10    0.70    3.80
   2   1  10   -0.10    3.50
   2   1  10   -1.50    4.00
  -3  -1 -10  185.88   11.30
   3   1  10  173.78   10.70
   3   1  10  167.88   11.10
  -4  -1 -10  130.59   11.20
  -4  -1 -10  110.39   10.90
   4   1  10  124.79   11.00
   4   1  10   83.69   11.90
  -5  -1 -10    8.90    7.70
  -5  -1 -10    4.50    7.00
   5   1  10   10.90    7.00
  -6  -1 -10    0.40    9.00
  -6  -1 -10    3.80    9.40
   6   1  10   -2.60    9.50
   6  -2 -10   26.80    8.50
  -6   2  10   11.10   13.50
  -6   2  10    8.40    7.30
  -5   2  10   13.20   10.00
  -5   2  10   10.50    5.90
   4  -2 -10   -3.50    3.80
  -4   2  10  -17.00    7.90
  -4   2  10    5.60    4.40
   3  -2 -10   78.89    6.70
  -3   2  10   63.89    7.00
  -3   2  10   95.99   11.90
  -3   2  10   65.09    7.20
  -3   2  10   71.69    8.40
  -2   2  10    9.40    4.50
  -2   2  10    3.60    5.60
  -2   2  10    8.50    3.30
  -2   2  10    6.00    3.50
  -2   2  10    6.60    3.70
   1  -2 -10  160.78   13.70
  -1   2  10  155.98    8.90
  -1   2  10  145.99    7.70
  -1   2  10  143.59   10.30
  -1   2  10  168.18    8.30
  -1   2  10  139.99    8.90
   0  -2 -10    3.20    5.70
   0   2  10   -3.10    2.40
   0   2  10   -2.00    3.90
   0   2  10    3.40    3.60
   0   2  10    5.80    3.30
   0   2  10    0.10    2.80
  -1  -2 -10    2.60    3.20
  -1  -2 -10   -1.20    3.60
  -1  -2 -10   -2.00    4.70
   1   2  10   -3.80    3.10
   1   2  10    2.20    3.50
   1   2  10   -6.90    4.40
  -2  -2 -10   68.69    7.10
  -2  -2 -10   63.29    7.80
  -2  -2 -10   53.89    7.20
   2   2  10   44.10    6.20
   2   2  10   60.19    6.40
  -3  -2 -10  282.37   15.00
  -3  -2 -10  334.77   15.20
  -3  -2 -10  339.97   14.50
   3   2  10  312.17   13.60
   3   2  10  254.37   14.30
  -4  -2 -10   28.60    7.00
  -4  -2 -10   29.50    6.70
   4   2  10   23.30    6.10
  -5  -2 -10    2.20    8.30
  -5  -2 -10   -8.40    7.00
   5   2  10   20.80    7.00
  -6  -2 -10   -6.30    8.80
  -6  -2 -10    8.90    9.60
   6   2  10   -1.70    8.20
   6  -3 -10   32.90    9.20
  -6   3  10  -11.50   14.00
  -6   3  10   41.30    8.90
   5  -3 -10   11.60    5.40
  -5   3  10   14.70   11.20
  -5   3  10   18.70    6.30
   4  -3 -10   65.19    7.60
  -4   3  10   61.69   11.60
  -4   3  10   82.89    8.60
   3  -3 -10    0.40    3.20
  -3   3  10    0.40    3.70
  -3   3  10   -2.40    4.10
  -3   3  10    2.50    7.60
  -2   3  10 2172.98   59.69
  -2   3  10 2320.17   62.09
  -2   3  10 2276.87   60.39
  -2   3  10 2333.97   66.49
   1  -3 -10   43.40    9.20
  -1   3  10   34.20    4.80
  -1   3  10   39.40    5.10
  -1   3  10   64.39    8.50
  -1   3  10   51.29    6.30
  -1   3  10   50.69    6.20
   0  -3 -10    5.60    5.60
   0   3  10   11.20    4.90
   0   3  10    9.30    4.40
   0   3  10    1.10    2.50
   0   3  10    9.10    4.10
   0   3  10    8.90    2.90
  -1  -3 -10    2.70    3.10
  -1  -3 -10   -5.80    3.70
  -1  -3 -10   -0.40    5.00
   1   3  10    1.30    2.80
   1   3  10   -2.10    3.80
  -2  -3 -10    3.60    4.50
  -2  -3 -10    1.60    5.00
  -2  -3 -10    8.00    4.30
   2   3  10    9.00    3.40
   2   3  10    6.80    4.80
  -3  -3 -10   10.40    5.20
  -3  -3 -10   10.00    5.90
  -3  -3 -10   13.90    5.60
   3   3  10   21.80    4.80
  -4  -3 -10   16.10    6.60
  -4  -3 -10   15.10    6.10
   4   3  10   17.10    5.30
  -5  -3 -10   33.80    7.50
   5   3  10   32.50    7.30
  -6  -3 -10  -15.80    9.60
  -6  -3 -10   11.00    8.90
   6  -4 -10   -5.60    8.50
  -5   4  10    6.30   10.70
  -5   4  10    7.00    6.80
   4  -4 -10    1.00    4.20
  -4   4  10   11.00    5.90
  -4   4  10   -4.90    9.00
  -4   4  10  -10.20    5.60
   3  -4 -10  131.49    7.60
  -3   4  10  133.09    9.80
  -3   4  10  122.79    7.80
  -3   4  10  147.09   15.30
  -2   4  10   96.09   11.90
  -2   4  10   99.29    6.50
  -2   4  10   94.69    6.00
  -2   4  10  105.99    8.50
   1  -4 -10   41.60    8.80
  -1   4  10   40.00    4.10
  -1   4  10   37.10    4.20
  -1   4  10   39.10    6.20
   0  -4 -10   -1.90    6.20
   0   4  10    2.90    2.60
   0   4  10    4.90    4.00
   0   4  10    0.60    3.20
  -1  -4 -10   59.69    8.50
   1   4  10   60.09    7.20
   1   4  10   53.89    4.40
   1   4  10   63.99    5.20
   1   4  10   54.39    9.50
  -2  -4 -10   -0.80    3.80
  -2  -4 -10   -0.90    4.50
  -2  -4 -10    6.40    5.20
   2   4  10    1.10    3.20
  -3  -4 -10   22.10    6.50
  -3  -4 -10   24.40    6.60
  -3  -4 -10   26.20    6.10
   3   4  10   29.50    5.00
  -4  -4 -10    3.30    7.30
  -4  -4 -10   -5.00    5.60
   4   4  10   -0.30    4.80
  -5  -4 -10    6.60    8.30
  -5  -4 -10    4.30    7.30
   5   4  10    3.50    6.40
  -6  -4 -10   25.20    9.70
  -6  -4 -10   14.90    9.80
   6   4  10   -4.40    8.30
   5  -5 -10   14.70    6.30
  -5   5  10  -13.90   11.10
  -5   5  10   -5.00    7.80
   4  -5 -10   49.60    6.20
  -4   5  10   55.69    8.30
  -4   5  10   47.90   11.30
   3  -5 -10   44.60    5.70
  -3   5  10   51.19    7.20
  -3   5  10   59.19    6.90
  -2   5  10   33.40    4.00
  -2   5  10   26.70    8.20
  -2   5  10   36.70    4.70
   1  -5 -10   34.00    9.10
  -1   5  10   19.70    5.10
  -1   5  10   26.40    3.30
   0  -5 -10    5.60    7.50
   0   5  10    0.30    1.90
   0   5  10    4.30    2.50
   0   5  10    2.90    4.30
  -1  -5 -10   53.39    8.90
   1   5  10   49.00    4.00
   1   5  10   51.99    4.80
   1   5  10   61.89    7.40
  -2  -5 -10    2.00    5.70
  -2  -5 -10    2.90    3.70
   2   5  10   -2.20    2.80
   2   5  10   -8.30    4.20
  -3  -5 -10   40.40   12.40
  -3  -5 -10   30.00    7.30
  -3  -5 -10   41.00    6.50
   3   5  10   39.20    5.30
  -4  -5 -10   15.00    8.80
  -4  -5 -10   39.20    7.60
   4   5  10   31.90    6.00
  -5  -5 -10   23.60    9.10
  -5  -5 -10    4.90    7.40
   5   5  10   11.10    6.80
  -6  -5 -10    0.90    9.00
  -6  -5 -10  -11.00    9.90
   6   5  10   13.40    8.60
  -5   6  10   32.10    9.50
  -5   6  10   15.30   13.70
   4  -6 -10   29.80    7.60
  -4   6  10   17.80    7.70
  -4   6  10   44.30   12.70
   3  -6 -10    7.00    3.10
  -3   6  10   -1.70    9.20
  -3   6  10    7.70    5.50
  -2   6  10   -2.60    5.20
  -2   6  10   15.10    3.10
  -2   6  10   16.00    3.30
  -1   6  10   -0.90    4.80
   1   6  10   10.30    1.80
  -2  -6 -10    9.30    6.50
  -2  -6 -10   -3.90    4.90
   2   6  10   -2.60    5.10
   2   6  10    3.10    2.60
  -3  -6 -10   -2.90    5.60
   3   6  10    4.70    3.60
  -4  -6 -10   17.50    8.00
  -4  -6 -10    8.80    8.60
   4   6  10   24.40    5.40
   4   6  10    7.80    7.80
  -5  -6 -10   32.50   10.20
  -5  -6 -10   27.90    8.70
  -6  -6 -10    4.60   11.10
  -6  -6 -10    3.10    9.90
   6   6  10   -4.00    8.70
  -4   7  10   28.40   14.10
  -4   7  10   -8.70    7.60
  -3   7  10   -6.50    6.60
  -3   7  10   -2.90   11.20
  -2   7  10   22.80    6.30
  -2   7  10   60.99   11.20
   2   7  10    2.30    2.10
  -3  -7 -10   42.50    9.50
   3   7  10   32.50    4.30
  -4  -7 -10   34.30    9.50
   4   7  10   23.60    8.10
   4   7  10   42.40    5.80
  -5  -7 -10    9.50   10.20
   5   7  10   13.30    6.50
   5   7  10    8.70    8.70
   6   7  10   -9.90    8.80
  -4   8  10   -5.60    9.30
  -4   8  10   37.90   14.90
  -3   8  10   10.30   12.30
  -3   8  10   10.50    8.10
  -2   8  10   -7.20    7.10
  -2   8  10    8.50   10.50
   1  -8 -10    4.20   12.20
  -1   8  10   -3.10    5.20
   0  -8 -10   20.10   10.80
   0   8  10    2.60    6.10
   1   8  10   14.30    6.60
   2   8  10    9.00    6.70
  -3  -8 -10   82.49   12.40
   3   8  10   99.49   12.20
  -4  -8 -10   -4.90    9.60
   4   8  10    1.70    6.30
   4   8  10  -10.90    8.00
  -5  -8 -10  -21.90   11.00
   5   8  10    0.90    9.60
  -3   9  10   14.60    9.70
  -3   9  10   -5.80   14.60
  -2   9  10   23.00    9.00
  -2   9  10    3.70   12.10
   1  -9 -10   -9.50   15.40
  -1   9  10   -3.70    6.50
   0  -9 -10    2.90   12.70
   0   9  10    1.80    6.40
  -1  -9 -10   30.20   11.80
   1   9  10   28.60    8.50
  -2  -9 -10  257.87   21.20
   2   9  10  260.17   16.20
  -3  -9 -10   43.90   11.60
   3   9  10   42.20    8.90
  -4  -9 -10   11.30   11.00
   4   9  10   -1.20    8.30
  -2  10  10   21.90   10.10
  -2  10  10   -9.30   13.10
   1 -10 -10   -7.90   17.60
  -1  10  10    4.40    8.00
   0 -10 -10   16.10   15.70
   0  10  10    2.30    7.10
  -1 -10 -10    2.00   12.70
   1  10  10   -5.60    7.50
  -2 -10 -10   36.50   12.70
   2  10  10   22.10    9.20
  -3 -10 -10   10.30   13.00
   3  10  10    3.70    9.10
  -4 -10 -10   -4.50   13.10
   4  10  10  -19.00    9.70
   0 -11 -10   49.30   20.40
   0  11  10   18.80   10.20
  -1 -11 -10    2.20   17.30
   1  11  10   14.20    8.70
  -2 -11 -10   -0.90   15.40
   2  11  10    7.00    9.50
  -1  -8  11   -8.00   12.10
   0   8 -11    2.20   10.40
   0  -8  11   -8.50   12.70
  -3  -7  11   -4.80    9.60
  -2  -7  11   14.60   10.10
   1   7 -11    1.50    7.10
  -1  -7  11   -3.20   10.20
   0  -7  11   16.80   10.70
  -1   7 -11   22.20    9.50
   1  -7  11   24.00   11.50
  -2   7 -11   -9.10   10.50
   2  -7  11   -3.60   10.60
  -4  -6  11   -4.20    9.20
  -3  -6  11   14.20    9.00
   2   6 -11    1.10    5.70
  -2  -6  11   10.60    8.90
   1   6 -11    7.10    6.30
  -1  -6  11   22.00    8.40
   0   6 -11   -1.60    9.20
   0  -6  11   19.00    9.90
  -1   6 -11    7.20    7.70
   1  -6  11   10.50    9.00
  -2   6 -11    1.60    8.80
   2  -6  11   -9.50    9.40
  -3   6 -11   12.70   10.50
   3  -6  11  -16.50   10.30
   5   5 -11  125.99   14.40
  -5  -5  11   91.69   13.60
  -4  -5  11   10.50    9.30
  -4  -5  11    1.70    9.00
  -3  -5  11   50.39    9.50
  -3  -5  11   46.10    8.20
   2   5 -11   15.40    4.90
  -2  -5  11    6.50    7.30
  -2  -5  11   15.20    5.20
   1   5 -11  240.28   12.10
  -1  -5  11  192.48   14.20
  -1  -5  11  256.67   16.20
   0   5 -11    3.20    5.90
   0  -5  11   -1.20    7.70
   1  -5  11    5.30    7.90
  -2   5 -11    7.90    7.70
   2  -5  11   -1.20    8.30
  -3   5 -11   -5.30    9.60
   3  -5  11   -9.70    9.20
  -4   5 -11  -17.50   10.90
   4  -5  11   -0.80   10.20
   5   4 -11    3.40    7.60
  -5  -4  11    7.70   11.80
  -4  -4  11   -5.80    8.20
  -4  -4  11    3.40    9.10
  -3  -4  11    6.60    6.60
  -3  -4  11    7.70    6.50
  -3  -4  11    3.80    3.70
   2   4 -11  109.49    8.30
  -2  -4  11   90.39   11.60
  -2  -4  11  104.09   11.30
  -2  -4  11   81.69    9.20
  -2  -4  11  124.09   10.00
   1   4 -11  253.37   11.90
  -1  -4  11  234.18   13.40
  -1  -4  11  248.18    9.90
  -1  -4  11  235.88   10.30
  -1  -4  11  252.27   15.10
   0   4 -11   60.19    7.30
   0  -4  11   56.89   13.00
  -1   4 -11   -6.30    5.70
   1  -4  11   15.00    7.20
  -2   4 -11   -0.40    6.70
   2  -4  11   11.30    7.70
  -3   4 -11   12.90    8.20
   3  -4  11   -5.00    8.50
  -4   4 -11   15.80    9.50
   4  -4  11   -3.00    9.30
   5   3 -11   13.40    7.30
  -5  -3  11   18.70   12.00
   4   3 -11   11.00    6.20
  -3  -3  11   -9.10    6.20
  -3  -3  11   -2.10    7.10
  -3  -3  11   -0.50    5.40
  -3  -3  11    2.70   10.00
  -3  -3  11    4.10    3.80
  -2  -3  11    8.40    5.60
  -2  -3  11    6.90    5.30
  -2  -3  11    5.80    6.00
  -2  -3  11    8.90    6.70
   1   3 -11    1.10    4.00
  -1  -3  11   -1.00    5.50
  -1  -3  11   -3.10    4.60
  -1  -3  11    6.00    4.30
  -1  -3  11   -1.50    5.10
   0   3 -11   43.40    6.40
   0  -3  11   34.30    3.90
   0  -3  11   30.00    7.00
  -1   3 -11   -2.40    4.90
   1  -3  11    4.30    6.30
   2  -3  11    2.80    6.20
  -3   3 -11   27.20    7.70
   3  -3  11   16.90    7.80
  -4   3 -11   12.30    8.90
   4  -3  11   -0.20    8.60
  -5   3 -11    4.00   10.90
   5  -3  11   -4.60   10.80
   6   2 -11   14.40    8.80
  -6  -2  11   23.00   14.10
   5   2 -11    2.70    6.10
  -5  -2  11    2.60   10.80
   4   2 -11    0.60    5.30
  -4  -2  11    4.00    3.80
  -4  -2  11   16.00    8.80
  -3  -2  11   42.80    7.30
  -3  -2  11   43.50    5.20
  -3  -2  11   41.60    6.30
  -3  -2  11   36.80    8.10
  -2  -2  11   35.30    5.30
  -2  -2  11   25.90    7.30
  -2  -2  11   33.20    7.30
  -2  -2  11   35.60    6.00
   1   2 -11   11.10    4.50
  -1  -2  11    9.10    5.60
  -1  -2  11   11.40    4.70
  -1  -2  11    9.00    5.20
  -1  -2  11   -1.60    5.20
   0   2 -11    7.40    4.40
   0  -2  11   19.50    5.90
   0  -2  11   13.10    4.70
   0  -2  11   14.40    4.00
  -1   2 -11    5.40    5.00
   1  -2  11   18.30    9.00
   1  -2  11    7.00    4.20
  -2   2 -11   -2.80    7.90
  -2   2 -11    7.60    5.40
   2  -2  11   15.90    5.80
  -3   2 -11   14.80    5.20
  -3   2 -11    9.30    6.70
   3  -2  11    9.00    6.40
  -4   2 -11   -6.70    7.90
  -4   2 -11    3.00    5.90
   4  -2  11    2.90    7.30
  -5   2 -11   -0.70    9.90
   5  -2  11    5.80   10.10
   6   1 -11   -0.10    7.50
  -6  -1  11    6.90   14.20
   5   1 -11   -0.10    6.30
  -5  -1  11   13.30   10.50
   4   1 -11   44.30    7.00
  -4  -1  11   49.20   10.70
  -4  -1  11   48.90    5.50
  -3  -1  11   15.70    4.40
  -3  -1  11   29.90    8.00
  -3  -1  11   27.90    5.40
  -2  -1  11    0.90    5.90
  -2  -1  11    1.70    4.60
  -2  -1  11   -0.30    3.90
  -2  -1  11   15.70    7.10
  -2  -1  11    9.00    4.70
   1   1 -11   43.40    5.90
  -1  -1  11   44.20    6.60
  -1  -1  11   39.40    6.50
  -1  -1  11   38.40    6.60
  -1  -1  11   39.00    6.10
   0   1 -11    7.40    4.10
   0  -1  11    3.40    5.70
   0  -1  11    6.00    4.60
   0  -1  11    0.30    3.80
   0  -1  11    4.00    4.30
  -1   1 -11    5.90    4.20
  -1   1 -11   15.10    5.70
   1  -1  11    9.80    4.80
   1  -1  11   11.00    4.00
  -2   1 -11    6.00    4.70
   2  -1  11    0.10    4.40
   2  -1  11    0.80    5.60
  -3   1 -11   -7.80    6.60
  -3   1 -11    1.10    4.90
   3  -1  11   -8.50    5.90
   3  -1  11   -3.20    5.60
  -4   1 -11    1.70    7.10
  -4   1 -11   11.60    6.30
   4  -1  11    6.80    6.60
  -5   1 -11   -3.30    9.10
  -5   1 -11    8.20    8.10
   5  -1  11   13.30    9.20
   6   0 -11   27.10    9.00
  -6   0  11   13.70   14.30
   5   0 -11   -5.30    5.70
  -5   0  11   16.70   11.40
  -5   0  11   -0.20    4.80
  -4   0  11    3.00    4.40
  -4   0  11   14.50    6.40
  -4   0  11  -15.40    8.30
   3   0 -11   16.00    4.50
  -3   0  11   15.00    5.30
  -3   0  11   10.80    7.90
  -3   0  11   14.00    4.50
  -2   0  11   50.99    8.40
  -2   0  11   57.99    9.00
  -2   0  11   54.59    6.20
  -2   0  11   50.09    6.40
  -2   0  11   63.49    6.80
  -1   0  11   71.89    7.70
  -1   0  11   84.49    8.50
  -1   0  11   74.59    7.40
  -1   0  11   60.89    7.20
  -1   0  11   67.39    9.40
   0   0 -11  379.56   14.70
   0   0 -11  354.96   17.20
   0   0  11  329.97   13.40
   0   0  11  330.17   14.80
   0   0  11  335.87   15.60
   0   0  11  320.87   13.40
  -1   0 -11   50.59    6.60
  -1   0 -11   33.40    7.20
  -1   0 -11   40.30    7.00
   1   0  11   38.50    5.10
   1   0  11   43.50    6.50
  -2   0 -11   14.30    5.40
  -2   0 -11    6.70    5.30
   2   0  11   10.20    4.70
   2   0  11    5.90    4.80
  -3   0 -11    0.50    5.20
   3   0  11   -6.70    6.20
   3   0  11   -4.70    5.10
  -4   0 -11    3.60    7.10
  -4   0 -11    8.60    6.80
   4   0  11   12.20    9.20
   4   0  11    9.70    6.60
  -5   0 -11    6.30    8.40
  -5   0 -11    6.80    8.00
   5   0  11   -1.20    7.80
  -6   0 -11  -17.90   10.90
  -6   0 -11   -3.20   10.90
   6   0  11   14.20   10.00
   6  -1 -11   -3.40    7.90
  -6   1  11   -6.00   14.50
   5  -1 -11    3.10    5.80
  -5   1  11    0.70    5.20
  -5   1  11   -1.70   10.90
  -4   1  11   -5.70    8.80
  -4   1  11    3.40    4.40
   3  -1 -11    4.10    3.70
  -3   1  11   -4.40    5.50
  -3   1  11  -13.10    6.70
  -3   1  11    7.60    4.40
  -2   1  11   66.49    9.30
  -2   1  11   88.09    7.80
  -2   1  11   76.99    7.50
  -2   1  11   73.59    7.80
  -2   1  11   60.49    7.60
  -1   1  11  113.59    8.50
  -1   1  11  116.09   10.60
  -1   1  11  116.09    8.00
  -1   1  11  119.79    8.70
  -1   1  11  101.29    9.80
  -1   1  11  124.99    8.70
   0  -1 -11  155.68    9.60
   0  -1 -11  135.19   13.00
   0   1  11  158.48    9.70
   0   1  11  140.99    8.20
   0   1  11  147.79    9.60
  -1  -1 -11   11.90    4.90
  -1  -1 -11    8.80    5.80
  -1  -1 -11   16.70    5.00
   1   1  11    5.80    4.30
   1   1  11   14.50    4.40
  -2  -1 -11   -3.30    4.30
  -2  -1 -11   -1.70    4.90
   2   1  11    0.20    4.60
   2   1  11    6.80    4.20
  -3  -1 -11   19.90    6.50
   3   1  11   28.60    5.90
   3   1  11   26.40    6.90
  -4  -1 -11    7.10    6.60
  -4  -1 -11   -6.60    6.60
   4   1  11   -0.30    5.80
  -5  -1 -11   -5.20    7.80
  -5  -1 -11    6.10    8.60
   5   1  11    4.70    7.90
  -6  -1 -11   17.80   11.40
  -6  -1 -11   -6.40   10.00
   6   1  11   19.00   10.70
   6  -2 -11   21.30    8.90
  -6   2  11   19.30   10.10
  -6   2  11   18.40   15.50
   5  -2 -11   11.80    6.10
  -5   2  11   12.10   12.00
  -5   2  11   16.20    6.70
   4  -2 -11   -3.50    4.40
  -4   2  11  -12.20    8.90
  -4   2  11   -4.20    4.70
   3  -2 -11    5.50    3.80
  -3   2  11    7.40    4.80
  -3   2  11    6.00    4.60
  -3   2  11   10.60    7.60
  -2   2  11  296.87   17.20
  -2   2  11  307.47   13.10
  -2   2  11  319.77   13.10
  -2   2  11  297.47   12.50
   1  -2 -11  263.77   17.70
  -1   2  11  263.97   11.60
  -1   2  11  250.97   10.70
  -1   2  11  219.48   13.30
  -1   2  11  261.47   12.10
   0  -2 -11   41.40    7.60
   0   2  11   36.50    5.10
   0   2  11   42.00    6.60
   0   2  11   33.30    5.20
   0   2  11   44.90    5.80
  -1  -2 -11   14.50    5.90
  -1  -2 -11    1.10    4.50
   1   2  11    1.70    3.70
   1   2  11    4.50    4.50
  -2  -2 -11   -0.70    4.80
  -2  -2 -11    3.80    5.40
   2   2  11    2.40    4.00
   2   2  11   -1.40    5.20
  -3  -2 -11   46.00    7.60
   3   2  11   61.49    8.60
  -4  -2 -11   11.40    6.80
  -4  -2 -11    0.60    6.70
   4   2  11   -0.60    5.80
  -5  -2 -11  -14.10    7.30
   5   2  11   -0.60    7.60
  -6  -2 -11    8.60   10.60
  -6  -2 -11   12.40   10.10
   6   2  11   14.80    9.80
  -5   3  11   24.60   11.90
  -5   3  11    4.30    6.90
   4  -3 -11    2.70    4.60
  -4   3  11   18.30   10.30
  -4   3  11   13.20    5.60
   3  -3 -11  403.76   15.10
  -3   3  11  439.06   22.80
  -3   3  11  376.76   15.40
  -3   3  11  434.96   17.00
  -2   3  11  556.74   19.00
  -2   3  11  598.54   24.50
  -2   3  11  528.25   18.10
  -2   3  11  589.64   20.50
   1  -3 -11   20.30    8.80
  -1   3  11   18.40    4.00
  -1   3  11   15.00    4.20
  -1   3  11   28.30    5.90
   0  -3 -11   -6.20    6.70
   0   3  11   -0.70    7.70
   0   3  11   -4.90    4.20
   0   3  11   -3.10    2.90
   0   3  11   -1.90    3.20
  -1  -3 -11   45.60    7.10
  -1  -3 -11   41.50    8.10
   1   3  11   40.20    6.30
   1   3  11   40.00    5.00
   1   3  11   36.10    4.40
  -2  -3 -11    4.90    5.90
  -2  -3 -11   -0.10    4.40
   2   3  11   -1.30    3.60
  -3  -3 -11    0.40    5.40
  -3  -3 -11   12.20    6.90
  -3  -3 -11    9.40    6.40
   3   3  11    6.00    4.70
  -4  -3 -11    3.40    7.40
  -4  -3 -11   11.10    6.60
   4   3  11   22.00    6.80
  -5  -3 -11   -0.50    7.40
  -5  -3 -11  -12.70    8.00
   5   3  11    1.20    7.40
  -6  -3 -11    4.60   11.20
  -6  -3 -11    6.00   10.20
   6   3  11   13.60    9.60
   5  -4 -11   15.30    7.80
  -5   4  11   35.40    8.50
  -5   4  11   43.30   13.70
   4  -4 -11    8.00    4.80
  -4   4  11   20.10    6.40
  -4   4  11   10.50   10.10
   3  -4 -11   84.39    7.00
  -3   4  11  100.59    9.80
  -3   4  11   74.39   11.50
  -3   4  11   84.29    7.80
  -2   4  11   34.50    4.70
  -2   4  11   29.30    8.70
  -2   4  11   31.60    4.50
   1  -4 -11  112.29   15.30
  -1   4  11  100.39    6.20
  -1   4  11  119.59    9.40
  -1   4  11   90.39    6.70
   0  -4 -11   -6.50    7.20
   0   4  11    6.50    3.10
   0   4  11    0.80    3.00
   0   4  11    3.70    4.10
  -1  -4 -11    2.40    6.40
   1   4  11    0.60    2.60
   1   4  11    2.10    3.10
  -2  -4 -11   73.89   10.00
  -2  -4 -11   70.29    9.70
  -2  -4 -11   87.99    8.00
   2   4  11   69.69    7.00
  -3  -4 -11    3.30    6.40
  -3  -4 -11    0.80    5.80
  -3  -4 -11    4.40    9.80
   3   4  11    3.60    4.50
  -4  -4 -11   14.50    6.80
   4   4  11    1.20    5.60
  -5  -4 -11    9.60    9.40
  -5  -4 -11   10.90    8.10
   5   4  11   18.00    7.30
  -6  -4 -11    2.70   11.80
  -6  -4 -11   -0.90    9.90
   6   4  11  -13.90    9.00
  -5   5  11    3.50    8.80
  -5   5  11   -8.30   13.70
   4  -5 -11   41.40    6.30
  -4   5  11   15.70   11.50
  -4   5  11   46.30    8.00
  -3   5  11   -6.80    8.40
  -3   5  11    6.30    5.80
  -2   5  11   44.70    6.00
  -2   5  11   54.89    5.30
  -2   5  11   43.10    8.70
  -2   5  11   71.69    9.50
   1  -5 -11   -7.00    9.60
  -1   5  11    6.50    3.30
  -1   5  11    4.40    2.60
  -1   5  11    9.80    5.30
   0  -5 -11   13.30    9.30
   0   5  11   17.50    3.40
   0   5  11   15.50    5.50
   0   5  11   15.30    3.00
  -1  -5 -11   25.10    7.70
   1   5  11   27.60    3.90
   1   5  11   24.00    3.20
  -2  -5 -11   38.70   13.90
  -2  -5 -11   69.29    7.30
   2   5  11   57.79    6.40
  -3  -5 -11    6.70    6.30
  -3  -5 -11   18.60    6.40
   3   5  11   12.20    4.70
  -4  -5 -11   10.70    7.30
  -4  -5 -11   27.70    9.10
   4   5  11   22.20    6.20
  -5  -5 -11    9.40   10.20
  -5  -5 -11   -1.70    8.50
   5   5  11   15.90    7.30
  -6  -5 -11   -4.20   10.60
  -6  -5 -11    7.90   11.90
   6   5  11   -4.70    9.20
  -4   6  11   -8.20   11.20
  -4   6  11   -2.40    7.80
  -3   6  11    7.50    4.60
  -3   6  11    6.20    9.60
  -3   6  11   -1.50    5.80
  -2   6  11   -0.80    5.60
  -2   6  11   -6.00    8.20
  -1   6  11    2.80    5.90
   1   6  11    0.60    2.40
   1   6  11    2.90    2.30
  -2  -6 -11   12.00    3.90
   2   6  11   -6.10    2.90
  -3  -6 -11    7.60    7.90
  -3  -6 -11   -5.70    6.20
   3   6  11   11.00    4.00
   3   6  11   -9.20    6.20
  -4  -6 -11   40.00   10.20
   4   6  11   47.90    6.80
   4   6  11   32.00    8.70
  -5  -6 -11   -1.10    9.00
  -5  -6 -11    2.40   10.80
   5   6  11    3.50    6.70
  -4   7  11   46.50   16.00
  -4   7  11   24.80    9.20
  -3   7  11   15.60    7.60
  -3   7  11    6.80   10.60
  -2   7  11    8.80    9.70
  -2   7  11    3.70    6.80
  -1   7  11   20.10    6.70
  -1  -7 -11   -1.90    9.60
   1   7  11    4.70    6.50
  -2  -7 -11  -14.30    8.60
   2   7  11   12.10    7.00
   2   7  11    5.90    2.70
  -3  -7 -11    3.00    9.10
   3   7  11    5.80    3.90
   3   7  11    0.10    7.20
  -4  -7 -11    4.00    9.70
   4   7  11   19.20    9.00
   4   7  11   12.90    5.70
  -5  -7 -11    0.60   12.00
   5   7  11    4.80    9.70
  -3   8  11  -11.30   13.40
  -3   8  11   -0.80    9.10
  -2   8  11   17.00    7.20
  -2   8  11   12.30   11.60
   1  -8 -11   50.09   16.80
  -1   8  11   85.89   10.70
   0  -8 -11    5.80   12.50
   0   8  11    6.20    7.70
  -1  -8 -11   20.90   11.50
   1   8  11   21.60    8.00
  -2  -8 -11   -1.30   10.10
   2   8  11   10.70    7.90
  -3  -8 -11    4.90   10.60
   3   8  11   12.20    8.20
  -4  -8 -11   -6.60   11.10
   4   8  11    3.80    9.00
  -5  -8 -11   26.30   13.10
   5   8  11   -0.20   10.60
  -2   9  11    3.40    8.20
  -2   9  11   12.30   13.40
   1  -9 -11   -7.30   15.60
  -1   9  11   -1.70    7.20
   0  -9 -11   -7.30   13.80
   0   9  11   -5.40    8.80
  -1  -9 -11  -16.80   11.80
   1   9  11    2.10    8.40
  -2  -9 -11   48.70   13.70
   2   9  11   40.10    9.30
  -3  -9 -11   19.60   11.50
   3   9  11    8.10    8.70
  -4  -9 -11   -1.10   11.50
   4   9  11    7.20   10.10
   1 -10 -11  -45.20   19.20
  -1  10  11   -5.50    8.60
   0 -10 -11  -22.00   17.00
   0  10  11    5.00    8.10
  -1 -10 -11    9.40   16.10
   1  10  11   12.00   10.10
  -2 -10 -11  -25.10   13.40
   2  10  11    9.60   10.00
  -3 -10 -11   17.80   14.30
   3  10  11   39.30   11.10
  -2  -7  12   19.00   11.00
  -1  -7  12   -7.80   11.40
   0   7 -12    1.90   10.30
   0  -7  12  -18.40   12.20
   1  -7  12   -8.20   12.80
  -3  -6  12    3.70    9.40
  -2  -6  12    4.00    9.30
   1   6 -12   37.70    7.40
  -1  -6  12   21.50    9.90
   0  -6  12    3.00   10.50
  -1   6 -12    5.60    8.70
   1  -6  12   -7.10    9.00
  -2   6 -12   -1.50   10.30
   2  -6  12   11.60   11.40
  -4  -5  12   22.90    9.10
  -3  -5  12   -5.80    7.30
   2   5 -12    8.50    5.70
  -2  -5  12    7.70    8.80
   1   5 -12   77.09    8.60
  -1  -5  12   57.69    9.70
   0   5 -12    5.70    6.80
   0  -5  12   -4.20    8.90
  -1   5 -12   13.60    7.60
   1  -5  12   10.10    8.90
  -2   5 -12   -1.80    9.20
   2  -5  12   -2.90    9.10
  -3   5 -12   16.00   10.60
   3  -5  12   -1.60   10.80
  -4  -4  12    5.90    9.10
  -4  -4  12   27.50   10.20
  -3  -4  12    6.60    7.70
  -3  -4  12   14.10    7.80
  -3  -4  12    1.00    6.60
   2   4 -12   42.90    6.70
  -2  -4  12   47.90    9.60
  -2  -4  12   47.50    7.10
   1   4 -12   -4.50    5.20
  -1  -4  12   -8.40    7.20
  -1  -4  12   -0.10    4.60
   0   4 -12   12.70    6.50
   0  -4  12    4.60    8.00
   1  -4  12   -7.10    7.00
  -2   4 -12    4.30    7.80
   2  -4  12    2.60    8.20
  -3   4 -12   -4.50    8.90
   3  -4  12    6.50    9.60
  -4   4 -12   -4.60   11.20
   4  -4  12    1.50   10.30
   5   3 -12    7.50    8.20
  -5  -3  12    8.10   12.10
  -4  -3  12    9.40    8.70
  -4  -3  12  -11.00    9.80
  -3  -3  12   49.50    8.40
  -3  -3  12   55.29    9.80
  -3  -3  12   59.19    7.60
  -2  -3  12   17.80    7.40
  -2  -3  12   12.50    6.70
  -2  -3  12   18.70    6.70
  -2  -3  12   17.30    6.90
   1   3 -12   16.70    5.40
  -1  -3  12    9.90    5.70
  -1  -3  12   15.20    6.90
  -1  -3  12   12.90    5.30
   0   3 -12   22.40    5.70
   0  -3  12   13.90    5.00
   0  -3  12   18.80    4.30
   0  -3  12   17.40    6.90
   1  -3  12    8.90    7.00
  -2   3 -12   15.20    7.20
   2  -3  12   17.10    7.60
  -3   3 -12   14.70    8.50
   3  -3  12   16.50    9.00
  -4   3 -12   -1.40   10.50
   4  -3  12   16.00    9.40
   5   2 -12   34.70    8.80
  -5  -2  12   12.60   13.40
   4   2 -12   32.60    7.10
  -4  -2  12   49.60   11.90
  -4  -2  12   48.10    6.10
  -3  -2  12   22.80    5.00
  -3  -2  12   28.90    9.20
  -3  -2  12   33.20    7.70
  -2  -2  12   36.80    8.50
  -2  -2  12   30.90    7.20
  -2  -2  12   44.40    6.30
  -2  -2  12   30.20    8.40
  -2  -2  12   38.20    7.40
   1   2 -12   -5.50    4.70
  -1  -2  12    0.70    6.10
  -1  -2  12    2.50    5.10
  -1  -2  12    1.20    5.80
   0   2 -12   13.10    5.20
   0  -2  12   11.80    4.10
   0  -2  12    5.20    6.10
   0  -2  12   16.20    5.80
  -1   2 -12    4.20    5.50
   1  -2  12   -1.90    4.20
   1  -2  12   -1.00    4.70
   1  -2  12    9.60    6.50
  -2   2 -12   13.20    6.90
  -2   2 -12    8.30    6.30
   2  -2  12    8.60    7.10
  -3   2 -12    0.40    7.20
  -3   2 -12    5.60    6.50
   3  -2  12   -2.00    7.30
  -4   2 -12   -1.50    9.30
   4  -2  12    6.10    8.90
  -5   2 -12    6.80   12.50
   5  -2  12   -1.00   11.40
   5   1 -12   -0.10    6.40
  -5  -1  12    9.70   12.80
   4   1 -12   -1.60    5.30
  -4  -1  12    5.00    4.90
  -4  -1  12   -8.70    9.40
  -3  -1  12  177.08   15.50
  -3  -1  12  125.99   11.20
  -3  -1  12  153.88    9.60
  -3  -1  12  171.98   12.60
  -2  -1  12   36.50    8.50
  -2  -1  12   42.40    7.00
  -2  -1  12   44.20    7.70
  -2  -1  12   26.50    8.40
  -2  -1  12   53.69    6.70
   1   1 -12    6.70    4.90
  -1  -1  12   18.00    5.70
  -1  -1  12   14.00    6.20
  -1  -1  12    5.70    5.60
   0   1 -12   34.50    6.30
   0  -1  12   42.50    6.80
   0  -1  12   31.20    5.50
   0  -1  12   34.40    7.10
  -1   1 -12   -6.50    6.50
   1  -1  12    2.70    4.50
  -2   1 -12    8.90    6.50
   2  -1  12    6.70    5.30
   2  -1  12   -8.20    5.60
  -3   1 -12   -0.20    7.10
  -3   1 -12   -4.80    6.40
   3  -1  12   -5.10    6.10
  -4   1 -12    1.70    7.30
  -4   1 -12  -10.30    8.00
   4  -1  12   14.90    8.10
  -5   1 -12    1.80    9.90
   5  -1  12  -10.80    9.60
   5   0 -12    7.70    7.00
  -5   0  12   26.70   13.10
   4   0 -12    5.40    5.70
  -4   0  12   -2.50   10.00
  -4   0  12    0.10    5.10
  -3   0  12    8.60    6.80
  -3   0  12   11.90    4.70
  -3   0  12    2.30    5.70
  -2   0  12   -9.70    4.70
  -2   0  12    0.50   10.70
  -2   0  12   -2.60    4.60
  -2   0  12    1.30    6.70
  -1   0  12  115.79   11.30
  -1   0  12  147.39    9.60
  -1   0  12  141.89   10.50
  -1   0  12  128.59   12.20
   0   0 -12   22.20    5.70
   0   0  12   10.10    5.00
   0   0  12    8.50    5.20
  -1   0 -12    4.60    5.20
  -1   0 -12   11.10    6.70
   1   0  12    9.80    4.70
   1   0  12    0.90    4.90
  -2   0 -12    9.30    6.20
   2   0  12   -1.90    5.30
  -3   0 -12   16.00    6.90
  -3   0 -12    4.40    6.60
   3   0  12    8.40    7.40
   3   0  12    8.70    6.40
  -4   0 -12   -8.50    8.30
  -4   0 -12   -3.30    7.40
   4   0  12    9.90    7.00
  -5   0 -12   -9.30   11.30
  -5   0 -12   -9.40    9.80
   5   0  12   -1.90    9.20
   5  -1 -12   24.20    7.00
  -5   1  12    2.20   13.00
  -5   1  12   31.40    7.10
  -4   1  12   -3.60   10.50
  -4   1  12    3.10    5.40
  -3   1  12   -6.20    5.30
  -3   1  12   10.50    5.10
  -3   1  12   -5.80    8.20
  -2   1  12    4.30    7.30
  -2   1  12   -4.10    4.30
  -2   1  12    9.20    5.10
  -1   1  12   45.70    6.60
  -1   1  12   43.60    6.10
  -1   1  12   47.30    7.90
  -1   1  12   44.80    8.00
  -1   1  12   61.79    7.40
   0  -1 -12   14.30    8.00
   0  -1 -12   10.40    5.50
   0   1  12   11.10    5.50
   0   1  12    8.40    4.90
   0   1  12    7.20    4.40
  -1  -1 -12    0.70    6.70
  -1  -1 -12    0.30    5.40
   1   1  12   -1.30    4.40
   1   1  12    0.60    4.90
  -2  -1 -12  -13.90    6.10
   2   1  12   -9.40    5.50
   2   1  12    5.10    5.00
  -3  -1 -12   -0.80    6.30
   3   1  12    3.00    7.30
   3   1  12    3.90    5.60
  -4  -1 -12    9.50    7.70
  -4  -1 -12   15.60    8.80
   4   1  12   13.40    7.60
  -5  -1 -12   24.70   10.50
   5   1  12   18.10    9.50
   5  -2 -12  119.29   12.40
  -5   2  12  109.29   12.00
  -5   2  12  147.49   18.60
   4  -2 -12   -0.20    4.70
  -4   2  12    6.10    5.80
  -4   2  12   -8.80    9.60
  -3   2  12   38.80    7.00
  -3   2  12   18.10    9.00
  -3   2  12   26.70    6.20
  -2   2  12   -0.50    4.70
  -2   2  12   11.10    5.00
  -2   2  12    0.40    7.40
  -2   2  12    8.90    4.70
  -1   2  12   91.69    9.30
  -1   2  12   98.59    8.80
  -1   2  12   91.79    7.70
  -1   2  12   92.39   11.40
   0  -2 -12   -9.50    7.30
   0   2  12    1.50    4.30
   0   2  12   -5.10    6.20
   0   2  12   -2.60    3.70
   0   2  12   -2.20    4.70
  -1  -2 -12    4.40    6.60
   1   2  12    7.00    4.50
   1   2  12    1.70    5.50
   1   2  12   -2.30    3.80
  -2  -2 -12   -5.40    6.40
   2   2  12   10.10    4.80
  -3  -2 -12   18.50    7.30
   3   2  12   15.30    6.20
  -4  -2 -12   94.59   12.30
   4   2  12  104.29   12.50
  -5  -2 -12   11.00    9.90
  -5  -2 -12   14.10    9.70
   5   2  12    9.20    8.80
   5  -3 -12  -10.10    6.60
  -5   3  12    3.70   14.00
  -5   3  12    9.40    7.60
   4  -3 -12    4.00    4.80
  -4   3  12  -11.80    5.90
  -4   3  12   12.00   10.90
  -3   3  12   23.50    6.60
  -3   3  12   17.90    5.90
  -3   3  12   26.00    6.20
  -3   3  12   49.70   10.60
  -2   3  12   18.60    8.40
  -2   3  12    7.90    4.60
  -2   3  12    3.50    4.30
   1  -3 -12   32.20   11.20
  -1   3  12   40.70    5.80
  -1   3  12   33.80    7.80
  -1   3  12   30.30    5.10
   0  -3 -12    5.90    7.80
   0   3  12    6.40    4.20
   0   3  12    1.60    3.40
  -1  -3 -12   -0.50    5.20
  -1  -3 -12    9.80    7.00
   1   3  12    6.70    4.00
   1   3  12   -0.90    3.30
  -2  -3 -12   12.20    5.70
  -2  -3 -12   12.90    6.80
   2   3  12    6.80    4.80
  -3  -3 -12    3.10    6.90
  -3  -3 -12    1.70    6.40
   3   3  12   -7.90    5.30
  -4  -3 -12   19.20    7.70
   4   3  12   24.90    7.50
  -5  -3 -12  -24.30    9.40
  -5  -3 -12   -8.50    8.40
   5   3  12    1.30    8.20
  -5   4  12   -1.90   14.00
  -5   4  12   27.10    8.80
   4  -4 -12   13.60    5.30
  -4   4  12   -0.40   11.30
  -4   4  12   21.60    7.50
  -3   4  12   59.89   11.70
  -3   4  12   65.09    7.50
  -3   4  12   63.29    8.50
  -2   4  12   11.00    4.10
  -2   4  12    4.70    5.80
  -2   4  12    6.60    4.40
  -2   4  12   12.90    8.50
   1  -4 -12   33.40   11.60
  -1   4  12   51.39    7.60
  -1   4  12   39.20    5.40
  -1   4  12   43.70    5.80
   0  -4 -12   -3.70    8.40
   0   4  12   10.40    5.50
   0   4  12   13.60    3.90
   0   4  12    3.80    3.70
  -1  -4 -12   12.70    7.70
   1   4  12    4.60    3.40
   1   4  12   10.00    4.10
  -2  -4 -12   65.99    8.50
   2   4  12   63.19    7.70
  -3  -4 -12    5.80    7.10
  -3  -4 -12   18.60    8.80
   3   4  12    9.00    5.30
  -4  -4 -12    2.70    7.50
  -4  -4 -12    1.90    9.00
   4   4  12    6.10   12.80
  -5  -4 -12  -21.90   10.20
  -5  -4 -12  -11.20    9.10
   5   4  12    5.30    8.20
  -4   5  12    6.00   12.30
  -4   5  12   -7.70    7.90
  -3   5  12   16.00    7.40
  -3   5  12   12.60   10.20
  -3   5  12    6.30    5.10
  -2   5  12   26.70    9.40
  -2   5  12   19.90    4.60
  -2   5  12   22.30    7.10
  -1   5  12  -16.10    5.70
  -1   5  12    0.00    3.00
  -1   5  12    8.50    3.60
   0   5  12   44.40    5.30
   0   5  12   52.69    8.50
   0   5  12   51.39    5.60
   1   5  12    9.50    3.40
   1   5  12    6.60    3.50
  -2  -5 -12   36.20    5.80
   2   5  12   43.50    5.50
   2   5  12   25.70    7.50
  -3  -5 -12    4.60    7.00
  -3  -5 -12    0.90    7.80
  -3  -5 -12   -7.90    6.80
   3   5  12   -2.60    4.80
  -4  -5 -12    2.40    8.30
  -4  -5 -12   12.50    9.90
   4   5  12    5.40    6.00
  -5  -5 -12   -0.10   11.50
  -5  -5 -12    3.50    9.10
   5   5  12    8.00    8.00
  -4   6  12   72.89   11.30
  -4   6  12   41.40   15.00
  -3   6  12   -0.10   10.70
  -3   6  12   -2.50    6.80
  -2   6  12    3.30    6.70
  -2   6  12    8.90    9.00
   1  -6 -12   21.20   13.30
  -1   6  12   -6.40    6.40
   0  -6 -12   23.60   11.40
  -1  -6 -12   16.20    9.70
   1   6  12    1.20    4.50
   1   6  12    3.30    3.20
  -2  -6 -12    6.10    8.90
   2   6  12    1.60    3.50
   2   6  12   -8.80    6.30
  -3  -6 -12   -7.30    9.70
   3   6  12  -14.50    7.40
   3   6  12   -4.50    4.30
  -4  -6 -12   -0.50   10.70
   4   6  12   -6.70    8.60
   4   6  12    7.40    5.90
  -5  -6 -12   -4.30   10.90
  -5  -6 -12   12.80   10.50
   5   6  12    9.90    8.00
  -3   7  12   28.40   13.80
  -3   7  12   20.70    8.80
  -2   7  12   15.00    7.20
  -2   7  12    1.50   10.20
   1  -7 -12    3.60   14.60
  -1   7  12   23.20    7.60
   0  -7 -12  -11.30   11.20
   0   7  12    0.10    7.50
  -1  -7 -12   15.10   10.80
   1   7  12   -9.80    7.20
  -2  -7 -12    5.40   10.60
   2   7  12    3.90    7.90
  -3  -7 -12   13.90   10.60
   3   7  12    8.40    8.60
  -4  -7 -12    1.10   11.20
   4   7  12  -13.00    9.60
  -5  -7 -12  -12.50   13.20
   5   7  12  -12.80   11.00
  -3   8  12   -6.30    9.30
  -3   8  12   33.60   15.70
  -2   8  12   25.80    8.20
  -2   8  12    4.70   11.20
   1  -8 -12   84.49   19.00
  -1   8  12   36.70    8.80
   0  -8 -12   20.50   13.20
   0   8  12    8.80    8.80
  -1  -8 -12    5.70   11.90
   1   8  12  -12.20    7.50
  -2  -8 -12    8.80   11.40
   2   8  12   -4.20    9.20
  -3  -8 -12    2.00   11.10
   3   8  12   15.90    9.20
  -4  -8 -12   11.90   11.70
   4   8  12    1.30   10.50
  -2   9  12  -18.50    9.00
  -2   9  12   -8.60   14.60
   1  -9 -12   -0.50   18.50
  -1   9  12    4.50    7.90
   0  -9 -12   -8.20   16.20
   0   9  12   17.90    9.70
  -1  -9 -12   13.00   13.90
   1   9  12    5.90   10.00
  -2  -9 -12   -3.20   13.70
   2   9  12    5.60   10.20
  -3  -9 -12   45.90   14.10
   3   9  12   25.70   10.60
   0 -10 -12   22.60   19.90
   0  10  12  -18.10    8.80
  -1 -10 -12   33.50   17.50
   1  10  12   25.10   11.30
  -2 -10 -12   -9.30   16.50
   2  10  12   -9.80   10.50
  -2  -6  13    7.90   10.80
  -1  -6  13   18.60   11.60
   0   6 -13    4.40    9.50
   0  -6  13  -19.10   10.70
  -1   6 -13   -9.50   10.60
   1  -6  13   -0.30   12.30
  -3  -5  13    0.00   10.30
  -2  -5  13   15.50    9.90
   1   5 -13   -1.10   11.00
  -1  -5  13    3.30   10.40
   0   5 -13    0.20    7.70
   0  -5  13   22.10   10.20
  -1   5 -13   -3.90    8.70
   1  -5  13   -2.00    9.70
  -2   5 -13   14.10   10.30
   2  -5  13  -13.30   11.60
  -4  -4  13   -2.30   12.90
  -4  -4  13    7.00   10.40
  -3  -4  13   30.50    9.60
  -2  -4  13    3.40    7.60
   1   4 -13  170.18   13.10
  -1  -4  13  146.79   16.50
   0  -4  13  136.89   16.20
  -1   4 -13    7.30    8.20
   1  -4  13  -11.10    7.90
  -2   4 -13  -13.40    9.00
   2  -4  13   -2.30    9.20
  -3   4 -13   10.50   10.40
   3  -4  13  -26.50   10.30
  -4  -3  13   24.10   11.90
  -4  -3  13   11.10    9.20
  -3  -3  13   -0.90    5.80
  -3  -3  13    1.80    8.20
  -3  -3  13   -2.70    9.10
  -2  -3  13    2.70    7.90
  -2  -3  13    1.90    7.40
  -2  -3  13   -0.10    5.30
   1   3 -13   20.20    6.70
  -1  -3  13   16.20    7.00
  -1  -3  13   19.20    7.80
   0   3 -13   13.90    9.40
   0  -3  13   16.60    8.40
  -1   3 -13   13.50    7.50
   1  -3  13   -5.30    7.60
  -2   3 -13  -17.20    7.70
   2  -3  13   -8.70    7.50
  -3   3 -13    8.50   10.00
   3  -3  13   -7.60    8.90
   4  -3  13  -11.70   10.70
  -4  -2  13   -1.40   10.90
  -4  -2  13   -5.20    8.70
  -3  -2  13   11.80    5.50
  -3  -2  13   14.40    7.40
  -3  -2  13    9.90    9.60
  -2  -2  13    1.20    8.20
  -2  -2  13   -4.80    6.80
  -2  -2  13    3.40    5.80
   1   2 -13   11.20    5.90
  -1  -2  13   -0.40    6.50
  -1  -2  13    1.50    6.50
  -1  -2  13    1.30    9.50
   0   2 -13   18.30    6.20
   0  -2  13   21.70    7.70
   0  -2  13   22.00    6.60
  -1   2 -13    9.40    7.90
   1  -2  13   12.10    6.00
   1  -2  13    2.70    6.90
  -2   2 -13   -2.70    7.50
   2  -2  13    1.90    7.70
  -3   2 -13  -14.60    8.70
   3  -2  13  -10.30    7.70
  -4   2 -13  -15.90    9.50
   4  -2  13    2.40   10.50
   5   1 -13    6.80    8.20
  -5  -1  13   14.70   14.60
  -4  -1  13   19.80    9.20
  -4  -1  13   -7.80    5.70
  -4  -1  13   -2.10   11.70
  -3  -1  13   71.19   12.20
  -3  -1  13   66.39    7.30
  -3  -1  13   63.39    9.60
  -2  -1  13    3.50    6.10
  -2  -1  13    0.20    5.60
  -2  -1  13    4.70    8.30
   1   1 -13    5.20    5.40
  -1  -1  13   -4.10    7.00
  -1  -1  13   -7.30    6.50
  -1  -1  13   -2.50    6.20
   0   1 -13   -2.90    7.00
   0  -1  13    4.10    6.50
   0  -1  13    0.10    5.40
   0  -1  13    8.20    6.40
   1  -1  13    7.10    5.40
   1  -1  13    7.30    6.40
  -2   1 -13    9.50    7.10
  -2   1 -13    5.10    7.70
   2  -1  13   -8.10    6.70
  -3   1 -13    3.60    8.80
  -3   1 -13   -0.80    7.60
   3  -1  13    6.30    7.50
  -4   1 -13    7.40    9.90
   4  -1  13    3.10    9.10
   5   0 -13    2.60    7.90
  -5   0  13    8.80   15.00
  -4   0  13   17.70    6.40
  -4   0  13   24.90   12.70
  -4   0  13   12.80    8.20
  -3   0  13   19.20    9.70
  -3   0  13    3.90    6.60
  -3   0  13   -4.00    5.30
  -2   0  13    9.70    6.00
  -2   0  13    8.60    8.40
  -2   0  13   -2.80    5.20
  -1   0  13   85.79   11.00
  -1   0  13   71.09    9.30
  -1   0  13   83.39    9.10
  -1   0  13   88.49   10.60
   0   0 -13   14.40    7.30
   0   0  13   16.20    6.60
   0   0  13   12.60    6.00
   0   0  13   15.10    6.20
  -1   0 -13    2.80    7.80
   1   0  13    1.50    5.90
   1   0  13    9.40    5.70
  -2   0 -13   -2.00    6.20
  -2   0 -13   14.70    7.90
   2   0  13   -0.30    6.20
   2   0  13   -3.40    6.50
  -3   0 -13    7.50    7.70
  -3   0 -13    1.40    7.80
   3   0  13   -9.50    6.90
  -4   0 -13    7.90    9.10
  -4   0 -13   12.90    9.10
   4   0  13    0.20    8.20
  -5   0 -13   -0.60   11.10
   5   0  13   17.20   10.80
   5  -1 -13    5.40    7.60
  -5   1  13  -12.70   14.00
   4  -1 -13    7.70    5.80
  -4   1  13   18.10   11.80
  -3   1  13   13.50   10.10
  -3   1  13    6.70    6.40
  -3   1  13    6.40    6.30
  -2   1  13   16.00    6.00
  -2   1  13   23.40    6.40
  -1   1  13   14.50    5.40
  -1   1  13   23.10    7.70
   0  -1 -13   36.90    7.30
   0  -1 -13   21.90    9.40
   0   1  13   27.80    6.60
   0   1  13   30.80    7.70
  -1  -1 -13   28.20    9.20
   1   1  13   41.40    7.20
   1   1  13   34.50    7.10
  -2  -1 -13   14.00    7.70
  -2  -1 -13    4.00    6.10
   2   1  13   -5.80    6.90
   2   1  13   -6.60    6.80
  -3  -1 -13    2.20    6.80
  -3  -1 -13    3.40    8.00
   3   1  13    9.10    7.10
  -4  -1 -13   11.70    9.60
  -4  -1 -13   31.50    9.30
   4   1  13   -1.40    8.10
  -5  -1 -13   25.30   13.80
  -5  -1 -13    6.40   11.20
   5   1  13    2.40   10.00
   5  -2 -13    4.90    7.50
  -5   2  13   11.80   14.20
  -5   2  13    1.50    8.50
  -4   2  13   34.80    8.00
  -4   2  13   12.10   13.40
  -3   2  13    2.70    9.70
  -3   2  13    4.70    6.00
  -3   2  13   -3.30    6.00
  -2   2  13   48.40    7.20
  -2   2  13   39.00    7.00
  -2   2  13   43.20   10.30
  -1   2  13  109.89   13.20
  -1   2  13  104.49    9.60
  -1   2  13   65.09    9.10
  -1   2  13   69.69    8.00
   0  -2 -13   -3.90    9.10
   0   2  13   -2.80    5.00
   0   2  13   -5.90    5.30
   0   2  13   -4.80    4.80
  -1  -2 -13   -6.60    8.00
   1   2  13   -4.10    4.90
  -2  -2 -13   15.40    7.00
  -2  -2 -13   19.00    8.20
   2   2  13   10.90    5.70
  -3  -2 -13   11.70    8.40
  -3  -2 -13    9.20    7.80
   3   2  13   15.70    6.90
  -4  -2 -13   55.89   10.60
   4   2  13   72.19   10.70
  -5  -2 -13  -10.10   12.40
   5   2  13   22.20   10.40
   4  -3 -13   -3.10    5.40
  -4   3  13    9.90    7.30
  -4   3  13   39.20   13.60
  -3   3  13    4.90    6.90
  -3   3  13    2.00    5.90
  -3   3  13   12.70   10.20
  -2   3  13  117.79   10.00
  -2   3  13  136.39   16.00
  -2   3  13  130.09   11.50
  -2   3  13  140.59   10.70
  -1   3  13  413.16   16.80
  -1   3  13  473.05   19.20
  -1   3  13  396.76   15.70
   0  -3 -13    1.00    9.50
   0   3  13    2.80    5.80
   0   3  13   -1.10    4.60
   0   3  13    1.90    4.30
  -1  -3 -13    4.60    8.60
   1   3  13    8.10    4.90
   1   3  13    9.60    4.90
   1   3  13   25.10    6.90
  -2  -3 -13  -13.70    8.80
  -2  -3 -13   -7.60    7.00
   2   3  13   -3.90    5.00
  -3  -3 -13   16.50   10.10
  -3  -3 -13   -1.70    7.40
   3   3  13   16.30    6.80
  -4  -3 -13   19.70    9.90
  -4  -3 -13   14.10    9.00
   4   3  13    9.00    7.60
  -5  -3 -13   -2.20   10.10
  -5  -3 -13    5.30   12.20
   5   3  13    2.70    9.80
  -4   4  13   -0.90    7.80
  -4   4  13  -13.40   12.20
  -3   4  13   -1.10   10.80
  -3   4  13   16.80    6.10
  -3   4  13   22.20    7.80
  -2   4  13  197.38   14.00
  -2   4  13  166.58   17.40
  -2   4  13  180.88   11.00
  -1   4  13   55.59    8.90
  -1   4  13   43.10    5.80
  -1   4  13   54.89    6.50
   0   4  13   -4.40    4.20
   0   4  13   -1.20    5.80
   0   4  13   -2.60    4.10
   1   4  13    2.40    4.00
   1   4  13   24.40    7.40
   1   4  13   12.90    4.70
  -2  -4 -13   31.70    6.80
   2   4  13   45.00    6.70
  -3  -4 -13    0.30    9.20
  -3  -4 -13   -7.00    8.00
   3   4  13    3.10    5.90
  -4  -4 -13    6.90   10.20
  -4  -4 -13    1.80    9.00
   4   4  13   11.30    7.40
  -5  -4 -13    2.00   10.00
  -5  -4 -13   -5.90   12.30
   5   4  13   16.30    9.00
  -4   5  13   -4.20   12.90
  -4   5  13   19.80    9.20
  -3   5  13   34.20   12.30
  -3   5  13   26.70    8.90
  -2   5  13    3.40   10.20
  -2   5  13  -11.90    6.60
  -2   5  13   -0.40    4.90
   1  -5 -13   -2.00   13.30
  -1   5  13   -7.70    6.80
  -1   5  13    0.50    4.10
   0  -5 -13   10.40   10.70
   0   5  13   10.10    6.80
   0   5  13    1.90    3.90
  -1  -5 -13    1.30   10.20
   1   5  13    4.30    7.30
   1   5  13   14.90    4.50
  -2  -5 -13   13.90   10.70
   2   5  13    0.00    7.80
   2   5  13   -0.40    4.60
  -3  -5 -13   -5.00    9.50
   3   5  13    9.10    8.00
   3   5  13    6.10    5.80
  -4  -5 -13   -3.10   11.30
  -4  -5 -13    3.90    8.90
   4   5  13   21.90   14.00
  -5  -5 -13    2.50   13.30
  -5  -5 -13    3.60   11.30
   5   5  13   -8.60    8.50
  -3   6  13   19.50   12.90
  -3   6  13   25.80    8.80
  -2   6  13   12.70    8.30
  -2   6  13   27.50   11.80
   1  -6 -13    4.20   13.50
  -1   6  13   14.10    8.00
   0  -6 -13   -1.90   11.70
   0   6  13    9.50    7.40
  -1  -6 -13   41.40   13.50
   1   6  13   51.49    6.60
   1   6  13   53.79   10.20
  -2  -6 -13  -10.30    9.70
   2   6  13   11.40    8.50
   2   6  13    6.30    4.30
  -3  -6 -13   -0.50   10.90
   3   6  13   -6.50    5.50
   3   6  13   -7.80    8.40
  -4  -6 -13    3.80   12.10
   4   6  13   10.30    7.10
   4   6  13   -0.40    9.70
  -3   7  13    4.80   13.60
  -3   7  13  -14.80    9.00
  -2   7  13   -6.70    8.50
  -2   7  13   16.50   11.90
   1  -7 -13    2.70   16.40
  -1   7  13    9.10    9.20
   0  -7 -13    4.10   13.60
   0   7  13   12.20    8.60
  -1  -7 -13    8.70   12.50
   1   7  13  -17.30    8.60
  -2  -7 -13    3.40   11.70
   2   7  13   17.20    8.90
  -3  -7 -13   -5.20   12.30
   3   7  13  -21.40    9.80
  -4  -7 -13   -2.80   13.20
   4   7  13  -22.00   10.50
  -2   8  13   12.40   13.90
  -2   8  13    5.10    9.50
   1  -8 -13  -17.60   17.70
  -1   8  13    6.30   10.10
   0  -8 -13    9.20   16.10
   0   8  13   24.40    9.40
  -1  -8 -13   13.50   14.50
   1   8  13    3.10    9.50
  -2  -8 -13   13.70   14.20
   2   8  13  -12.70    9.70
  -3  -8 -13   -6.00   14.00
   3   8  13   -4.50   10.10
   1  -9 -13    0.60   21.10
  -1   9  13    4.70    8.90
   0  -9 -13    7.60   16.60
   0   9  13   32.50   12.10
  -1  -9 -13   -2.70   15.30
   1   9  13   -5.60   10.10
  -2  -9 -13    8.10   14.20
   2   9  13   -2.00   10.40
  -2  -5  14   -6.40   10.80
  -1  -5  14  -20.80   10.90
   0   5 -14   49.90   10.40
   0  -5  14   15.00   13.00
   1  -5  14   -0.40   13.50
  -3  -4  14   16.00   10.90
  -2  -4  14   -1.00    8.50
  -2  -4  14   10.60   10.60
  -1  -4  14   72.89   13.00
   0   4 -14   25.80    8.90
   0  -4  14    7.90   10.30
  -1   4 -14   -7.90    9.20
   1  -4  14  -11.70    9.70
  -2   4 -14   12.80   10.90
   2  -4  14   -0.90   10.90
  -3  -3  14    8.30   10.10
  -3  -3  14   21.50   12.60
  -2  -3  14   19.80    9.30
  -2  -3  14   10.00    6.80
   1   3 -14   54.89   15.00
  -1  -3  14   44.70   10.40
   0   3 -14   -2.90    7.10
   0  -3  14    0.20    9.00
  -1   3 -14   20.00    8.40
   1  -3  14    5.30    9.10
  -2   3 -14   17.10    9.70
   2  -3  14   -0.70   10.00
  -3   3 -14  -11.70   10.40
   3  -3  14   -2.50   11.10
  -4  -2  14   11.60   10.10
  -4  -2  14    1.00   12.60
  -3  -2  14   14.50    6.70
  -3  -2  14   16.10    8.90
  -3  -2  14    7.30   11.10
  -2  -2  14    1.70    9.60
  -2  -2  14    3.70    9.00
  -2  -2  14    8.60    7.60
   1   2 -14    0.30    7.50
  -1  -2  14    6.10    8.10
  -1  -2  14    0.50    7.80
   0   2 -14   -2.00    7.00
   0  -2  14    7.40    7.70
   0  -2  14  -18.70    7.80
  -1   2 -14    0.90    7.30
   1  -2  14   -1.80    7.50
  -2   2 -14   -4.40    8.50
   2  -2  14  -17.80    8.20
  -3   2 -14   35.40   11.00
   3  -2  14   -4.60   10.00
  -4  -1  14    1.30   12.90
  -4  -1  14   15.40    9.60
  -3  -1  14   23.70    8.70
  -3  -1  14   29.20    6.50
  -3  -1  14   13.00   11.40
  -2  -1  14   31.00    8.50
  -2  -1  14   11.10    9.20
  -2  -1  14    8.90    7.80
  -1  -1  14  -10.90    7.10
  -1  -1  14    8.40    8.60
   0   1 -14   32.90    9.90
   0  -1  14   48.60    8.70
   0  -1  14   20.70    8.30
  -1   1 -14   10.60    6.90
   1  -1  14   19.10    7.30
   1  -1  14   -4.70    7.40
  -2   1 -14    8.20    8.10
  -2   1 -14  -10.20   13.80
   2  -1  14   -5.70    7.60
  -3   1 -14   13.40   10.00
   3  -1  14    7.00    9.00
  -4   1 -14  -26.40   11.70
   4  -1  14   -6.40   10.30
  -4   0  14   17.00   14.70
  -4   0  14   22.40   10.00
  -4   0  14   30.50    9.10
  -3   0  14   -1.00    6.20
  -3   0  14   10.10   11.30
  -3   0  14   -1.80    7.90
  -2   0  14   -2.30    6.40
  -2   0  14   -6.80    6.90
  -1   0  14    9.50    6.50
  -1   0  14   -5.70    8.60
  -1   0  14    9.50    7.20
   0   0 -14    9.40    8.70
   0   0  14   -1.50    7.50
   0   0  14   -6.60    6.70
   0   0  14    8.20    7.60
  -1   0 -14   33.70    7.80
  -1   0 -14   29.00   10.80
   1   0  14   35.10    7.80
  -2   0 -14  -11.80    9.20
  -2   0 -14   -2.70    7.70
   2   0  14    1.30    7.20
  -3   0 -14   -6.90    8.60
  -3   0 -14    2.50    9.50
  -4   0 -14   10.80   10.40
   4   0  14  -14.60    9.20
  -4   1  14   39.30   14.30
  -4   1  14    7.30    7.80
  -4   1  14    6.50    9.20
  -3   1  14  -13.60   10.90
  -3   1  14   -1.30    7.00
  -3   1  14   -7.70    7.20
  -2   1  14   -3.90    9.60
  -2   1  14    4.90    6.60
  -2   1  14   10.60    6.80
  -1   1  14   19.80    7.00
  -1   1  14   28.60    9.40
  -1  -1 -14   18.40   10.40
  -1  -1 -14   16.60    7.90
   1   1  14    9.90    6.60
  -2  -1 -14    0.70    7.20
  -2  -1 -14   -0.90    9.40
   2   1  14   -5.00    6.50
  -3  -1 -14   14.60    8.70
  -3  -1 -14   -2.40    9.90
   3   1  14    2.50    7.80
  -4  -1 -14    6.80   10.10
  -4  -1 -14   -2.10   11.50
   4   1  14   10.40   10.10
  -4   2  14    6.30    7.70
  -4   2  14   11.40    8.90
  -4   2  14   12.90   14.30
  -3   2  14    6.10    7.30
  -3   2  14   -0.50    7.00
  -3   2  14    4.60   11.60
  -2   2  14    3.80   10.20
  -2   2  14   14.90    6.70
  -2   2  14    2.40    6.60
  -1   2  14   23.80    9.80
  -1   2  14   51.79    8.40
  -1   2  14   31.00    7.20
   0  -2 -14   -7.70   10.50
   0   2  14  -10.10    6.30
   0   2  14   -2.60    5.80
  -1  -2 -14  -12.70    9.50
  -1  -2 -14    0.40    6.80
   1   2  14    6.60    5.70
  -2  -2 -14   11.10    9.80
  -2  -2 -14   -1.90    7.40
   2   2  14    5.90    6.40
  -3  -2 -14   19.20    8.70
  -3  -2 -14    0.10    9.70
   3   2  14   -8.40    7.10
  -4  -2 -14   11.30   12.10
  -4  -2 -14    4.80    9.40
   4   2  14    9.50    9.40
  -4   3  14   42.10    9.50
  -4   3  14   23.70    8.10
  -4   3  14   50.39   15.70
  -3   3  14    0.80    7.00
  -3   3  14  -19.90   11.80
  -3   3  14    1.00    7.80
  -2   3  14   48.00   12.90
  -2   3  14   43.70    8.20
  -2   3  14   34.60    7.50
  -1   3  14   78.69   11.80
  -1   3  14   66.59    8.70
  -1   3  14   60.89    8.50
  -1   3  14   75.79   10.20
   0   3  14    2.20    5.60
   0   3  14    0.20    7.30
   0   3  14    6.40    6.30
  -1  -3 -14    0.70   11.90
   1   3  14   -2.60    5.50
   1   3  14    4.70    6.80
  -2  -3 -14   -0.70    7.90
   2   3  14    1.80    5.90
  -3  -3 -14   15.90   12.50
  -3  -3 -14   14.40    8.70
   3   3  14   20.90    7.90
  -4  -3 -14    4.60    9.90
  -4  -3 -14   -1.00   11.80
   4   3  14   -8.90    8.80
  -4   4  14   -3.00   14.20
  -4   4  14   -6.90    8.90
  -3   4  14   32.10    9.30
  -3   4  14   24.60   13.70
  -3   4  14    7.00    7.30
  -2   4  14  175.68   14.30
  -2   4  14  192.58   19.90
  -2   4  14  175.38   12.30
   1  -4 -14   12.40   13.10
  -1   4  14   13.20    5.90
  -1   4  14   18.10    7.90
   0  -4 -14   -3.10   12.20
   0   4  14    7.40    5.20
   0   4  14    6.10    7.60
  -1  -4 -14    8.90   11.90
   1   4  14   -1.30    7.60
   1   4  14    5.60    5.20
  -2  -4 -14   16.90   11.50
   2   4  14    7.20    6.00
   2   4  14   21.30    8.10
  -3  -4 -14   28.20   11.70
  -3  -4 -14   11.10    9.20
   3   4  14   19.70    8.60
  -4  -4 -14    6.70   10.60
  -4  -4 -14    0.30   12.70
   4   4  14   11.20    8.30
  -3   5  14   10.30    9.20
  -3   5  14   -4.20   13.50
  -2   5  14    3.60   11.20
  -2   5  14   11.20    8.50
   1  -5 -14   36.40   16.80
  -1   5  14   60.99    9.40
  -1   5  14   57.59    8.60
   0  -5 -14  -12.70   12.30
   0   5  14    4.10    7.90
   0   5  14   -2.30    4.70
  -1  -5 -14   -7.30   11.60
   1   5  14    3.40    4.90
   1   5  14   16.10    9.00
  -2  -5 -14   20.40   11.70
   2   5  14   16.30    8.60
   2   5  14    7.60    5.90
  -3  -5 -14   14.80   12.70
   3   5  14    3.60    9.60
   3   5  14   17.50    7.10
  -4  -5 -14   -8.40   10.40
  -4  -5 -14    1.70   12.80
   4   5  14    4.40    8.20
  -3   6  14   15.10   15.20
  -3   6  14   22.90    9.90
  -2   6  14   -8.60    8.90
  -2   6  14    1.80   12.30
   1  -6 -14   -2.50   15.10
  -1   6  14   12.30    8.40
   0  -6 -14    2.20   15.10
   0   6  14    4.80    8.60
  -1  -6 -14   12.10   14.10
   1   6  14   -3.70    9.40
  -2  -6 -14   16.60   12.50
   2   6  14  -13.40    8.50
  -3  -6 -14   11.80   12.60
   3   6  14    2.20   10.20
  -4  -6 -14  -14.10   12.80
   4   6  14   22.20   12.10
  -2   7  14   16.30   14.30
  -2   7  14    2.00    9.90
   1  -7 -14    7.00   17.20
  -1   7  14    1.80   10.20
   0  -7 -14    3.50   15.90
   0   7  14   12.90    9.10
  -1  -7 -14  -14.20   13.50
   1   7  14   -7.60    9.70
  -2  -7 -14  -13.00   13.90
   2   7  14   14.40   10.20
  -3  -7 -14    0.40   13.70
   3   7  14  -20.70   10.60
   1  -8 -14   14.20   19.30
  -1   8  14   25.10   11.40
   0  -8 -14    1.20   18.00
   0   8  14    3.10   10.50
  -1  -8 -14    7.10   15.70
   1   8  14  -14.90   10.50
  -2  -8 -14    2.80   15.20
   2   8  14   14.20   11.50
  -1  -4  15    6.20   12.80
   0  -4  15    0.40   11.80
  -2  -3  15   11.90    9.20
  -2  -3  15  -10.00   11.10
   1   3 -15   14.30    9.60
  -1  -3  15    6.70   10.60
   0   3 -15   -3.00    8.90
   0  -3  15   -7.40   10.70
  -1   3 -15   -0.70   10.00
   1  -3  15   10.60   10.30
  -3  -2  15   13.10   13.60
  -3  -2  15   11.60   10.60
  -2  -2  15   36.60   19.50
  -2  -2  15   10.90    8.20
  -1  -2  15   15.60   10.00
   0   2 -15   -2.70    8.30
   0  -2  15   -4.10    9.50
  -1   2 -15   16.70    8.90
   1  -2  15    8.90   10.50
  -2   2 -15    0.40   10.00
   2  -2  15  -17.30    9.90
  -3  -1  15   11.50   13.30
  -3  -1  15   16.00    8.20
  -3  -1  15    8.30   10.20
  -2  -1  15   47.80    9.00
  -2  -1  15   48.70   13.80
  -2  -1  15   53.69   11.50
  -1  -1  15   -5.50    8.60
  -1  -1  15   16.80   10.20
  -1  -1  15   -6.50    7.30
   0   1 -15    3.90    8.40
   0  -1  15   13.00    9.30
   0  -1  15   11.10    9.40
  -1   1 -15    6.40    8.70
   1  -1  15   10.20    9.30
  -2   1 -15   19.00    9.10
   2  -1  15    2.90    9.40
  -3   1 -15   -9.20   10.80
   3  -1  15   -1.30   10.60
  -3   0  15   10.00    9.90
  -3   0  15    6.00   12.80
  -3   0  15    3.90    7.40
  -2   0  15   11.30    8.30
  -2   0  15    5.10    9.20
  -2   0  15   34.30   11.60
  -1   0  15    1.00    8.20
  -1   0  15   -6.50   10.10
   0   0 -15    3.20    7.90
   0   0  15   -4.30    9.00
   0   0  15   13.80    8.10
  -1   0 -15    5.20    8.40
   1   0  15    6.40    8.40
  -2   0 -15   -9.60    8.90
  -2   0 -15    8.20   12.10
   2   0  15   -5.00    7.90
  -3   0 -15   13.40    9.70
   3   0  15   -6.00    9.80
  -3   1  15   11.80   13.60
  -3   1  15    2.40    8.10
  -3   1  15   -0.60    8.80
  -2   1  15    1.00    8.00
  -2   1  15   14.00   11.90
  -2   1  15    9.80    8.40
  -1   1  15   23.60   10.90
  -1   1  15    1.40    7.90
  -1   1  15   -2.80    7.50
   0   1  15    4.80   10.30
   0   1  15   -5.50    7.30
   0   1  15   -8.40    7.10
  -1  -1 -15    7.90    8.80
  -1  -1 -15   -1.70   12.10
   1   1  15   16.70    8.00
  -2  -1 -15   -2.90   11.70
  -2  -1 -15    3.60    9.30
   2   1  15   -7.10    7.90
  -3  -1 -15   16.60    9.60
   3   1  15   17.10    9.50
  -3   2  15   -3.30    8.30
  -3   2  15   -7.00    8.40
  -3   2  15    3.90   13.90
  -2   2  15   -4.60    7.90
  -2   2  15  -13.70   11.60
  -2   2  15   12.80    7.90
  -1   2  15   -5.00    9.30
  -1   2  15   -0.60    8.80
  -1   2  15   -7.50    7.60
   0   2  15    1.50    7.60
  -1  -2 -15   -7.60    8.70
  -1  -2 -15  -13.80   11.50
   1   2  15   -4.60    6.50
  -2  -2 -15    2.80    8.80
   2   2  15    3.60    7.30
  -3  -2 -15   13.30   10.30
   3   2  15    1.90    8.90
   4   2  15    8.00   10.70
  -3   3  15    1.00    8.50
  -3   3  15   -8.30    9.30
  -2   3  15   14.30    7.60
  -2   3  15   15.40    8.70
  -2   3  15   11.90   13.10
  -1   3  15   11.50    8.80
  -1   3  15  -25.60   10.20
  -1   3  15    1.20    6.80
   0  -3 -15  -29.00   13.30
   0   3  15    6.50    6.50
   0   3  15    3.20    8.60
  -1  -3 -15    3.80   12.50
   1   3  15   -4.30    8.40
   1   3  15   -4.50    6.30
  -2  -3 -15   -4.20   12.50
  -2  -3 -15    1.50    9.40
   2   3  15  -11.60    6.80
  -3  -3 -15   -0.20   13.30
  -3  -3 -15   16.00   10.20
   3   3  15  -11.40    8.00
  -4  -3 -15   -2.70   15.30
   4   3  15   14.50   10.20
  -3   4  15   17.30   10.10
  -3   4  15   29.80   15.50
  -2   4  15   -1.50    8.90
  -2   4  15   12.70   13.50
  -1   4  15   67.99   13.30
  -1   4  15   61.89    8.30
  -1   4  15   69.79   11.30
   0  -4 -15   28.70   14.90
   0   4  15   14.80    6.80
   0   4  15    8.40    9.50
  -1  -4 -15   -1.70   13.20
   1   4  15   -7.40    9.00
   1   4  15   -1.70    5.90
  -2  -4 -15    6.30   12.90
   2   4  15   -0.30    9.10
   2   4  15   11.90    7.00
  -3  -4 -15   28.90   13.80
  -3  -4 -15   19.10   10.60
   3   4  15    8.60    8.40
  -2   5  15   -8.40    9.90
  -2   5  15   15.50   13.50
   1  -5 -15   10.30   16.90
  -1   5  15  -10.00    8.70
   0  -5 -15   15.40   16.40
   0   5  15   17.40   10.20
  -1  -5 -15    3.10   14.60
   1   5  15   29.40   10.00
  -2  -5 -15    2.80   13.10
   2   5  15  -19.20   10.60
  -3  -5 -15   26.90   15.20
   3   5  15    6.30   10.90
  -2   6  15   12.90   11.50
  -2   6  15    3.90   14.10
   1  -6 -15   20.50   18.60
  -1   6  15   11.80   10.50
   0  -6 -15    9.30   16.90
   0   6  15   10.30   10.20
  -1  -6 -15   22.00   15.70
   1   6  15    3.80   10.00
  -2  -6 -15   -1.70   15.70
   2   6  15  -21.20    9.90
  -3  -6 -15    8.30   15.30
   3   6  15  -15.40   11.60
   1  -7 -15    3.10   20.70
  -1   7  15  -13.60   11.00
   0  -7 -15  -10.50   19.10
   0   7  15   -5.40   11.30
  -1  -7 -15  -18.70   16.30
   1   7  15  -10.60   11.10
  -2  -7 -15   -2.30   15.50
   2   7  15   11.00   12.20
  -1  -2  16   15.10    9.30
  -1  -2  16   14.10   12.00
   0   2 -16    4.90   11.20
   0  -2  16   -3.30   11.50
  -2  -1  16    3.20    8.90
  -2  -1  16   29.60   11.50
  -1  -1  16   10.60   11.20
  -1  -1  16   -4.10    9.30
   0   1 -16   12.80   10.30
   0  -1  16    2.60    9.80
  -1   1 -16   -3.30   10.10
   1  -1  16    0.70   10.30
  -2   0  16   13.40   10.50
  -2   0  16    3.30    9.50
  -2   0  16    2.60   13.20
  -1   0  16   -5.60   10.00
  -1   0  16  -12.60    9.40
  -1   0  16   11.30   12.20
   0   0  16    9.60   10.20
   0   0  16   29.60   11.80
  -1   0 -16   20.30   10.70
   1   0  16    3.80    9.50
  -2   0 -16   -1.40   10.70
   2   0  16    1.50    9.90
  -2   1  16    3.90   10.00
  -2   1  16  -12.50   12.70
  -2   1  16  -17.80    9.10
  -1   1  16   -1.20   11.80
  -1   1  16    1.30    9.30
  -1   1  16   -1.50    9.70
   0   1  16    2.30    9.40
   0   1  16   19.90   10.70
  -1  -1 -16   -5.50   15.20
  -1  -1 -16   -3.10   10.10
   1   1  16   -2.60    8.70
  -2  -1 -16   29.20   17.90
  -2  -1 -16   -8.80   10.40
   2   1  16  -10.00    9.20
  -2   2  16    7.70    9.30
  -2   2  16   18.70   14.70
  -2   2  16    2.60    9.60
  -1   2  16   -2.00    8.70
  -1   2  16    2.30    9.60
  -1   2  16   -3.00   12.60
   0   2  16   17.30    8.50
   0   2  16   21.20   11.00
   0   2  16    7.70   10.10
  -1  -2 -16    1.00   17.20
   1   2  16   19.90    9.60
   1   2  16    5.00    8.00
  -2  -2 -16  -10.00   10.00
  -2  -2 -16  -10.00   15.60
   2   2  16   10.70    8.70
   3   2  16   -1.10   10.10
  -2   3  16   -6.80    9.60
  -2   3  16   10.50   14.90
  -2   3  16   11.70    9.70
  -1   3  16   17.10   13.10
  -1   3  16   20.40   10.50
  -1   3  16   34.10    9.10
   0  -3 -16   59.19   17.80
   0   3  16   36.10   10.30
   0   3  16   53.19   11.50
  -1  -3 -16  -12.30   15.30
   1   3  16    2.60    7.40
   1   3  16   -4.40   10.10
  -2  -3 -16   15.60   15.80
  -2  -3 -16   11.40   11.40
   2   3  16  -13.40    8.50
   3   3  16  -16.50    9.50
  -2   4  16    9.70   10.80
  -2   4  16  -34.00   15.00
  -1   4  16   49.60   14.50
  -1   4  16   35.10   11.90
   0  -4 -16   22.00   18.00
   0   4  16   28.60   10.40
  -1  -4 -16   11.60   16.30
   1   4  16    9.80   10.90
   1   4  16    3.50    8.00
  -2  -4 -16   13.70   15.90
   2   4  16    2.10   10.80
   2   4  16   -1.60    8.20
  -1   5  16   15.20   11.60
  -1   5  16   19.90   14.40
   0  -5 -16   12.90   18.80
   0   5  16   -6.30   11.60
  -1  -5 -16    3.00   17.90
   1   5  16   14.50   10.70
  -2  -5 -16  -15.50   16.40
   2   5  16   38.70   12.10
   0  -6 -16   31.10   20.00
   0   6  16   -4.00   11.40
  -1  -6 -16   14.60   18.60
   1   6  16  -15.40   11.80
   0   2  17   -2.10   13.20
   0   2  17   24.10    9.90
   0   0   0    0.00    0.00

_computing_structure_solution     'SHELXT 2014/5 (Sheldrick, 2014)'
;
_shelx_hkl_checksum              38136
loop_
_space_group_symop_operation_xyz
'x, y, z'
'-x, -y, -z'
loop_
_atom_site_label
_atom_site_type_symbol
_atom_site_fract_x
_atom_site_fract_y
_atom_site_fract_z
_atom_site_U_iso_or_equiv
_atom_site_adp_type
_atom_site_occupancy
_atom_site_site_symmetry_order
_atom_site_calc_flag
_atom_site_refinement_flags_posn
_atom_site_refinement_flags_adp
_atom_site_refinement_flags_occupancy
_atom_site_disorder_assembly
_atom_site_disorder_group
C1 C -0.3080(4) 0.7084(3) 0.5161(2) 0.0826(8) Uani 1 1 d . . . . .
H1 H -0.419913 0.701690 0.562555 0.099 Uiso 1 1 calc R U . . .
C2 C -0.2761(4) 0.6215(3) 0.4451(2) 0.0935(9) Uani 1 1 d . . . . .
H2 H -0.364566 0.553217 0.443607 0.112 Uiso 1 1 calc R U . . .
C3 C -0.1127(4) 0.6343(3) 0.37498(19) 0.0841(8) Uani 1 1 d . . . . .
H3 H -0.092998 0.574166 0.326585 0.101 Uiso 1 1 calc R U . . .
C4 C 0.0212(3) 0.7331(2) 0.37469(16) 0.0522(5) Uani 1 1 d . . . . .
C5 C -0.0120(4) 0.8168(2) 0.4486(2) 0.0813(8) Uani 1 1 d . . . . .
H5 H 0.077967 0.883793 0.451716 0.098 Uiso 1 1 calc R U . . .
C6 C -0.1749(5) 0.8049(3) 0.5184(2) 0.1009(10) Uani 1 1 d . . . . .
H6 H -0.193780 0.863662 0.567775 0.121 Uiso 1 1 calc R U . . .
C7 C 0.1968(3) 0.7533(2) 0.29675(18) 0.0629(6) Uani 1 1 d . . . . .
H7A H 0.141251 0.824713 0.239616 0.076 Uiso 1 1 calc R U . . .
H7B H 0.310767 0.788612 0.328520 0.076 Uiso 1 1 calc R U . . .
C8 C 0.2890(3) 0.6241(2) 0.25497(17) 0.0567(6) Uani 1 1 d . . . . .
H8A H 0.179236 0.594766 0.216210 0.068 Uiso 1 1 calc R U . . .
H8B H 0.330659 0.549288 0.312242 0.068 Uiso 1 1 calc R U . . .
C9 C 0.4799(3) 0.64329(19) 0.18620(15) 0.0470(5) Uani 1 1 d . . . . .
C10 C 0.6131(3) 0.53015(19) 0.15592(14) 0.0440(5) Uani 1 1 d . . . . .
C11 C 0.5835(3) 0.3812(2) 0.19224(15) 0.0464(5) Uani 1 1 d . . . . .
C12 C 0.3968(4) 0.3297(2) 0.17371(17) 0.0600(6) Uani 1 1 d . . . . .
H12 H 0.284741 0.389534 0.138478 0.072 Uiso 1 1 calc R U . . .
C13 C 0.3761(4) 0.1905(3) 0.2072(2) 0.0716(7) Uani 1 1 d . . . . .
H13 H 0.252534 0.155836 0.192369 0.086 Uiso 1 1 calc R U . . .
C14 C 0.5371(5) 0.1035(3) 0.2620(2) 0.0780(8) Uani 1 1 d . . . . .
H14 H 0.521120 0.010287 0.286120 0.094 Uiso 1 1 calc R U . . .
C15 C 0.7222(4) 0.1527(2) 0.2818(2) 0.0781(7) Uani 1 1 d . . . . .
H15 H 0.831648 0.092975 0.319131 0.094 Uiso 1 1 calc R U . . .
C16 C 0.7456(4) 0.2909(2) 0.24624(18) 0.0632(6) Uani 1 1 d . . . . .
H16 H 0.872278 0.323590 0.258779 0.076 Uiso 1 1 calc R U . . .
C17 C 0.8294(3) 0.68000(19) 0.06696(14) 0.0457(5) Uani 1 1 d . . . . .
C18 C 0.6946(3) 0.79116(19) 0.09831(15) 0.0508(5) Uani 1 1 d . . . . .
C19 C 0.7376(3) 0.9330(2) 0.06796(19) 0.0645(7) Uani 1 1 d . . . . .
N1 N 0.5240(3) 0.77288(16) 0.15742(13) 0.0549(5) Uani 1 1 d . . . . .
N2 N 0.7845(2) 0.54851(15) 0.09660(12) 0.0459(4) Uani 1 1 d . . . . .
N3 N 0.7781(4) 1.0432(2) 0.04223(19) 0.0905(8) Uani 1 1 d . . . . .
N4 N 1.0027(3) 0.69723(17) 0.00882(13) 0.0586(5) Uani 1 1 d . . . . .
H4A H 1.081130 0.625357 -0.008367 0.070 Uiso 1 1 calc R U . . .
H4B H 1.035433 0.780159 -0.011316 0.070 Uiso 1 1 calc R U . . .
loop_
_atom_site_aniso_label
_atom_site_aniso_U_11
_atom_site_aniso_U_22
_atom_site_aniso_U_33
_atom_site_aniso_U_23
_atom_site_aniso_U_13
_atom_site_aniso_U_12
C1 0.0732(17) 0.099(2) 0.0719(17) -0.0082(15) 0.0371(14) -0.0103(15)
C2 0.0736(18) 0.138(3) 0.0844(19) -0.0316(19) 0.0301(15) -0.0563(17)
C3 0.0740(17) 0.125(2) 0.0728(17) -0.0459(15) 0.0313(14) -0.0492(16)
C4 0.0463(12) 0.0554(12) 0.0535(13) -0.0068(10) 0.0134(10) -0.0062(10)
C5 0.100(2) 0.0640(15) 0.0889(18) -0.0282(14) 0.0456(16) -0.0289(14)
C6 0.134(3) 0.0810(18) 0.097(2) -0.0344(16) 0.067(2) -0.0307(19)
C7 0.0588(14) 0.0565(13) 0.0750(15) -0.0139(11) 0.0271(12) -0.0128(11)
C8 0.0553(13) 0.0538(12) 0.0627(13) -0.0105(10) 0.0223(11) -0.0149(10)
C9 0.0461(12) 0.0446(12) 0.0509(12) -0.0075(9) 0.0136(9) -0.0107(9)
C10 0.0471(12) 0.0455(11) 0.0424(11) -0.0091(9) 0.0089(9) -0.0153(9)
C11 0.0526(12) 0.0428(11) 0.0469(11) -0.0114(9) 0.0172(10) -0.0149(10)
C12 0.0641(14) 0.0593(13) 0.0630(14) -0.0173(11) 0.0137(11) -0.0229(11)
C13 0.0835(18) 0.0642(16) 0.0796(17) -0.0258(14) 0.0299(15) -0.0401(15)
C14 0.109(2) 0.0464(13) 0.0832(18) -0.0124(13) 0.0424(16) -0.0300(15)
C15 0.0887(19) 0.0486(14) 0.0911(19) 0.0035(13) 0.0146(15) -0.0083(13)
C16 0.0617(14) 0.0510(13) 0.0764(16) -0.0054(12) 0.0122(12) -0.0136(11)
C17 0.0502(12) 0.0434(11) 0.0460(11) -0.0093(9) 0.0136(9) -0.0144(9)
C18 0.0553(12) 0.0403(11) 0.0576(13) -0.0078(9) 0.0197(10) -0.0118(9)
C19 0.0639(15) 0.0429(12) 0.0875(16) -0.0141(11) 0.0410(12) -0.0108(11)
N1 0.0552(11) 0.0459(10) 0.0628(11) -0.0068(8) 0.0242(9) -0.0099(8)
N2 0.0496(10) 0.0404(9) 0.0502(10) -0.0102(7) 0.0165(8) -0.0141(7)
N3 0.0924(16) 0.0483(12) 0.132(2) -0.0165(12) 0.0602(14) -0.0189(11)
N4 0.0612(11) 0.0431(9) 0.0745(12) -0.0135(8) 0.0342(9) -0.0169(8)
loop_
_atom_type_symbol
_atom_type_description
_atom_type_scat_dispersion_real
_atom_type_scat_dispersion_imag
_atom_type_scat_source
C C 0.0033 0.0016 'International Tables Vol C Tables 4.2.6.8 and 6.1.1.4'
H H 0.0000 0.0000 'International Tables Vol C Tables 4.2.6.8 and 6.1.1.4'
N N 0.0061 0.0033 'International Tables Vol C Tables 4.2.6.8 and 6.1.1.4'
loop_
_geom_angle_atom_site_label_1
_geom_angle_atom_site_label_2
_geom_angle_atom_site_label_3
_geom_angle
_geom_angle_site_symmetry_1
_geom_angle_site_symmetry_3
_geom_angle_publ_flag
C6 C1 C2 119.1(2) . . ?
C6 C1 H1 120.4 . . ?
C2 C1 H1 120.4 . . ?
C1 C2 C3 120.0(2) . . ?
C1 C2 H2 120.0 . . ?
C3 C2 H2 120.0 . . ?
C4 C3 C2 121.8(2) . . ?
C4 C3 H3 119.1 . . ?
C2 C3 H3 119.1 . . ?
C5 C4 C3 116.72(19) . . ?
C5 C4 C7 120.12(19) . . ?
C3 C4 C7 123.1(2) . . ?
C4 C5 C6 121.7(2) . . ?
C4 C5 H5 119.1 . . ?
C6 C5 H5 119.1 . . ?
C1 C6 C5 120.5(3) . . ?
C1 C6 H6 119.7 . . ?
C5 C6 H6 119.7 . . ?
C8 C7 C4 115.15(17) . . ?
C8 C7 H7A 108.5 . . ?
C4 C7 H7A 108.5 . . ?
C8 C7 H7B 108.5 . . ?
C4 C7 H7B 108.5 . . ?
H7A C7 H7B 107.5 . . ?
C7 C8 C9 114.06(16) . . ?
C7 C8 H8A 108.7 . . ?
C9 C8 H8A 108.7 . . ?
C7 C8 H8B 108.7 . . ?
C9 C8 H8B 108.7 . . ?
H8A C8 H8B 107.6 . . ?
N1 C9 C10 119.85(16) . . ?
N1 C9 C8 117.45(17) . . ?
C10 C9 C8 122.65(16) . . ?
N2 C10 C9 122.01(16) . . ?
N2 C10 C11 115.13(16) . . ?
C9 C10 C11 122.75(16) . . ?
C16 C11 C12 118.59(19) . . ?
C16 C11 C10 119.38(17) . . ?
C12 C11 C10 122.03(19) . . ?
C13 C12 C11 120.4(2) . . ?
C13 C12 H12 119.8 . . ?
C11 C12 H12 119.8 . . ?
C14 C13 C12 120.0(2) . . ?
C14 C13 H13 120.0 . . ?
C12 C13 H13 120.0 . . ?
C13 C14 C15 120.4(2) . . ?
C13 C14 H14 119.8 . . ?
C15 C14 H14 119.8 . . ?
C14 C15 C16 119.8(3) . . ?
C14 C15 H15 120.1 . . ?
C16 C15 H15 120.1 . . ?
C15 C16 C11 120.8(2) . . ?
C15 C16 H16 119.6 . . ?
C11 C16 H16 119.6 . . ?
N4 C17 N2 117.91(17) . . ?
N4 C17 C18 123.42(16) . . ?
N2 C17 C18 118.67(16) . . ?
N1 C18 C17 123.03(16) . . ?
N1 C18 C19 116.80(17) . . ?
C17 C18 C19 120.17(17) . . ?
N3 C19 C18 177.5(2) . . ?
C9 N1 C18 118.12(16) . . ?
C10 N2 C17 118.31(16) . . ?
C17 N4 H4A 120.0 . . ?
C17 N4 H4B 120.0 . . ?
H4A N4 H4B 120.0 . . ?
loop_
_geom_bond_atom_site_label_1
_geom_bond_atom_site_label_2
_geom_bond_distance
_geom_bond_site_symmetry_2
_geom_bond_publ_flag
C1 C6 1.350(4) . ?
C1 C2 1.356(4) . ?
C1 H1 0.9300 . ?
C2 C3 1.378(3) . ?
C2 H2 0.9300 . ?
C3 C4 1.368(3) . ?
C3 H3 0.9300 . ?
C4 C5 1.365(3) . ?
C4 C7 1.510(3) . ?
C5 C6 1.374(3) . ?
C5 H5 0.9300 . ?
C6 H6 0.9300 . ?
C7 C8 1.497(3) . ?
C7 H7A 0.9700 . ?
C7 H7B 0.9700 . ?
C8 C9 1.511(3) . ?
C8 H8A 0.9700 . ?
C8 H8B 0.9700 . ?
C9 N1 1.323(2) . ?
C9 C10 1.400(3) . ?
C10 N2 1.340(2) . ?
C10 C11 1.487(2) . ?
C11 C16 1.379(3) . ?
C11 C12 1.387(3) . ?
C12 C13 1.379(3) . ?
C12 H12 0.9300 . ?
C13 C14 1.364(4) . ?
C13 H13 0.9300 . ?
C14 C15 1.371(4) . ?
C14 H14 0.9300 . ?
C15 C16 1.377(3) . ?
C15 H15 0.9300 . ?
C16 H16 0.9300 . ?
C17 N4 1.340(2) . ?
C17 N2 1.344(2) . ?
C17 C18 1.396(3) . ?
C18 N1 1.335(2) . ?
C18 C19 1.436(3) . ?
C19 N3 1.133(2) . ?
N4 H4A 0.8600 . ?
N4 H4B 0.8600 . ?
loop_
_geom_hbond_atom_site_label_D
_geom_hbond_atom_site_label_H
_geom_hbond_atom_site_label_A
_geom_hbond_distance_DH
_geom_hbond_distance_HA
_geom_hbond_distance_DA
_geom_hbond_angle_DHA
_geom_hbond_site_symmetry_A
_geom_hbond_publ_flag
N4 H4B N3 0.86 2.20 3.025(2) 161.0 2_775 yes
N4 H4A N2 0.86 2.27 3.099(2) 161.8 2_765 yes
loop_
_geom_torsion_atom_site_label_1
_geom_torsion_atom_site_label_2
_geom_torsion_atom_site_label_3
_geom_torsion_atom_site_label_4
_geom_torsion
_geom_torsion_site_symmetry_1
_geom_torsion_site_symmetry_2
_geom_torsion_site_symmetry_3
_geom_torsion_site_symmetry_4
_geom_torsion_publ_flag
C6 C1 C2 C3 -1.5(5) . . . . ?
C1 C2 C3 C4 0.2(5) . . . . ?
C2 C3 C4 C5 1.2(4) . . . . ?
C2 C3 C4 C7 -177.8(2) . . . . ?
C3 C4 C5 C6 -1.4(4) . . . . ?
C7 C4 C5 C6 177.6(3) . . . . ?
C2 C1 C6 C5 1.3(5) . . . . ?
C4 C5 C6 C1 0.2(5) . . . . ?
C5 C4 C7 C8 151.8(2) . . . . ?
C3 C4 C7 C8 -29.2(3) . . . . ?
C4 C7 C8 C9 -173.66(18) . . . . ?
C7 C8 C9 N1 -10.3(3) . . . . ?
C7 C8 C9 C10 167.3(2) . . . . ?
N1 C9 C10 N2 -1.1(3) . . . . ?
C8 C9 C10 N2 -178.61(18) . . . . ?
N1 C9 C10 C11 174.96(18) . . . . ?
C8 C9 C10 C11 -2.6(3) . . . . ?
N2 C10 C11 C16 56.1(2) . . . . ?
C9 C10 C11 C16 -120.2(2) . . . . ?
N2 C10 C11 C12 -124.1(2) . . . . ?
C9 C10 C11 C12 59.7(3) . . . . ?
C16 C11 C12 C13 -1.1(3) . . . . ?
C10 C11 C12 C13 179.00(18) . . . . ?
C11 C12 C13 C14 2.3(3) . . . . ?
C12 C13 C14 C15 -1.8(4) . . . . ?
C13 C14 C15 C16 0.1(4) . . . . ?
C14 C15 C16 C11 1.1(4) . . . . ?
C12 C11 C16 C15 -0.5(3) . . . . ?
C10 C11 C16 C15 179.3(2) . . . . ?
N4 C17 C18 N1 -179.04(19) . . . . ?
N2 C17 C18 N1 0.7(3) . . . . ?
N4 C17 C18 C19 0.3(3) . . . . ?
N2 C17 C18 C19 -179.92(19) . . . . ?
C10 C9 N1 C18 1.1(3) . . . . ?
C8 C9 N1 C18 178.71(18) . . . . ?
C17 C18 N1 C9 -0.9(3) . . . . ?
C19 C18 N1 C9 179.71(19) . . . . ?
C9 C10 N2 C17 0.9(3) . . . . ?
C11 C10 N2 C17 -175.45(16) . . . . ?
N4 C17 N2 C10 179.11(17) . . . . ?
C18 C17 N2 C10 -0.7(3) . . . . ?
