#------------------------------------------------------------------------------
#$Date: 2022-05-24 00:52:21 +0300 (Tue, 24 May 2022) $
#$Revision: 275613 $
#$URL: file:///home/coder/svn-repositories/cod/cif/7/13/01/7130136.cif $
#------------------------------------------------------------------------------
#
# This file is available in the Crystallography Open Database (COD),
# http://www.crystallography.net/
#
# All data on this site have been placed in the public domain by the
# contributors.
#
data_7130136
loop_
_publ_author_name
'Mochida, Tomoyuki'
'Qiu, Yi'
'Funasako, Yusuke'
'Inokuchi, Makoto'
'Noguchi, Mariko'
'Fujimori, Hiroki'
'Furushima, Yoshitomo'
_publ_section_title
;
 Ionic liquid-containing coordination polymer: solvent-free synthesis,
 incongruent melting, and glass formation
;
_journal_name_full               'Chemical Communications'
_journal_paper_doi               10.1039/D2CC01375D
_journal_year                    2022
_chemical_formula_moiety         'C8 K N6, C6 H11 N2'
_chemical_formula_sum            'C14 H11 K N8'
_chemical_formula_weight         330.41
_space_group_crystal_system      triclinic
_space_group_IT_number           2
_space_group_name_Hall           '-P 1'
_space_group_name_H-M_alt        'P -1'
_atom_sites_solution_hydrogens   geom
_audit_update_record
;
2018-09-23 deposited with the CCDC.	2022-05-17 downloaded from the CCDC.
;
_cell_angle_alpha                83.6370(10)
_cell_angle_beta                 83.0040(10)
_cell_angle_gamma                81.1040(10)
_cell_formula_units_Z            2
_cell_length_a                   8.5703(8)
_cell_length_b                   9.7142(10)
_cell_length_c                   10.2374(10)
_cell_measurement_reflns_used    4355
_cell_measurement_temperature    100.(2)
_cell_measurement_theta_max      28.8191
_cell_measurement_theta_min      2.4193
_cell_volume                     832.09(14)
_computing_cell_refinement       'SAINT V8.38A (Bruker AXS Inc., 2017)'
_computing_data_reduction        'SAINT V8.38A (Bruker AXS Inc., 2017)'
_computing_molecular_graphics    'shelXle (C.B. Huebschle, rev 833)'
_computing_structure_refinement  'SHELXL-2016/6 (Sheldrick, 2016)'
_computing_structure_solution    'SHELXT 2014/5 (Sheldrick, 2014)'
_diffrn_ambient_temperature      100.(2)
_diffrn_detector_area_resol_mean 8.3333
_diffrn_measured_fraction_theta_full 0.980
_diffrn_measured_fraction_theta_max 0.980
_diffrn_measurement_device_type  'Bruker APEXII CCD area detector'
_diffrn_measurement_method       'phi and omega scans'
_diffrn_radiation_monochromator  'Bruker Helios multilayer confocal mirror'
_diffrn_radiation_source         'Bruker TXS fine-focus rotating anode'
_diffrn_radiation_type           MoK\a
_diffrn_radiation_wavelength     0.71073
_diffrn_reflns_av_R_equivalents  0.0119
_diffrn_reflns_av_unetI/netI     0.0155
_diffrn_reflns_limit_h_max       7
_diffrn_reflns_limit_h_min       -10
_diffrn_reflns_limit_k_max       9
_diffrn_reflns_limit_k_min       -11
_diffrn_reflns_limit_l_max       12
_diffrn_reflns_limit_l_min       -11
_diffrn_reflns_number            4019
_diffrn_reflns_theta_full        25.03
_diffrn_reflns_theta_max         25.03
_diffrn_reflns_theta_min         2.01
_diffrn_source                   'rotating-anode X-ray tube'
_diffrn_source_type              'Bruker Turbo X-ray Source'
_exptl_absorpt_coefficient_mu    0.330
_exptl_absorpt_correction_T_max  0.95
_exptl_absorpt_correction_T_min  0.90
_exptl_absorpt_correction_type   multi-scan
_exptl_absorpt_process_details
;
SADABS-2016/2 - Bruker AXS area detector scaling and absorption correction
;
_exptl_crystal_colour            colorless
_exptl_crystal_density_diffrn    1.319
_exptl_crystal_density_method    'not measured'
_exptl_crystal_description       block
_exptl_crystal_F_000             340
_exptl_crystal_size_max          0.310
_exptl_crystal_size_mid          0.170
_exptl_crystal_size_min          0.140
_refine_diff_density_max         0.376
_refine_diff_density_min         -0.380
_refine_ls_extinction_method     none
_refine_ls_goodness_of_fit_ref   1.076
_refine_ls_hydrogen_treatment    constr
_refine_ls_matrix_type           full
_refine_ls_number_parameters     210
_refine_ls_number_reflns         2878
_refine_ls_number_restraints     0
_refine_ls_restrained_S_all      1.076
_refine_ls_R_factor_all          0.0342
_refine_ls_R_factor_gt           0.0336
_refine_ls_shift/su_max          0.001
_refine_ls_shift/su_mean         0.000
_refine_ls_structure_factor_coef Fsqd
_refine_ls_weighting_details
'w=1/[\s^2^(Fo^2^)+(0.0420P)^2^+0.5340P] where P=(Fo^2^+2Fc^2^)/3'
_refine_ls_weighting_scheme      calc
_refine_ls_wR_factor_gt          0.0878
_refine_ls_wR_factor_ref         0.0883
_reflns_number_gt                2810
_reflns_number_total             2878
_reflns_threshold_expression     'I > 2\s(I)'
_cod_data_source_file            d2cc01375d3.cif
_cod_data_source_block           KEmimTCM2
_cod_depositor_comments
;
The following automatic conversions were performed:

data item '_exptl_absorpt_correction_type' value 'Multi-Scan' was
changed to 'multi-scan' in accordance with the
/home/data/users/saulius/crontab/automatic-downloads/rss-feeds/RSC/lib/dictionaries/cif_core.dic
dictionary named 'cif_core.dic' version 2.4.2 last updated on
2011-04-26.

Automatic conversion script
Id: cif_fix_values 7556 2019-12-06 15:28:31Z antanas 
;
_cod_database_code               7130136
_shelx_res_file
;

TITL m2_a.res in P-1
    m2_a.res
    created by SHELXL-2016/6 at 17:41:31 on 22-Sep-2018
REM Old TITL m2 in P-1
REM SHELXT solution in P-1
REM R1 0.093,  Rweak 0.004,  Alpha 0.039,  Orientation as input
REM Formula found by SHELXT:  C14 K N8
CELL  0.71073   8.5703   9.7142  10.2374   83.637   83.004   81.104
ZERR    2.000   0.0008   0.0010   0.0010    0.001    0.001    0.001
LATT  1
SFAC C H K N
UNIT 28 22 2 16
ACTA
TEMP -173
SIZE 0.14 0.17 0.31
L.S. 10
BOND $H
LIST 6
FMAP 2
PLAN 20
WGHT    0.042000    0.534000
FVAR       0.91462
K1    3    0.249390    0.715048    0.744921    11.00000    0.01291    0.01778 =
         0.02744    0.00180   -0.00411   -0.00295
N1    4    1.231616    0.284285    0.601629    11.00000    0.02470    0.01794 =
         0.02677   -0.00353    0.00286   -0.00568
C1    1    1.324295    0.284711    0.694825    11.00000    0.01995    0.01904 =
         0.03696   -0.00495    0.00297   -0.00390
AFIX  43
H1    2    1.406017    0.341322    0.691150    11.00000   -1.20000
AFIX   0
C2    1    1.127669    0.189898    0.643780    11.00000    0.02214    0.02009 =
         0.02683   -0.00378   -0.00041   -0.00741
AFIX  43
H2    2    1.047452    0.168796    0.595931    11.00000   -1.20000
AFIX   0
N2    4    1.285028    0.193141    0.794864    11.00000    0.01998    0.02208 =
         0.03284   -0.00257   -0.00797   -0.00170
C3    1    1.160243    0.132777    0.765267    11.00000    0.01908    0.01865 =
         0.03155   -0.00268   -0.00072   -0.00493
AFIX  43
H3    2    1.107569    0.064502    0.819574    11.00000   -1.20000
AFIX   0
N3    4    1.037096    0.515306    0.792057    11.00000    0.01948    0.02213 =
         0.05092    0.00336   -0.00242   -0.00367
N4    4    0.515437    0.519489    0.807767    11.00000    0.01934    0.02766 =
         0.03239    0.00374   -0.00578   -0.00187
C4    1    1.236760    0.371611    0.475345    11.00000    0.06255    0.02704 =
         0.02881    0.00252    0.00435   -0.01697
AFIX 137
H4A   2    1.223423    0.315830    0.404425    11.00000   -1.50000
H4B   2    1.339319    0.406505    0.457193    11.00000   -1.50000
H4C   2    1.150979    0.450897    0.479966    11.00000   -1.50000
AFIX   0
C5    1    1.363091    0.160157    0.917092    11.00000    0.03662    0.03329 =
         0.04194    0.00092   -0.02111   -0.00314
AFIX  23
H5A   2    1.470671    0.187954    0.901430    11.00000   -1.20000
H5B   2    1.374725    0.057916    0.941776    11.00000   -1.20000
AFIX   0
N5    4    0.808526    0.157869    1.001248    11.00000    0.02951    0.02559 =
         0.03388    0.00669   -0.00262   -0.00367
N6    4   -0.020614    0.888762    0.671430    11.00000    0.01957    0.02333 =
         0.04434    0.00234   -0.00871   -0.00348
C6    1    1.271204    0.233321    1.026639    11.00000    0.06736    0.06879 =
         0.03122   -0.00255   -0.02019    0.00179
AFIX 137
H6A   2    1.255822    0.334330    1.001005    11.00000   -1.50000
H6B   2    1.329117    0.213659    1.105018    11.00000   -1.50000
H6C   2    1.167562    0.200630    1.046747    11.00000   -1.50000
AFIX   0
C7    1    0.788828    0.397343    0.866041    11.00000    0.01573    0.01802 =
         0.02210    0.00229   -0.00352   -0.00298
N7    4   -0.310104    1.290019    0.537061    11.00000    0.02619    0.02025 =
         0.03349   -0.00146    0.00069   -0.00466
N8    4   -0.533134    0.903969    0.677391    11.00000    0.01932    0.02318 =
         0.04684    0.00235   -0.00510   -0.00588
C8    1    0.639082    0.465071    0.834153    11.00000    0.01958    0.02059 =
         0.01939    0.00138   -0.00131   -0.00606
C9    1    0.800266    0.265081    0.939126    11.00000    0.01501    0.02433 =
         0.02186   -0.00193   -0.00212   -0.00301
C10   1    0.926156    0.461431    0.825679    11.00000    0.01840    0.01746 =
         0.02747    0.00081   -0.00464    0.00082
C11   1   -0.290365    1.033170    0.632316    11.00000    0.01449    0.01695 =
         0.02486   -0.00014   -0.00343   -0.00297
C12   1   -0.141724    0.955159    0.654657    11.00000    0.01958    0.01859 =
         0.02545   -0.00067   -0.00362   -0.00774
C13   1   -0.300829    1.174195    0.579583    11.00000    0.01318    0.02207 =
         0.02388   -0.00505   -0.00094   -0.00326
C14   1   -0.425679    0.964405    0.655632    11.00000    0.01772    0.01718 =
         0.02618   -0.00048   -0.00535    0.00073
HKLF 4




REM  m2_a.res in P-1
REM R1 =  0.0336 for    2810 Fo > 4sig(Fo)  and  0.0342 for all    2878 data
REM    210 parameters refined using      0 restraints

END

WGHT      0.0420      0.5340

REM Highest difference peak  0.376,  deepest hole -0.380,  1-sigma level  0.064
Q1    1   1.2967  0.2834  0.7751  11.00000  0.05    0.38
Q2    1   1.1224  0.3609  0.4277  11.00000  0.05    0.34
Q3    1   1.2564  0.2012  0.8754  11.00000  0.05    0.33
Q4    1   1.2433  0.4715  0.4929  11.00000  0.05    0.31
Q5    1   1.3437  0.3149  0.4172  11.00000  0.05    0.28
Q6    1   1.1162  0.4339  0.4809  11.00000  0.05    0.27
Q7    1   1.1502  0.2975  1.0398  11.00000  0.05    0.21
Q8    1  -0.4128  0.8179  0.5638  11.00000  0.05    0.18
Q9    1   1.1992  0.1752  0.7977  11.00000  0.05    0.18
Q10   1   1.2627 -0.0350  0.8843  11.00000  0.05    0.17
Q11   1   1.2307  0.1607  0.7823  11.00000  0.05    0.17
Q12   1   1.0906  0.1957  0.7305  11.00000  0.05    0.17
Q13   1   0.7646  0.1158  1.0804  11.00000  0.05    0.16
Q14   1   0.2719  0.6152  0.6353  11.00000  0.05    0.16
Q15   1   1.1761 -0.0034  0.8373  11.00000  0.05    0.16
Q16   1   0.8550  0.1678  1.1066  11.00000  0.05    0.16
Q17   1   1.0195  0.3213  0.3805  11.00000  0.05    0.15
Q18   1  -0.3846  0.9175  0.4989  11.00000  0.05    0.15
Q19   1   1.3092  0.3598  0.9906  11.00000  0.05    0.14
Q20   1  -0.3462  0.9814  0.5330  11.00000  0.05    0.14
;
_shelx_res_checksum              50885
_shelx_hkl_file
;
  -1   0   0    1.00    0.10
  -2   0   0 4838.32   67.79
  -2   0   0 5431.46   73.29
  -3   0   0    6.80    0.10
  -3   0   0    6.30    0.20
  -4   0   0 1693.53   35.30
  -4   0   0 1689.13   28.30
  -5   0   0   41.70    0.60
  -5   0   0   42.90    0.70
  -6   0   0   18.50    0.40
  -8   0   0   44.80    0.90
  -9   0   0    0.30    0.20
 -10   0   0   41.20    0.90
  -9   1   0    0.30    0.20
  -8   1   0    3.80    0.30
  -7   1   0  646.14    9.20
  -6   1   0    6.90    0.20
  -6   1   0    7.10    0.30
  -5   1   0  366.86   11.40
  -5   1   0  365.66    4.90
   4  -1   0   27.30    0.40
  -4   1   0   26.30    0.50
   3  -1   0  369.66    9.90
   2  -1   0    0.70    0.10
   1  -1   0   84.69    3.10
   0  -1   0   33.40    0.50
   0   1   0   32.70    0.40
  -1  -1   0    9.20    0.20
  -1  -1   0    8.90    0.10
  -2  -1   0    0.40    0.10
  -2  -1   0    0.30    0.10
  -3  -1   0 1182.88   19.00
  -3  -1   0 1149.19   25.70
  -4  -1   0  523.85   16.20
  -4  -1   0  529.25    7.20
  -5  -1   0  280.07    4.70
  -5  -1   0  287.77    4.10
  -6  -1   0  168.58    2.30
  -7  -1   0  375.46    9.50
  -8  -1   0  113.19    1.70
  -9  -1   0    4.10    0.30
 -10  -1   0    1.10    0.20
  -9   2   0    5.30    0.30
  -8   2   0    1.30    0.20
  -7   2   0   74.79    1.20
  -6   2   0  310.87    8.90
   5  -2   0    0.00    0.10
  -5   2   0    0.00    0.10
   4  -2   0  246.88    3.50
   3  -2   0    1.10    0.10
   2  -2   0 7818.12  109.19
   1  -2   0  654.53   15.20
  -1   2   0  643.24   12.60
   0  -2   0 1062.09   18.70
   0  -2   0 1075.89   17.50
   0   2   0 1088.89   17.20
  -1  -2   0  598.64   11.70
  -1  -2   0  625.34    7.90
  -2  -2   0 5830.12   77.19
  -2  -2   0 5603.34   82.09
  -3  -2   0  339.87    4.90
  -3  -2   0  363.26    6.60
  -4  -2   0 1016.20   18.20
  -4  -2   0 1021.50   25.60
  -5  -2   0   20.00    0.40
  -5  -2   0   20.20    0.30
  -6  -2   0   45.70    0.80
  -7  -2   0   28.00    0.60
  -8  -2   0  198.18    2.80
  -9  -2   0  194.38    2.80
 -10  -2   0    0.10    0.20
  -9   3   0  211.08    3.40
  -8   3   0   99.99    1.50
  -7   3   0   16.50    0.40
   6  -3   0  257.57    3.40
  -6   3   0  255.67    3.40
   5  -3   0   70.09    1.10
   4  -3   0   12.20    0.30
   3  -3   0   89.79    1.30
   2  -3   0  725.13   19.40
  -2   3   0  699.93   16.90
   1  -3   0   35.40    0.60
  -1   3   0   36.50    0.50
   0  -3   0  477.45    9.60
   0  -3   0  508.55    6.70
   0   3   0  495.45   10.60
  -1  -3   0  457.55    8.00
  -1  -3   0  453.25    6.10
  -2  -3   0 2398.06   39.30
  -2  -3   0 2406.46   39.90
  -3  -3   0   54.59    0.80
  -3  -3   0   55.49    0.80
  -4  -3   0  491.15   16.40
  -4  -3   0  509.55   11.80
  -5  -3   0    0.70    0.10
  -5  -3   0    0.40    0.10
  -6  -3   0  509.55    7.40
  -7  -3   0  131.59    1.90
  -8  -3   0   13.60    0.40
  -9  -3   0    1.90    0.20
 -10  -3   0   72.29    1.30
  -7   4   0   67.39    1.10
   6  -4   0    0.50    0.10
  -6   4   0    0.60    0.10
   5  -4   0  436.76    5.70
   4  -4   0   66.09    1.00
  -4   4   0   65.79    1.00
   3  -4   0  921.01   12.60
  -3   4   0  940.21   15.40
   2  -4   0   43.40    0.70
  -2   4   0   43.50    0.60
   1  -4   0  395.66    5.60
  -1   4   0  393.76    5.20
   0  -4   0  889.51   15.40
   0  -4   0  899.61   11.80
  -1  -4   0   12.90    0.20
  -1  -4   0   13.40    0.30
  -2  -4   0  638.44    8.40
  -2  -4   0  627.34   16.30
  -3  -4   0   95.09    1.30
  -3  -4   0   92.79    1.30
  -4  -4   0  333.87    4.50
  -4  -4   0  327.67    4.80
  -5  -4   0    1.30    0.20
  -5  -4   0    1.50    0.10
  -6  -4   0  801.12   11.30
  -7  -4   0  129.29    1.90
  -8  -4   0   43.90    0.90
  -9  -4   0   72.69    1.30
  -8   5   0   61.09    1.10
  -7   5   0  132.89    2.00
   6  -5   0   29.40    0.60
  -6   5   0   29.80    0.60
   5  -5   0   45.40    0.80
  -5   5   0   44.70    0.80
   4  -5   0  865.61   12.00
  -4   5   0  875.41   17.40
   3  -5   0    0.10    0.10
  -3   5   0    0.20    0.10
   2  -5   0   30.90    0.60
  -2   5   0   30.90    0.50
   1  -5   0  187.18    2.60
  -1   5   0  185.38    3.50
   0  -5   0  920.31   15.70
   0  -5   0  904.41   19.20
  -1  -5   0  254.67    3.70
  -1  -5   0  252.67    3.50
  -2  -5   0   40.10    0.60
  -2  -5   0   39.30    0.60
  -3  -5   0   67.69    1.00
  -3  -5   0   68.39    1.00
  -4  -5   0  152.98    2.00
  -4  -5   0  154.68    2.10
  -5  -5   0   20.60    0.40
  -5  -5   0   19.90    0.50
  -6  -5   0   99.69    1.50
  -7  -5   0    8.90    0.30
  -8  -5   0   87.49    1.40
  -9  -5   0   28.90    0.70
  -6   6   0   16.80    0.40
   5  -6   0   58.79    1.00
  -5   6   0   58.99    1.00
   4  -6   0   40.30    0.80
  -4   6   0   41.60    0.70
  -3   6   0    1.90    0.10
   2  -6   0   15.50    0.40
  -2   6   0   15.90    0.30
   1  -6   0  643.24   13.70
  -1   6   0  636.04    8.30
   0  -6   0   62.69    1.00
   0  -6   0   61.89    0.90
  -1  -6   0  730.03    9.90
  -1  -6   0  793.92   10.40
  -2  -6   0   10.30    0.20
  -2  -6   0    9.70    0.30
  -3  -6   0  105.59    1.50
  -3  -6   0  106.89    1.50
  -4  -6   0  121.29    1.70
  -4  -6   0  117.49    1.60
  -5  -6   0  388.26   11.10
  -5  -6   0  379.26    5.20
  -6  -6   0   91.99    1.40
  -7  -6   0  306.37    4.10
  -8  -6   0   10.20    0.40
  -9  -6   0  237.48    3.30
   6  -7   0  101.09    1.60
   5  -7   0   15.20    0.50
   4  -7   0   62.99    1.10
   3  -7   0   26.00    0.60
   2  -7   0  675.33   15.70
   1  -7   0    0.60    0.10
   0  -7   0  447.96   11.40
  -1  -7   0    0.60    0.10
  -1  -7   0    0.40    0.10
  -2  -7   0  906.51   12.40
  -2  -7   0  926.51   22.00
  -3  -7   0    1.80    0.20
  -3  -7   0    1.70    0.20
  -4  -7   0  781.12   10.60
  -4  -7   0  769.32   10.40
  -5  -7   0   49.80    0.80
  -5  -7   0   49.70    0.80
  -6  -7   0    0.40    0.10
  -8  -7   0   82.09    1.40
   6  -8   0   40.60    0.90
   5  -8   0    3.80    0.30
   4  -8   0   24.10    0.60
   3  -8   0  438.46    5.70
   2  -8   0   19.40    0.50
   1  -8   0   99.99    1.50
   0  -8   0    8.90    0.30
  -1  -8   0  338.57    4.60
  -1  -8   0  331.57    4.40
  -2  -8   0  114.59    1.60
  -2  -8   0  112.69    1.70
  -3  -8   0 1098.09   14.50
  -3  -8   0 1100.09   27.00
  -4  -8   0   56.49    0.90
  -4  -8   0   58.19    0.90
  -5  -8   0  595.24    8.20
  -6  -8   0    2.80    0.20
  -7  -8   0  175.48    2.50
  -8  -8   0    5.60    0.30
   5  -9   0    8.10    0.40
   4  -9   0  314.47    4.30
   3  -9   0    1.80    0.20
   2  -9   0  385.36    5.10
   1  -9   0   13.50    0.50
   0  -9   0  714.03    9.40
  -1  -9   0    0.10    0.10
  -2  -9   0  754.12   10.40
  -3  -9   0   26.90    0.60
  -3  -9   0   25.60    0.60
  -4  -9   0    2.10    0.20
  -4  -9   0    1.90    0.20
  -5  -9   0   25.10    0.60
  -6  -9   0  127.09    1.90
  -7  -9   0   10.70    0.40
   3 -10   0    0.70    0.20
   2 -10   0    1.40    0.20
   1 -10   0   78.19    1.40
   0 -10   0   64.19    1.20
  -1 -10   0  116.09    1.80
  -2 -10   0   46.80    0.90
  -3 -10   0   20.60    0.60
  -4 -10   0  252.47    3.40
  -6 -10   0   66.89    1.10
   1 -11   0   33.90    0.80
   0 -11   0  144.79    2.20
  -1 -11   0    5.50    0.40
  -2 -11   0  153.58    2.30
  -3 -11   0    0.20    0.20
  -4 -11   0  199.08    2.80
  -3 -11   1   71.39    1.30
  -2 -11   1   50.89    1.00
  -1 -11   1   60.29    1.20
   0 -11   1    6.90    0.40
   1 -11   1   67.09    1.30
  -4 -10   1  107.39    1.70
  -3 -10   1  106.39    1.70
  -2 -10   1    2.10    0.30
  -1 -10   1  270.57    3.70
   0 -10   1   70.79    1.30
   1 -10   1  232.28    3.30
   2 -10   1   88.89    1.50
   3 -10   1    6.30    0.40
  -7  -9   1    5.70    0.30
  -6  -9   1   55.39    1.00
  -5  -9   1    5.60    0.30
  -5  -9   1    5.70    0.30
  -4  -9   1   42.90    0.80
  -3  -9   1    9.40    0.40
  -2  -9   1    8.00    0.40
  -1  -9   1  176.78    2.50
   0  -9   1    6.90    0.30
   1  -9   1  264.37    3.60
   2  -9   1    1.20    0.20
   3  -9   1  117.09    1.80
   4  -9   1   44.30    0.90
   5  -9   1  328.17    4.50
  -7  -8   1    0.30    0.20
  -6  -8   1  137.89    2.00
  -5  -8   1   46.90    0.80
  -5  -8   1   48.50    0.80
  -4  -8   1  279.07    3.70
  -4  -8   1  288.17    3.70
  -3  -8   1  153.28    2.10
  -3  -8   1  159.98    2.20
  -2  -8   1   60.69    1.00
  -1  -8   1   83.19    1.30
   0  -8   1   36.10    0.70
   1  -8   1   14.60    0.40
   2  -8   1  283.57    3.80
   3  -8   1   31.60    0.70
   4  -8   1  133.89    2.00
   5  -8   1   56.29    1.10
   6  -8   1  217.48    3.10
  -8  -7   1    3.00    0.30
  -7  -7   1   20.90    0.50
  -6  -7   1    0.30    0.10
  -5  -7   1   43.80    0.70
  -5  -7   1   42.60    0.80
  -4  -7   1   30.80    0.60
  -4  -7   1   30.20    0.60
  -3  -7   1   26.40    0.50
  -3  -7   1   27.00    0.50
  -2  -7   1   71.59    1.10
  -2  -7   1   70.79    1.00
  -1  -7   1  334.77    7.50
  -1  -7   1  337.57    8.40
   0  -7   1   96.59    1.40
   1  -7   1  569.14    8.00
  -2   7  -1    3.00    0.20
   2  -7   1    2.90    0.20
  -3   7  -1 1912.51   24.80
   3  -7   1 1960.30   27.00
  -4   7  -1   24.60    0.50
   4  -7   1   25.90    0.60
   5  -7   1  436.86    5.70
   6  -7   1   10.60    0.40
  -9  -6   1   15.30    0.50
  -8  -6   1  258.67    3.60
  -7  -6   1   96.49    1.50
  -6  -6   1    3.30    0.20
  -5  -6   1   85.69    1.20
  -5  -6   1   84.29    1.30
  -4  -6   1 1445.46   32.80
  -4  -6   1 1458.15   19.90
  -3  -6   1    7.60    0.30
  -3  -6   1    7.40    0.20
  -2  -6   1   42.30    0.60
  -2  -6   1   42.10    0.70
  -1  -6   1   35.50    0.50
  -1  -6   1   35.70    0.60
   0  -6   1  125.49    1.80
   0  -6   1  125.89    1.60
  -1   6  -1    0.30    0.10
   1  -6   1    0.20    0.10
  -2   6  -1  532.25    7.10
   2  -6   1  514.95    7.30
  -3   6  -1   11.50    0.30
   3  -6   1   11.30    0.40
  -4   6  -1  396.16    5.50
   4  -6   1  392.96    5.40
  -5   6  -1   15.90    0.40
   5  -6   1   15.60    0.50
  -6   6  -1  486.05    6.60
   6  -6   1  505.45    6.40
  -7   6  -1   11.30    0.40
  -9  -5   1   76.19    1.30
  -8  -5   1    2.80    0.30
  -7  -5   1    0.80    0.10
  -6  -5   1   14.80    0.40
  -5  -5   1  227.48    2.90
  -5  -5   1  225.98    3.00
  -4  -5   1   35.00    0.60
  -4  -5   1   35.20    0.60
  -3  -5   1  334.27    4.40
  -3  -5   1  346.17    4.60
  -2  -5   1  182.38    2.40
  -2  -5   1  184.68    2.40
  -1  -5   1  327.67    6.90
  -1  -5   1  324.67    4.60
   0  -5   1  519.45   12.00
   0  -5   1  527.65    7.30
  -1   5  -1  865.71   19.70
   1  -5   1  891.91   11.80
  -2   5  -1   32.50    0.50
   2  -5   1   31.10    0.60
  -3   5  -1    2.10    0.10
   3  -5   1    2.00    0.20
  -4   5  -1  266.47    3.80
   4  -5   1  266.67    3.50
  -5   5  -1   69.49    1.10
   5  -5   1   69.09    1.10
  -6   5  -1   40.00    0.80
   6  -5   1   41.00    0.80
  -7   5  -1  118.59    1.80
  -8   5  -1   84.29    1.40
  -9  -4   1   50.29    1.00
  -8  -4   1  165.58    2.40
  -7  -4   1   77.19    1.30
  -6  -4   1  539.35    7.70
  -5  -4   1  300.27    4.00
  -5  -4   1  280.27    3.90
  -4  -4   1    0.30    0.10
  -3  -4   1  266.97    3.90
  -3  -4   1  268.77    7.90
  -2  -4   1  243.48    3.40
  -2  -4   1  238.18    3.30
  -1  -4   1    5.30    0.10
  -1  -4   1    5.10    0.20
   0  -4   1 1745.23   34.90
   0  -4   1 1754.82   27.80
  -1   4  -1  186.68    2.70
   1  -4   1  196.38    2.80
  -2   4  -1   80.79    1.10
   2  -4   1   79.99    1.10
  -3   4  -1  401.16   13.00
   3  -4   1  406.06    5.50
  -4   4  -1  544.35    7.40
   4  -4   1  529.75    7.40
  -5   4  -1  106.59    1.50
  -5   4  -1  107.89    1.50
   5  -4   1  107.19    1.50
  -6   4  -1   12.50    0.40
   6  -4   1   12.90    0.40
  -7   4  -1    6.20    0.30
  -8   4  -1  109.99    1.70
  -9  -3   1    0.20    0.20
  -8  -3   1   46.00    0.90
  -7  -3   1  321.17    4.20
  -6  -3   1  105.49    1.60
  -5  -3   1  259.87    3.50
  -5  -3   1  264.87    3.70
  -4  -3   1    9.00    0.20
  -4  -3   1    8.70    0.30
  -3  -3   1   90.89    1.20
  -3  -3   1   93.09    1.30
  -2  -3   1 3087.29   50.39
  -2  -3   1 3139.79   50.09
  -1  -3   1  332.67    4.40
  -1  -3   1  326.47    4.60
   0   3  -1 1185.28   22.40
   0  -3   1 1171.58   21.50
   0  -3   1 1196.88   18.60
  -1   3  -1  108.89    1.60
   1  -3   1  113.79    2.70
  -2   3  -1 1210.38   25.60
   2  -3   1 1279.37   28.00
  -3   3  -1  201.68    3.90
   3  -3   1  203.38    2.80
  -4   3  -1   96.69    1.30
  -4   3  -1   95.79    1.40
   4  -3   1   98.69    1.40
  -5   3  -1   23.40    0.50
   5  -3   1   24.00    0.50
  -6   3  -1  433.56    6.90
   6  -3   1  431.36    5.60
  -7   3  -1    2.40    0.20
  -9  -2   1  374.46    5.00
  -8  -2   1    3.70    0.30
  -7  -2   1  565.54    7.90
  -6  -2   1    6.10    0.30
  -5  -2   1   61.99    0.90
  -5  -2   1   62.09    1.00
  -4  -2   1   14.50    0.30
  -4  -2   1   14.40    0.30
  -3  -2   1   40.30    0.60
  -3  -2   1   40.80    0.60
  -2  -2   1 1659.03   30.80
  -2  -2   1 1682.63   28.90
  -1  -2   1 1401.76   24.30
  -1  -2   1 1437.16   25.60
   0   2  -1    4.30    0.10
   0  -2   1    4.00    0.10
   0  -2   1    4.00    0.10
  -1   2  -1 1597.84   27.90
   1  -2   1 1602.44   28.70
  -2   2  -1  732.43   18.00
   2  -2   1  750.92   15.90
  -3   2  -1  413.36    9.10
   3  -2   1  417.66    7.20
  -4   2  -1    0.70    0.10
   4  -2   1    0.50    0.10
  -5   2  -1   49.40    0.80
   5  -2   1   50.99    0.80
  -6   2  -1  199.38    2.70
  -7   2  -1    6.40    0.30
  -8   2  -1   40.50    0.80
  -9   2  -1    0.30    0.10
  -9  -1   1    4.80    0.30
  -8  -1   1  526.85    6.80
  -7  -1   1   57.89    1.00
  -6  -1   1    0.70    0.10
  -5  -1   1  523.75   12.80
  -4  -1   1   94.19    1.30
  -4  -1   1   94.79    1.20
  -3  -1   1  247.78    3.30
  -3  -1   1  243.48    3.60
  -2  -1   1  983.80   17.80
  -2  -1   1  961.50   19.90
  -1  -1   1   25.50    0.40
  -1  -1   1   25.40    0.40
   0   1  -1 1208.98   19.70
   0  -1   1 1172.18   19.90
  -1   1  -1   26.90    0.30
  -1   1  -1   26.70    0.40
   1  -1   1   26.90    0.40
  -2   1  -1 2107.79   32.60
   2  -1   1 2124.19   32.60
  -3   1  -1    6.20    0.20
   3  -1   1    6.10    0.10
  -4   1  -1 1467.55   29.10
   4  -1   1 1487.25   26.00
  -5   1  -1    1.10    0.10
   5  -1   1    1.50    0.10
  -6   1  -1 1267.27   22.70
  -7   1  -1    0.20    0.10
  -8   1  -1   76.59    1.20
  -9   1  -1    0.50    0.20
  -9   0   1  399.86    5.30
  -8   0   1    6.30    0.30
  -7   0   1   15.70    0.40
  -6   0   1   46.30    0.80
  -6   0   1   45.90    0.70
  -5   0   1    0.70    0.10
  -5   0   1    1.00    0.10
  -4   0   1   41.50    0.70
  -4   0   1   41.70    0.60
  -3   0   1  161.88    4.70
  -2   0   1    2.20    0.10
  -1   0   1  633.54   12.30
   0   0  -1  120.79    1.60
   0   0  -1  118.29    1.60
   0   0   1  119.69    1.60
  -1   0  -1 1118.79   18.00
   1   0   1 1142.29   16.30
  -2   0  -1   42.10    0.60
   2   0   1   40.30    0.50
  -3   0  -1 1773.72   31.60
   3   0   1 1833.82   26.40
  -4   0  -1   16.70    0.30
  -4   0  -1   16.80    0.30
  -5   0  -1 1113.19   14.60
  -5   0  -1 1081.19   18.00
  -6   0  -1    3.30    0.20
  -7   0  -1  863.61   22.00
  -8   0  -1   -0.10    0.10
  -9   0  -1  147.09    2.20
 -10   0  -1    2.60    0.30
  -9   1   1    0.50    0.20
  -8   1   1   17.80    0.50
  -7   1   1    8.50    0.30
  -6   1   1    2.50    0.20
  -6   1   1    2.40    0.20
  -5   1   1   15.10    0.30
  -5   1   1   15.20    0.40
  -4   1   1   28.20    0.50
  -3   1   1    4.40    0.10
   2  -1  -1 4871.91   71.79
   1  -1  -1   95.49    1.30
   0  -1  -1   93.99    3.00
   0  -1  -1   93.59    3.00
  -1  -1  -1   95.59    1.40
  -1  -1  -1   97.39    2.10
  -2  -1  -1   23.30    0.40
  -3  -1  -1  115.39    1.80
  -4  -1  -1 4443.66   72.89
  -5  -1  -1   72.49    1.10
  -6  -1  -1 1031.00   13.80
  -7  -1  -1    5.70    0.30
  -8  -1  -1 1134.69   15.20
  -9  -1  -1    0.10    0.10
 -10  -1  -1   30.10    0.70
  -9   2   1   23.80    0.60
  -8   2   1    1.20    0.20
  -7   2   1  240.88    3.20
  -6   2   1  106.69    1.50
  -6   2   1  106.99    1.60
  -5   2   1    0.90    0.10
   4  -2  -1   39.40    0.60
   3  -2  -1  287.97    4.00
   2  -2  -1 1867.31   35.60
   1  -2  -1 6310.47   89.59
   0  -2  -1    7.70    0.20
   0  -2  -1    7.90    0.20
  -1  -2  -1 5195.78   74.49
  -1  -2  -1 5615.44   73.79
  -2  -2  -1    5.50    0.20
  -2  -2  -1    6.20    0.10
  -3  -2  -1 1752.12   25.20
  -3  -2  -1 1726.93   34.50
  -4  -2  -1   21.10    0.40
  -5  -2  -1 1446.36   34.60
  -6  -2  -1    7.50    0.30
  -7  -2  -1  401.36    5.90
  -8  -2  -1  223.08    3.10
  -9  -2  -1  223.98    3.10
 -10  -2  -1    2.70    0.30
  -9   3   1   40.20    0.80
  -8   3   1  186.78    2.60
  -7   3   1   36.50    0.70
   5  -3  -1  108.29    1.50
   4  -3  -1   93.99    1.30
   3  -3  -1  138.19    1.90
   2  -3  -1    7.40    0.20
   1  -3  -1   14.30    0.30
  -1   3   1   14.20    0.20
   0  -3  -1 2301.07   37.40
  -1  -3  -1  917.91   18.70
  -1  -3  -1  889.71   19.20
  -2  -3  -1  901.91   19.30
  -2  -3  -1  858.51   17.00
  -3  -3  -1  330.47   11.50
  -3  -3  -1  351.16    6.80
  -4  -3  -1  199.98    2.70
  -4  -3  -1  198.18    2.60
  -5  -3  -1  204.38    2.70
  -5  -3  -1  208.78    2.80
  -6  -3  -1  128.49    1.80
  -7  -3  -1  136.39    2.00
  -8  -3  -1    4.90    0.30
  -9  -3  -1   15.20    0.50
 -10  -3  -1   24.70    0.70
  -8   4   1  100.09    1.60
  -7   4   1   15.10    0.40
   6  -4  -1    9.90    0.30
   5  -4  -1  285.67    3.70
   4  -4  -1   45.90    0.80
   3  -4  -1  859.61   11.60
   2  -4  -1  598.74    8.20
  -2   4   1  607.24    7.90
  -1   4   1   67.79    0.90
   0  -4  -1 1331.07   29.00
   0  -4  -1 1309.67   26.00
  -1  -4  -1   81.29    1.10
  -1  -4  -1   82.19    1.10
  -2  -4  -1  554.64    8.30
  -2  -4  -1  559.14    7.50
  -3  -4  -1  480.25    6.60
  -3  -4  -1  487.75    6.40
  -4  -4  -1  171.18    2.20
  -4  -4  -1  166.28    2.20
  -5  -4  -1  399.76    5.50
  -5  -4  -1  412.16    5.30
  -6  -4  -1  529.75    7.50
  -8  -4  -1   22.00    0.60
  -9  -4  -1   43.10    0.90
  -8   5   1   43.80    0.90
   6  -5  -1    6.20    0.30
  -6   5   1    5.80    0.30
   5  -5  -1  332.67    4.40
  -5   5   1  340.17    4.40
   4  -5  -1   14.20    0.40
  -4   5   1   14.10    0.30
   3  -5  -1  106.99    1.60
  -3   5   1  109.29    1.50
   2  -5  -1    9.30    0.30
  -2   5   1    9.80    0.20
   1  -5  -1  483.75    6.60
  -1   5   1  489.75    6.30
   0  -5  -1   52.99    0.80
   0  -5  -1   52.69    0.80
  -1  -5  -1  552.64   16.80
  -1  -5  -1  552.74    7.40
  -2  -5  -1   64.39    1.00
  -2  -5  -1   67.69    0.90
  -3  -5  -1 2086.89   36.90
  -3  -5  -1 2102.39   42.20
  -4  -5  -1  116.19    1.60
  -4  -5  -1  115.99    1.50
  -5  -5  -1  451.15    6.30
  -5  -5  -1  454.35   14.20
  -6  -5  -1   18.00    0.40
  -7  -5  -1   12.10    0.40
  -8  -5  -1   43.40    0.90
  -9  -5  -1    2.50    0.30
   7  -6  -1    2.20    0.30
   6  -6  -1   63.89    1.10
   5  -6  -1   36.60    0.80
   4  -6  -1  765.62   10.40
  -4   6   1  770.42   10.30
   3  -6  -1   30.40    0.60
  -3   6   1   31.10    0.50
   2  -6  -1   80.39    1.20
  -2   6   1   78.69    1.10
   1  -6  -1    4.70    0.20
  -1   6   1    5.00    0.10
   0  -6  -1  227.48    3.90
   0  -6  -1  225.68    3.00
  -1  -6  -1   13.30    0.30
  -1  -6  -1   12.80    0.30
  -2  -6  -1   84.99    1.20
  -2  -6  -1   85.29    1.20
  -3  -6  -1  104.29    1.50
  -3  -6  -1  104.99    1.50
  -4  -6  -1  724.03   13.30
  -4  -6  -1  747.03   10.10
  -5  -6  -1   91.79    1.40
  -6  -6  -1   46.50    0.80
  -7  -6  -1    0.30    0.10
  -8  -6  -1  440.46    5.80
  -9  -6  -1    6.90    0.40
   7  -7  -1   96.59    1.60
   6  -7  -1    1.00    0.20
   5  -7  -1   27.80    0.70
   4  -7  -1   12.20    0.40
   3  -7  -1   65.49    1.10
   2  -7  -1   15.80    0.40
   1  -7  -1   92.39    1.40
   0  -7  -1   40.30    0.70
   0  -7  -1   41.20    0.70
  -1  -7  -1  281.27    3.70
  -1  -7  -1  280.37    7.30
  -2  -7  -1   21.20    0.40
  -2  -7  -1   22.50    0.50
  -3  -7  -1    2.50    0.20
  -3  -7  -1    2.60    0.20
  -4  -7  -1  163.08    2.20
  -4  -7  -1  158.78    2.20
  -5  -7  -1    6.60    0.30
  -6  -7  -1    2.90    0.20
  -7  -7  -1  228.58    3.10
  -8  -7  -1    0.40    0.20
   6  -8  -1  162.48    2.40
   5  -8  -1    6.30    0.40
   4  -8  -1  134.69    2.00
   3  -8  -1   18.60    0.50
   2  -8  -1    4.20    0.30
   1  -8  -1    0.30    0.10
   0  -8  -1   21.20    0.40
   0  -8  -1   20.80    0.50
  -1  -8  -1   12.50    0.30
  -1  -8  -1   12.50    0.40
  -2  -8  -1  273.17    3.60
  -2  -8  -1  277.37    6.10
  -3  -8  -1    2.20    0.20
  -3  -8  -1    2.70    0.20
  -4  -8  -1  310.27    4.00
  -4  -8  -1  312.97    4.10
  -5  -8  -1   39.70    0.70
  -6  -8  -1  603.34    8.20
  -7  -8  -1   30.00    0.70
  -8  -8  -1  204.08    2.90
   5  -9  -1    3.70    0.40
   4  -9  -1   65.69    1.20
   3  -9  -1   10.50    0.40
   2  -9  -1   78.99    1.40
   1  -9  -1   18.70    0.50
   0  -9  -1    7.40    0.30
  -1  -9  -1   59.49    1.10
  -2  -9  -1  107.99    1.50
  -2  -9  -1  107.99    1.60
  -3  -9  -1  177.48    2.40
  -3  -9  -1  177.78    2.50
  -4  -9  -1   75.39    1.20
  -4  -9  -1   75.59    1.20
  -5  -9  -1  235.78    3.20
  -6  -9  -1  119.19    1.80
  -7  -9  -1  160.38    2.30
   3 -10  -1   41.70    0.90
   2 -10  -1    6.50    0.40
   1 -10  -1   46.70    1.00
   0 -10  -1   15.20    0.50
  -1 -10  -1   56.69    1.10
  -2 -10  -1   71.99    1.20
  -3 -10  -1   26.60    0.60
  -4 -10  -1  301.87    4.10
  -4 -10  -1  307.47    4.00
  -5 -10  -1   22.80    0.50
  -6 -10  -1  326.77    4.30
   1 -11  -1   78.99    1.40
   0 -11  -1   70.89    1.30
  -1 -11  -1  109.89    1.80
  -2 -11  -1    5.00    0.30
  -3 -11  -1   17.40    0.50
  -4 -11  -1  245.68    3.40
  -2 -11   2    1.20    0.20
  -1 -11   2    0.20    0.20
   0 -11   2    7.60    0.40
  -5 -10   2   60.19    1.10
  -4 -10   2  389.46    5.10
  -3 -10   2    3.80    0.30
  -2 -10   2   49.40    1.00
  -1 -10   2  123.49    1.90
   0 -10   2  184.58    2.70
   1 -10   2  146.69    2.20
   2 -10   2    0.80    0.20
   3 -10   2   21.30    0.60
  -5  -9   2   46.50    0.90
  -4  -9   2   97.59    1.50
  -3  -9   2   36.60    0.80
  -2  -9   2   25.70    0.60
  -1  -9   2    7.70    0.40
   0  -9   2    0.60    0.20
   1  -9   2   19.50    0.60
   2  -9   2   24.40    0.60
   3  -9   2    7.10    0.40
   4  -9   2  513.45    6.70
  -7  -8   2  293.97    4.00
  -6  -8   2  112.69    1.70
  -5  -8   2  443.56    5.70
  -5  -8   2  452.75    5.80
  -4  -8   2   31.40    0.60
  -4  -8   2   31.60    0.60
  -3  -8   2  271.77    3.60
  -2  -8   2  245.78    3.30
  -1  -8   2    0.30    0.10
   0  -8   2   34.70    0.70
   1  -8   2   13.40    0.40
  -2   8  -2   51.79    0.90
   2  -8   2   54.29    1.00
   3  -8   2    2.50    0.30
   4  -8   2   36.50    0.80
   5  -8   2    6.30    0.40
  -8  -7   2  188.78    2.70
  -7  -7   2    6.60    0.30
  -6  -7   2  170.78    2.40
  -5  -7   2   18.60    0.40
  -5  -7   2   17.70    0.40
  -4  -7   2    3.90    0.20
  -4  -7   2    3.90    0.20
  -3  -7   2  258.27    3.30
  -3  -7   2  259.97    3.40
  -2  -7   2  242.08    3.20
  -2  -7   2  244.88    3.20
  -1  -7   2  169.98    2.30
   0  -7   2    0.20    0.10
   1  -7   2   65.69    1.10
  -2   7  -2  181.28    2.40
   2  -7   2  184.38    2.50
  -3   7  -2   70.99    1.10
   3  -7   2   70.49    1.20
  -4   7  -2   46.00    0.80
   4  -7   2   44.90    0.90
  -5   7  -2   59.79    1.00
   5  -7   2   59.69    1.10
  -6   7  -2  441.16    5.70
   6  -7   2  436.66    5.70
  -8  -6   2   19.80    0.60
  -7  -6   2  440.96    5.70
  -6  -6   2    1.30    0.20
  -5  -6   2  114.19    1.60
  -5  -6   2  114.09    1.60
  -4  -6   2    2.20    0.20
  -4  -6   2    2.10    0.20
  -3  -6   2   60.79    1.00
  -3  -6   2   63.99    0.90
  -2  -6   2   40.10    0.70
  -2  -6   2   39.30    0.60
  -1  -6   2    0.30    0.10
  -1  -6   2    0.30    0.10
   0  -6   2    0.50    0.10
  -1   6  -2   44.10    0.70
   1  -6   2   42.70    0.80
  -2   6  -2   34.80    0.60
   2  -6   2   34.30    0.70
  -3   6  -2   22.90    0.50
   3  -6   2   22.80    0.50
  -4   6  -2   18.70    0.40
   4  -6   2   18.70    0.50
  -5   6  -2  145.79    2.10
   5  -6   2  146.59    2.10
  -6   6  -2    1.50    0.20
   6  -6   2    1.60    0.20
  -7   6  -2  233.38    3.20
  -9  -5   2   24.50    0.70
  -8  -5   2  162.18    2.40
  -7  -5   2    5.20    0.30
  -6  -5   2    0.10    0.10
  -5  -5   2  110.29    1.50
  -5  -5   2  109.69    1.60
  -4  -5   2  864.71   11.90
  -4  -5   2  903.21   22.20
  -3  -5   2  318.17    9.80
  -3  -5   2  329.77    4.40
  -2  -5   2    0.50    0.10
  -2  -5   2    0.60    0.10
  -1  -5   2  701.03    9.50
  -1  -5   2  675.23    8.90
   0  -5   2  790.42   14.60
   0  -5   2  790.42   20.40
  -1   5  -2  509.35    6.90
   1  -5   2  514.95    7.20
  -2   5  -2  188.98    2.40
   2  -5   2  184.88    2.50
  -3   5  -2   34.50    0.60
   3  -5   2   33.90    0.60
  -4   5  -2  767.42   12.20
   4  -5   2  758.12   10.60
  -5   5  -2  111.99    1.60
   5  -5   2  113.39    1.60
  -6   5  -2   48.90    0.90
   6  -5   2   48.80    0.90
  -7   5  -2   52.99    1.00
  -8   5  -2  161.28    2.40
  -9  -4   2   24.00    0.70
  -8  -4   2  195.88    2.80
  -7  -4   2   24.40    0.60
  -6  -4   2  368.66    8.80
  -6  -4   2  365.06    4.80
  -5  -4   2  236.28    3.10
  -5  -4   2  241.98    3.20
  -4  -4   2   21.60    0.40
  -4  -4   2   21.70    0.40
  -3  -4   2 1119.89   21.30
  -3  -4   2 1097.29   26.50
  -2  -4   2  178.98    5.30
  -2  -4   2  178.98    2.50
  -1  -4   2  103.69    1.40
  -1  -4   2  104.79    2.00
   0  -4   2  441.46    6.80
   0  -4   2  468.95    6.30
  -1   4  -2   39.80    0.60
  -2   4  -2   26.30    0.50
   2  -4   2   26.40    0.50
  -3   4  -2   93.99    1.20
  -3   4  -2   93.79    1.30
   3  -4   2   90.49    1.30
  -4   4  -2  402.26    8.80
  -4   4  -2  414.56   12.80
   4  -4   2  419.46    5.50
  -5   4  -2  323.97    4.40
   5  -4   2  327.17    4.20
  -6   4  -2   10.00    0.30
   6  -4   2   10.10    0.30
  -7   4  -2  125.09    1.90
  -8   4  -2   24.20    0.60
  -9  -3   2    0.20    0.20
  -8  -3   2    0.00    0.10
  -7  -3   2   99.19    1.50
  -6  -3   2  363.86    4.80
  -6  -3   2  361.56    4.70
  -5  -3   2   57.69    0.90
  -5  -3   2   59.69    0.90
  -4  -3   2    7.90    0.20
  -4  -3   2    8.10    0.30
  -3  -3   2  604.74    8.10
  -3  -3   2  613.14   16.60
  -2  -3   2  736.23   18.60
  -2  -3   2  722.13   17.90
  -1  -3   2   75.29    1.00
  -1  -3   2   76.99    1.00
   0   3  -2 1166.08   24.20
   0  -3   2 1209.78   17.70
   0  -3   2 1131.39   25.60
  -1   3  -2    8.70    0.20
   1  -3   2    8.70    0.20
  -2   3  -2  230.48    8.20
  -2   3  -2  240.38    4.70
   2  -3   2  232.88    3.30
  -3   3  -2 1057.09   26.40
  -3   3  -2 1057.39   18.20
   3  -3   2 1061.49   13.90
  -4   3  -2   16.80    0.40
  -4   3  -2   16.90    0.30
   4  -3   2   17.00    0.40
  -5   3  -2  545.25    7.70
  -5   3  -2  541.75   15.10
   5  -3   2  537.75    7.40
  -6   3  -2    1.50    0.20
  -6   3  -2    1.60    0.20
  -7   3  -2  131.69    1.90
  -8   3  -2  108.19    1.70
  -9   3  -2  383.36    5.10
  -9  -2   2   23.40    0.60
  -8  -2   2  101.09    1.60
  -7  -2   2    1.90    0.20
  -6  -2   2  251.77    3.20
  -6  -2   2  248.58    3.30
  -5  -2   2    0.60    0.10
  -5  -2   2    0.50    0.10
  -4  -2   2   68.19    1.00
  -4  -2   2   69.59    1.00
  -3  -2   2  145.79    2.00
  -3  -2   2  144.89    2.00
  -2  -2   2 1586.74   30.10
  -2  -2   2 1591.94   30.70
  -1  -2   2  756.32   17.50
  -1  -2   2  780.12   15.50
   0   2  -2 1131.99   21.80
   0  -2   2 1169.98   23.30
   0  -2   2 1180.78   17.70
  -1   2  -2   79.49    2.00
   1  -2   2   80.29    1.10
  -2   2  -2 2924.01   50.19
  -2   2  -2 3013.80   41.10
   2  -2   2 2877.01   47.60
  -3   2  -2  130.39    1.80
  -3   2  -2  127.39    1.80
   3  -2   2  125.69    1.70
  -4   2  -2    4.60    0.20
   4  -2   2    4.50    0.20
  -5   2  -2   84.99    1.30
  -5   2  -2   83.89    1.20
   5  -2   2   85.19    1.20
  -6   2  -2  596.24    8.30
  -7   2  -2   11.50    0.30
  -8   2  -2   83.69    1.30
  -9  -1   2  215.68    3.10
  -8  -1   2   15.70    0.50
  -7  -1   2  308.47    4.10
  -6  -1   2   51.29    0.90
  -6  -1   2   52.19    0.80
  -5  -1   2 1450.35   28.40
  -5  -1   2 1483.65   37.70
  -4  -1   2   11.20    0.30
  -4  -1   2   11.50    0.20
  -3  -1   2  899.01   18.60
  -2  -1   2   18.80    0.30
  -1  -1   2 1821.62   31.10
   0   1  -2    7.60    0.20
   0  -1   2    7.60    0.20
  -1   1  -2 1835.22   25.50
   1  -1   2 1810.82   29.90
  -2   1  -2  359.56    7.20
  -2   1  -2  372.46    4.80
   2  -1   2  373.26    4.90
  -3   1  -2    0.30    0.10
  -3   1  -2    0.20    0.10
   3  -1   2    0.20    0.10
  -4   1  -2    3.00    0.10
   4  -1   2    3.00    0.10
  -5   1  -2  189.08    2.60
   5  -1   2  185.38    2.50
  -6   1  -2    9.90    0.30
  -7   1  -2  943.41   12.70
  -8   1  -2    8.10    0.30
  -9   1  -2  205.88    2.90
  -9   0   2   37.30    0.80
  -8   0   2 1084.19   29.40
  -7   0   2   58.79    1.00
  -6   0   2  353.86   10.20
  -6   0   2  354.46    4.90
  -5   0   2  111.99    1.60
  -5   0   2  112.29    1.50
  -4   0   2 1120.29   24.80
  -3   0   2   13.40    0.30
  -2   0   2   67.19    0.90
  -1   0   2    0.70    0.10
   0   0  -2 1758.52   27.60
   0   0   2 1767.92   28.10
  -1   0  -2   40.70    1.00
  -1   0  -2   39.70    0.60
   1   0   2   39.80    0.50
  -2   0  -2 1998.90   35.40
  -2   0  -2 1970.10   32.50
   2   0   2 2020.90   29.30
  -3   0  -2    9.40    0.20
   3   0   2    9.00    0.20
  -4   0  -2    2.30    0.10
   4   0   2    2.10    0.10
  -5   0  -2   15.10    0.30
  -6   0  -2    0.80    0.10
  -7   0  -2    0.50    0.10
  -8   0  -2   30.30    0.60
  -9   0  -2    0.40    0.20
 -10   0  -2  305.77    4.20
  -9   1   2  220.38    3.10
  -8   1   2   15.90    0.50
  -7   1   2 1288.67   36.30
  -6   1   2    6.40    0.20
  -6   1   2    6.40    0.30
  -5   1   2 1467.75   18.90
  -4   1   2    1.10    0.10
  -3   1   2  336.47    4.70
  -2   1   2  551.84    7.40
  -1   1   2 1104.19   19.90
   0  -1  -2  190.18    2.70
   0   1   2  185.78    2.60
  -1  -1  -2 1130.19   20.70
  -1  -1  -2 1135.99   19.40
   1   1   2 1141.69   18.80
  -2  -1  -2  320.87    4.40
   2   1   2  317.07    4.00
  -3  -1  -2  520.45    7.10
  -4  -1  -2  194.78    6.40
  -5  -1  -2  280.67    4.10
  -6  -1  -2   28.50    0.60
  -7  -1  -2   84.99    1.30
  -8  -1  -2   90.49    1.40
  -9  -1  -2  612.44    8.30
 -10  -1  -2    1.80    0.20
  -9   2   2    3.70    0.30
  -8   2   2    6.80    0.30
  -7   2   2  199.78    2.80
  -6   2   2  173.38    2.30
  -5   2   2   75.89    1.10
  -4   2   2  523.55    7.20
   2  -2  -2 1671.93   34.70
   0  -2  -2  211.78    2.90
   0  -2  -2  210.98    6.30
  -1  -2  -2 2070.99   29.70
  -1  -2  -2 2018.80   32.20
  -2  -2  -2 1454.75   28.20
  -2  -2  -2 1449.46   23.80
  -3  -2  -2  354.56   11.40
  -4  -2  -2    1.00    0.10
  -5  -2  -2  140.89    1.90
  -6  -2  -2   65.99    1.00
  -7  -2  -2    0.40    0.10
  -8  -2  -2  883.51   12.00
  -9  -2  -2   42.40    0.90
 -10  -2  -2   13.00    0.50
  -9   3   2   71.89    1.30
  -8   3   2   40.40    0.80
  -7   3   2  174.38    2.40
  -6   3   2  290.67    3.80
  -5   3   2  100.59    1.50
   4  -3  -2   50.89    0.80
   3  -3  -2    0.20    0.10
   2  -3  -2   87.99    1.20
   1  -3  -2    7.50    0.20
   0  -3  -2 2298.57   39.60
   0  -3  -2 2317.67   41.10
  -1  -3  -2  281.97    4.00
  -1  -3  -2  286.37    4.00
  -2  -3  -2 1651.73   32.60
  -2  -3  -2 1686.63   27.40
  -3  -3  -2   16.10    0.30
  -3  -3  -2   16.10    0.30
  -4  -3  -2  272.17    4.00
  -4  -3  -2  274.37    3.50
  -5  -3  -2   29.50    0.60
  -6  -3  -2    4.10    0.20
  -7  -3  -2  347.57    4.50
  -8  -3  -2    5.50    0.30
  -9  -3  -2  242.18    3.30
 -10  -3  -2    0.40    0.20
  -8   4   2   43.30    0.90
  -7   4   2    7.80    0.30
  -6   4   2  164.18    2.30
   5  -4  -2  176.58    2.40
   4  -4  -2  256.27    3.40
   3  -4  -2 1744.93   22.70
   2  -4  -2  796.12   10.80
   1  -4  -2  828.52   11.10
  -1   4   2  823.62   13.80
   0  -4  -2  425.26   12.50
   0  -4  -2  417.56   11.40
  -1  -4  -2  241.08    7.30
  -1  -4  -2  250.37    3.60
  -2  -4  -2  550.14   14.70
  -2  -4  -2  558.54    7.50
  -3  -4  -2   39.10    0.60
  -3  -4  -2   38.70    0.60
  -4  -4  -2  111.69    1.40
  -4  -4  -2  110.19    1.50
  -5  -4  -2  166.68    2.30
  -6  -4  -2  141.19    2.00
  -7  -4  -2  767.32   10.90
  -8  -4  -2    5.20    0.30
  -9  -4  -2   93.19    1.50
  -7   5   2   23.80    0.60
   6  -5  -2    1.50    0.20
   5  -5  -2   20.60    0.50
   4  -5  -2   73.79    1.20
   3  -5  -2   80.49    1.20
  -3   5   2   81.69    1.10
   2  -5  -2  485.45    6.50
  -2   5   2  463.85   11.20
   1  -5  -2   72.69    1.10
  -1   5   2   72.19    0.90
   0  -5  -2 1082.99   23.70
  -1  -5  -2    4.80    0.20
  -1  -5  -2    4.90    0.20
  -2  -5  -2  434.76    6.00
  -2  -5  -2  433.86    6.10
  -3  -5  -2   67.99    1.00
  -3  -5  -2   65.09    1.00
  -4  -5  -2   10.20    0.20
  -4  -5  -2   10.50    0.30
  -5  -5  -2    6.90    0.30
  -6  -5  -2  316.87    4.10
  -7  -5  -2    0.10    0.10
  -8  -5  -2    0.80    0.20
  -9  -5  -2   20.10    0.60
   6  -6  -2   13.10    0.50
   5  -6  -2  187.38    2.60
   4  -6  -2   13.10    0.40
   3  -6  -2   33.70    0.70
   2  -6  -2   26.50    0.60
   1  -6  -2  847.02   11.70
   0  -6  -2   18.30    0.40
   0  -6  -2   18.30    0.40
  -1  -6  -2  194.28    2.60
  -1  -6  -2  199.68    5.10
  -2  -6  -2  361.86    4.90
  -2  -6  -2  367.46   12.30
  -3  -6  -2  513.35    7.10
  -3  -6  -2  507.15    9.50
  -4  -6  -2   48.60    0.80
  -4  -6  -2   47.90    0.80
  -5  -6  -2  692.93   12.60
  -6  -6  -2    2.80    0.20
  -7  -6  -2  182.48    2.50
  -8  -6  -2    4.60    0.30
  -9  -6  -2  201.78    2.90
   6  -7  -2  299.57    4.10
   5  -7  -2    3.40    0.30
   4  -7  -2  264.57    3.60
   3  -7  -2    7.10    0.30
   2  -7  -2  538.75    7.60
   1  -7  -2   22.20    0.50
   0  -7  -2  181.08    2.40
   0  -7  -2  182.18    2.50
  -1  -7  -2   24.80    0.50
  -1  -7  -2   24.90    0.50
  -2  -7  -2   78.49    1.20
  -2  -7  -2   81.59    1.20
  -3  -7  -2   13.80    0.30
  -3  -7  -2   14.00    0.40
  -4  -7  -2  731.53    9.80
  -4  -7  -2  715.43   10.00
  -5  -7  -2    0.30    0.10
  -6  -7  -2   51.99    0.90
  -7  -7  -2    4.00    0.30
  -8  -7  -2   96.99    1.50
   5  -8  -2  256.67    3.60
   4  -8  -2   15.10    0.50
   3  -8  -2  619.54    7.90
   2  -8  -2   89.29    1.40
   1  -8  -2   13.50    0.40
   0  -8  -2   11.00    0.30
   0  -8  -2   10.30    0.40
  -1  -8  -2   27.40    0.60
  -1  -8  -2   27.10    0.50
  -2  -8  -2    1.00    0.10
  -3  -8  -2   45.10    0.80
  -3  -8  -2   45.40    0.80
  -4  -8  -2    2.70    0.20
  -4  -8  -2    2.90    0.20
  -5  -8  -2   21.70    0.50
  -6  -8  -2   35.10    0.70
  -7  -8  -2  180.28    2.60
  -8  -8  -2   24.90    0.60
   4  -9  -2  177.48    2.60
   3  -9  -2   52.99    1.00
   2  -9  -2  229.98    3.20
   1  -9  -2    2.70    0.30
   0  -9  -2   73.49    1.30
   0  -9  -2   73.49    1.20
  -1  -9  -2    5.90    0.30
  -1  -9  -2    6.10    0.30
  -2  -9  -2    3.40    0.20
  -2  -9  -2    3.70    0.30
  -3  -9  -2   66.39    1.10
  -3  -9  -2   67.09    1.10
  -4  -9  -2  377.96    4.90
  -4  -9  -2  380.36    4.90
  -5  -9  -2   25.50    0.60
  -6  -9  -2   13.80    0.40
  -7  -9  -2    2.80    0.30
   3 -10  -2    1.80    0.30
   2 -10  -2   34.50    0.80
   1 -10  -2    0.10    0.20
   0 -10  -2   53.89    1.10
  -1 -10  -2    7.40    0.40
  -2 -10  -2  133.39    2.00
  -3 -10  -2   17.50    0.50
  -3 -10  -2   17.50    0.40
  -4 -10  -2   27.70    0.60
  -4 -10  -2   27.00    0.60
  -5 -10  -2   78.49    1.30
  -6 -10  -2  232.28    3.20
   1 -11  -2  172.68    2.60
   0 -11  -2   12.40    0.50
  -1 -11  -2   69.79    1.30
  -2 -11  -2    3.40    0.30
  -3 -11  -2    2.60    0.30
  -4 -10   3  306.77    4.10
  -3 -10   3   11.40    0.40
  -2 -10   3   46.30    0.90
  -1 -10   3   64.49    1.20
   0 -10   3  166.98    2.50
   1 -10   3   27.80    0.70
   2 -10   3    2.30    0.30
  -5  -9   3  114.59    1.70
  -4  -9   3   13.80    0.40
  -3  -9   3    6.50    0.30
  -2  -9   3    7.50    0.30
  -1  -9   3   94.09    1.50
   0  -9   3   18.00    0.50
   1  -9   3  120.39    1.90
   2  -9   3   11.70    0.40
   3  -9   3   21.80    0.60
   4  -9   3  151.38    2.30
  -7  -8   3    3.00    0.30
  -6  -8   3  712.13    9.00
  -5  -8   3   17.00    0.50
  -4  -8   3  123.89    1.80
  -3  -8   3   65.69    1.10
  -2  -8   3 1089.19   14.70
  -1  -8   3    0.10    0.10
   0  -8   3  440.06    6.10
   1  -8   3   -0.10    0.10
  -2   8  -3  104.49    1.50
   2  -8   3  102.39    1.60
  -3   8  -3    1.90    0.20
   3  -8   3    2.10    0.30
  -4   8  -3  103.99    1.50
   4  -8   3  103.19    1.60
   5  -8   3    1.60    0.20
  -7  -7   3   99.59    1.60
  -6  -7   3   38.00    0.80
  -5  -7   3  298.27    3.90
  -5  -7   3  293.87    3.90
  -4  -7   3  107.89    1.50
  -4  -7   3  106.09    1.60
  -3  -7   3  867.91   11.60
  -2  -7   3   21.90    0.50
  -1  -7   3  173.88    2.40
   0  -7   3    9.60    0.30
   1  -7   3   85.39    1.30
  -2   7  -3   14.30    0.40
   2  -7   3   13.90    0.40
  -3   7  -3  419.06    5.50
   3  -7   3  412.86    5.40
  -4   7  -3   46.60    0.80
   4  -7   3   46.30    0.90
  -5   7  -3    0.20    0.10
   5  -7   3    0.20    0.10
  -6   7  -3    1.20    0.20
   6  -7   3    1.30    0.20
  -8  -6   3  242.88    3.40
  -7  -6   3   11.70    0.40
  -6  -6   3  225.88    3.00
  -6  -6   3  220.98    3.00
  -5  -6   3   85.89    1.30
  -5  -6   3   84.09    1.30
  -4  -6   3 1529.35   34.60
  -4  -6   3 1519.65   19.90
  -3  -6   3   53.69    0.90
  -3  -6   3   54.19    0.80
  -2  -6   3 1164.08   23.70
  -2  -6   3 1141.79   15.50
   0  -6   3  185.88    2.50
  -1   6  -3    1.20    0.10
   1  -6   3    1.10    0.10
  -2   6  -3  230.58    3.00
   2  -6   3  227.88    3.10
  -3   6  -3    4.20    0.20
  -4   6  -3  188.28    2.60
   4  -6   3  192.98    2.60
  -5   6  -3   20.10    0.50
   5  -6   3   19.90    0.50
  -6   6  -3  218.18    3.00
   6  -6   3  223.58    3.40
  -7   6  -3   72.79    1.20
  -8  -5   3   24.40    0.60
  -7  -5   3   56.89    1.00
  -6  -5   3    2.20    0.20
  -6  -5   3    2.00    0.20
  -5  -5   3  158.18    2.10
  -5  -5   3  158.48    2.20
  -4  -5   3  634.14    8.60
  -4  -5   3  641.14    8.50
  -3  -5   3   45.40    0.80
  -3  -5   3   45.70    0.70
  -2  -5   3  194.68    2.60
  -2  -5   3  189.08    2.50
  -1  -5   3  829.02   16.60
  -1  -5   3  822.82   11.30
   0  -5   3  238.88    3.40
  -1   5  -3  488.35    6.60
   1  -5   3  475.55    6.80
  -2   5  -3  409.36    5.70
   2  -5   3  417.06    5.90
  -3   5  -3   45.60    0.70
   3  -5   3   44.50    0.80
  -4   5  -3  498.55    9.30
   4  -5   3  490.05    6.70
  -5   5  -3   24.80    0.50
   5  -5   3   25.80    0.50
  -6   5  -3  104.39    1.60
  -7   5  -3   13.60    0.40
  -8   5  -3    5.80    0.30
  -9  -4   3  122.19    1.90
  -8  -4   3  103.29    1.70
  -7  -4   3   27.90    0.70
  -6  -4   3   97.99    1.40
  -6  -4   3   95.99    1.50
  -5  -4   3  150.58    2.00
  -5  -4   3  152.58    2.10
  -4  -4   3   79.99    1.10
  -4  -4   3   78.99    1.20
  -3  -4   3   31.60    0.50
  -3  -4   3   31.80    0.60
  -2  -4   3   27.60    0.50
  -2  -4   3   27.20    0.50
  -1  -4   3   30.00    0.40
   0  -4   3  408.26    5.20
  -1   4  -3  125.79    1.80
   1  -4   3  127.39    1.70
  -2   4  -3    2.70    0.10
   2  -4   3    2.10    0.20
  -3   4  -3    0.30    0.10
   3  -4   3    0.30    0.10
  -4   4  -3 1101.79   28.90
   4  -4   3 1115.09   26.70
  -5   4  -3   89.69    1.30
   5  -4   3   87.69    1.30
  -6   4  -3    0.30    0.10
  -7   4  -3  157.38    2.30
  -8   4  -3   22.60    0.60
  -9  -3   3    5.20    0.40
  -8  -3   3    1.30    0.20
  -7  -3   3   48.00    0.90
  -6  -3   3  570.94    7.70
  -6  -3   3  582.64    7.60
  -5  -3   3    5.10    0.20
  -5  -3   3    5.20    0.30
  -4  -3   3  106.09    1.50
  -4  -3   3  108.49    1.50
  -3  -3   3  231.68    7.60
  -3  -3   3  227.78    3.00
  -2  -3   3  936.11   12.30
  -2  -3   3  956.30   22.80
  -1  -3   3  161.98    2.10
  -1  -3   3  164.48    2.40
   0  -3   3 1653.23   24.10
   0  -3   3 1599.74   33.90
  -1   3  -3  500.65    6.90
   1  -3   3  498.75   14.10
  -2   3  -3    0.10    0.10
   2  -3   3    0.20    0.10
  -3   3  -3  184.18    3.50
  -3   3  -3  183.68    2.50
   3  -3   3  182.38    2.40
  -4   3  -3  131.29    1.70
  -4   3  -3  133.19    1.80
   4  -3   3  130.09    1.80
  -5   3  -3   40.90    0.70
   5  -3   3   41.70    0.70
  -6   3  -3   12.80    0.40
  -7   3  -3   30.30    0.70
  -8   3  -3  262.57    3.60
  -9   3  -3  102.79    1.70
  -9  -2   3   92.99    1.60
  -8  -2   3   19.70    0.60
  -7  -2   3  737.63   10.20
  -6  -2   3    0.50    0.10
  -6  -2   3    0.60    0.10
  -5  -2   3   56.29    0.80
  -5  -2   3   53.29    0.90
  -4  -2   3   12.60    0.30
  -4  -2   3   12.10    0.30
  -3  -2   3  119.99    1.60
  -3  -2   3  117.79    1.60
  -2  -2   3  258.27    6.10
  -1  -2   3  276.37    3.90
   0  -2   3  143.39    2.10
  -1   2  -3  145.29    2.20
   1  -2   3  150.68    5.00
  -2   2  -3  354.36   10.60
  -2   2  -3  379.16    7.00
   2  -2   3  364.66    5.10
  -3   2  -3  808.32   15.50
  -3   2  -3  800.82   22.40
   3  -2   3  809.82   10.60
  -4   2  -3  210.58    2.90
  -4   2  -3  209.28    4.90
   4  -2   3  201.78    2.80
  -5   2  -3  180.58    2.40
  -5   2  -3  180.28    2.30
   5  -2   3  177.68    2.30
  -6   2  -3  168.38    2.20
  -6   2  -3  164.98    2.30
  -7   2  -3    7.00    0.30
  -7   2  -3    7.20    0.30
  -8   2  -3   15.30    0.50
  -9   2  -3   58.59    1.10
  -9  -1   3   72.09    1.30
  -8  -1   3   52.79    1.00
  -7  -1   3   45.50    0.90
  -6  -1   3   63.89    1.00
  -6  -1   3   63.89    1.10
  -5  -1   3    1.20    0.10
  -5  -1   3    1.30    0.10
  -4  -1   3  980.40   19.60
  -3  -1   3  161.48    2.10
  -2  -1   3 1962.70   36.60
  -1  -1   3   42.20    0.60
   0  -1   3  901.11   18.30
  -1   1  -3  191.88    2.50
  -1   1  -3  191.38    2.80
   1  -1   3  190.48    2.70
  -2   1  -3 1782.22   27.50
  -2   1  -3 1730.73   34.30
   2  -1   3 1720.53   30.80
  -3   1  -3    1.50    0.10
  -3   1  -3    1.30    0.10
   3  -1   3    1.30    0.10
  -4   1  -3    0.40    0.10
  -4   1  -3    0.40    0.10
   4  -1   3    0.40    0.10
  -5   1  -3   22.10    0.40
   5  -1   3   22.00    0.40
  -6   1  -3  824.82   11.20
  -7   1  -3    1.90    0.20
  -8   1  -3  167.88    2.30
  -9   0   3   47.30    1.00
  -8   0   3   57.39    1.10
  -7   0   3  134.79    2.00
  -6   0   3   22.00    0.40
  -6   0   3   21.00    0.50
  -5   0   3  490.85    6.80
  -4   0   3   37.90    0.60
  -3   0   3 2139.39   38.90
  -2   0   3    7.50    0.20
  -1   0   3 4158.08   63.79
   0   0   3  271.87    3.70
  -1   0  -3 3451.45   55.39
  -1   0  -3 3904.31   54.29
   1   0   3 3853.51   55.19
  -2   0  -3   13.50    0.20
  -2   0  -3   13.30    0.30
   2   0   3   13.10    0.20
  -3   0  -3  669.73   16.30
  -3   0  -3  677.63    9.10
   3   0   3  680.73   12.80
  -4   0  -3   81.29    1.20
  -4   0  -3   82.19    1.10
   4   0   3   83.39    1.10
  -5   0  -3   91.39    1.30
  -6   0  -3   96.09    1.40
  -7   0  -3  269.07    3.50
  -8   0  -3   61.69    1.00
  -9   0  -3   14.90    0.50
  -9   1   3    0.30    0.20
  -8   1   3  141.29    2.10
  -7   1   3   13.10    0.40
  -7   1   3   13.40    0.50
  -6   1   3  451.55    5.90
  -5   1   3   23.10    0.50
  -4   1   3 1397.76   32.80
  -3   1   3   14.40    0.30
  -1   1   3   13.80    0.30
   0   1   3 9999.00  135.19
  -1  -1  -3   64.29    0.90
  -1  -1  -3   66.19    0.90
   1   1   3   64.79    0.90
  -2  -1  -3   83.39    1.10
  -2  -1  -3   82.59    1.10
   2   1   3   85.19    1.10
  -3  -1  -3  204.28    3.00
   3   1   3  207.58    3.30
  -4  -1  -3  346.67   10.40
  -5  -1  -3  227.98    3.30
  -6  -1  -3    5.60    0.20
  -7  -1  -3  163.88    2.30
  -8  -1  -3   46.00    0.80
  -9  -1  -3   60.79    1.10
 -10  -1  -3  100.59    1.60
  -9   2   3    4.60    0.30
  -8   2   3    0.10    0.10
  -7   2   3  177.98    2.40
  -6   2   3   59.39    1.00
  -5   2   3  276.87    3.60
  -4   2   3  227.38    3.20
  -3   2   3 1871.31   40.20
  -2   2   3  807.62   17.90
  -1   2   3 3813.22   63.29
   0  -2  -3 1093.99   22.20
   0   2   3 1135.29   24.30
  -1  -2  -3  622.54   12.40
  -1  -2  -3  641.04   11.10
   1   2   3  647.24    8.40
  -2  -2  -3    3.80    0.10
  -2  -2  -3    3.90    0.10
   2   2   3    4.10    0.10
  -3  -2  -3  283.57    4.00
   3   2   3  285.47    3.70
  -4  -2  -3  157.08    2.30
  -5  -2  -3    5.50    0.20
  -6  -2  -3    0.80    0.10
  -7  -2  -3  271.27    3.60
  -8  -2  -3  229.38    3.10
  -9  -2  -3    8.40    0.40
 -10  -2  -3    6.00    0.30
  -8   3   3   98.49    1.60
  -7   3   3   81.99    1.30
  -6   3   3  386.86    5.00
  -5   3   3   37.90    0.70
  -4   3   3  199.88    2.70
   2  -3  -3 1112.29   23.10
   1  -3  -3   81.89    1.20
   0  -3  -3   16.00    0.30
   0  -3  -3   16.00    0.30
  -1  -3  -3  889.81   11.50
  -1  -3  -3  895.31   14.10
  -1  -3  -3  856.11   21.00
  -2  -3  -3  993.90   21.80
  -2  -3  -3  981.30   20.40
  -4  -3  -3   60.49    0.90
   4   3   3   60.59    0.80
  -5  -3  -3  428.56    6.10
  -6  -3  -3   32.40    0.60
  -7  -3  -3  214.28    2.90
  -8  -3  -3   40.50    0.80
  -9  -3  -3  206.08    2.90
 -10  -3  -3    7.00    0.40
  -8   4   3  111.69    1.80
  -7   4   3   15.00    0.40
  -6   4   3  370.66    4.80
  -5   4   3   45.60    0.80
   3  -4  -3  351.26    5.00
   2  -4  -3 3242.68   62.39
   1  -4  -3  320.07    4.50
   0  -4  -3  112.99    1.50
   0  -4  -3  114.99    1.60
  -1  -4  -3  437.76    6.10
  -1  -4  -3  437.06   11.00
  -2  -4  -3 1678.73   33.50
  -3  -4  -3   60.99    0.90
  -3  -4  -3   61.79    0.90
  -4  -4  -3  126.89    1.70
  -4  -4  -3  125.29    1.60
  -5  -4  -3   12.20    0.30
  -6  -4  -3  518.35    7.00
  -7  -4  -3   36.30    0.70
  -8  -4  -3    1.20    0.20
  -9  -4  -3    0.70    0.20
  -7   5   3   27.80    0.70
  -6   5   3    2.30    0.20
   4  -5  -3   -0.10    0.10
   3  -5  -3    1.40    0.20
   2  -5  -3   36.80    0.70
  -2   5   3   38.30    0.60
   1  -5  -3  108.39    1.60
   0  -5  -3  157.98    2.10
   0  -5  -3  161.78    2.20
  -1  -5  -3    0.20    0.10
  -1  -5  -3    0.20    0.10
  -2  -5  -3   31.00    0.50
  -2  -5  -3   29.50    0.50
  -3  -5  -3  335.17    7.40
  -3  -5  -3  333.37    4.40
  -4  -5  -3    7.00    0.20
  -4  -5  -3    6.80    0.20
  -5  -5  -3   30.50    0.60
  -6  -5  -3   33.50    0.70
  -7  -5  -3   24.70    0.60
  -8  -5  -3   15.50    0.50
  -9  -5  -3   29.00    0.70
  -7   6   3    9.00    0.40
   5  -6  -3    0.60    0.20
   4  -6  -3 1380.16   32.00
   2  -6  -3  227.58    3.10
   1  -6  -3   11.20    0.40
   0  -6  -3  933.91   12.50
   0  -6  -3  944.91   12.90
  -1  -6  -3  306.47    4.00
  -1  -6  -3  310.57    8.20
  -2  -6  -3    2.10    0.20
  -2  -6  -3    1.30    0.20
  -3  -6  -3  205.88    2.60
  -3  -6  -3  196.88    2.70
  -4  -6  -3  220.18    2.80
  -4  -6  -3  217.38    2.90
  -5  -6  -3   40.20    0.70
  -6  -6  -3  513.15    7.00
  -7  -6  -3    8.60    0.30
  -8  -6  -3  403.26    5.30
  -9  -6  -3    4.10    0.30
   6  -7  -3    2.60    0.30
   5  -7  -3    0.80    0.20
   4  -7  -3    3.80    0.30
   3  -7  -3   70.19    1.20
   2  -7  -3    0.20    0.10
   1  -7  -3  219.88    3.00
   0  -7  -3  127.89    1.80
   0  -7  -3  127.99    1.80
  -1  -7  -3  309.17    4.10
  -1  -7  -3  307.37    4.00
  -2  -7  -3   36.60    0.60
  -2  -7  -3   36.40    0.70
  -3  -7  -3   22.90    0.50
  -3  -7  -3   23.00    0.50
  -4  -7  -3  122.29    1.70
  -4  -7  -3  124.69    1.80
  -5  -7  -3   15.20    0.40
  -6  -7  -3   83.59    1.30
  -7  -7  -3   37.00    0.80
  -8  -7  -3   10.20    0.40
   5  -8  -3    6.80    0.40
   4  -8  -3   14.10    0.50
   3  -8  -3  182.48    2.60
   2  -8  -3  377.46    5.00
   1  -8  -3    4.00    0.30
   0  -8  -3  272.47    3.70
   0  -8  -3  284.27    3.60
  -1  -8  -3    7.50    0.30
  -1  -8  -3    7.80    0.30
  -2  -8  -3  663.63    9.10
  -2  -8  -3  681.83    8.70
  -3  -8  -3   63.79    1.00
  -3  -8  -3   64.29    1.10
  -4  -8  -3  947.81   13.10
  -4  -8  -3  953.70   12.40
  -5  -8  -3    5.30    0.30
  -6  -8  -3  105.39    1.60
  -7  -8  -3   39.00    0.80
  -8  -8  -3   89.79    1.50
   4  -9  -3   10.00    0.50
   3  -9  -3  498.55    6.50
   2  -9  -3   55.59    1.10
   1  -9  -3  261.27    3.60
   0  -9  -3   54.29    0.90
   0  -9  -3   55.99    1.00
  -1  -9  -3  149.88    2.20
  -1  -9  -3  150.48    2.10
  -2  -9  -3  238.68    3.20
  -2  -9  -3  245.68    3.30
  -3  -9  -3  152.88    2.10
  -3  -9  -3  152.98    2.20
  -4  -9  -3   87.29    1.50
  -4  -9  -3   85.49    1.30
  -5  -9  -3   30.30    0.70
  -6  -9  -3    8.40    0.40
  -7  -9  -3   19.30    0.50
   3 -10  -3    1.50    0.20
   2 -10  -3  120.59    1.90
   1 -10  -3   17.50    0.60
   0 -10  -3  308.37    4.20
  -1 -10  -3   18.40    0.50
  -1 -10  -3   18.70    0.60
  -2 -10  -3  370.66    4.90
  -2 -10  -3  369.86    4.80
  -3 -10  -3  132.29    1.90
  -3 -10  -3  130.79    2.00
  -4 -10  -3   30.40    0.70
  -5 -10  -3  203.48    2.80
  -6 -10  -3    8.40    0.40
   1 -11  -3  109.39    1.80
   0 -11  -3   25.40    0.70
  -1 -11  -3   52.79    1.10
  -2 -11  -3    0.90    0.20
  -3 -11  -3    1.60    0.30
  -3 -11  -3    2.00    0.20
  -4 -11  -3   86.39    1.40
  -3 -10   4  147.09    2.20
  -2 -10   4    1.40    0.20
  -1 -10   4  172.08    2.50
   0 -10   4   41.00    0.90
   1 -10   4   88.69    1.50
  -5  -9   4    2.80    0.30
  -4  -9   4  300.27    4.00
  -3  -9   4    0.90    0.20
  -2  -9   4    3.10    0.30
  -1  -9   4    6.80    0.40
   0  -9   4  136.89    2.10
   1  -9   4   47.00    0.90
   2  -9   4  165.48    2.40
   3  -9   4   12.00    0.50
  -5  -8   4   39.20    0.80
  -4  -8   4    1.20    0.20
  -3  -8   4  191.08    2.70
  -2  -8   4    1.60    0.20
  -1  -8   4  450.95    6.00
   0  -8   4   15.60    0.50
   1  -8   4  226.98    3.10
  -2   8  -4    2.30    0.20
   2  -8   4    3.00    0.30
  -3   8  -4    5.40    0.30
   3  -8   4    5.50    0.30
  -4   8  -4    0.40    0.10
   4  -8   4    0.80    0.20
  -5   8  -4   74.49    1.20
   5  -8   4   75.99    1.30
  -7  -7   4    4.60    0.30
  -6  -7   4   13.20    0.40
  -6  -7   4   13.00    0.40
  -5  -7   4    3.80    0.30
  -5  -7   4    4.40    0.30
  -4  -7   4  555.04    7.50
  -3  -7   4    3.10    0.30
  -2  -7   4   91.69    1.40
  -1  -7   4    3.80    0.20
   0  -7   4  201.68    2.80
   1  -7   4    1.90    0.20
  -2   7  -4 1013.80   25.00
   2  -7   4 1029.30   13.70
  -3   7  -4   33.70    0.70
   3  -7   4   34.00    0.70
  -4   7  -4  336.07    4.40
   4  -7   4  333.17    4.40
  -5   7  -4    3.10    0.30
   5  -7   4    3.70    0.30
  -6   7  -4  152.38    2.20
  -8  -6   4   22.80    0.60
  -7  -6   4  104.69    1.60
  -6  -6   4    2.60    0.30
  -6  -6   4    2.30    0.20
  -5  -6   4  121.99    1.80
  -5  -6   4  125.69    1.80
  -4  -6   4   13.40    0.40
  -4  -6   4   12.90    0.40
  -3  -6   4  410.06   11.70
  -3  -6   4  420.46    5.40
  -2  -6   4   47.00    0.80
  -1  -6   4  608.64    8.20
   0  -6   4    6.20    0.30
  -1   6  -4  509.55   15.00
   1  -6   4  514.25    7.00
  -2   6  -4    1.70    0.20
   2  -6   4    1.80    0.20
  -3   6  -4 1313.87   17.30
   3  -6   4 1297.77   17.60
  -4   6  -4   34.40    0.70
   4  -6   4   33.40    0.70
  -5   6  -4  348.67    4.60
   5  -6   4  349.07    4.60
  -6   6  -4  134.89    2.00
  -7   6  -4   66.79    1.20
  -8  -5   4    5.40    0.40
  -7  -5   4   73.79    1.30
  -6  -5   4  169.18    2.40
  -6  -5   4  166.18    2.30
  -5  -5   4  119.89    1.70
  -5  -5   4  120.69    1.70
  -4  -5   4  273.37    3.60
  -4  -5   4  273.07    3.60
  -3  -5   4   18.80    0.40
  -3  -5   4   18.50    0.40
  -2  -5   4    5.90    0.20
  -2  -5   4    5.70    0.20
  -1  -5   4   63.39    1.00
   0  -5   4  203.78    2.70
  -1   5  -4  200.88    2.60
   1  -5   4  194.98    2.60
  -2   5  -4  478.95    6.50
   2  -5   4  474.15    6.80
  -3   5  -4   66.29    1.00
   3  -5   4   68.89    1.10
  -4   5  -4  139.59    2.00
   4  -5   4  139.39    2.00
  -5   5  -4   28.70    0.60
   5  -5   4   29.00    0.60
  -6   5  -4  146.49    2.10
  -7   5  -4    0.60    0.10
  -8  -4   4  137.99    2.10
  -7  -4   4   95.99    1.50
  -6  -4   4    8.30    0.30
  -6  -4   4    7.60    0.30
  -5  -4   4  342.27    7.40
  -5  -4   4  344.57    4.50
  -4  -4   4   46.90    0.80
  -4  -4   4   47.30    0.80
  -3  -4   4  450.45    6.10
  -3  -4   4  455.05   13.80
  -2  -4   4   70.69    1.10
  -2  -4   4   70.59    1.00
  -1  -4   4  645.34   14.10
  -1  -4   4  623.74   19.10
   0  -4   4   71.19    1.10
   0  -4   4   71.29    0.90
  -1   4  -4  887.61   11.60
   1  -4   4  840.92   23.40
  -2   4  -4   96.49    1.30
   2  -4   4   93.79    1.40
  -3   4  -4  256.47    3.70
   3  -4   4  255.47    3.40
  -4   4  -4  512.65   13.90
   4  -4   4  510.55    7.10
  -5   4  -4  210.28    2.80
   5  -4   4  209.08    2.80
  -6   4  -4   46.80    0.90
  -7   4  -4   71.79    1.20
  -8   4  -4  151.08    2.30
  -9  -3   4    0.40    0.20
  -8  -3   4   35.10    0.80
  -7  -3   4    5.50    0.30
  -6  -3   4   42.00    0.80
  -6  -3   4   41.20    0.70
  -5  -3   4  299.37    4.00
  -5  -3   4  294.57    3.90
  -4  -3   4   80.99    1.20
  -4  -3   4   83.89    1.20
  -3  -3   4 1267.17   30.20
  -3  -3   4 1293.37   16.80
  -2  -3   4   20.30    0.40
  -2  -3   4   19.80    0.40
  -1  -3   4  701.43    9.50
  -1  -3   4  717.83    9.30
   0  -3   4  132.19    1.80
  -1   3  -4  731.83    9.80
   1  -3   4  713.33    9.80
  -2   3  -4  240.48    3.30
   2  -3   4  246.68    3.60
  -3   3  -4  761.32   21.50
   3  -3   4  736.43   10.00
  -4   3  -4    0.90    0.10
   4  -3   4    1.10    0.10
  -5   3  -4  255.37    3.40
   5  -3   4  256.97    3.30
  -6   3  -4    2.70    0.20
  -7   3  -4  147.89    2.20
  -8   3  -4   72.79    1.30
  -9  -2   4    2.40    0.30
  -8  -2   4    9.40    0.40
  -7  -2   4   61.09    1.10
  -6  -2   4  313.77    5.70
  -6  -2   4  313.57    4.10
  -5  -2   4   98.19    1.50
  -5  -2   4   97.69    1.40
  -4  -2   4    1.10    0.10
  -4  -2   4    0.80    0.10
  -3  -2   4   69.09    1.00
  -2  -2   4 1236.88   19.50
  -1  -2   4   52.49    0.80
   0  -2   4  199.18    2.80
  -1   2  -4   56.69    0.80
   1  -2   4   55.59    0.80
  -2   2  -4  926.21   15.50
  -2   2  -4  970.90   24.60
   2  -2   4  934.71   12.40
  -3   2  -4  552.04    7.90
   3  -2   4  542.25    8.10
  -4   2  -4   10.50    0.30
  -4   2  -4    9.90    0.20
   4  -2   4   10.10    0.20
  -5   2  -4  190.58    2.50
  -5   2  -4  186.58    2.60
   5  -2   4  188.78    2.40
  -6   2  -4  127.09    1.80
  -7   2  -4    2.60    0.20
  -8   2  -4  102.89    1.60
  -9   2  -4   17.00    0.50
  -9  -1   4   58.39    1.10
  -8  -1   4   27.90    0.70
  -7  -1   4  220.78    3.20
  -7  -1   4  223.48    3.10
  -6  -1   4    8.20    0.30
  -6  -1   4    8.30    0.30
  -5  -1   4   93.19    1.30
  -4  -1   4   10.30    0.30
  -3  -1   4   61.49    0.90
  -2  -1   4    4.50    0.20
  -1  -1   4 1516.45   31.70
   0  -1   4    3.70    0.10
  -1   1  -4 1141.29   24.80
  -1   1  -4 1150.28   19.50
   1  -1   4 1160.48   24.60
  -2   1  -4  326.27    4.30
   2  -1   4  319.97    7.80
  -3   1  -4   57.79    0.80
  -3   1  -4   55.39    0.90
   3  -1   4   56.69    0.80
  -4   1  -4  135.29    1.80
  -4   1  -4  137.69    1.90
   4  -1   4  133.89    1.80
  -5   1  -4  159.48    2.20
  -5   1  -4  159.88    2.10
  -6   1  -4    6.90    0.20
  -6   1  -4    6.60    0.30
  -7   1  -4  192.48    2.60
  -7   1  -4  189.58    2.70
  -8   1  -4    3.70    0.30
  -9   1  -4  184.28    2.70
  -9   0   4   25.80    0.70
  -8   0   4  309.67    4.20
  -7   0   4    2.20    0.20
  -7   0   4    2.00    0.20
  -6   0   4    0.20    0.10
  -5   0   4   39.20    0.70
  -4   0   4  144.29    1.90
  -3   0   4   42.30    0.70
  -2   0   4   13.90    0.30
  -1   0   4   17.20    0.30
   0   0   4  126.59    1.70
  -1   0  -4  159.58    2.30
  -1   0  -4  162.88    2.20
   1   0   4  155.68    5.20
  -2   0  -4 3104.99   52.99
  -2   0  -4 3155.18   49.30
   2   0   4 3085.29   48.50
  -3   0  -4   47.80    0.70
  -3   0  -4   47.50    0.70
   3   0   4   48.30    0.70
  -4   0  -4 1100.69   17.80
  -4   0  -4 1103.29   14.70
   4   0   4 1096.69   18.50
  -5   0  -4   54.19    0.90
  -5   0  -4   55.69    0.80
  -6   0  -4  304.07    4.40
  -7   0  -4    0.90    0.10
  -7   0  -4    1.00    0.10
  -8   0  -4   67.59    1.10
  -8   0  -4   69.39    1.20
  -9   0  -4    9.30    0.40
  -9   0  -4    9.70    0.40
  -8   1   4    1.00    0.20
  -7   1   4   33.20    0.60
  -6   1   4    6.70    0.30
  -5   1   4    2.00    0.20
  -4   1   4  167.08    2.20
  -3   1   4    1.30    0.10
  -2   1   4    0.80    0.10
  -1   1   4   12.50    0.30
   0  -1  -4 1427.56   29.00
   0   1   4 1494.35   29.90
  -1  -1  -4   74.69    1.00
  -1  -1  -4   78.49    1.00
   1   1   4   75.39    1.00
  -2  -1  -4   48.40    0.70
  -2  -1  -4   49.60    0.70
   2   1   4   47.10    0.70
  -3  -1  -4 1032.70   24.50
  -3  -1  -4 1042.80   23.70
   3   1   4 1073.59   19.70
  -4  -1  -4  775.92   10.50
  -4  -1  -4  761.32   10.20
   4   1   4  763.22   13.90
  -5  -1  -4  932.91   26.60
  -5  -1  -4  933.11   24.60
  -6  -1  -4  201.58    2.70
  -7  -1  -4  974.70   13.20
  -8  -1  -4   52.99    0.90
  -9  -1  -4  269.17    3.60
  -8   2   4   82.79    1.40
  -7   2   4  119.99    1.70
  -6   2   4   47.10    0.80
  -5   2   4   41.70    0.70
  -4   2   4   33.40    0.60
  -3   2   4   70.39    1.10
  -2   2   4   84.59    1.20
   0  -2  -4 3297.87   56.49
   0   2   4 3313.47   56.89
  -1  -2  -4   76.09    1.10
  -1  -2  -4   78.79    1.00
   1   2   4   80.49    1.10
  -2  -2  -4 1425.26   23.90
  -2  -2  -4 1365.16   29.30
   2   2   4 1370.66   25.00
  -3  -2  -4   22.00    0.40
  -3  -2  -4   22.10    0.40
   3   2   4   22.20    0.30
  -4  -2  -4 2219.98   41.80
  -4  -2  -4 2220.68   44.50
   4   2   4 2182.08   32.00
  -5  -2  -4   29.40    0.50
  -6  -2  -4  451.95    6.10
  -7  -2  -4  177.68    2.40
  -8  -2  -4  260.37    3.50
  -9  -2  -4    0.50    0.20
  -7   3   4  128.09    1.90
  -6   3   4  121.59    1.80
  -5   3   4   12.20    0.40
  -4   3   4    1.50    0.20
  -3   3   4   32.40    0.60
  -2   3   4  276.77    7.00
  -1   3   4  454.15    9.00
   0  -3  -4   82.99    1.20
   0   3   4   83.19    1.20
  -1  -3  -4 1700.33   35.30
  -1  -3  -4 1773.62   26.40
   1   3   4 1662.13   34.30
  -2  -3  -4  423.96    8.70
  -2  -3  -4  424.16   13.80
   2   3   4  417.96    5.80
  -3  -3  -4  971.00   13.50
  -3  -3  -4  967.90   12.90
   3   3   4  966.30   15.30
  -4  -3  -4  642.04   18.80
   4   3   4  637.24    8.10
  -5  -3  -4  450.65    6.50
  -6  -3  -4  232.68    3.10
  -7  -3  -4  118.39    1.70
  -8  -3  -4  771.82   10.70
  -9  -3  -4   56.59    1.00
  -7   4   4   10.00    0.40
  -6   4   4   19.20    0.50
  -5   4   4  146.89    2.10
  -4   4   4    9.40    0.30
  -3   4   4  734.03    9.90
   1  -4  -4  160.58    2.20
   0  -4  -4    4.80    0.20
   0  -4  -4    5.20    0.20
  -1  -4  -4  234.78    3.10
  -1  -4  -4  229.78    4.20
  -2  -4  -4  475.55    6.70
  -2  -4  -4  464.05   11.90
  -2  -4  -4  476.85    9.50
  -3  -4  -4  124.79    1.70
  -4  -4  -4  564.24    7.70
   4   4   4  569.24   12.60
  -5  -4  -4    6.40    0.30
  -6  -4  -4   95.89    1.40
  -7  -4  -4  181.08    2.50
  -8  -4  -4    0.40    0.10
  -9  -4  -4   55.29    1.00
  -7   5   4   20.70    0.60
  -6   5   4   16.70    0.50
  -5   5   4   16.20    0.50
   3  -5  -4   28.60    0.60
   2  -5  -4    6.30    0.30
   1  -5  -4    1.70    0.20
   0  -5  -4  704.83   15.20
   0  -5  -4  693.83   10.90
  -1  -5  -4    7.80    0.30
  -1  -5  -4    7.60    0.20
  -2  -5  -4 1253.87   30.10
  -2  -5  -4 1153.88   23.00
  -2  -5  -4 1216.28   15.80
  -3  -5  -4   34.70    0.60
  -3  -5  -4   34.70    0.60
  -4  -5  -4   30.50    0.60
  -4  -5  -4   29.90    0.50
  -5  -5  -4   72.29    1.10
  -6  -5  -4  632.04   15.00
  -7  -5  -4   74.09    1.20
  -8  -5  -4   17.90    0.50
  -9  -5  -4   23.60    0.60
  -7   6   4  147.69    2.20
  -6   6   4    3.90    0.30
  -5   6   4  706.93    9.40
   4  -6  -4   50.19    1.00
   3  -6  -4  718.73   10.20
   2  -6  -4    1.90    0.20
   1  -6  -4  564.54   17.90
   0  -6  -4    7.00    0.30
   0  -6  -4    7.20    0.30
  -1  -6  -4   31.90    0.60
  -1  -6  -4   32.70    0.60
  -2  -6  -4   59.59    0.90
  -2  -6  -4   59.89    0.90
  -3  -6  -4  697.23    9.50
  -3  -6  -4  690.03    9.20
  -4  -6  -4    7.50    0.20
  -4  -6  -4    7.20    0.30
  -5  -6  -4  366.86    5.10
  -6  -6  -4    1.50    0.20
  -7  -6  -4    1.30    0.20
  -8  -6  -4    0.30    0.10
  -9  -6  -4   16.00    0.50
  -6   7   4    0.30    0.20
   4  -7  -4   56.09    1.10
   3  -7  -4   67.49    1.20
   2  -7  -4    4.30    0.30
   1  -7  -4   65.19    1.10
   0  -7  -4   83.99    1.30
   0  -7  -4   83.79    1.30
  -1  -7  -4  142.19    2.00
  -1  -7  -4  141.09    2.00
  -2  -7  -4    1.50    0.20
  -2  -7  -4    1.60    0.20
  -3  -7  -4   37.50    0.70
  -3  -7  -4   38.10    0.70
  -4  -7  -4  139.79    2.00
  -4  -7  -4  143.59    2.00
  -5  -7  -4   21.30    0.50
  -6  -7  -4    0.40    0.10
  -7  -7  -4   15.70    0.50
  -8  -7  -4  208.48    2.90
   5  -8  -4   86.19    1.50
   4  -8  -4    3.40    0.30
   3  -8  -4   98.29    1.60
   2  -8  -4   29.40    0.70
   1  -8  -4   82.19    1.40
   0  -8  -4   38.50    0.70
   0  -8  -4   37.10    0.80
  -1  -8  -4  235.28    3.10
  -1  -8  -4  233.48    3.20
  -2  -8  -4    0.10    0.10
  -2  -8  -4    0.30    0.10
  -3  -8  -4  112.29    1.60
  -3  -8  -4  110.29    1.60
  -4  -8  -4  338.47    4.40
  -5  -8  -4  120.49    1.80
  -6  -8  -4   11.10    0.40
  -7  -8  -4  314.27    4.20
  -8  -8  -4   25.00    0.70
   4  -9  -4   66.39    1.30
   3  -9  -4  125.59    2.00
   2  -9  -4    4.50    0.40
   1  -9  -4   50.59    1.00
   0  -9  -4    2.10    0.20
   0  -9  -4    1.90    0.20
  -1  -9  -4  227.68    3.20
  -1  -9  -4  229.48    3.10
  -2  -9  -4   40.40    0.80
  -2  -9  -4   41.70    0.80
  -3  -9  -4   57.59    1.00
  -3  -9  -4   59.19    1.00
  -4  -9  -4   79.29    1.30
  -5  -9  -4    2.20    0.20
  -6  -9  -4  163.48    2.40
  -7  -9  -4   22.60    0.60
   2 -10  -4   16.70    0.60
   1 -10  -4   11.60    0.50
   0 -10  -4    2.40    0.30
   0 -10  -4    2.60    0.30
  -1 -10  -4  155.58    2.30
  -1 -10  -4  157.38    2.20
  -2 -10  -4  107.89    1.70
  -2 -10  -4  110.69    1.60
  -3 -10  -4  357.16    4.70
  -3 -10  -4  364.66    4.80
  -4 -10  -4    8.90    0.40
  -5 -10  -4  266.87    3.60
  -6 -10  -4  200.48    2.80
   0 -11  -4   -0.20    0.20
  -1 -11  -4   46.30    1.00
  -2 -11  -4   35.40    0.70
  -2 -11  -4   34.40    0.80
  -3 -11  -4    0.20    0.10
  -3 -11  -4    0.00    0.20
  -4  -9   5   32.50    0.70
  -3  -9   5    7.60    0.40
  -2  -9   5    1.40    0.20
  -1  -9   5   84.39    1.40
   0  -9   5   23.00    0.60
   1  -9   5  301.27    4.10
   2  -9   5    1.10    0.20
  -3   9  -5  318.67    4.20
   3  -9   5  316.57    4.30
  -5  -8   5    0.10    0.10
  -4  -8   5  120.59    1.80
  -3  -8   5   28.70    0.70
  -2  -8   5  109.89    1.70
  -1  -8   5    1.00    0.20
   0  -8   5    0.60    0.20
   1  -8   5    8.50    0.40
   2  -8   5    8.40    0.40
  -3   8  -5    2.10    0.30
   3  -8   5    2.70    0.30
  -4   8  -5  273.67    3.60
   4  -8   5  268.57    3.70
  -6  -7   5    5.80    0.30
  -5  -7   5   50.09    0.90
  -4  -7   5    1.40    0.20
  -3  -7   5   32.90    0.70
  -2  -7   5    1.00    0.20
  -1  -7   5    2.00    0.20
   0  -7   5    3.00    0.20
   1  -7   5  136.79    2.00
  -2   7  -5   22.60    0.50
   2  -7   5   22.70    0.60
  -3   7  -5  250.77    3.40
   3  -7   5  250.97    3.40
  -4   7  -5   16.10    0.50
   4  -7   5   15.80    0.50
  -5   7  -5  185.08    2.60
   5  -7   5  181.48    2.60
  -7  -6   5   35.50    0.80
  -6  -6   5  184.28    2.60
  -6  -6   5  182.68    2.60
  -5  -6   5    9.90    0.40
  -5  -6   5    9.80    0.40
  -4  -6   5    6.60    0.30
  -3  -6   5  224.68    3.00
  -2  -6   5   70.09    1.10
  -1  -6   5   47.70    0.80
   0  -6   5   74.99    1.20
   1  -6   5    1.90    0.20
  -2   6  -5    5.60    0.30
   2  -6   5    6.20    0.30
  -3   6  -5   31.70    0.60
   3  -6   5   31.00    0.60
  -4   6  -5   92.09    1.40
   4  -6   5   92.99    1.40
  -5   6  -5   49.70    0.90
   5  -6   5   48.40    0.90
  -6   6  -5  437.96    5.70
  -7  -5   5   17.50    0.50
  -6  -5   5    2.00    0.20
  -6  -5   5    2.30    0.30
  -5  -5   5   40.20    0.80
  -5  -5   5   39.50    0.70
  -4  -5   5  235.98    3.10
  -4  -5   5  234.08    3.10
  -3  -5   5  343.17    4.40
  -3  -5   5  342.97    4.70
  -2  -5   5   33.10    0.60
  -1  -5   5    4.10    0.20
   0  -5   5  134.29    1.90
  -1   5  -5   36.70    0.70
   1  -5   5   36.90    0.70
  -2   5  -5  423.26    5.60
   2  -5   5  411.36    5.60
  -3   5  -5  293.87    3.80
   3  -5   5  293.07    3.80
  -4   5  -5    5.70    0.30
   4  -5   5    5.40    0.30
  -5   5  -5  302.07    4.00
   5  -5   5  302.97    4.00
  -6   5  -5    1.40    0.20
  -7   5  -5  280.37    3.80
  -8  -4   5  216.08    3.10
  -7  -4   5   32.80    0.70
  -6  -4   5  150.08    2.10
  -6  -4   5  152.18    2.20
  -5  -4   5  231.88    3.10
  -5  -4   5  228.28    3.10
  -4  -4   5  622.04   16.40
  -4  -4   5  625.84    8.50
  -3  -4   5   96.79    1.40
  -3  -4   5   94.19    1.40
  -2  -4   5    2.40    0.20
  -2  -4   5    2.40    0.20
  -1  -4   5  306.27    7.40
  -1  -4   5  307.37    4.40
   0  -4   5   96.99    1.40
  -1   4  -5   75.29    1.10
   1  -4   5   71.79    1.10
  -2   4  -5   75.69    1.10
   2  -4   5   74.09    1.10
  -3   4  -5   44.80    0.80
   3  -4   5   44.70    0.80
  -4   4  -5  559.34    7.90
   4  -4   5  561.24    7.40
  -5   4  -5   83.09    1.30
   5  -4   5   83.39    1.20
  -6   4  -5   60.09    1.10
  -7   4  -5  183.48    2.60
  -8   4  -5   39.30    0.90
  -8  -3   5   47.90    1.00
  -7  -3   5   16.00    0.50
  -6  -3   5  266.67    3.60
  -6  -3   5  264.47    3.50
  -5  -3   5   10.00    0.40
  -5  -3   5   10.10    0.30
  -4  -3   5   21.50    0.50
  -4  -3   5   21.70    0.50
  -3  -3   5   57.39    0.90
  -3  -3   5   56.49    0.90
  -2  -3   5   26.20    0.50
  -1  -3   5    8.30    0.30
   0  -3   5 1429.06   33.80
  -1   3  -5   30.60    0.60
   1  -3   5   30.90    0.50
  -2   3  -5    8.40    0.30
   2  -3   5    8.00    0.20
  -3   3  -5   11.40    0.30
   3  -3   5   11.70    0.30
  -4   3  -5  648.84   10.80
   4  -3   5  628.34   16.90
  -5   3  -5   73.29    1.20
   5  -3   5   74.69    1.10
  -6   3  -5   60.39    1.00
  -7   3  -5  182.08    2.60
  -8   3  -5   84.59    1.40
  -8  -2   5   37.00    0.80
  -7  -2   5  211.68    2.80
  -7  -2   5  210.98    3.00
  -6  -2   5  239.08    3.30
  -6  -2   5  241.48    3.20
  -5  -2   5    1.90    0.20
  -5  -2   5    1.70    0.20
  -4  -2   5  248.88    5.30
  -3  -2   5  146.59    2.00
  -2  -2   5  353.96    4.90
  -1  -2   5   74.39    1.10
   0  -2   5  523.85    7.10
  -1   2  -5    0.70    0.10
   1  -2   5    1.10    0.10
  -2   2  -5  357.16    7.40
  -2   2  -5  361.16    5.00
   2  -2   5  347.97    5.00
  -3   2  -5  925.01   12.40
  -3   2  -5  904.31   17.70
   3  -2   5  894.51   22.30
  -4   2  -5   17.00    0.40
   4  -2   5   17.30    0.40
  -5   2  -5  470.75    6.80
  -6   2  -5    5.40    0.30
  -7   2  -5   37.40    0.80
  -8   2  -5    0.80    0.20
  -9   2  -5  135.09    2.10
  -8  -1   5    4.70    0.30
  -7  -1   5   25.30    0.60
  -7  -1   5   25.20    0.50
  -6  -1   5  125.69    1.80
  -6  -1   5  123.99    1.80
  -5  -1   5   18.00    0.40
  -4  -1   5  322.47    4.10
  -3  -1   5   12.60    0.30
  -2  -1   5 2394.86   47.40
  -1  -1   5    1.60    0.10
   0  -1   5    6.30    0.20
  -1   1  -5  248.18    3.70
   1  -1   5  245.58    3.40
  -2   1  -5 1948.11   31.60
  -2   1  -5 2004.80   40.10
   2  -1   5 1976.90   37.30
  -3   1  -5  262.77    7.40
  -3   1  -5  264.57    3.80
   3  -1   5  259.77    3.50
  -4   1  -5   36.50    0.60
   4  -1   5   36.20    0.60
  -5   1  -5   14.60    0.30
  -6   1  -5 1047.70   14.50
  -6   1  -5 1065.29   14.00
  -7   1  -5    1.30    0.20
  -8   1  -5  436.16    5.70
  -9   1  -5    3.40    0.30
  -8   0   5   34.00    0.80
  -7   0   5  119.49    1.70
  -7   0   5  116.59    1.80
  -6   0   5   47.80    0.80
  -5   0   5  298.27    3.90
  -4   0   5   49.99    0.80
  -3   0   5    0.20    0.10
  -2   0   5   35.90    0.60
  -1   0   5  126.09    1.70
   0   0   5  296.37    4.20
  -1   0  -5  913.91   12.00
  -1   0  -5  954.60   12.10
   1   0   5  894.31   22.20
  -2   0  -5   35.10    0.60
  -2   0  -5   34.80    0.50
   2   0   5   35.30    0.50
  -3   0  -5   32.90    0.50
  -3   0  -5   33.40    0.60
   3   0   5   33.40    0.50
  -4   0  -5   38.20    0.60
  -4   0  -5   36.80    0.60
   4   0   5   38.50    0.60
  -5   0  -5   24.00    0.40
  -5   0  -5   23.90    0.50
  -6   0  -5   48.30    0.80
  -6   0  -5   48.00    0.90
  -7   0  -5   90.29    1.30
  -7   0  -5   92.19    1.40
  -8   0  -5    2.50    0.20
  -8   0  -5    2.70    0.30
  -9   0  -5    9.60    0.40
  -8   1   5  594.04    7.70
  -7   1   5    0.40    0.10
  -6   1   5  293.67    3.90
  -5   1   5  165.38    2.30
  -4   1   5  254.37    3.30
  -3   1   5   69.39    1.10
  -2   1   5    7.60    0.20
   0   1   5  382.06    5.40
  -1  -1  -5   37.70    0.60
  -1  -1  -5   38.80    0.60
   1   1   5   38.50    0.60
  -2  -1  -5  209.58    3.10
  -2  -1  -5  209.38    2.90
   2   1   5  207.18    3.00
  -3  -1  -5  299.47    4.30
  -3  -1  -5  304.77    8.50
   3   1   5  301.77    7.70
  -4  -1  -5  245.38    3.60
  -4  -1  -5  247.28    4.80
   4   1   5  243.68    6.00
  -5  -1  -5  242.08    3.30
  -5  -1  -5  236.18    3.10
  -6  -1  -5  361.96    5.00
  -6  -1  -5  348.67    4.60
  -7  -1  -5  320.47    4.20
  -7  -1  -5  316.37    4.10
  -8  -1  -5  106.09    1.60
  -8  -1  -5  104.09    1.60
  -9  -1  -5   38.00    0.80
  -9  -1  -5   40.10    0.80
  -7   2   5  297.27    3.90
  -6   2   5    0.90    0.20
  -5   2   5  210.38    2.80
  -4   2   5   24.20    0.50
  -3   2   5   21.60    0.50
  -2   2   5   49.00    0.80
  -1   2   5  314.07   10.30
   0  -2  -5 1350.56   17.50
   0   2   5 1343.67   31.00
  -1  -2  -5  276.87    4.10
  -1  -2  -5  274.77    3.80
   1   2   5  276.17    3.90
  -2  -2  -5   76.89    1.00
  -2  -2  -5   75.29    1.10
   2   2   5   74.99    1.00
  -3  -2  -5  305.87    5.90
  -3  -2  -5  306.77    8.40
   3   2   5  306.97    4.10
  -4  -2  -5   42.80    0.70
  -4  -2  -5   42.70    0.70
   4   2   5   42.90    0.60
  -5  -2  -5  146.89    2.00
  -5  -2  -5  150.48    2.00
  -6  -2  -5   35.20    0.60
  -6  -2  -5   34.50    0.70
  -7  -2  -5   29.00    0.60
  -7  -2  -5   29.60    0.60
  -8  -2  -5   52.19    1.00
  -8  -2  -5   51.59    0.90
  -9  -2  -5  187.88    2.70
  -9  -2  -5  193.58    2.70
  -7   3   5  386.36    5.10
  -6   3   5   27.90    0.60
  -5   3   5   80.19    1.30
  -4   3   5   10.10    0.30
  -3   3   5  111.99    1.60
  -2   3   5    0.10    0.10
  -1   3   5  591.74    8.30
   0  -3  -5  186.88    2.40
   0   3   5  179.08    2.40
  -1  -3  -5  522.95    7.30
  -1  -3  -5  524.65    6.80
   1   3   5  519.45    7.10
  -2  -3  -5  157.98    2.00
  -2  -3  -5  154.88    2.10
   2   3   5  155.88    2.00
  -3  -3  -5  719.53    9.20
  -3  -3  -5  670.73    9.30
   3   3   5  675.53   16.60
  -4  -3  -5   17.50    0.40
  -4  -3  -5   16.80    0.40
   4   3   5   17.20    0.30
  -5  -3  -5  561.24    7.90
  -5  -3  -5  539.05   16.40
  -6  -3  -5  308.67    6.30
  -7  -3  -5   52.59    0.90
  -8  -3  -5  732.93   10.20
  -9  -3  -5   59.39    1.10
  -7   4   5   12.90    0.40
  -6   4   5  217.28    3.00
  -5   4   5   34.30    0.70
  -4   4   5  101.39    1.50
  -3   4   5    0.90    0.10
  -2   4   5  929.61   12.70
  -1   4   5   10.30    0.30
   0  -4  -5  394.96   11.60
   0   4   5  400.66   12.30
  -1  -4  -5    4.50    0.20
   1   4   5    4.80    0.20
  -2  -4  -5  284.27    4.00
  -2  -4  -5  283.37    3.70
   2   4   5  276.37    3.90
  -3  -4  -5   40.40    0.60
  -3  -4  -5   39.20    0.70
   3   4   5   39.30    0.60
  -4  -4  -5    0.60    0.10
  -4  -4  -5    0.50    0.10
   4   4   5    0.60    0.10
  -5  -4  -5  158.28    2.20
  -6  -4  -5   33.00    0.70
  -7  -4  -5  208.58    2.80
  -8  -4  -5    6.80    0.30
  -9  -4  -5   69.99    1.20
  -7   5   5    1.60    0.20
  -6   5   5   53.09    1.00
  -5   5   5   34.20    0.70
  -4   5   5   47.80    0.90
  -3   5   5  220.28    3.00
  -2   5   5   35.90    0.70
   0  -5  -5   20.70    0.50
  -1  -5  -5  480.55    6.90
  -2  -5  -5   23.40    0.50
  -3  -5  -5  166.88    2.30
   3   5   5  169.98    2.20
  -4  -5  -5    2.60    0.20
  -4  -5  -5    2.60    0.20
  -5  -5  -5  231.78    3.10
  -6  -5  -5    6.00    0.30
  -7  -5  -5  635.94    8.30
  -8  -5  -5   74.99    1.30
  -9  -5  -5  110.19    1.70
  -6   6   5   32.30    0.80
  -5   6   5   11.50    0.40
  -4   6   5  278.67    3.80
   2  -6  -5    1.40    0.20
   1  -6  -5    9.80    0.40
   0  -6  -5  424.16    6.00
   0  -6  -5  433.26    5.90
  -1  -6  -5    0.10    0.10
  -1  -6  -5    0.00    0.10
  -2  -6  -5   53.79    0.90
  -2  -6  -5   54.39    0.90
  -3  -6  -5   14.50    0.40
  -3  -6  -5   14.50    0.40
  -4  -6  -5    0.30    0.10
  -5  -6  -5    2.30    0.20
  -6  -6  -5  176.58    2.50
  -7  -6  -5    0.00    0.10
  -8  -6  -5    4.30    0.30
  -5   7   5    7.20    0.40
   3  -7  -5    5.40    0.30
   2  -7  -5   68.69    1.20
   1  -7  -5  402.56    5.30
   0  -7  -5   45.00    0.90
   0  -7  -5   46.80    0.80
  -1  -7  -5  281.57    3.70
  -1  -7  -5  283.77    3.70
  -2  -7  -5   17.00    0.40
  -2  -7  -5   17.00    0.40
  -3  -7  -5  358.46    4.70
  -3  -7  -5  364.46    4.70
  -4  -7  -5   12.20    0.40
  -5  -7  -5  319.87    4.20
  -6  -7  -5   10.70    0.40
  -7  -7  -5   65.99    1.10
  -8  -7  -5   14.70    0.50
   3  -8  -5   19.00    0.60
   2  -8  -5  259.77    3.60
   1  -8  -5    0.00    0.10
   0  -8  -5   33.40    0.70
   0  -8  -5   34.20    0.70
  -1  -8  -5    5.60    0.30
  -1  -8  -5    6.00    0.30
  -2  -8  -5   82.69    1.30
  -2  -8  -5   83.69    1.30
  -3  -8  -5   20.40    0.50
  -3  -8  -5   21.60    0.50
  -4  -8  -5  385.66    5.00
  -5  -8  -5   80.89    1.30
  -6  -8  -5    1.10    0.20
  -7  -8  -5   82.49    1.40
   3  -9  -5  121.89    2.00
   2  -9  -5   20.80    0.60
   1  -9  -5    0.90    0.20
   0  -9  -5    8.90    0.40
   0  -9  -5    8.90    0.40
  -1  -9  -5    2.20    0.20
  -1  -9  -5    2.60    0.30
  -2  -9  -5   40.70    0.80
  -2  -9  -5   41.20    0.80
  -3  -9  -5    2.70    0.30
  -3  -9  -5    2.80    0.30
  -4  -9  -5    0.40    0.10
  -5  -9  -5    0.50    0.20
  -6  -9  -5    0.80    0.20
   2 -10  -5   11.70    0.50
   1 -10  -5    6.60    0.40
   0 -10  -5   44.50    0.90
  -1 -10  -5    7.90    0.40
  -1 -10  -5    7.70    0.40
  -2 -10  -5    0.90    0.20
  -2 -10  -5    1.40    0.20
  -3 -10  -5  254.97    3.50
  -3 -10  -5  251.87    3.40
  -4 -10  -5    6.90    0.40
  -5 -10  -5  315.87    4.20
  -2 -11  -5   26.80    0.60
  -2 -11  -5   25.60    0.70
  -2  -9   6    2.50    0.30
  -1  -9   6   32.60    0.80
   0  -9   6  126.49    2.00
   1  -9   6   53.99    1.10
  -4  -8   6    6.50    0.40
  -3  -8   6   49.80    1.00
  -2  -8   6    0.60    0.20
  -1  -8   6  121.89    1.90
   0  -8   6    0.10    0.10
   1  -8   6   17.90    0.50
   2  -8   6    0.40    0.20
  -3   8  -6   15.80    0.50
   3  -8   6   15.70    0.50
  -5  -7   6   38.60    0.80
  -4  -7   6    4.70    0.30
  -3  -7   6    1.80    0.20
  -2  -7   6  321.07    4.30
  -1  -7   6    8.10    0.40
   0  -7   6  242.28    3.30
   1  -7   6    9.50    0.40
   2  -7   6  310.27    4.10
  -3   7  -6    4.50    0.30
   3  -7   6    5.30    0.30
  -4   7  -6  281.67    3.80
   4  -7   6  284.37    3.80
  -5   7  -6    2.10    0.30
   5  -7   6    2.70    0.30
  -6  -6   6   31.80    0.90
  -6  -6   6   31.70    0.70
  -5  -6   6  519.35    6.70
  -4  -6   6    4.20    0.30
  -3  -6   6  793.52   10.80
  -2  -6   6   66.19    1.10
  -1  -6   6    5.90    0.30
   0  -6   6    3.00    0.20
   1  -6   6   69.29    1.10
  -2   6  -6    3.60    0.30
   2  -6   6    3.30    0.30
  -3   6  -6    0.10    0.10
   3  -6   6    0.20    0.10
  -4   6  -6    4.30    0.30
   4  -6   6    4.30    0.30
  -5   6  -6    1.80    0.20
   5  -6   6    2.00    0.20
  -6   6  -6  106.09    1.70
  -7  -5   6   36.40    0.80
  -6  -5   6   71.79    1.20
  -6  -5   6   72.19    1.20
  -5  -5   6    9.30    0.40
  -5  -5   6    9.20    0.40
  -4  -5   6  458.35    6.10
  -4  -5   6  468.35    5.90
  -3  -5   6    1.50    0.20
  -2  -5   6  489.45    6.80
  -1  -5   6  101.79    1.50
   0  -5   6  173.88    2.40
   1  -5   6  332.37    6.90
  -2   5  -6  162.68    2.30
   2  -5   6  165.18    2.30
  -3   5  -6  248.18    3.30
   3  -5   6  245.68    3.30
  -4   5  -6   64.39    1.10
   4  -5   6   66.19    1.10
  -5   5  -6   19.50    0.50
   5  -5   6   19.00    0.50
  -6   5  -6  134.69    2.00
  -7   5  -6    0.10    0.10
  -7  -4   6  184.78    3.00
  -7  -4   6  188.58    2.70
  -6  -4   6    5.80    0.30
  -6  -4   6    6.30    0.30
  -5  -4   6  263.67    3.50
  -5  -4   6  260.77    3.50
  -4  -4   6  846.82   20.10
  -4  -4   6  869.71   18.30
  -3  -4   6   15.40    0.40
  -3  -4   6   15.70    0.40
  -2  -4   6   87.39    1.30
  -2  -4   6   86.79    1.20
  -1  -4   6   66.19    1.00
   0  -4   6   41.70    0.70
  -1   4  -6    3.60    0.20
   1  -4   6    3.90    0.20
  -2   4  -6   95.69    1.40
   2  -4   6   96.09    1.40
  -3   4  -6  158.68    2.20
   3  -4   6  164.28    2.20
  -4   4  -6  568.24    8.00
   4  -4   6  570.04    7.70
  -5   4  -6   99.89    1.50
  -6   4  -6  331.07    4.40
  -7   4  -6    0.60    0.20
  -7  -3   6    2.00    0.20
  -7  -3   6    2.00    0.20
  -6  -3   6    0.20    0.10
  -6  -3   6    0.30    0.20
  -5  -3   6   79.19    1.30
  -5  -3   6   82.39    1.30
  -4  -3   6    7.70    0.30
  -4  -3   6    7.90    0.30
  -3  -3   6  134.39    1.90
  -1  -3   6  457.65    6.50
   0  -3   6   86.29    1.30
  -1   3  -6  629.54    8.80
   1  -3   6  622.14   18.40
  -2   3  -6    5.50    0.20
   2  -3   6    5.40    0.20
  -3   3  -6   32.80    0.60
   3  -3   6   34.60    0.60
   4  -3   6  244.18    3.20
  -5   3  -6    0.40    0.10
  -6   3  -6   44.00    0.80
  -7   3  -6   65.19    1.20
  -8   3  -6   65.79    1.20
  -8  -2   6   81.39    1.40
  -7  -2   6   56.79    1.10
  -7  -2   6   56.39    1.00
  -6  -2   6  586.04   12.40
  -6  -2   6  601.04    7.60
  -5  -2   6   53.99    0.90
  -4  -2   6   22.40    0.50
  -3  -2   6  113.79    1.60
  -2  -2   6  196.58    2.60
  -1  -2   6   74.59    1.10
   0  -2   6  656.53    9.10
  -1   2  -6  193.48    2.70
   1  -2   6  193.78    2.60
  -2   2  -6   22.90    0.50
   2  -2   6   23.30    0.40
  -3   2  -6    6.50    0.20
   3  -2   6    6.60    0.20
  -4   2  -6  361.56    5.10
   4  -2   6  364.06    4.80
  -5   2  -6   21.60    0.50
  -6   2  -6   47.00    0.90
  -7   2  -6   18.70    0.50
  -8   2  -6  172.28    2.50
  -8  -1   6   25.30    0.70
  -7  -1   6  284.07    3.80
  -7  -1   6  282.27    3.90
  -6  -1   6   95.99    1.40
  -5  -1   6   43.80    0.80
  -4  -1   6   21.40    0.50
  -3  -1   6  177.48    2.40
  -2  -1   6   31.70    0.60
  -1  -1   6  107.69    1.50
   0  -1   6   17.90    0.40
  -1   1  -6   30.50    0.50
   1  -1   6   30.60    0.50
  -2   1  -6   29.70    0.50
  -2   1  -6   30.90    0.50
   2  -1   6   29.10    0.50
  -3   1  -6  171.88    2.30
  -3   1  -6  173.58    3.10
   3  -1   6  170.88    2.20
  -4   1  -6   83.89    1.30
  -4   1  -6   87.69    1.20
   4  -1   6   85.59    1.20
  -5   1  -6  144.59    2.00
  -6   1  -6   41.40    0.80
  -7   1  -6    6.50    0.30
  -8   1  -6    0.60    0.20
  -9   1  -6  160.88    2.40
  -8   0   6   79.89    1.40
  -7   0   6    0.50    0.10
  -6   0   6   44.10    0.80
  -5   0   6    2.00    0.20
  -4   0   6  240.78    3.20
  -3   0   6    0.00    0.10
  -2   0   6  350.16    5.00
  -1   0   6   29.40    0.50
   0   0   6   95.19    1.30
  -1   0  -6   43.40    0.70
   1   0   6   43.80    0.70
  -2   0  -6 1255.07   16.10
  -2   0  -6 1186.88   25.90
   2   0   6 1255.67   21.30
  -3   0  -6   53.39    0.80
  -3   0  -6   51.29    0.80
   3   0   6   52.39    0.80
  -4   0  -6   68.49    1.00
  -4   0  -6   66.59    1.00
   4   0   6   66.09    0.90
  -5   0  -6   23.80    0.50
  -5   0  -6   24.30    0.40
  -6   0  -6  313.67    4.20
  -6   0  -6  320.17    4.20
  -7   0  -6    9.50    0.40
  -8   0  -6   37.60    0.80
  -9   0  -6    0.50    0.20
  -8   1   6  109.19    1.80
  -7   1   6    1.70    0.20
  -6   1   6  106.49    1.60
  -5   1   6  463.85    6.40
  -4   1   6  249.88    3.30
  -3   1   6 1010.90   13.50
  -2   1   6   19.90    0.40
  -1   1   6 1009.60   13.60
   0   1   6   94.19    1.30
  -1  -1  -6  201.78    2.80
  -1  -1  -6  197.98    2.90
   1   1   6  200.28    2.80
  -2  -1  -6   18.50    0.40
  -2  -1  -6   17.80    0.40
   2   1   6   17.50    0.30
  -3  -1  -6   23.20    0.40
  -3  -1  -6   22.90    0.40
   3   1   6   23.20    0.40
  -4  -1  -6   16.80    0.40
  -4  -1  -6   16.90    0.40
   4   1   6   16.40    0.30
  -5  -1  -6  140.59    1.90
  -5  -1  -6  138.69    1.90
  -6  -1  -6   22.50    0.50
  -6  -1  -6   22.30    0.50
  -7  -1  -6  448.86    5.90
  -7  -1  -6  444.56    6.20
  -8  -1  -6    0.40    0.10
  -8  -1  -6    0.20    0.10
  -9  -1  -6   15.00    0.50
  -7   2   6   -0.10    0.10
  -6   2   6  241.38    3.30
  -5   2   6   32.20    0.70
  -4   2   6  384.36    5.00
  -3   2   6   60.09    1.00
  -2   2   6  185.58    2.50
  -1   2   6   54.39    0.90
   0   2   6 2137.99   40.10
  -1  -2  -6    3.70    0.20
  -1  -2  -6    3.60    0.20
   1   2   6    3.50    0.20
  -2  -2  -6   75.29    1.00
  -2  -2  -6   74.69    1.10
   2   2   6   73.79    1.10
  -3  -2  -6  113.99    1.60
  -3  -2  -6  115.69    1.60
   3   2   6  114.79    1.50
  -4  -2  -6    0.10    0.10
  -4  -2  -6    0.10    0.10
   4   2   6    0.20    0.10
  -5  -2  -6    6.10    0.20
  -5  -2  -6    6.00    0.30
  -6  -2  -6   82.69    1.30
  -6  -2  -6   81.99    1.20
  -7  -2  -6   14.90    0.40
  -7  -2  -6   14.40    0.40
  -8  -2  -6    0.00    0.10
  -8  -2  -6    0.00    0.10
  -9  -2  -6   42.40    0.90
  -9  -2  -6   43.00    0.80
  -7   3   6  217.28    3.00
  -6   3   6   33.10    0.70
  -5   3   6  253.27    3.40
  -4   3   6   77.89    1.20
  -3   3   6  552.94    7.50
  -2   3   6   59.19    1.00
  -1   3   6  332.57    4.40
   0  -3  -6  163.48    2.20
   0   3   6  160.28    2.20
  -2  -3  -6    2.50    0.10
  -2  -3  -6    2.70    0.20
   2   3   6    2.40    0.20
  -3  -3  -6   12.50    0.30
  -3  -3  -6   12.50    0.30
   3   3   6   12.70    0.30
  -4  -3  -6  487.65    6.50
  -4  -3  -6  484.35    6.90
  -5  -3  -6    6.40    0.30
  -5  -3  -6    7.30    0.30
  -6  -3  -6  220.78    3.00
  -6  -3  -6  221.28    2.90
  -7  -3  -6   37.30    0.70
  -7  -3  -6   35.10    0.70
  -8  -3  -6  650.13    8.90
  -8  -3  -6  666.23    8.90
  -9  -3  -6    2.30    0.30
  -9  -3  -6    2.30    0.30
  -7   4   6   67.59    1.20
  -6   4   6   99.99    1.60
  -5   4   6    7.00    0.30
  -4   4   6  192.58    2.70
  -3   4   6   51.99    0.90
  -1   4   6  340.17    4.70
   0  -4  -6   42.70    0.70
   0   4   6   43.00    0.70
  -1  -4  -6 1132.39   15.30
   1   4   6 1151.48   24.50
  -2  -4  -6   40.30    0.60
  -2  -4  -6   41.10    0.70
   2   4   6   40.60    0.70
  -3  -4  -6   72.89    1.00
  -3  -4  -6   71.49    1.10
   3   4   6   71.09    1.00
  -4  -4  -6    0.50    0.10
  -4  -4  -6    0.60    0.10
  -5  -4  -6   50.49    0.80
  -5  -4  -6   50.79    0.90
  -6  -4  -6   18.10    0.40
  -6  -4  -6   18.30    0.50
  -7  -4  -6   22.90    0.60
  -7  -4  -6   24.70    0.60
  -8  -4  -6    0.60    0.20
  -8  -4  -6    0.60    0.20
  -9  -4  -6  122.39    1.90
  -9  -4  -6  120.49    1.90
  -6   5   6  139.79    2.10
  -5   5   6   30.20    0.70
  -4   5   6    5.10    0.30
  -3   5   6   65.59    1.10
  -2   5   6  361.96    4.90
  -1   5   6   75.69    1.20
   0  -5  -6   22.50    0.50
   0   5   6   22.70    0.50
  -1  -5  -6    3.80    0.20
   1   5   6    4.10    0.20
  -2  -5  -6  870.81   12.20
   2   5   6  894.61   12.40
  -3  -5  -6   77.49    1.20
   3   5   6   78.39    1.10
  -4  -5  -6  356.66   11.00
  -5  -5  -6   85.59    1.30
  -6  -5  -6  444.06    6.20
  -6  -5  -6  427.86    6.20
  -7  -5  -6    4.20    0.30
  -7  -5  -6    4.30    0.30
  -8  -5  -6    0.50    0.10
  -8  -5  -6    0.80    0.20
  -9  -5  -6    4.80    0.30
  -9  -5  -6    4.60    0.30
  -6   6   6    1.70    0.20
  -5   6   6  216.08    3.10
  -4   6   6   10.00    0.40
  -3   6   6  256.87    3.50
  -2   6   6   15.00    0.40
  -1   6   6   23.10    0.50
   0  -6  -6   17.10    0.40
   0   6   6   17.10    0.50
  -1  -6  -6    2.90    0.20
   1   6   6    2.40    0.20
  -2  -6  -6   37.30    0.70
   2   6   6   36.30    0.70
  -3  -6  -6  150.18    2.10
   3   6   6  154.98    2.10
  -4  -6  -6   79.39    1.20
  -5  -6  -6   28.00    0.60
  -6  -6  -6    4.60    0.30
  -7  -6  -6   10.50    0.40
  -8  -6  -6    3.90    0.30
  -5   7   6    5.90    0.40
  -4   7   6  108.79    1.70
  -3   7   6   50.99    1.00
  -2   7   6   29.90    0.70
   0  -7  -6  313.27    4.10
  -1  -7  -6    1.10    0.20
  -1  -7  -6    0.70    0.10
  -2  -7  -6   24.10    0.50
  -3  -7  -6   66.39    1.10
  -4  -7  -6   74.29    1.20
  -5  -7  -6   41.80    0.80
  -6  -7  -6  288.47    3.90
  -7  -7  -6    9.70    0.40
  -8  -7  -6  267.97    3.70
  -4   8   6  198.78    2.90
  -3   8   6    0.20    0.20
   1  -8  -6   83.09    1.40
   0  -8  -6    1.10    0.20
   0  -8  -6    0.80    0.20
  -1  -8  -6  152.38    2.20
  -1  -8  -6  146.59    2.20
  -2  -8  -6    9.70    0.40
  -2  -8  -6    9.60    0.40
  -3  -8  -6   59.89    1.00
  -3  -8  -6   58.39    1.00
  -4  -8  -6  137.79    2.00
  -5  -8  -6   35.70    0.80
  -6  -8  -6   19.90    0.60
  -7  -8  -6   26.00    0.70
   2  -9  -6  108.19    1.80
   1  -9  -6   12.70    0.50
   0  -9  -6   89.99    1.50
  -1  -9  -6   16.90    0.50
  -1  -9  -6   16.40    0.50
  -2  -9  -6  117.69    1.80
  -2  -9  -6  117.19    1.80
  -3  -9  -6   46.80    0.90
  -3  -9  -6   46.00    0.90
  -4  -9  -6  225.68    3.10
  -5  -9  -6   14.30    0.50
  -6  -9  -6   60.69    1.10
   1 -10  -6  203.58    3.00
   0 -10  -6   21.20    0.60
  -1 -10  -6  107.79    1.80
  -1 -10  -6  109.09    1.70
  -2 -10  -6  167.38    2.50
  -2 -10  -6  166.48    2.40
  -3 -10  -6   52.09    1.00
  -4 -10  -6    1.10    0.20
  -3  -8   7    7.80    0.40
  -2  -8   7   53.19    1.00
  -1  -8   7   48.80    1.00
   0  -8   7   61.89    1.10
   1  -8   7    9.50    0.40
   2  -8   7    1.10    0.20
  -4  -7   7    1.20    0.20
  -3  -7   7   56.79    1.10
  -2  -7   7   12.60    0.40
  -1  -7   7  267.47    3.60
   0  -7   7   10.20    0.40
   1  -7   7  369.86    4.90
   2  -7   7    7.60    0.40
  -3   7  -7    4.60    0.30
   3  -7   7    5.20    0.30
  -4   7  -7   25.50    0.60
   4  -7   7   24.40    0.60
  -5  -6   7   15.40    0.50
  -4  -6   7    2.40    0.30
  -3  -6   7  136.09    2.00
  -2  -6   7  253.67    3.40
  -1  -6   7    5.30    0.30
   0  -6   7  116.99    1.80
   1  -6   7    0.80    0.20
  -2   6  -7  292.07    3.90
   2  -6   7  292.67    3.90
  -3   6  -7   30.00    0.70
   3  -6   7   29.70    0.70
  -4   6  -7   76.49    1.30
   4  -6   7   78.29    1.30
  -5   6  -7    7.50    0.40
  -6  -5   7    6.10    0.30
  -6  -5   7    6.00    0.40
  -5  -5   7   12.80    0.40
  -4  -5   7    2.30    0.30
  -3  -5   7  151.98    2.20
  -2  -5   7   69.49    1.10
  -1  -5   7  519.45   11.00
   0  -5   7  120.59    1.80
   1  -5   7  490.65   12.20
  -2   5  -7  192.38    2.70
   2  -5   7  196.78    2.70
  -3   5  -7  652.33    9.10
   3  -5   7  650.33    8.50
  -4   5  -7   45.90    0.90
   4  -5   7   47.80    0.90
  -5   5  -7  102.79    1.60
  -6   5  -7  114.69    1.80
  -6  -4   7    0.90    0.20
  -6  -4   7    0.90    0.20
  -5  -4   7  156.98    2.20
  -5  -4   7  152.88    2.20
  -4  -4   7  251.57    3.40
  -4  -4   7  246.68    3.30
  -3  -4   7    0.90    0.20
  -3  -4   7    1.20    0.20
  -2  -4   7   90.79    1.40
  -1  -4   7    0.80    0.10
   0  -4   7  137.89    2.00
   1  -4   7    0.10    0.10
  -2   4  -7  138.79    2.00
   2  -4   7  141.49    2.00
  -3   4  -7   37.60    0.70
   3  -4   7   38.60    0.70
  -4   4  -7   23.10    0.50
   4  -4   7   23.00    0.50
  -5   4  -7  198.58    2.80
  -6   4  -7    7.10    0.30
  -7   4  -7   87.29    1.50
  -7  -3   7    1.20    0.20
  -7  -3   7    1.10    0.20
  -6  -3   7    9.30    0.40
  -6  -3   7    9.10    0.40
  -5  -3   7   20.80    0.50
  -5  -3   7   20.30    0.50
  -4  -3   7   13.20    0.40
  -3  -3   7  163.28    2.30
  -2  -3   7    1.80    0.20
  -1  -3   7  230.38    3.10
   0  -3   7  523.95   15.50
   1  -3   7  230.08    3.00
  -2   3  -7   41.30    0.70
   2  -3   7   41.40    0.70
  -3   3  -7  115.99    1.70
   3  -3   7  115.29    1.60
  -4   3  -7  589.84    8.30
   4  -3   7  592.14   12.20
  -5   3  -7   56.89    1.00
  -6   3  -7   11.90    0.40
  -7   3  -7   20.30    0.60
  -7  -2   7  102.79    1.60
  -7  -2   7  101.39    1.70
  -6  -2   7    3.10    0.30
  -6  -2   7    3.20    0.30
  -5  -2   7  298.67    4.00
  -4  -2   7   10.30    0.40
  -3  -2   7  633.14   17.70
  -2  -2   7    0.10    0.10
  -1  -2   7   42.30    0.70
   0  -2   7   35.70    0.70
  -1   2  -7   88.89    1.30
   1  -2   7   87.19    1.30
  -2   2  -7    0.20    0.10
   2  -2   7    0.20    0.10
  -3   2  -7  588.74    8.20
   3  -2   7  572.14   15.60
  -4   2  -7   49.60    0.90
   4  -2   7   50.39    0.80
  -5   2  -7  463.65    6.30
  -6   2  -7   31.50    0.70
  -7   2  -7  217.98    3.00
  -8   2  -7    0.90    0.20
  -7  -1   7   12.10    0.50
  -7  -1   7   11.60    0.40
  -6  -1   7   36.80    0.70
  -5  -1   7    1.20    0.20
  -4  -1   7    5.30    0.30
  -3  -1   7   25.00    0.50
  -2  -1   7  561.54    7.80
  -1  -1   7   82.79    1.20
   0  -1   7  227.88    3.00
  -1   1  -7    1.10    0.10
   1  -1   7    0.70    0.10
  -2   1  -7  177.58    2.40
   2  -1   7  176.78    2.40
  -3   1  -7   73.79    1.10
  -3   1  -7   77.49    1.20
   3  -1   7   74.79    1.10
  -4   1  -7   31.70    0.60
   4  -1   7   31.10    0.50
  -5   1  -7  125.19    1.80
  -6   1  -7   95.29    1.50
  -7   1  -7   10.90    0.40
  -8   1  -7  213.88    3.00
  -7   0   7  320.67    4.30
  -6   0   7   11.30    0.40
  -5   0   7  150.78    2.10
  -4   0   7    3.10    0.20
  -3   0   7   47.90    0.80
  -2   0   7   25.50    0.50
  -1   0   7  611.84    8.30
   0   0   7  102.39    1.50
  -1   0  -7 1013.80   25.00
   1   0   7 1003.80   13.40
  -2   0  -7  217.98    4.60
  -2   0  -7  216.48    2.80
   2   0   7  214.88    2.80
  -3   0  -7  241.98    3.30
  -3   0  -7  244.58    6.20
   3   0   7  238.08    3.20
  -4   0  -7   36.50    0.70
  -4   0  -7   37.80    0.60
   4   0   7   36.70    0.60
  -5   0  -7  115.39    1.70
  -5   0  -7  117.79    1.60
  -6   0  -7   94.99    1.50
  -7   0  -7   13.80    0.40
  -8   0  -7    4.60    0.30
  -7   1   7   -0.10    0.10
  -6   1   7    0.40    0.10
  -5   1   7   92.69    1.40
  -4   1   7   46.00    0.80
  -3   1   7  127.49    1.80
  -2   1   7   21.00    0.50
  -1   1   7  399.76    5.60
   0   1   7   30.60    0.60
  -1  -1  -7  454.45   11.20
   1   1   7  469.15   13.20
  -2  -1  -7   95.69    1.30
  -2  -1  -7   94.49    1.30
   2   1   7   94.79    1.30
  -3  -1  -7    0.10    0.10
  -3  -1  -7    0.10    0.10
   3   1   7    0.10    0.10
  -4  -1  -7  255.57    3.40
  -4  -1  -7  270.37    3.50
  -5  -1  -7    0.00    0.10
  -5  -1  -7    0.10    0.10
  -6  -1  -7  177.78    2.40
  -6  -1  -7  169.98    2.40
  -7  -1  -7   96.29    1.40
  -7  -1  -7   98.29    1.50
  -8  -1  -7    1.40    0.20
  -7   2   7    5.70    0.30
  -6   2   7    2.90    0.30
  -5   2   7    1.70    0.20
  -4   2   7   26.60    0.60
  -3   2   7   94.89    1.40
  -2   2   7   14.80    0.40
  -1   2   7  418.26    6.00
   0   2   7  814.62   11.00
  -1  -2  -7  800.22   23.20
   1   2   7  815.22   20.50
  -2  -2  -7    1.70    0.20
  -2  -2  -7    1.70    0.10
   2   2   7    1.60    0.20
  -3  -2  -7  714.23    9.60
  -3  -2  -7  710.63   19.90
   3   2   7  720.83    9.50
  -4  -2  -7  117.29    1.60
  -4  -2  -7  117.09    1.60
  -5  -2  -7  167.58    2.30
  -5  -2  -7  172.28    2.30
  -6  -2  -7    7.20    0.30
  -6  -2  -7    7.80    0.30
  -7  -2  -7  220.58    3.00
  -7  -2  -7  221.48    3.00
  -8  -2  -7   17.10    0.50
  -8  -2  -7   17.60    0.50
  -9  -2  -7   88.59    1.50
  -6   3   7   29.40    0.70
  -5   3   7  100.59    1.60
  -4   3   7   11.90    0.40
  -3   3   7  125.69    1.80
  -2   3   7   67.29    1.10
  -1   3   7   52.79    0.90
   0   3   7  316.37    4.30
  -1  -3  -7   10.00    0.30
   1   3   7   10.10    0.30
  -2  -3  -7  224.38    3.00
  -2  -3  -7  223.38    2.90
   2   3   7  224.08    2.90
  -3  -3  -7  395.86    5.30
  -3  -3  -7  400.86   12.00
   3   3   7  399.76    5.40
  -4  -3  -7  304.47    3.90
  -4  -3  -7  303.37    4.20
  -5  -3  -7  247.58    3.30
  -5  -3  -7  251.97    3.30
  -6  -3  -7  125.69    1.80
  -6  -3  -7  128.29    1.80
  -7  -3  -7   19.80    0.50
  -7  -3  -7   20.20    0.50
  -8  -3  -7    9.70    0.40
  -8  -3  -7   10.40    0.40
  -6   4   7   27.70    0.70
  -5   4   7    1.30    0.20
  -4   4   7   30.70    0.70
  -3   4   7   17.20    0.50
  -2   4   7  255.47    3.40
  -1   4   7  388.06    5.00
   0   4   7    0.40    0.10
  -1  -4  -7  861.51   11.70
   1   4   7  863.91   11.60
  -2  -4  -7   80.09    1.20
   2   4   7   78.69    1.20
  -3  -4  -7  448.96   12.50
   3   4   7  457.85    5.90
  -4  -4  -7   18.30    0.40
  -4  -4  -7   18.10    0.40
  -5  -4  -7  103.99    1.50
  -5  -4  -7  104.59    1.50
  -6  -4  -7    0.00    0.10
  -6  -4  -7    0.00    0.10
  -7  -4  -7    5.70    0.30
  -7  -4  -7    5.60    0.30
  -8  -4  -7  372.96    4.90
  -8  -4  -7  367.46    4.90
  -6   5   7    3.20    0.30
  -5   5   7    4.50    0.30
  -4   5   7    6.60    0.30
  -3   5   7   36.30    0.80
  -2   5   7    0.70    0.10
  -1   5   7    2.10    0.20
   0   5   7   36.10    0.70
  -1  -5  -7  205.08    2.80
   1   5   7  208.18    2.80
  -2  -5  -7    1.60    0.20
   2   5   7    1.10    0.10
  -3  -5  -7   29.20    0.60
   3   5   7   28.60    0.60
  -4  -5  -7   18.60    0.50
  -5  -5  -7  328.37    4.30
  -6  -5  -7   10.90    0.40
  -7  -5  -7  499.75    6.70
  -8  -5  -7    2.10    0.20
  -5   6   7    4.90    0.30
  -4   6   7   20.30    0.60
  -3   6   7    4.50    0.30
  -2   6   7   61.69    1.10
  -1   6   7   27.10    0.60
   0   6   7  352.56    4.60
  -1  -6  -7  117.69    1.70
   1   6   7  118.39    1.70
  -2  -6  -7  336.17    6.90
   2   6   7  335.07    4.40
  -3  -6  -7  182.58    2.50
   3   6   7  184.18    2.50
  -4  -6  -7   14.70    0.40
  -5  -6  -7   77.19    1.30
  -6  -6  -7  137.49    2.00
  -7  -6  -7    1.10    0.20
  -8  -6  -7    8.00    0.40
  -4   7   7   17.80    0.60
  -3   7   7   63.99    1.20
  -2   7   7    0.00    0.10
  -1   7   7   93.79    1.50
   0   7   7  157.18    2.30
  -1  -7  -7    6.40    0.30
   1   7   7    5.60    0.30
  -2  -7  -7   27.90    0.60
   2   7   7   28.40    0.60
  -3  -7  -7  271.47    3.60
   3   7   7  265.27    3.50
  -4  -7  -7   34.80    0.70
  -5  -7  -7  260.17    3.50
  -6  -7  -7   64.79    1.10
  -7  -7  -7   21.10    0.60
  -3   8   7    3.80    0.30
  -2   8   7   40.40    0.90
  -1   8   7   19.00    0.60
   0   8   7   22.70    0.60
  -1  -8  -7    0.10    0.10
   1   8   7    0.00    0.10
  -2  -8  -7   18.50    0.50
   2   8   7   18.90    0.50
  -3  -8  -7    1.60    0.20
   3   8   7    1.60    0.20
  -4  -8  -7   28.20    0.70
  -5  -8  -7   20.70    0.60
  -6  -8  -7    3.30    0.30
  -2   9   7  111.29    1.80
  -1   9   7   14.00    0.50
  -1  -9  -7   40.00    0.80
  -2  -9  -7   77.69    1.30
  -3  -9  -7   24.20    0.60
  -4  -9  -7  335.67    4.50
  -5  -9  -7   59.89    1.10
  -1 -10  -7   62.89    1.20
  -2 -10  -7   30.30    0.70
  -3 -10  -7   40.90    0.90
  -3  -7   8   22.10    0.60
  -2  -7   8   87.19    1.50
  -1  -7   8    4.80    0.30
   0  -7   8   69.79    1.20
   1  -7   8   15.40    0.50
   2  -7   8   65.09    1.20
   3  -7   8   26.30    0.70
  -4  -6   8    1.60    0.20
  -3  -6   8   56.79    1.10
  -2  -6   8   49.20    1.00
  -1  -6   8   12.00    0.40
   0  -6   8    4.90    0.30
   1  -6   8   20.20    0.50
   2  -6   8   21.00    0.60
  -3   6  -8   38.90    0.80
   3  -6   8   39.00    0.80
  -4   6  -8   39.60    0.80
   4  -6   8   39.50    0.80
  -5  -5   8    2.50    0.30
  -4  -5   8   80.59    1.30
  -3  -5   8  131.29    2.00
  -2  -5   8    5.20    0.30
  -1  -5   8   68.49    1.20
   0  -5   8   17.50    0.50
   1  -5   8   90.89    1.40
   2  -5   8  109.99    1.70
  -3   5  -8  188.68    2.60
   3  -5   8  187.08    2.60
  -4   5  -8    4.30    0.30
   4  -5   8    4.20    0.30
  -5   5  -8   60.69    1.10
  -6  -4   8   33.30    0.80
  -6  -4   8   34.10    0.80
  -5  -4   8   -0.10    0.10
  -5  -4   8   -0.10    0.10
  -4  -4   8  424.96    5.50
  -3  -4   8  101.29    1.60
  -2  -4   8   16.50    0.50
  -1  -4   8    2.10    0.20
   0  -4   8    8.10    0.30
   1  -4   8   30.60    0.60
  -2   4  -8   38.40    0.80
   2  -4   8   38.10    0.70
  -3   4  -8  213.08    2.90
   3  -4   8  214.78    2.90
  -4   4  -8   13.90    0.40
   4  -4   8   14.00    0.40
  -5   4  -8  152.98    2.20
  -6   4  -8   84.29    1.40
  -6  -3   8   -0.20    0.10
  -6  -3   8    0.00    0.20
  -5  -3   8   77.79    1.30
  -5  -3   8   76.99    1.30
  -4  -3   8    8.80    0.40
  -3  -3   8   52.69    0.90
  -2  -3   8    7.30    0.30
  -1  -3   8  704.83    9.30
   0  -3   8    1.20    0.20
   1  -3   8  352.36    4.60
  -2   3  -8   56.09    1.00
   2  -3   8   57.59    1.00
  -3   3  -8    0.80    0.10
   3  -3   8    0.90    0.10
  -4   3  -8  258.97    3.50
   4  -3   8  257.87    3.40
  -5   3  -8   10.10    0.40
  -6   3  -8  111.09    1.70
  -7   3  -8  143.99    2.20
  -6  -2   8  343.37    4.60
  -6  -2   8  340.77    4.50
  -5  -2   8    6.60    0.30
  -4  -2   8   14.60    0.40
  -3  -2   8    6.50    0.30
  -2  -2   8   49.20    0.90
  -1  -2   8    7.90    0.30
   0  -2   8   47.30    0.80
   1  -2   8    7.90    0.30
  -2   2  -8   40.00    0.70
   2  -2   8   40.20    0.70
  -3   2  -8    3.80    0.30
   3  -2   8    4.10    0.20
  -4   2  -8  368.66    4.80
   4  -2   8  372.16    4.70
  -5   2  -8    3.10    0.30
  -6   2  -8   20.50    0.50
  -7   2  -8   13.90    0.50
  -6  -1   8    4.50    0.30
  -5  -1   8    0.30    0.10
  -4  -1   8   28.00    0.60
  -3  -1   8  280.37    3.70
  -2  -1   8   26.80    0.60
  -1  -1   8   75.09    1.20
   0  -1   8   36.80    0.70
   1  -1   8  130.49    1.80
  -2   1  -8    8.00    0.30
   2  -1   8    8.20    0.30
  -3   1  -8  437.56    6.00
   3  -1   8  454.05    6.10
  -4   1  -8   46.80    0.80
   4  -1   8   46.80    0.80
  -5   1  -8  359.96    4.70
  -6   1  -8   13.20    0.40
  -7   1  -8  144.29    2.10
  -6   0   8  113.99    1.80
  -5   0   8    0.00    0.10
  -4   0   8  145.59    2.10
  -3   0   8    5.20    0.30
  -2   0   8  432.96    6.10
  -1   0   8   27.00    0.60
   0   0   8   14.00    0.40
   1   0   8   47.10    0.80
  -2   0  -8  501.05    6.80
  -2   0  -8  500.25    6.60
   2   0   8  511.15    7.00
  -3   0  -8  212.38    2.80
  -3   0  -8  209.98    2.80
   3   0   8  211.58    2.80
  -4   0  -8    8.70    0.30
  -5   0  -8  130.59    1.90
  -6   0  -8  218.18    3.00
  -7   0  -8    2.00    0.30
  -8   0  -8   86.19    1.40
  -6   1   8    3.40    0.30
  -5   1   8   43.20    0.80
  -4   1   8   25.70    0.60
  -3   1   8    0.50    0.10
  -2   1   8  111.69    1.60
  -1   1   8   61.09    1.00
   0   1   8    0.20    0.10
   1   1   8  151.98    2.10
  -2  -1  -8   67.49    1.00
  -2  -1  -8   67.89    1.00
   2   1   8   66.99    1.00
  -3  -1  -8   38.20    0.70
  -3  -1  -8   39.20    0.70
   3   1   8   39.60    0.70
  -4  -1  -8    0.20    0.10
  -4  -1  -8    0.40    0.10
  -5  -1  -8  117.79    1.70
  -5  -1  -8  118.39    1.70
  -6  -1  -8  146.29    2.10
  -7  -1  -8  137.99    2.00
  -8  -1  -8    9.20    0.40
  -6   2   8  162.08    2.40
  -5   2   8    6.10    0.30
  -4   2   8   30.60    0.70
  -3   2   8    3.20    0.30
  -2   2   8   15.50    0.40
  -1   2   8    1.20    0.20
   0   2   8  234.68    3.10
   1   2   8   45.80    0.80
  -2  -2  -8   37.30    0.60
  -2  -2  -8   36.90    0.70
   2   2   8   37.80    0.70
  -3  -2  -8  197.78    2.60
  -3  -2  -8  196.38    2.60
   3   2   8  198.48    2.60
  -4  -2  -8   49.99    0.80
  -4  -2  -8   49.10    0.80
  -5  -2  -8   79.99    1.20
  -5  -2  -8   79.39    1.20
  -6  -2  -8   38.00    0.70
  -6  -2  -8   39.10    0.70
  -7  -2  -8  140.19    2.10
  -7  -2  -8  140.49    2.00
  -8  -2  -8   32.90    0.70
  -6   3   8   60.09    1.10
  -5   3   8    1.30    0.20
  -4   3   8  140.99    2.10
  -3   3   8   27.90    0.60
  -2   3   8   23.70    0.60
  -1   3   8  287.67    3.80
   0   3   8  813.02   11.10
  -1  -3  -8  125.99    1.80
   1   3   8  126.89    1.80
  -2  -3  -8   28.10    0.50
  -2  -3  -8   27.40    0.60
   2   3   8   27.40    0.50
  -3  -3  -8  100.89    1.50
  -3  -3  -8  102.79    1.40
   3   3   8  102.39    1.40
  -4  -3  -8  316.67    4.20
  -4  -3  -8  321.87    5.60
  -5  -3  -8  191.48    2.60
  -5  -3  -8  190.08    2.60
  -6  -3  -8   96.79    1.50
  -6  -3  -8   96.89    1.50
  -7  -3  -8   49.30    0.90
  -7  -3  -8   49.10    0.90
  -8  -3  -8  158.38    2.30
  -8  -3  -8  155.68    2.30
  -5   4   8    5.00    0.30
  -4   4   8    0.40    0.20
  -3   4   8   16.40    0.50
  -2   4   8    0.90    0.20
  -1   4   8  171.58    2.40
   0   4   8    3.70    0.30
  -1  -4  -8  128.99    1.90
   1   4   8  130.19    1.80
  -2  -4  -8   18.10    0.50
   2   4   8   17.70    0.40
  -3  -4  -8   32.10    0.60
   3   4   8   32.00    0.60
  -4  -4  -8   47.80    0.90
  -5  -4  -8    2.20    0.20
  -6  -4  -8  269.37    3.60
  -7  -4  -8   12.60    0.40
  -8  -4  -8  160.18    2.40
  -8  -4  -8  167.18    2.40
  -5   5   8    1.70    0.20
  -4   5   8  119.69    1.90
  -3   5   8   44.90    0.90
  -2   5   8  257.27    3.50
  -1   5   8   35.90    0.70
   0   5   8   77.99    1.30
  -1  -5  -8   42.00    0.80
   1   5   8   43.50    0.80
  -2  -5  -8  223.58    3.10
   2   5   8  227.98    3.00
  -3  -5  -8   10.60    0.40
   3   5   8   11.10    0.30
  -4  -5  -8  299.47    4.00
  -5  -5  -8   26.20    0.60
  -6  -5  -8   81.99    1.30
  -7  -5  -8   43.20    0.90
  -4   6   8   -0.10    0.10
  -3   6   8  134.59    2.00
  -2   6   8    8.40    0.40
  -1   6   8   54.29    1.00
   0   6   8    2.20    0.20
  -1  -6  -8   57.69    1.00
   1   6   8   56.89    1.00
  -2  -6  -8    0.20    0.10
   2   6   8    0.30    0.10
  -3  -6  -8   11.60    0.40
   3   6   8   11.00    0.40
  -4  -6  -8   93.89    1.50
  -5  -6  -8    1.90    0.20
  -6  -6  -8    6.50    0.30
  -7  -6  -8  160.58    2.30
  -3   7   8    8.20    0.40
  -2   7   8    0.60    0.20
  -1   7   8   41.90    0.90
   0   7   8  120.69    1.80
  -1  -7  -8   29.10    0.70
   1   7   8   27.70    0.60
  -2  -7  -8   72.39    1.20
   2   7   8   72.19    1.20
  -3  -7  -8  170.78    2.40
  -4  -7  -8   50.39    1.00
  -5  -7  -8   49.40    0.90
  -6  -7  -8  183.68    2.60
  -2   8   8    2.00    0.20
  -1   8   8  124.39    1.90
   0   8   8    7.10    0.40
  -1  -8  -8  114.49    1.80
   1   8   8  116.29    1.80
  -2  -8  -8   57.19    1.10
   2   8   8   57.29    1.00
  -3  -8  -8   92.59    1.50
  -4  -8  -8    5.10    0.30
  -5  -8  -8   57.39    1.10
   0   9   8    0.60    0.20
  -1  -9  -8  131.09    2.00
   1   9   8  131.09    2.00
  -2  -9  -8   12.90    0.50
   2   9   8   13.60    0.50
  -3  -9  -8   96.59    1.60
  -4  -9  -8   56.69    1.10
  -2  -6   9   18.10    0.60
  -1  -6   9    0.10    0.20
   0  -6   9    1.50    0.20
   1  -6   9    0.40    0.20
   2  -6   9   24.00    0.60
   3  -6   9    5.80    0.30
  -4  -5   9    5.90    0.40
  -3  -5   9  272.27    3.70
  -2  -5   9   78.29    1.30
  -1  -5   9   24.00    0.60
   0  -5   9   52.89    1.00
   1  -5   9    0.10    0.10
   2  -5   9  121.29    1.80
  -3   5  -9   15.70    0.50
   3  -5   9   16.40    0.50
  -4   5  -9   11.50    0.40
   4  -5   9   11.50    0.40
  -4  -4   9   88.99    1.50
  -3  -4   9    7.10    0.40
  -2  -4   9   10.20    0.40
  -1  -4   9   11.50    0.40
   0  -4   9   14.30    0.50
   1  -4   9   27.80    0.60
   2  -4   9   23.90    0.60
  -3   4  -9  139.69    2.10
   3  -4   9  141.89    2.00
  -4   4  -9   85.29    1.40
   4  -4   9   85.79    1.40
  -5   4  -9   69.39    1.20
  -5  -3   9   23.20    0.60
  -5  -3   9   23.50    0.60
  -4  -3   9  438.76    5.70
  -3  -3   9    0.90    0.20
  -2  -3   9  302.17    4.00
  -1  -3   9    0.20    0.10
   0  -3   9  328.97    4.30
   1  -3   9   18.20    0.50
   2  -3   9  211.08    2.90
  -3   3  -9    9.10    0.40
   3  -3   9    8.90    0.30
  -4   3  -9  262.57    3.50
  -5   3  -9    0.40    0.10
  -6   3  -9   96.79    1.60
  -5  -2   9  137.89    2.10
  -4  -2   9    3.50    0.30
  -3  -2   9   46.20    0.90
  -2  -2   9   17.00    0.50
  -1  -2   9   37.00    0.70
   0  -2   9    0.00    0.10
   1  -2   9   73.99    1.20
  -2   2  -9    7.80    0.30
   2  -2   9    7.60    0.30
  -3   2  -9    9.50    0.40
   3  -2   9    9.80    0.30
  -4   2  -9   34.50    0.70
  -5   2  -9    0.20    0.10
  -6   2  -9    0.00    0.10
  -5  -1   9    9.50    0.40
  -4  -1   9   58.09    1.00
  -3  -1   9   15.70    0.50
  -2  -1   9  374.66    4.90
  -1  -1   9   32.90    0.70
   0  -1   9  802.72   10.70
   1  -1   9    1.50    0.20
  -2   1  -9  104.19    1.60
   2  -1   9  107.29    1.60
  -3   1  -9    0.40    0.10
   3  -1   9    0.30    0.10
  -4   1  -9  119.39    1.80
  -5   1  -9    0.70    0.20
  -6   1  -9   23.70    0.60
  -7   1  -9    0.50    0.20
  -5   0   9   14.80    0.50
  -4   0   9    0.20    0.10
  -2   0   9    1.20    0.20
  -1   0   9   12.60    0.40
   0   0   9   11.70    0.40
   1   0   9    2.90    0.20
  -2   0  -9  203.08    2.70
   2   0   9  203.08    2.70
  -3   0  -9   24.90    0.50
   3   0   9   26.20    0.50
  -4   0  -9   18.50    0.50
  -5   0  -9   28.60    0.60
  -6   0  -9   31.10    0.70
  -7   0  -9    7.80    0.40
  -5   1   9   16.20    0.50
  -4   1   9  147.99    2.20
  -3   1   9   29.30    0.70
  -2   1   9  188.78    2.60
  -1   1   9   43.00    0.80
   0   1   9   10.40    0.40
   1   1   9    2.90    0.20
  -2  -1  -9  459.95   10.70
   2   1   9  470.05    6.10
  -3  -1  -9  128.29    1.80
  -3  -1  -9  128.09    1.80
   3   1   9  124.59    1.80
  -4  -1  -9  276.17    3.60
  -4  -1  -9  275.87    3.60
  -5  -1  -9    2.10    0.20
  -6  -1  -9  316.37    4.20
  -7  -1  -9   26.90    0.60
  -5   2   9  110.99    1.80
  -4   2   9   22.40    0.60
  -3   2   9  178.98    2.50
  -2   2   9    7.70    0.30
  -1   2   9  179.98    2.50
   0   2   9   27.20    0.60
   1   2   9    9.20    0.30
  -2  -2  -9  103.39    1.50
   2   2   9  104.59    1.50
  -3  -2  -9   33.10    0.60
  -3  -2  -9   32.90    0.60
   3   2   9   33.60    0.60
  -4  -2  -9  161.38    2.20
  -4  -2  -9  157.18    2.20
  -5  -2  -9    2.40    0.20
  -5  -2  -9    3.00    0.20
  -6  -2  -9   32.00    0.70
  -6  -2  -9   31.20    0.60
  -7  -2  -9   79.89    1.30
  -5   3   9   71.39    1.30
  -4   3   9   54.49    1.00
  -3   3   9   96.99    1.60
  -2   3   9   17.40    0.50
  -1   3   9    4.20    0.30
   0   3   9   80.39    1.30
   1   3   9   78.89    1.20
  -2  -3  -9   63.29    1.10
   2   3   9   62.29    1.00
  -3  -3  -9   52.19    0.90
   3   3   9   52.19    0.90
  -4  -3  -9   13.90    0.40
  -5  -3  -9   52.69    0.90
  -5  -3  -9   54.59    0.90
  -6  -3  -9    0.20    0.10
  -6  -3  -9    0.20    0.10
  -7  -3  -9  127.59    1.90
  -7  -3  -9  122.69    1.80
  -4   4   9   16.80    0.50
  -3   4   9  155.68    2.30
  -2   4   9   58.89    1.10
  -1   4   9   37.10    0.80
   0   4   9  251.67    3.40
   1   4   9   12.70    0.40
  -2  -4  -9   40.20    0.80
   2   4   9   40.90    0.70
  -3  -4  -9  108.49    1.60
   3   4   9  108.99    1.60
  -4  -4  -9   73.99    1.20
  -5  -4  -9   13.60    0.40
  -6  -4  -9   75.59    1.20
  -7  -4  -9    0.00    0.10
  -4   5   9   17.80    0.60
  -3   5   9   29.60    0.70
  -2   5   9    8.50    0.40
  -1   5   9   73.69    1.30
   0   5   9    0.30    0.20
  -1  -5  -9  388.76    5.10
   1   5   9  389.26    5.10
  -2  -5  -9   31.50    0.70
   2   5   9   31.20    0.60
  -3  -5  -9  161.58    2.30
  -4  -5  -9   40.80    0.80
  -5  -5  -9  149.69    2.20
  -6  -5  -9   27.20    0.60
  -7  -5  -9   20.50    0.60
  -2   6   9  212.28    3.00
  -1   6   9    4.90    0.30
   0   6   9   71.59    1.20
  -1  -6  -9   33.10    0.70
   1   6   9   34.40    0.70
  -2  -6  -9  108.09    1.70
   2   6   9  109.59    1.60
  -3  -6  -9    1.00    0.20
  -4  -6  -9   35.80    0.80
  -5  -6  -9    2.20    0.30
  -6  -6  -9   49.40    1.00
  -2   7   9   11.30    0.50
  -1   7   9    9.00    0.40
   0   7   9   30.80    0.70
  -1  -7  -9   12.90    0.50
   1   7   9   12.60    0.40
  -2  -7  -9   76.49    1.30
   2   7   9   76.39    1.30
  -3  -7  -9  142.89    2.10
  -4  -7  -9   27.80    0.70
  -5  -7  -9   54.79    1.00
   0   8   9   81.59    1.40
   1   8   9    6.60    0.40
  -2  -8  -9   17.50    0.60
   2   8   9   18.00    0.50
  -3  -8  -9   13.10    0.50
  -4  -8  -9    1.20    0.20
  -1  -5  10   16.60    0.50
   0  -5  10  115.99    1.80
   1  -5  10   31.30    0.70
   2  -5  10  102.79    1.60
  -3  -4  10   27.30    0.70
  -2  -4  10   21.90    0.60
  -1  -4  10   91.79    1.50
   0  -4  10   16.70    0.50
   1  -4  10   60.19    1.10
   2  -4  10   57.79    1.00
  -3   4 -10   61.79    1.10
   3  -4  10   60.69    1.10
  -4   4 -10   50.59    1.00
  -4  -3  10  127.49    2.00
  -3  -3  10    0.90    0.20
  -2  -3  10  166.08    2.40
  -1  -3  10  126.89    1.90
   0  -3  10   87.29    1.40
   1  -3  10   82.99    1.40
   2  -3  10   34.00    0.70
  -3   3 -10   92.19    1.50
   3  -3  10   95.89    1.50
  -4   3 -10    6.90    0.40
  -5   3 -10   96.69    1.60
  -4  -2  10   15.10    0.50
  -3  -2  10   58.69    1.10
  -2  -2  10    6.80    0.40
  -1  -2  10   43.90    0.90
   0  -2  10   68.89    1.20
   1  -2  10   10.00    0.40
   2  -2  10   68.29    1.10
  -3   2 -10    2.70    0.30
   3  -2  10    3.20    0.30
  -4   2 -10  551.44    7.10
  -5   2 -10   22.70    0.60
  -4  -1  10    0.20    0.20
  -3  -1  10  425.96    5.60
  -2  -1  10   10.10    0.40
  -1  -1  10  129.89    1.90
   0  -1  10    4.70    0.30
   1  -1  10  112.79    1.70
   2  -1  10   32.90    0.70
  -3   1 -10  190.48    2.70
   3  -1  10  194.48    2.60
  -4   1 -10   11.30    0.40
  -5   1 -10  159.28    2.30
  -6   1 -10    0.30    0.20
  -4   0  10    2.50    0.30
  -3   0  10    0.00    0.20
  -2   0  10   61.19    1.10
  -1   0  10   13.60    0.40
   0   0  10   86.79    1.40
   1   0  10    3.00    0.30
   2   0  10   79.89    1.30
  -3   0 -10   52.99    0.90
   3   0  10   51.89    0.90
  -4   0 -10    0.10    0.10
  -5   0 -10   16.60    0.50
  -6   0 -10   45.80    0.90
  -4   1  10  107.39    1.70
  -3   1  10   32.10    0.70
  -2   1  10  260.87    3.50
  -1   1  10  191.38    2.70
   0   1  10    9.50    0.40
   1   1  10  252.97    3.40
   2   1  10   26.60    0.60
  -3  -1 -10   99.39    1.50
   3   1  10   99.59    1.50
  -4  -1 -10    5.40    0.30
  -5  -1 -10   50.79    0.90
  -6  -1 -10  119.49    1.80
  -4   2  10    8.30    0.40
  -3   2  10    4.60    0.30
  -2   2  10   17.50    0.50
  -1   2  10  132.89    2.00
   0   2  10    4.70    0.30
   1   2  10  341.47    4.50
   2   2  10    0.40    0.10
  -3  -2 -10   34.80    0.70
  -3  -2 -10   34.30    0.70
   3   2  10   34.20    0.70
  -4  -2 -10   23.20    0.50
  -4  -2 -10   23.90    0.50
  -5  -2 -10    0.50    0.10
  -6  -2 -10   19.80    0.50
  -4   3  10   78.99    1.40
  -3   3  10   28.20    0.70
  -2   3  10    6.60    0.40
  -1   3  10   79.49    1.30
   0   3  10  163.48    2.30
   1   3  10  285.57    3.80
  -2  -3 -10   14.30    0.40
   2   3  10   13.70    0.40
  -3  -3 -10  255.07    3.40
  -4  -3 -10   30.90    0.70
  -5  -3 -10   55.19    1.00
  -6  -3 -10    5.60    0.30
  -3   4  10   89.79    1.50
  -2   4  10  123.99    1.90
  -1   4  10  109.09    1.70
   0   4  10   41.60    0.80
   1   4  10   22.40    0.60
  -2  -4 -10   10.10    0.40
   2   4  10    9.90    0.40
  -3  -4 -10  186.98    2.60
  -4  -4 -10    0.70    0.20
  -5  -4 -10   47.30    0.90
  -6  -4 -10   29.30    0.70
  -3   5  10    0.80    0.20
  -2   5  10    8.20    0.40
  -1   5  10   68.79    1.20
   0   5  10   27.10    0.70
   1   5  10  133.99    2.00
  -2  -5 -10   18.70    0.50
   2   5  10   18.30    0.50
  -3  -5 -10   46.40    0.90
  -4  -5 -10   42.30    0.90
  -5  -5 -10   10.60    0.40
  -6  -5 -10   25.80    0.60
  -2   6  10    1.50    0.20
  -1   6  10  102.19    1.70
   0   6  10   54.89    1.00
   1   6  10  163.58    2.40
  -2  -6 -10    0.10    0.20
   2   6  10    0.20    0.20
  -3  -6 -10   12.50    0.50
  -4  -6 -10   12.00    0.40
  -5  -6 -10  120.89    1.90
   0   7  10   62.99    1.20
   1   7  10    0.50    0.20
  -2  -7 -10  139.79    2.20
   2   7  10  142.69    2.10
  -3  -7 -10   11.70    0.50
  -4  -7 -10   63.49    1.20
  -1  -3  11    0.50    0.20
   0  -3  11   22.30    0.60
   1  -3  11    9.20    0.40
   2  -3  11   94.89    1.50
  -2  -2  11    0.00    0.20
  -1  -2  11   68.59    1.20
   0  -2  11    8.80    0.40
   1  -2  11   25.60    0.60
   2  -2  11   75.59    1.30
   3  -2  11    9.70    0.40
  -4   2 -11   36.10    0.80
  -3  -1  11   22.20    0.60
  -2  -1  11    0.20    0.20
  -1  -1  11   17.00    0.50
   0  -1  11   38.30    0.80
   1  -1  11   -0.10    0.10
   2  -1  11    1.60    0.20
   3  -1  11   -0.20    0.10
  -4   1 -11  197.68    2.80
  -3   0  11   51.09    1.00
  -2   0  11    1.50    0.20
  -1   0  11    3.20    0.30
   0   0  11   11.50    0.40
   1   0  11   24.10    0.60
   2   0  11    0.90    0.20
   3   0  11  127.49    2.10
  -4   0 -11    2.00    0.20
  -5   0 -11  136.59    2.00
  -3   1  11   82.79    1.40
  -2   1  11   84.19    1.40
  -1   1  11   47.20    0.90
   0   1  11   24.60    0.60
   1   1  11   43.90    0.90
   2   1  11   86.39    1.40
  -4  -1 -11   20.70    0.50
  -5  -1 -11   65.99    1.10
  -3   2  11    8.40    0.40
  -2   2  11   -0.10    0.20
  -1   2  11   40.80    0.90
   0   2  11    4.80    0.30
   1   2  11   17.70    0.50
   2   2  11   85.99    1.40
  -2   3  11    0.30    0.20
  -1   3  11   94.49    1.50
   0   3  11   31.50    0.70
   1   3  11   66.29    1.10
   2   3  11   75.79    1.20
  -3  -3 -11  152.78    2.20
  -4  -3 -11   25.20    0.60
  -2   4  11    8.90    0.40
  -1   4  11   52.09    1.00
   0   4  11  337.47    4.50
   1   4  11   25.30    0.60
   2   4  11   28.50    0.60
  -3  -4 -11    0.30    0.20
  -4  -4 -11   17.40    0.50
  -5  -4 -11   70.49    1.20
  -1   5  11   37.60    0.80
   0   5  11   23.90    0.60
   1   5  11   74.69    1.30
   2   5  11   60.69    1.10
  -3  -5 -11   98.19    1.60
  -4  -5 -11   14.40    0.50
   1   6  11   42.70    0.90
   2   6  11    5.40    0.30
   0   0  12   69.09    1.20
   1   0  12    0.10    0.20
   2   0  12    0.60    0.20
   0   1  12   22.60    0.60
   1   1  12   20.90    0.60
   2   1  12   94.09    1.50
   0   2  12   -0.20    0.20
   1   2  12   32.60    0.70
   2   2  12    4.90    0.30
   1   3  12   28.60    0.70
   2   3  12   39.90    0.80
   0   0   0    0.00    0.00

_computing_structure_solution     'SHELXT 2014/5 (Sheldrick, 2014)'
;
_shelx_hkl_checksum              17183
loop_
_space_group_symop_operation_xyz
'x, y, z'
'-x, -y, -z'
loop_
_atom_site_type_symbol
_atom_site_label
_atom_site_fract_x
_atom_site_fract_y
_atom_site_fract_z
_atom_site_U_iso_or_equiv
_atom_site_adp_type
_atom_site_calc_flag
_atom_site_refinement_flags_adp
_atom_site_refinement_flags_occupancy
_atom_site_refinement_flags_posn
_atom_site_occupancy
_atom_site_disorder_assembly
_atom_site_disorder_group
K K1 0.24939(3) 0.71505(3) 0.74492(3) 0.01943(12) Uani d . . . 1 . .
N N1 1.23162(16) 0.28428(13) 0.60163(13) 0.0232(3) Uani d . . . 1 . .
C C1 1.32429(19) 0.28471(17) 0.69483(17) 0.0255(4) Uani d . . . 1 . .
H H1 1.406017 0.341322 0.69115 0.031 Uiso calc U . R 1 . .
C C2 1.12767(19) 0.18990(16) 0.64378(16) 0.0226(3) Uani d . . . 1 . .
H H2 1.047452 0.168796 0.595931 0.027 Uiso calc U . R 1 . .
N N2 1.28503(16) 0.19314(14) 0.79486(14) 0.0247(3) Uani d . . . 1 . .
C C3 1.16024(18) 0.13278(16) 0.76527(16) 0.0230(3) Uani d . . . 1 . .
H H3 1.107569 0.064502 0.819574 0.028 Uiso calc U . R 1 . .
N N3 1.03710(16) 0.51531(15) 0.79206(16) 0.0314(3) Uani d . . . 1 . .
N N4 0.51544(16) 0.51949(15) 0.80777(14) 0.0269(3) Uani d . . . 1 . .
C C4 1.2368(3) 0.37161(19) 0.47534(18) 0.0395(5) Uani d . . . 1 . .
H H4A 1.223423 0.31583 0.404425 0.059 Uiso calc U . R 1 . .
H H4B 1.339319 0.406505 0.457193 0.059 Uiso calc U . R 1 . .
H H4C 1.150979 0.450897 0.479966 0.059 Uiso calc U . R 1 . .
C C5 1.3631(2) 0.1602(2) 0.91709(19) 0.0364(4) Uani d . . . 1 . .
H H5A 1.470671 0.187954 0.90143 0.044 Uiso calc U . R 1 . .
H H5B 1.374725 0.057916 0.941776 0.044 Uiso calc U . R 1 . .
N N5 0.80853(17) 0.15787(15) 1.00125(15) 0.0305(3) Uani d . . . 1 . .
N N6 -0.02061(16) 0.88876(15) 0.67143(15) 0.0290(3) Uani d . . . 1 . .
C C6 1.2712(3) 0.2333(3) 1.0266(2) 0.0559(6) Uani d . . . 1 . .
H H6A 1.255822 0.33433 1.001005 0.084 Uiso calc U . R 1 . .
H H6B 1.329117 0.213659 1.105018 0.084 Uiso calc U . R 1 . .
H H6C 1.167562 0.20063 1.046747 0.084 Uiso calc U . R 1 . .
C C7 0.78883(17) 0.39734(16) 0.86604(15) 0.0187(3) Uani d . . . 1 . .
N N7 -0.31010(17) 1.29002(14) 0.53706(14) 0.0269(3) Uani d . . . 1 . .
N N8 -0.53313(16) 0.90397(15) 0.67739(16) 0.0298(3) Uani d . . . 1 . .
C C8 0.63908(18) 0.46507(16) 0.83415(14) 0.0198(3) Uani d . . . 1 . .
C C9 0.80027(17) 0.26508(16) 0.93913(15) 0.0204(3) Uani d . . . 1 . .
C C10 0.92616(18) 0.46143(16) 0.82568(15) 0.0215(3) Uani d . . . 1 . .
C C11 -0.29037(17) 1.03317(15) 0.63232(15) 0.0187(3) Uani d . . . 1 . .
C C12 -0.14172(18) 0.95516(16) 0.65466(15) 0.0207(3) Uani d . . . 1 . .
C C13 -0.30083(17) 1.17419(16) 0.57958(15) 0.0195(3) Uani d . . . 1 . .
C C14 -0.42568(18) 0.96441(16) 0.65563(15) 0.0206(3) Uani d . . . 1 . .
loop_
_atom_site_aniso_label
_atom_site_aniso_U_11
_atom_site_aniso_U_22
_atom_site_aniso_U_33
_atom_site_aniso_U_12
_atom_site_aniso_U_13
_atom_site_aniso_U_23
K1 0.01291(18) 0.01778(19) 0.0274(2) -0.00295(13) -0.00411(13) 0.00180(13)
N1 0.0247(7) 0.0179(6) 0.0268(7) -0.0057(5) 0.0029(5) -0.0035(5)
C1 0.0199(8) 0.0190(8) 0.0370(9) -0.0039(6) 0.0030(7) -0.0050(7)
C2 0.0221(8) 0.0201(8) 0.0268(8) -0.0074(6) -0.0004(6) -0.0038(6)
N2 0.0200(7) 0.0221(7) 0.0328(7) -0.0017(5) -0.0080(6) -0.0026(6)
C3 0.0191(7) 0.0186(7) 0.0315(8) -0.0049(6) -0.0007(6) -0.0027(6)
N3 0.0195(7) 0.0221(7) 0.0509(9) -0.0037(6) -0.0024(6) 0.0034(6)
N4 0.0193(7) 0.0277(7) 0.0324(7) -0.0019(6) -0.0058(6) 0.0037(6)
C4 0.0625(13) 0.0270(9) 0.0288(9) -0.0170(9) 0.0043(9) 0.0025(7)
C5 0.0366(10) 0.0333(10) 0.0419(10) -0.0031(8) -0.0211(8) 0.0009(8)
N5 0.0295(8) 0.0256(8) 0.0339(8) -0.0037(6) -0.0026(6) 0.0067(6)
N6 0.0196(7) 0.0233(7) 0.0443(9) -0.0035(6) -0.0087(6) 0.0023(6)
C6 0.0674(15) 0.0688(16) 0.0312(11) 0.0018(12) -0.0202(10) -0.0026(10)
C7 0.0157(7) 0.0180(7) 0.0221(7) -0.0030(6) -0.0035(6) 0.0023(6)
N7 0.0262(7) 0.0202(7) 0.0335(8) -0.0047(6) 0.0007(6) -0.0015(6)
N8 0.0193(7) 0.0232(7) 0.0468(9) -0.0059(6) -0.0051(6) 0.0024(6)
C8 0.0196(8) 0.0206(7) 0.0194(7) -0.0061(6) -0.0013(6) 0.0014(6)
C9 0.0150(7) 0.0243(8) 0.0219(8) -0.0030(6) -0.0021(6) -0.0019(6)
C10 0.0184(8) 0.0175(7) 0.0275(8) 0.0008(6) -0.0046(6) 0.0008(6)
C11 0.0145(7) 0.0170(7) 0.0249(8) -0.0030(6) -0.0034(6) -0.0001(6)
C12 0.0196(8) 0.0186(7) 0.0254(8) -0.0077(6) -0.0036(6) -0.0007(6)
C13 0.0132(7) 0.0221(8) 0.0239(8) -0.0033(6) -0.0009(6) -0.0051(6)
C14 0.0177(8) 0.0172(7) 0.0262(8) 0.0007(6) -0.0053(6) -0.0005(6)
loop_
_atom_type_symbol
_atom_type_description
_atom_type_scat_dispersion_real
_atom_type_scat_dispersion_imag
_atom_type_scat_source
C C 0.0033 0.0016 'International Tables Vol C Tables 4.2.6.8 and 6.1.1.4'
H H 0.0000 0.0000 'International Tables Vol C Tables 4.2.6.8 and 6.1.1.4'
K K 0.2009 0.2494 'International Tables Vol C Tables 4.2.6.8 and 6.1.1.4'
N N 0.0061 0.0033 'International Tables Vol C Tables 4.2.6.8 and 6.1.1.4'
loop_
_geom_angle_atom_site_label_1
_geom_angle_atom_site_label_2
_geom_angle_atom_site_label_3
_geom_angle_site_symmetry_1
_geom_angle_site_symmetry_3
_geom_angle
_geom_angle_publ_flag
N6 K1 N8 . 1_655 98.35(4) ?
N6 K1 N4 . . 174.82(4) ?
N8 K1 N4 1_655 . 85.28(4) ?
N6 K1 N3 . 1_455 82.12(4) ?
N8 K1 N3 1_655 1_455 175.15(5) ?
N4 K1 N3 . 1_455 93.96(4) ?
N6 K1 N7 . 2_576 80.85(4) ?
N8 K1 N7 1_655 2_576 77.57(4) ?
N4 K1 N7 . 2_576 96.40(4) ?
N3 K1 N7 1_455 2_576 97.77(4) ?
N6 K1 N5 . 2_667 87.19(4) ?
N8 K1 N5 1_655 2_667 84.26(4) ?
N4 K1 N5 . 2_667 96.89(4) ?
N3 K1 N5 1_455 2_667 100.59(4) ?
N7 K1 N5 2_576 2_667 156.46(4) ?
N6 K1 C9 . 2_667 100.18(4) ?
N8 K1 C9 1_655 2_667 98.46(4) ?
N4 K1 C9 . 2_667 82.86(4) ?
N3 K1 C9 1_455 2_667 86.19(4) ?
N7 K1 C9 2_576 2_667 176.02(4) ?
N5 K1 C9 2_667 2_667 20.90(4) ?
N6 K1 C13 . 2_576 69.96(4) ?
N8 K1 C13 1_655 2_576 65.00(4) ?
N4 K1 C13 . 2_576 108.60(4) ?
N3 K1 C13 1_455 2_576 110.86(4) ?
N7 K1 C13 2_576 2_576 19.25(4) ?
N5 K1 C13 2_667 2_576 137.29(4) ?
C9 K1 C13 2_667 2_576 158.07(4) ?
C1 N1 C2 . . 108.42(13) ?
C1 N1 C4 . . 125.61(14) ?
C2 N1 C4 . . 125.96(15) ?
N1 C1 N2 . . 108.84(14) ?
N1 C1 H1 . . 125.6 ?
N2 C1 H1 . . 125.6 ?
C3 C2 N1 . . 107.60(14) ?
C3 C2 H2 . . 126.2 ?
N1 C2 H2 . . 126.2 ?
C1 N2 C3 . . 108.90(14) ?
C1 N2 C5 . . 125.68(15) ?
C3 N2 C5 . . 125.41(14) ?
C2 C3 N2 . . 106.23(14) ?
C2 C3 H3 . . 126.9 ?
N2 C3 H3 . . 126.9 ?
C10 N3 K1 . 1_655 162.64(13) ?
C8 N4 K1 . . 165.24(12) ?
N1 C4 H4A . . 109.5 ?
N1 C4 H4B . . 109.5 ?
H4A C4 H4B . . 109.5 ?
N1 C4 H4C . . 109.5 ?
H4A C4 H4C . . 109.5 ?
H4B C4 H4C . . 109.5 ?
N2 C5 C6 . . 111.41(16) ?
N2 C5 H5A . . 109.3 ?
C6 C5 H5A . . 109.3 ?
N2 C5 H5B . . 109.3 ?
C6 C5 H5B . . 109.3 ?
H5A C5 H5B . . 108.0 ?
C9 N5 K1 . 2_667 93.29(11) ?
C12 N6 K1 . . 172.02(13) ?
C5 C6 H6A . . 109.5 ?
C5 C6 H6B . . 109.5 ?
H6A C6 H6B . . 109.5 ?
C5 C6 H6C . . 109.5 ?
H6A C6 H6C . . 109.5 ?
H6B C6 H6C . . 109.5 ?
C8 C7 C9 . . 119.29(13) ?
C8 C7 C10 . . 120.37(13) ?
C9 C7 C10 . . 120.34(13) ?
C13 N7 K1 . 2_576 105.62(11) ?
C14 N8 K1 . 1_455 169.10(12) ?
N4 C8 C7 . . 179.30(17) ?
N5 C9 C7 . . 178.68(17) ?
N5 C9 K1 . 2_667 65.80(10) ?
C7 C9 K1 . 2_667 112.90(10) ?
N3 C10 C7 . . 179.11(17) ?
C12 C11 C14 . . 118.42(13) ?
C12 C11 C13 . . 120.31(13) ?
C14 C11 C13 . . 121.13(13) ?
N6 C12 C11 . . 178.43(17) ?
N7 C13 C11 . . 179.55(18) ?
N7 C13 K1 . 2_576 55.14(10) ?
C11 C13 K1 . 2_576 125.25(10) ?
N8 C14 C11 . . 177.39(16) ?
loop_
_geom_bond_atom_site_label_1
_geom_bond_atom_site_label_2
_geom_bond_site_symmetry_2
_geom_bond_distance
_geom_bond_publ_flag
K1 N6 . 2.7755(14) ?
K1 N8 1_655 2.7897(14) ?
K1 N4 . 2.8228(14) ?
K1 N3 1_455 2.8247(14) ?
K1 N7 2_576 2.8748(15) ?
K1 N5 2_667 2.9547(16) ?
K1 C9 2_667 3.2339(16) ?
K1 C13 2_576 3.3743(16) ?
N1 C1 . 1.314(2) ?
N1 C2 . 1.375(2) ?
N1 C4 . 1.465(2) ?
C1 N2 . 1.327(2) ?
C1 H1 . 0.95 ?
C2 C3 . 1.348(2) ?
C2 H2 . 0.95 ?
N2 C3 . 1.375(2) ?
N2 C5 . 1.471(2) ?
C3 H3 . 0.95 ?
N3 C10 . 1.154(2) ?
N4 C8 . 1.158(2) ?
C4 H4A . 0.98 ?
C4 H4B . 0.98 ?
C4 H4C . 0.98 ?
C5 C6 . 1.474(3) ?
C5 H5A . 0.99 ?
C5 H5B . 0.99 ?
N5 C9 . 1.156(2) ?
N6 C12 . 1.155(2) ?
C6 H6A . 0.98 ?
C6 H6B . 0.98 ?
C6 H6C . 0.98 ?
C7 C8 . 1.407(2) ?
C7 C9 . 1.409(2) ?
C7 C10 . 1.412(2) ?
N7 C13 . 1.155(2) ?
N8 C14 . 1.154(2) ?
C11 C12 . 1.408(2) ?
C11 C14 . 1.409(2) ?
C11 C13 . 1.409(2) ?
