#------------------------------------------------------------------------------
#$Date: 2022-07-30 00:50:49 +0300 (Sat, 30 Jul 2022) $
#$Revision: 276998 $
#$URL: file:///home/coder/svn-repositories/cod/cif/7/13/04/7130442.cif $
#------------------------------------------------------------------------------
#
# This file is available in the Crystallography Open Database (COD),
# http://www.crystallography.net/
#
# All data on this site have been placed in the public domain by the
# contributors.
#
data_7130442
loop_
_publ_author_name
'Wang, Qing'
'Wang, Sen-Lin'
'Fan, Jin-Bao'
'Zeng, Guang-Yao'
'Zhou, Ying-Jun'
'Deng, Xu'
_publ_section_title
;
 Acid-promoted intra- and intermolecular [2+2] cycloaddition of indoles to
 aryl alkynes to access cyclobutene-fused indolines
;
_journal_name_full               'Chemical Communications'
_journal_paper_doi               10.1039/D2CC02840A
_journal_year                    2022
_chemical_formula_moiety         'C20 H19 N'
_chemical_formula_sum            'C20 H19 N'
_chemical_formula_weight         273.36
_space_group_crystal_system      triclinic
_space_group_IT_number           2
_space_group_name_Hall           '-P 1'
_space_group_name_H-M_alt        'P -1'
_atom_sites_solution_hydrogens   geom
_atom_sites_solution_primary     dual
_audit_creation_date             2022-04-23
_audit_creation_method
;
Olex2 1.5-beta
(compiled 2021.12.09 svn.r5202d8cf for OlexSys, GUI svn.r6439)
;
_audit_update_record
;
2022-05-18 deposited with the CCDC.	2022-07-13 downloaded from the CCDC.
;
_cell_angle_alpha                107.989(2)
_cell_angle_beta                 94.9730(10)
_cell_angle_gamma                92.730(2)
_cell_formula_units_Z            2
_cell_length_a                   8.71530(10)
_cell_length_b                   9.2902(2)
_cell_length_c                   9.50980(10)
_cell_measurement_reflns_used    5445
_cell_measurement_temperature    150.00(10)
_cell_measurement_theta_max      71.5540
_cell_measurement_theta_min      4.9250
_cell_volume                     727.33(2)
_computing_cell_refinement       'CrysAlisPro 1.171.39.33c (Rigaku OD, 2017)'
_computing_data_collection       'CrysAlisPro 1.171.39.33c (Rigaku OD, 2017)'
_computing_data_reduction        'CrysAlisPro 1.171.39.33c (Rigaku OD, 2017)'
_computing_molecular_graphics    'Olex2 1.5-beta (Dolomanov et al., 2009)'
_computing_publication_material  'Olex2 1.5-beta (Dolomanov et al., 2009)'
_computing_structure_refinement  'SHELXL 2017/1 (Sheldrick, 2015)'
_computing_structure_solution    'SHELXT 2014/5 (Sheldrick, 2014)'
_diffrn_ambient_environment      N~2~
_diffrn_ambient_temperature      150.00(10)
_diffrn_detector                 'CCD plate'
_diffrn_measured_fraction_theta_full 0.983
_diffrn_measured_fraction_theta_max 0.958
_diffrn_measurement_details
;
List of Runs (angles in degrees, time in seconds):

  # Type    Start    End  Width  t~exp~   \w     \q     \k     \f   Frames
#--------------------------------------------------------------------------
  1  \w     56.00  82.00   0.50    0.50    --   42.30 -77.00-150.00   52
  2  \w     85.00 110.00   0.50    0.50    --   42.30  77.00 120.00   50
  3  \w     23.00  57.00   0.50    0.50    --   42.30 -57.00   0.00   68
  4  \w     83.00 126.00   0.50    0.50    --   42.30  77.00 -60.00   86
  5  \w    -24.00  82.00   0.50    0.50    --   42.30 -82.00 150.00  212
  6  \w     42.00  83.00   0.50    0.50    --   42.30 -82.00 -60.00   82
  7  \w    -41.00  37.00   0.50    0.50    --   42.30 -77.00-150.00  156
  8  \w    -31.00  38.00   0.50    0.50    --   42.30 -82.00 -60.00  138
  9  \w     82.00 132.00   0.50    0.50    --   42.30  77.00-150.00  100
 10  \w     60.00 146.00   0.50    0.50    --  102.30 -82.00-120.00  172
 11  \w     19.00  44.00   0.50    0.50    --  102.30 -82.00-120.00   50
 12  \w     50.00  94.00   0.50    0.50    --  102.30 -82.00  30.00   88
 13  \w     76.00 146.00   0.50    0.50    --  102.30 -82.00  60.00  140
 14  \w    110.00 146.00   0.50    0.50    --  102.30  82.00 -60.00   72
 15  \w     13.00  96.00   0.50    0.50    --  102.30 -63.00-150.00  166
 16  \w     16.00  41.00   0.50    0.50    --  102.30 -82.00 -60.00   50
 17  \w     77.00 106.00   0.50    0.50    --  102.30 -82.00 120.00   58
 18  \w     14.00 133.00   0.50    0.50    --  102.30 -63.00  30.00  238
 19  \w     27.00  52.00   0.50    0.50    --  102.30 -82.00 120.00   50
 20  \w     68.00 172.00   0.50    0.50    --  102.30 -12.00 -60.00  208
 21  \w     13.00  63.00   0.50    0.50    --  102.30 -12.00 -60.00  100
 22  \w     86.00 122.00   0.50    0.50    --  102.30 -82.00 -60.00   72
 23  \w     14.00 184.00   0.50    0.50    --  102.30  12.00   0.00  340
 24  \w     99.00 134.00   0.50    0.50    --  102.30 -63.00-150.00   70
 25  \w    165.00 190.00   0.50    0.50    --  102.30  82.00  90.00   50
 26  \w     43.00 103.00   0.50    0.50    --  102.30 -82.00-180.00  120
 27  \w     67.00 141.00   0.50    0.50    --  102.30 -38.00  30.00  148
 28  \w     98.00 124.00   0.50    0.50    --  102.30 -82.00  90.00   52
 29  \w     30.00  55.00   0.50    0.50    --  102.30 -38.00  30.00   50
;
_diffrn_measurement_device       'four-circle diffractometer'
_diffrn_measurement_device_type  'XtaLAB AFC12 (RINC): Kappa single'
_diffrn_measurement_method       '\w scans'
_diffrn_orient_matrix_type
'CrysAlisPro convention (1999,Acta A55,543-557)'
_diffrn_orient_matrix_UB_11      0.1565372000
_diffrn_orient_matrix_UB_12      0.0009949000
_diffrn_orient_matrix_UB_13      -0.0636651000
_diffrn_orient_matrix_UB_21      0.0711161000
_diffrn_orient_matrix_UB_22      -0.0711680000
_diffrn_orient_matrix_UB_23      0.1144880000
_diffrn_orient_matrix_UB_31      -0.0460053000
_diffrn_orient_matrix_UB_32      -0.1597509000
_diffrn_orient_matrix_UB_33      -0.1103793000
_diffrn_radiation_monochromator  mirror
_diffrn_radiation_probe          x-ray
_diffrn_radiation_type           'Cu K\a'
_diffrn_radiation_wavelength     1.54184
_diffrn_reflns_av_R_equivalents  0.0122
_diffrn_reflns_av_unetI/netI     0.0115
_diffrn_reflns_Laue_measured_fraction_full 0.983
_diffrn_reflns_Laue_measured_fraction_max 0.958
_diffrn_reflns_limit_h_max       10
_diffrn_reflns_limit_h_min       -10
_diffrn_reflns_limit_k_max       7
_diffrn_reflns_limit_k_min       -11
_diffrn_reflns_limit_l_max       11
_diffrn_reflns_limit_l_min       -11
_diffrn_reflns_number            6281
_diffrn_reflns_point_group_measured_fraction_full 0.983
_diffrn_reflns_point_group_measured_fraction_max 0.958
_diffrn_reflns_theta_full        67.684
_diffrn_reflns_theta_max         71.998
_diffrn_reflns_theta_min         4.918
_diffrn_source                   'Rotating-anode X-ray tube'
_diffrn_source_type              'Rigaku (Cu) X-ray Source'
_exptl_absorpt_coefficient_mu    0.545
_exptl_absorpt_correction_T_max  1.00000
_exptl_absorpt_correction_T_min  0.88783
_exptl_absorpt_correction_type   multi-scan
_exptl_absorpt_process_details
;
CrysAlisPro 1.171.39.33c (Rigaku Oxford Diffraction, 2017)
Empirical absorption correction using spherical harmonics,
 implemented in SCALE3 ABSPACK scaling algorithm.
;
_exptl_crystal_colour            'clear light colourless'
_exptl_crystal_density_diffrn    1.248
_exptl_crystal_description       block
_exptl_crystal_F_000             292
_exptl_crystal_size_max          0.14
_exptl_crystal_size_mid          0.12
_exptl_crystal_size_min          0.1
_refine_diff_density_max         0.262
_refine_diff_density_min         -0.161
_refine_diff_density_rms         0.036
_refine_ls_extinction_coef       0.0218(14)
_refine_ls_extinction_expression Fc^*^=kFc[1+0.001xFc^2^\l^3^/sin(2\q)]^-1/4^
_refine_ls_extinction_method     'SHELXL-2017/1 (Sheldrick 2017)'
_refine_ls_goodness_of_fit_ref   1.041
_refine_ls_hydrogen_treatment    constr
_refine_ls_matrix_type           full
_refine_ls_number_parameters     192
_refine_ls_number_reflns         2750
_refine_ls_number_restraints     0
_refine_ls_restrained_S_all      1.041
_refine_ls_R_factor_all          0.0392
_refine_ls_R_factor_gt           0.0375
_refine_ls_shift/su_max          0.000
_refine_ls_shift/su_mean         0.000
_refine_ls_structure_factor_coef Fsqd
_refine_ls_weighting_details
'w=1/[\s^2^(Fo^2^)+(0.0473P)^2^+0.2390P] where P=(Fo^2^+2Fc^2^)/3'
_refine_ls_weighting_scheme      calc
_refine_ls_wR_factor_gt          0.0953
_refine_ls_wR_factor_ref         0.0964
_reflns_Friedel_coverage         0.000
_reflns_number_gt                2617
_reflns_number_total             2750
_reflns_threshold_expression     'I > 2\s(I)'
_cod_data_source_file            d2cc02840a2.cif
_cod_data_source_block           8
_cod_database_code               7130442
_shelx_shelxl_version_number     2017/1
_shelx_space_group_comment
;
The symmetry employed for this shelxl refinement is uniquely defined
by the following loop, which should always be used as a source of
symmetry information in preference to the above space-group names.
They are only intended as comments.
;
_shelx_estimated_absorpt_t_max   0.947
_shelx_estimated_absorpt_t_min   0.928
_olex2_refinement_description
;
1. Fixed Uiso
 At 1.2 times of:
  All C(H) groups, All C(H,H) groups
 At 1.5 times of:
  All C(H,H,H) groups
2.a Ternary CH refined with riding coordinates:
 C10(H10)
2.b Secondary CH2 refined with riding coordinates:
 C11(H11A,H11B), C12(H12A,H12B), C13(H13A,H13B)
2.c Aromatic/amide H refined with riding coordinates:
 C2(H2), C3(H3), C4(H4), C5(H5), C15(H15), C16(H16), C17(H17), C18(H18),
 C19(H19)
2.d Idealised Me refined as rotating group:
 C20(H20A,H20B,H20C)
;
_shelx_res_file
;
TITL wq0419_a.res in P-1
    wq0419.res
    created by SHELXL-2017/1 at 14:23:42 on 23-Apr-2022
REM Old TITL wq0419 in P-1
REM SHELXT solution in P-1
REM R1 0.140, Rweak 0.008, Alpha 0.045, Orientation as input
REM Formula found by SHELXT: C19 N
CELL 1.54184 8.7153 9.2902 9.5098 107.989 94.973 92.73
ZERR 2 0.0001 0.0002 0.0001 0.002 0.001 0.002
LATT 1
SFAC C H N
UNIT 40 38 2

L.S. 20
PLAN  5
SIZE 0.1 0.12 0.14
CONF
BOND $H
LIST 4
MORE -1
fmap 2
ACTA
OMIT 3 7 3
REM <olex2.extras>
REM <HklSrc "%.\\wq0419.hkl">
REM </olex2.extras>

WGHT    0.047300    0.239000
EXTI    0.021841
FVAR       1.50061
N1    3    0.484126    0.710168    0.855149    11.00000    0.02263    0.03072 =
         0.02528    0.00840    0.00402    0.00106
C1    1    0.622759    0.637414    0.837916    11.00000    0.02320    0.02965 =
         0.01866    0.00550    0.00156    0.00064
C2    1    0.651290    0.499891    0.860266    11.00000    0.03005    0.03038 =
         0.02696    0.01052    0.00336   -0.00227
AFIX  43
H2    2    0.572046    0.439421    0.878278    11.00000   -1.20000
AFIX   0
C3    1    0.800974    0.454697    0.855101    11.00000    0.03570    0.02931 =
         0.03196    0.01235    0.00181    0.00423
AFIX  43
H3    2    0.821604    0.362923    0.870104    11.00000   -1.20000
AFIX   0
C4    1    0.919946    0.543276    0.828125    11.00000    0.02535    0.03817 =
         0.03426    0.01352    0.00222    0.00664
AFIX  43
H4    2    1.019438    0.511225    0.825653    11.00000   -1.20000
AFIX   0
C5    1    0.890423    0.680544    0.804677    11.00000    0.02317    0.03472 =
         0.02815    0.01156    0.00132   -0.00119
AFIX  43
H5    2    0.970154    0.740717    0.787001    11.00000   -1.20000
AFIX   0
C6    1    0.741774    0.727025    0.807804    11.00000    0.02492    0.02666 =
         0.01824    0.00540    0.00075   -0.00025
C7    1    0.679674    0.868047    0.782932    11.00000    0.02481    0.02635 =
         0.02304    0.00624    0.00308    0.00148
C8    1    0.615072    0.838750    0.619282    11.00000    0.02772    0.02224 =
         0.02499    0.00766    0.00202    0.00478
C9    1    0.468300    0.811226    0.644085    11.00000    0.02711    0.02778 =
         0.02537    0.00843    0.00246    0.00688
C10   1    0.505940    0.845853    0.808425    11.00000    0.02544    0.02674 =
         0.02432    0.00547    0.00448    0.00376
AFIX  13
H10   2    0.462791    0.936773    0.869956    11.00000   -1.20000
AFIX   0
C11   1    0.335127    0.623427    0.789287    11.00000    0.02143    0.03684 =
         0.03542    0.01157    0.00586   -0.00033
AFIX  23
H11A  2    0.252481    0.681531    0.834252    11.00000   -1.20000
H11B  2    0.331363    0.529514    0.813804    11.00000   -1.20000
AFIX   0
C12   1    0.305608    0.585188    0.619806    11.00000    0.02608    0.03867 =
         0.03457    0.00482    0.00218   -0.00415
AFIX  23
H12A  2    0.202631    0.535228    0.586804    11.00000   -1.20000
H12B  2    0.378748    0.514441    0.573704    11.00000   -1.20000
AFIX   0
C13   1    0.320207    0.725785    0.566877    11.00000    0.02517    0.04765 =
         0.02787    0.01014   -0.00008    0.00229
AFIX  23
H13A  2    0.321987    0.695506    0.459890    11.00000   -1.20000
H13B  2    0.234105    0.787667    0.593146    11.00000   -1.20000
AFIX   0
C14   1    0.692018    0.830885    0.486527    11.00000    0.03158    0.02006 =
         0.02520    0.00713    0.00446    0.00298
C15   1    0.605100    0.825257    0.353913    11.00000    0.03192    0.02814 =
         0.02977    0.01123    0.00221    0.00375
AFIX  43
H15   2    0.498656    0.830458    0.351683    11.00000   -1.20000
AFIX   0
C16   1    0.675466    0.812048    0.225986    11.00000    0.04297    0.03064 =
         0.02555    0.01031    0.00106    0.00123
AFIX  43
H16   2    0.615933    0.806849    0.138280    11.00000   -1.20000
AFIX   0
C17   1    0.833979    0.806545    0.227997    11.00000    0.04542    0.03259 =
         0.02711    0.00848    0.01126    0.00067
AFIX  43
H17   2    0.880965    0.796350    0.141649    11.00000   -1.20000
AFIX   0
C18   1    0.922050    0.816291    0.359100    11.00000    0.03293    0.04209 =
         0.03408    0.01170    0.00933    0.00360
AFIX  43
H18   2    1.028838    0.814654    0.361418    11.00000   -1.20000
AFIX   0
C19   1    0.851758    0.828506    0.487277    11.00000    0.03082    0.03559 =
         0.02720    0.01026    0.00187    0.00199
AFIX  43
H19   2    0.912157    0.835203    0.574953    11.00000   -1.20000
AFIX   0
C20   1    0.771626    1.016686    0.868045    11.00000    0.03629    0.02929 =
         0.03210    0.00522    0.00306   -0.00351
AFIX 137
H20A  2    0.788512    1.024473    0.971326    11.00000   -1.50000
H20B  2    0.715285    1.099728    0.857516    11.00000   -1.50000
H20C  2    0.869340    1.020027    0.829219    11.00000   -1.50000
AFIX   0
HKLF 4




REM  wq0419_a.res in P-1
REM R1 =  0.0375 for    2617 Fo > 4sig(Fo)  and  0.0392 for all    2750 data
REM    192 parameters refined using      0 restraints

END

WGHT      0.0473      0.2390

REM Highest difference peak  0.262,  deepest hole -0.161,  1-sigma level  0.036
Q1    1   0.5965  0.8621  0.8077  11.00000  0.05    0.26
Q2    1   0.4684  0.8204  0.7260  11.00000  0.05    0.26
Q3    1   0.6695  0.8568  0.6940  11.00000  0.05    0.26
Q4    1   0.7179  0.7967  0.7837  11.00000  0.05    0.22
Q5    1   0.6561  0.8344  0.5580  11.00000  0.05    0.21
;
_shelx_res_checksum              25020
_shelx_hkl_file
;
   0   0  -1   82.90    0.65
   0   0  -2 4929.34   23.84
   0   0  -2 4922.65   23.45
   0   0  -3 8816.94   42.55
   0   0  -4 2477.06   13.79
   0   0  -5 2519.87   14.65
   0   0  -6 1393.41   10.33
   0   0  -6 1408.10    9.81
   0   0  -7  367.77    4.93
   0   0  -7  373.13    4.84
   0   0  -8  143.07    3.01
   0   0  -8  142.69    2.97
   0   0  -9    5.68    0.72
   0   0  -9    8.21    0.76
   0   0 -11    8.83    0.50
   0   1 -11    1.11    0.31
   0   1 -10    0.46    0.45
   0   1  -9   68.99    2.36
   0   1  -9   72.42    2.07
   0  -1   8  505.81    5.66
   0   1  -8  519.54    6.48
   0   1  -8  548.04    6.09
   0   1  -8  538.93    6.86
   0   1  -7  121.69    2.81
   0   1  -7  122.30    2.59
   0  -1   7  121.89    2.46
   0   1  -6  105.78    1.96
   0   1  -6  106.85    2.34
   0   1  -5  864.91    6.23
   0   1  -5  871.93    6.96
   0   1  -5  881.82    5.61
   0   1  -4  729.77    5.14
   0   1  -4  747.14    5.62
   0   1  -3 1681.76    9.15
   0  -1   3 1694.45    8.47
   0   1  -3 1695.94    9.55
   0   1  -2 2210.24   11.53
   0   1  -2 2188.81   11.26
   0  -1   1  500.90    2.78
   0  -1   0   67.29    0.67
   0  -1   0   69.02    0.59
   0  -1  -2  248.93    2.32
   0  -1  -2  249.89    1.93
   0  -1  -3  615.29    4.72
   0  -1  -3  583.64    4.36
   0  -1  -4 3867.85   21.13
   0  -1  -5   64.29    1.72
   0  -1  -6  445.41    4.82
   0  -1  -6  436.45    5.11
   0  -1  -6  438.18    5.60
   0  -1  -6  442.74    5.39
   0  -1  -6  443.86    5.36
   0  -1  -7  801.23    8.21
   0  -1  -7  799.81    7.74
   0  -1  -7  812.47    8.53
   0  -1  -7  796.18    7.97
   0  -1  -8   26.86    1.36
   0  -1  -8   25.65    1.30
   0  -1  -8   22.69    1.42
   0  -1  -9  468.63    5.43
   0  -1  -9  506.65    5.50
   0  -1 -10   56.83    1.41
   0   2 -11    9.90    0.57
   0   2 -10    0.32    0.43
   0  -2  10    0.43    0.25
   0   2  -9  166.24    3.66
   0   2  -9  171.82    3.13
   0  -2   9  166.97    3.09
   0   2  -8   74.90    2.05
   0  -2   8   73.88    2.07
   0  -2   8   73.37    1.86
   0  -2   7  372.39    4.65
   0   2  -7  365.99    4.52
   0  -2   7  364.36    4.28
   0   2  -6   24.38    1.09
   0   2  -5  227.50    2.30
   0   2  -5  230.59    3.01
   0  -2   4    4.80    0.26
   0   2  -4    5.14    0.32
   0   2  -4    4.93    0.41
   0  -2   3    2.80    0.19
   0  -2   2   15.39    0.42
   0  -2   1    0.29    0.07
   0  -2   1    0.54    0.13
   0  -2   1    0.68    0.11
   0  -2   0 3842.56   18.68
   0  -2   0 3836.40   18.57
   0  -2   0 3848.46   18.85
   0  -2  -1 7321.21   35.02
   0  -2  -1 7390.93   35.52
   0  -2  -2  528.70    3.53
   0  -2  -2  516.57    3.83
   0  -2  -3   10.82    0.45
   0  -2  -3   10.17    0.52
   0  -2  -3    9.11    0.56
   0  -2  -4 1260.86    9.11
   0  -2  -4 1268.79    8.69
   0  -2  -5  486.26    5.38
   0  -2  -5  463.80    5.03
   0  -2  -5  476.06    5.57
   0  -2  -5  460.82    4.65
   0  -2  -5  480.55    4.91
   0  -2  -6    0.08    0.40
   0  -2  -6    0.47    0.37
   0  -2  -6    0.69    0.33
   0  -2  -7  916.14    8.79
   0  -2  -7  900.50    8.36
   0  -2  -8    2.28    0.66
   0  -2  -8    0.79    0.50
   0  -2  -9    1.60    0.51
   0  -2  -9    1.33    0.70
   0  -2 -10   22.26    0.82
   0  -2 -10   21.67    0.82
   0   3 -11   40.55    1.37
   0  -3  11   38.83    1.07
   0   3 -10    0.83    0.47
   0  -3  10    1.25    0.35
   0  -3   9    0.54    0.31
   0  -3   9    0.19    0.32
   0   3  -9    0.31    0.49
   0  -3   8  848.31    7.68
   0  -3   8  845.65    8.18
   0   3  -7  723.17    7.29
   0  -3   7  726.40    7.04
   0  -3   7  715.07    6.64
   0   3  -6  122.13    1.82
   0   3  -6  121.71    2.42
   0   3  -5    0.99    0.28
   0  -3   4    6.64    0.36
   0  -3   3 1069.48    6.53
   0  -3   2   97.75    1.11
   0  -3   2  101.78    1.29
   0  -3   1 3917.25   18.92
   0  -3   1 3917.79   19.31
   0  -3   1 3909.81   18.28
   0  -3   1 3901.46   19.55
   0  -3   0 5436.57   26.49
   0  -3   0 5492.76   26.15
   0  -3   0 5464.42   26.71
   0  -3   0 5437.99   26.95
   0  -3  -1 1337.76    7.46
   0  -3  -1 1326.14    7.54
   0  -3  -1 1323.23    7.54
   0  -3  -1 1347.55    8.13
   0  -3  -2  279.62    2.50
   0  -3  -2  273.70    2.98
   0  -3  -2  275.21    2.70
   0  -3  -3   27.96    1.02
   0  -3  -3   27.99    0.80
   0  -3  -4    6.85    0.53
   0  -3  -4    0.44    0.25
   0  -3  -5   60.17    1.85
   0  -3  -5   60.70    1.62
   0  -3  -5   60.10    1.73
   0  -3  -5   62.21    1.67
   0  -3  -5   58.93    1.91
   0  -3  -6  476.89    6.01
   0  -3  -6  480.23    5.19
   0  -3  -6  484.17    5.56
   0  -3  -7  782.48    7.47
   0  -3  -7  778.89    7.76
   0  -3  -8   73.72    2.19
   0  -3  -8   76.82    1.98
   0  -3  -9    1.12    0.61
   0  -3  -9    0.48    0.32
   0   4 -11   35.46    1.25
   0  -4  11   36.78    1.10
   0  -4  10    4.89    0.56
   0   4 -10    5.30    0.70
   0  -4  10    4.95    0.51
   0  -4   9  149.21    3.09
   0  -4   9  144.12    2.83
   0  -4   8  152.61    2.98
   0   4  -8  145.57    3.22
   0  -4   7 1220.07    9.60
   0  -4   7 1207.82   10.01
   0  -4   6   64.36    1.75
   0   4  -6   56.81    1.66
   0   4  -5   81.57    1.76
   0  -4   4 1242.61    8.09
   0  -4   3  649.28    4.79
   0  -4   3  647.47    4.31
   0  -4   2 1069.16    6.03
   0  -4   2 1061.16    6.57
   0  -4   1 2666.53   13.99
   0  -4   0    8.87    0.44
   0  -4   0    9.05    0.47
   0  -4   0    8.45    0.38
   0  -4  -1   63.25    1.17
   0  -4  -1   66.11    1.13
   0  -4  -1   64.27    1.13
   0  -4  -2  133.71    2.22
   0  -4  -2  131.74    1.92
   0  -4  -2  131.80    1.74
   0  -4  -3    0.71    0.27
   0  -4  -3    4.15    0.41
   0  -4  -4    4.34    0.46
   0  -4  -4    3.66    0.52
   0  -4  -4    3.91    0.52
   0  -4  -5  153.71    2.65
   0  -4  -5  157.62    3.17
   0  -4  -5  153.15    3.18
   0  -4  -5  152.64    3.15
   0  -4  -6   15.86    0.95
   0  -4  -6   15.62    1.03
   0  -4  -6   17.01    1.13
   0  -4  -6   18.93    1.04
   0  -4  -7  165.22    3.03
   0  -4  -7  166.66    2.88
   0  -4  -7  171.97    3.28
   0  -4  -8   45.63    1.32
   0  -4  -8   47.83    1.57
   0   5 -11    6.27    0.56
   0  -5  11    6.02    0.48
   0  -5  11    6.15    0.43
   0   5 -10   23.74    1.23
   0  -5  10   24.36    1.06
   0  -5  10   22.81    1.10
   0  -5   9   33.15    1.47
   0  -5   9   35.25    1.43
   0  -5   8  186.94    3.51
   0  -5   8  180.73    3.30
   0   5  -7  594.54    6.49
   0  -5   7  603.01    6.54
   0  -5   6   44.88    1.40
   0  -5   6   48.26    1.56
   0  -5   5   79.16    1.83
   0  -5   5   80.04    1.80
   0  -5   5   76.34    1.71
   0  -5   4   53.98    1.32
   0  -5   3 1349.45    8.58
   0  -5   2  489.14    4.03
   0  -5   1 1365.20    8.31
   0  -5   0  537.51    4.18
   0  -5  -1  203.03    2.80
   0  -5  -1  201.68    2.46
   0  -5  -2  257.46    3.69
   0  -5  -2  262.96    3.50
   0  -5  -3  126.28    2.56
   0  -5  -3  128.72    2.70
   0  -5  -3  126.97    2.54
   0  -5  -4   19.18    1.12
   0  -5  -4   19.27    1.07
   0  -5  -4   20.01    1.12
   0  -5  -5   34.15    1.51
   0  -5  -5   34.12    1.47
   0  -5  -6   30.81    1.32
   0  -5  -6   27.43    1.48
   0  -5  -7  349.75    4.30
   0  -5  -8  233.51    2.77
   0  -6  11   31.72    0.98
   0   6 -11   30.64    0.97
   0  -6  10   36.43    1.27
   0  -6  10   38.47    1.34
   0   6 -10   35.39    1.37
   0  -6   9    4.49    0.59
   0  -6   8  429.71    5.30
   0  -6   8  420.65    5.37
   0  -6   7  388.51    5.08
   0  -6   7  396.65    4.90
   0  -6   6   91.37    2.19
   0   6  -6   86.96    2.17
   0  -6   6   88.69    2.15
   0  -6   6   91.87    2.16
   0  -6   6   96.39    2.17
   0  -6   5    1.93    0.33
   0  -6   5    1.94    0.34
   0  -6   5    1.90    0.38
   0  -6   4  247.03    3.25
   0  -6   4  233.14    3.06
   0  -6   3   83.00    1.86
   0  -6   3   79.92    1.62
   0  -6   3   83.40    1.83
   0  -6   2  326.90    3.38
   0  -6   1 1110.31    8.33
   0  -6   1 1124.14    8.45
   0  -6   0 2177.13   13.43
   0  -6   0 2143.76   13.81
   0  -6  -1  239.04    3.46
   0  -6  -2    2.74    0.42
   0  -6  -2    2.48    0.40
   0  -6  -3  244.56    3.76
   0  -6  -4  216.10    3.54
   0  -6  -5    9.61    1.00
   0  -6  -6  267.76    3.57
   0  -6  -7   80.77    1.54
   0  -6  -7   86.33    1.61
   0  -7  11    0.41    0.16
   0   7 -10    1.20    0.36
   0  -7  10    1.75    0.33
   0  -7   9  231.17    3.49
   0  -7   9  235.96    3.55
   0  -7   8  119.02    2.56
   0  -7   8  119.84    2.62
   0  -7   8  112.90    2.33
   0  -7   7    2.94    0.48
   0  -7   7    2.62    0.49
   0  -7   6   24.61    1.11
   0  -7   6   29.01    1.25
   0  -7   5    0.01    0.22
   0  -7   5    0.92    0.32
   0  -7   5    0.60    0.30
   0  -7   4    0.60    0.26
   0  -7   4    0.06    0.28
   0  -7   3   60.06    1.72
   0  -7   3   58.70    1.71
   0  -7   3   60.79    1.66
   0  -7   2   12.17    0.76
   0  -7   2   11.91    0.78
   0  -7   2   11.75    0.78
   0  -7   1  361.92    4.40
   0  -7   1  356.77    4.39
   0  -7   0  285.09    4.03
   0  -7   0  280.04    3.79
   0  -7  -1   58.06    1.77
   0  -7  -1   55.43    1.76
   0  -7  -2    6.22    0.61
   0  -7  -2    5.75    0.65
   0  -7  -3   57.05    1.58
   0  -7  -3   54.93    1.81
   0  -7  -4   48.76    1.62
   0  -7  -5   64.00    1.64
   0  -8  10   46.72    1.06
   0  -8  10   52.73    1.23
   0  -8   9    9.40    0.65
   0  -8   9    9.09    0.59
   0  -8   9    8.48    0.53
   0  -8   8   38.57    1.32
   0  -8   8   38.69    1.38
   0  -8   7   96.35    2.23
   0  -8   6    0.10    0.26
   0  -8   6    0.09    0.25
   0  -8   5    1.50    0.39
   0  -8   4   39.19    1.47
   0  -8   4   40.00    1.36
   0  -8   4   36.64    1.46
   0  -8   3   48.37    1.63
   0  -8   3   50.29    1.62
   0  -8   2    0.14    0.29
   0  -8   2    0.33    0.29
   0  -8   2    0.04    0.27
   0  -8   1  499.48    5.42
   0  -8   1  501.75    5.53
   0  -8   0  176.80    3.18
   0  -8   0  174.52    2.98
   0  -8  -1   10.89    0.79
   0  -8  -2    1.05    0.34
   0  -9   9    8.24    0.49
   0  -9   9    7.84    0.44
   0  -9   8  194.68    2.78
   0  -9   8  191.34    2.64
   0  -9   7  200.47    3.13
   0  -9   6   24.31    1.01
   0  -9   5   36.36    1.33
   0  -9   4   80.69    2.21
   0  -9   4   84.51    1.98
   0  -9   4   85.79    2.13
   0  -9   3   74.24    2.06
   0  -9   3   77.68    1.97
   0  -9   2    0.22    0.35
   0  -9   2    0.19    0.34
   0  -9   2    0.17    0.27
   0  -9   1  447.23    5.02
   0  -9   0  387.24    4.66
   0  -9   0  389.58    4.33
   0  -9  -1    3.84    0.48
   0  -9  -2   18.28    0.78
   0 -10   8   20.57    0.73
   0 -10   8   18.76    0.75
   0 -10   7    6.19    0.52
   0 -10   6   -0.01    0.26
   0 -10   6    0.28    0.26
   0 -10   6    0.31    0.23
   0 -10   5    9.72    0.63
   0 -10   5    8.85    0.65
   0 -10   5    9.27    0.68
   0 -10   4    3.89    0.47
   0 -10   4    4.41    0.47
   0 -10   4    4.52    0.51
   0 -10   3    1.07    0.35
   0 -10   3    1.08    0.30
   0 -10   3    0.84    0.30
   0 -10   2   85.29    1.90
   0 -10   2   85.83    1.88
   0 -10   1    0.48    0.27
   0 -10   0    0.36    0.25
   0 -10   0    0.49    0.27
   0 -10  -1    4.86    0.37
   0 -11   6   17.98    0.64
   0 -11   6   18.92    0.68
   0 -11   5    1.04    0.23
   0 -11   5    0.90    0.21
   0 -11   5    0.86    0.20
   0 -11   4    4.02    0.34
   0 -11   3   24.16    0.80
   0 -11   3   23.62    0.79
   0 -11   2    2.61    0.29
   0 -11   2    2.27    0.30
   0 -11   1   23.90    0.72
   1 -11   1   37.05    0.91
   1 -11   2   58.76    1.20
   1 -11   2   56.57    1.21
   1 -11   3   11.02    0.57
   1 -11   3   10.41    0.54
   1 -11   4    0.50    0.20
   1 -11   4    0.41    0.19
   1 -11   4    0.27    0.20
   1 -11   5  106.96    1.65
   1 -11   5  106.21    1.59
   1 -11   6    0.67    0.19
   1 -10  -1   75.60    1.38
   1 -10  -1   79.54    1.51
   1 -10   0   85.52    1.76
   1 -10   0   84.02    1.57
   1 -10   1  207.13    2.98
   1 -10   1  210.47    2.90
   1 -10   2   11.26    0.72
   1 -10   2   11.83    0.74
   1 -10   3    5.70    0.51
   1 -10   3    5.40    0.48
   1 -10   4    1.23    0.30
   1 -10   4    0.84    0.32
   1 -10   5    8.45    0.65
   1 -10   5    8.79    0.61
   1 -10   6    1.64    0.29
   1 -10   6    1.93    0.36
   1 -10   7    0.30    0.23
   1 -10   7    0.51    0.24
   1 -10   8  100.41    1.58
   1 -10   8   95.09    1.68
   1  -9  -2    3.07    0.40
   1  -9  -2    2.97    0.42
   1  -9  -2    3.04    0.36
   1  -9  -1   48.10    1.49
   1  -9  -1   49.91    1.50
   1  -9   0  135.24    2.49
   1  -9   0  135.31    2.64
   1  -9   0  138.95    2.68
   1  -9   1   61.35    1.80
   1  -9   1   58.11    1.78
   1  -9   1   58.77    1.74
   1  -9   2   97.72    2.29
   1  -9   2  101.99    2.31
   1  -9   3    2.46    0.44
   1  -9   3    1.57    0.38
   1  -9   3    1.58    0.38
   1  -9   4    4.45    0.57
   1  -9   4    3.89    0.47
   1  -9   4    3.68    0.53
   1  -9   5    6.34    0.61
   1  -9   6   69.17    1.65
   1  -9   7   13.08    0.74
   1  -9   8   13.20    0.70
   1  -9   8   13.13    0.69
   1  -9   9   36.95    0.99
   1  -8  -5   67.61    1.29
   1  -8  -4   65.40    1.62
   1  -8  -3   60.54    1.54
   1  -8  -3   61.71    1.77
   1  -8  -2  112.73    2.37
   1  -8  -2  107.59    2.49
   1  -8  -1  119.93    2.68
   1  -8  -1  118.55    2.35
   1  -8   0    0.71    0.39
   1  -8   0    0.62    0.41
   1  -8   0    0.56    0.33
   1  -8   1 1006.32    8.56
   1  -8   1  992.54    8.70
   1  -8   1 1023.21    8.84
   1  -8   2    0.40    0.36
   1  -8   2    1.42    0.38
   1  -8   2    0.31    0.33
   1  -8   2    0.25    0.33
   1  -8   3   66.07    1.82
   1  -8   3   61.63    1.85
   1  -8   3   62.77    1.88
   1  -8   4  116.73    2.50
   1  -8   4  117.80    2.31
   1  -8   4  118.30    2.60
   1  -8   5    2.91    0.46
   1  -8   6    1.82    0.45
   1  -8   6    3.28    0.43
   1  -8   7   83.85    2.09
   1  -8   8  176.60    2.98
   1  -8   9   71.06    1.60
   1  -8   9   78.44    1.77
   1  -8  10    1.15    0.21
   1  -8  10    1.43    0.27
   1  -7  -6   77.14    1.58
   1  -7  -5    3.98    0.53
   1  -7  -4   59.22    1.91
   1  -7  -3   23.64    1.28
   1  -7  -3   24.73    1.10
   1  -7  -2    7.25    0.76
   1  -7  -2    7.60    0.69
   1  -7  -1    7.80    0.69
   1  -7  -1    7.91    0.64
   1  -7  -1    8.00    0.75
   1  -7   0  103.39    2.37
   1  -7   0  104.82    2.44
   1  -7   0  101.69    2.26
   1  -7   1  563.81    5.97
   1  -7   1  578.83    5.93
   1  -7   1  563.21    5.79
   1  -7   2    3.91    0.49
   1  -7   2    5.18    0.55
   1  -7   2    5.46    0.60
   1  -7   3   31.70    1.27
   1  -7   3   33.48    1.22
   1  -7   3   31.49    1.25
   1  -7   4  104.27    2.37
   1  -7   4  107.47    2.29
   1  -7   5    3.60    0.54
   1  -7   5    3.30    0.45
   1  -7   6   79.76    2.10
  -1   7  -6   74.97    2.10
   1  -7   6   78.66    2.09
   1  -7   7   57.31    1.81
   1  -7   7   56.23    1.77
   1  -7   8  146.18    2.86
   1  -7   8  145.76    2.89
   1  -7   9    9.70    0.72
   1  -7  10    0.63    0.27
   1  -7  10    1.69    0.33
   1  -6  -7   14.89    0.81
   1  -6  -6    6.44    0.87
   1  -6  -5  299.26    4.18
   1  -6  -4    6.60    0.91
   1  -6  -3   60.27    1.70
   1  -6  -3   56.10    1.81
   1  -6  -2  132.61    2.67
   1  -6  -2  131.93    2.58
   1  -6  -1    8.73    0.67
   1  -6  -1    8.20    0.57
   1  -6  -1    9.17    0.64
   1  -6   0   70.37    1.62
   1  -6   0   72.17    1.72
   1  -6   0   67.56    1.75
   1  -6   0   70.42    1.85
   1  -6   1  174.47    2.72
   1  -6   1  171.54    2.75
   1  -6   2  157.86    2.58
   1  -6   3  156.27    2.56
   1  -6   3  153.22    2.61
   1  -6   3  153.15    2.64
   1  -6   4   46.06    1.23
   1  -6   4   43.98    1.32
   1  -6   5    3.87    0.50
   1  -6   5    3.96    0.49
   1  -6   5    3.35    0.40
   1  -6   6  117.96    2.52
   1  -6   6  120.84    2.55
   1  -6   6  116.76    2.45
  -1   6  -6  116.46    2.58
   1  -6   6  109.65    2.27
  -1   6  -7  219.73    3.83
   1  -6   7  221.86    3.37
   1  -6   7  223.67    3.75
   1  -6   7  231.24    3.70
   1  -6   8   51.23    1.78
   1  -6   9   11.45    0.85
   1  -6   9   10.67    0.80
   1  -6  10   11.61    0.75
   1  -6  10   11.24    0.70
   1  -6  11   16.77    0.61
  -1   6 -11   16.86    0.75
   1  -5  -8   14.53    0.82
   1  -5  -7   39.53    1.55
   1  -5  -6  672.32    6.92
   1  -5  -6  691.26    7.18
   1  -5  -5    6.07    0.96
   1  -5  -5   13.77    1.02
   1  -5  -4  420.29    5.32
   1  -5  -4  407.61    5.11
   1  -5  -4  419.04    5.54
   1  -5  -3  233.19    3.62
   1  -5  -3  233.85    3.47
   1  -5  -3  230.85    3.80
   1  -5  -2   27.26    1.11
   1  -5  -2   26.68    1.19
   1  -5  -2   27.49    0.94
   1  -5  -1  484.09    4.82
   1  -5  -1  495.12    4.43
   1  -5   0 1558.76    9.81
   1  -5   1 4519.00   23.67
   1  -5   2   50.24    1.01
   1  -5   3  492.34    4.07
   1  -5   4  374.98    3.74
   1  -5   5  214.02    3.04
   1  -5   5  214.94    3.11
   1  -5   5  205.04    3.09
  -1   5  -6  555.16    5.93
   1  -5   6  543.15    5.81
   1  -5   6  553.54    5.70
   1  -5   6  535.30    5.31
  -1   5  -7  417.38    5.43
   1  -5   7  416.97    5.16
   1  -5   8  535.01    5.95
   1  -5   8  543.23    6.27
   1  -5   9   12.09    0.84
   1  -5  10   53.02    1.48
   1  -5  10   54.16    1.62
  -1   5 -11   60.98    1.54
   1  -5  11   60.96    1.17
   1  -4  -8   11.25    0.74
   1  -4  -8   10.87    0.69
   1  -4  -7   18.44    1.36
   1  -4  -7   19.27    1.14
   1  -4  -6  139.18    2.71
   1  -4  -6  143.57    3.18
   1  -4  -6  135.00    3.08
   1  -4  -5   45.06    1.77
   1  -4  -5   45.81    1.72
   1  -4  -5   48.01    1.75
   1  -4  -4  152.03    3.05
   1  -4  -4  159.04    3.00
   1  -4  -4  150.64    2.87
   1  -4  -3   30.80    1.19
   1  -4  -3   28.99    0.89
   1  -4  -2  158.88    2.12
   1  -4  -2  167.25    2.59
   1  -4  -1  468.72    3.99
   1  -4  -1  482.66    4.36
   1  -4   0  114.88    1.79
   1  -4   0  114.72    1.66
   1  -4   0  110.98    1.25
   1  -4   1  423.45    3.55
   1  -4   1  425.49    3.05
   1  -4   2 4389.98   22.01
   1  -4   2 4424.30   22.52
   1  -4   3    5.80    0.42
   1  -4   4  181.50    2.34
  -1   4  -5 1309.95    9.40
   1  -4   5 1366.78    8.75
   1  -4   6  827.30    7.27
   1  -4   6  815.75    7.07
  -1   4  -7   21.21    1.18
   1  -4   7   21.01    1.07
   1  -4   8  464.85    5.89
   1  -4   8  474.97    5.43
   1  -4   9  207.98    3.65
   1  -4   9  206.49    3.34
   1  -4  10    4.56    0.54
   1  -4  10    4.32    0.45
  -1   4 -10    4.77    0.68
  -1   4 -11  137.98    2.45
   1  -4  11  135.03    2.04
   1  -3  -9   29.81    1.18
   1  -3  -9   27.51    1.02
   1  -3  -8  207.25    3.57
   1  -3  -8  219.60    3.62
   1  -3  -7    1.04    0.45
   1  -3  -7    0.23    0.44
   1  -3  -6    9.75    0.82
   1  -3  -6   10.72    0.83
   1  -3  -5   70.92    2.00
   1  -3  -5   73.23    2.07
   1  -3  -5   71.45    1.71
   1  -3  -5   70.44    1.84
   1  -3  -4   11.75    0.75
   1  -3  -3   42.71    1.26
   1  -3  -3   45.46    1.12
   1  -3  -2   40.72    0.91
   1  -3  -2   39.83    0.73
   1  -3  -1    0.24    0.14
   1  -3  -1    0.15    0.16
   1  -3   0  270.11    2.41
   1  -3   0  265.24    1.87
   1  -3   0  265.44    2.39
   1  -3   0  266.13    2.51
   1  -3   1 1530.43    7.98
   1  -3   1 1524.89    8.61
   1  -3   2   54.64    0.75
   1  -3   2   56.62    0.96
   1  -3   3 1717.79    9.65
   1  -3   4   51.08    1.02
  -1   3  -5   48.69    1.38
   1  -3   5   47.87    1.05
  -1   3  -6  243.15    3.59
   1  -3   6  240.53    3.27
   1  -3   7  124.49    2.59
   1  -3   7  115.22    2.36
  -1   3  -7  119.79    2.74
   1  -3   8   88.96    2.33
   1  -3   8   89.17    2.13
  -1   3  -8   89.84    2.56
   1  -3   9   10.16    0.83
   1  -3   9   10.09    0.71
   1  -3  10   15.75    0.86
  -1   3 -10   15.77    1.09
   1  -3  11    0.81    0.20
  -1   3 -11    0.17    0.32
   1  -2 -10   11.12    0.64
   1  -2 -10   12.45    0.66
   1  -2 -10   11.21    0.56
   1  -2  -9  125.16    2.50
   1  -2  -9  123.43    2.55
   1  -2  -9  122.31    2.53
   1  -2  -8   19.43    1.16
   1  -2  -8   19.49    1.31
   1  -2  -7  240.58    3.92
   1  -2  -7  237.74    4.03
   1  -2  -6    1.77    0.51
   1  -2  -6    1.94    0.44
   1  -2  -5   33.29    1.31
   1  -2  -5   32.11    1.21
   1  -2  -4  167.74    2.38
   1  -2  -3   18.59    0.67
   1  -2  -2    5.48    0.32
   1  -2  -1  268.17    1.72
   1  -2   0 9999.00   46.69
   1  -2   1 7403.43   35.37
  -1   2  -1 7417.48   34.61
   1  -2   2  547.14    3.49
   1  -2   2  552.40    3.43
   1  -2   3  818.19    4.89
   1  -2   4   58.32    0.99
  -1   2  -4  128.76    1.52
  -1   2  -5  478.23    4.07
  -1   2  -6   74.81    1.56
   1  -2   7  187.23    2.88
  -1   2  -7  191.59    3.22
   1  -2   7  188.59    3.17
   1  -2   8  384.73    4.86
  -1   2  -8  382.11    4.88
   1  -2   9   84.53    2.12
  -1   2  -9   86.65    2.17
  -1   2 -10   42.57    1.38
  -1   2 -11   25.99    0.82
   1  -1 -10    9.25    0.68
   1  -1 -10    8.56    0.63
   1  -1  -9    0.67    0.66
   1  -1  -8   78.07    2.24
   1  -1  -8   79.48    2.21
   1  -1  -7  618.16    6.65
   1  -1  -7  624.25    6.59
   1  -1  -7  620.26    7.30
   1  -1  -7  599.96    6.94
   1  -1  -6  575.78    6.08
   1  -1  -6  580.47    6.30
   1  -1  -6  566.12    5.90
   1  -1  -6  577.21    6.54
   1  -1  -5   68.66    1.79
   1  -1  -4  122.54    2.09
   1  -1  -3   65.70    1.30
   1  -1  -3   58.05    1.09
   1  -1  -2 1548.92    8.81
   1  -1  -2 1539.60    8.41
   1  -1  -1 1382.76    7.55
   1  -1  -1 1403.01    6.93
   1  -1   0 2818.67   13.58
   1  -1   0 2823.95   13.78
  -1   1  -1 2220.94   10.83
   1  -1   1 2215.40   10.83
  -1   1  -2   97.67    1.09
  -1   1  -3 2537.71   13.60
  -1   1  -3 2522.65   12.45
  -1   1  -4 1083.11    5.93
   1  -1   4 1075.81    6.10
  -1   1  -5   70.32    1.68
  -1   1  -5   68.28    1.42
  -1   1  -6   42.30    1.27
  -1   1  -6   40.63    1.25
  -1   1  -6   40.35    1.38
  -1   1  -6   43.07    1.50
  -1   1  -7   41.56    1.67
   1  -1   7   38.16    1.37
  -1   1  -7   42.00    1.55
  -1   1  -7   44.21    1.40
  -1   1  -8   78.25    2.54
   1  -1   8   72.82    1.95
  -1   1  -8   76.75    2.15
  -1   1  -8   78.87    2.19
  -1   1  -9   12.34    1.06
  -1   1  -9    5.37    0.67
  -1   1 -10    8.58    0.81
  -1   1 -10    9.47    0.73
   1   0 -11    0.36    0.23
   1   0 -10   14.01    0.88
   1   0  -9   21.62    1.35
   1   0  -9   20.81    1.14
   1   0  -9   20.30    1.17
   1   0  -8  169.69    3.72
   1   0  -8  173.63    3.33
   1   0  -8  173.88    3.20
   1   0  -7   67.07    1.97
   1   0  -7   66.67    1.93
   1   0  -7   71.03    2.28
   1   0  -7   70.56    2.13
   1   0  -6  228.21    3.55
   1   0  -6  219.08    3.32
   1   0  -6  223.98    3.71
   1   0  -5 1835.58   11.95
   1   0  -4  281.73    3.15
   1   0  -3    6.41    0.30
   1   0  -3    7.88    0.43
   1   0  -1  453.97    2.68
   1   0   0 3846.44   18.13
  -1   0   0 3866.03   18.21
  -1   0   0 3872.52   18.27
  -1   0  -1  135.40    1.22
  -1   0  -1  135.05    1.12
  -1   0  -2 4841.97   23.79
  -1   0  -2 4838.77   23.79
  -1   0  -3   22.32    0.71
  -1   0  -4 1469.85    9.58
  -1   0  -5  459.55    4.40
  -1   0  -5  475.56    4.93
  -1   0  -6   16.96    1.00
  -1   0  -6   18.04    0.97
  -1   0  -7   55.48    1.70
  -1   0  -7   55.59    1.84
  -1   0  -7   55.56    2.05
  -1   0  -7   55.22    1.93
  -1   0  -7   54.10    1.64
  -1   0  -8  495.30    6.01
  -1   0  -8  488.34    5.92
  -1   0  -9   13.21    1.06
  -1   0  -9   13.21    0.94
  -1   0  -9   13.26    0.91
  -1   0 -10   32.53    1.19
  -1   0 -10   30.07    1.08
   1   1 -11   14.12    0.68
   1   1 -10   13.70    0.88
   1   1  -9  117.33    3.01
   1   1  -9  119.50    2.67
  -1  -1   8   16.76    0.96
   1   1  -8   18.77    1.26
   1   1  -8   18.32    1.16
   1   1  -8   17.57    1.07
  -1  -1   7  562.90    5.47
  -1  -1   7  577.16    5.91
   1   1  -7  580.00    6.43
   1   1  -7  588.46    6.71
   1   1  -7  578.15    6.05
   1   1  -6  144.81    2.72
   1   1  -5   82.86    1.77
   1   1  -5   82.62    1.36
   1   1  -4   66.53    1.10
   1   1  -4   65.96    1.35
   1   1  -3  245.95    2.33
   1   1  -2  517.15    3.28
  -1  -1   1 2633.65   13.06
  -1  -1   1 2649.87   12.95
  -1  -1   0 4723.35   22.63
  -1  -1   0 4736.96   22.23
  -1  -1  -1 3339.24   16.47
  -1  -1  -1 3360.33   16.71
  -1  -1  -1 3332.83   16.45
  -1  -1  -2 4001.02   20.15
  -1  -1  -2 4004.99   20.16
  -1  -1  -2 3952.18   19.74
  -1  -1  -3 1191.07    7.18
  -1  -1  -3 1218.38    7.81
  -1  -1  -4 1437.81    9.66
  -1  -1  -5 1575.53   10.56
  -1  -1  -5 1583.78   11.14
  -1  -1  -6  399.77    5.11
  -1  -1  -6  402.71    4.99
  -1  -1  -6  404.51    5.37
  -1  -1  -7 1343.57   11.44
  -1  -1  -7 1390.33   11.14
  -1  -1  -7 1408.31   10.60
  -1  -1  -7 1380.45   11.86
  -1  -1  -7 1362.11   11.47
  -1  -1  -8   18.31    1.15
  -1  -1  -8   16.60    1.20
  -1  -1  -8   18.49    1.12
  -1  -1  -9  153.07    2.87
  -1  -1 -10  152.49    2.23
   1   2 -11    5.30    0.45
  -1  -2  10   26.82    1.09
   1   2 -10   29.77    1.22
   1   2 -10   27.34    1.37
  -1  -2   9  131.79    2.51
  -1  -2   9  135.81    2.78
  -1  -2   8   54.62    1.66
   1   2  -8   59.53    2.11
   1   2  -8   54.37    1.75
  -1  -2   8   56.13    1.81
   1   2  -8   55.56    1.95
   1   2  -7  421.28    5.29
  -1  -2   7  419.46    5.02
  -1  -2   7  419.10    4.72
   1   2  -7  410.45    4.79
   1   2  -6  447.88    4.91
   1   2  -6  445.80    4.00
   1   2  -5   79.83    1.37
   1   2  -5   78.42    1.67
   1   2  -4  985.10    6.67
   1   2  -3  503.15    3.66
  -1  -2   2  891.31    5.53
  -1  -2   1 3842.56   18.92
  -1  -2   1 3844.14   18.53
  -1  -2   1 3849.99   18.79
  -1  -2   0 1938.49   10.03
  -1  -2   0 1941.26    9.82
  -1  -2   0 1939.18   10.08
  -1  -2  -1  558.23    3.91
  -1  -2  -1  562.83    3.72
  -1  -2  -2  953.46    5.08
  -1  -2  -2  963.42    5.91
  -1  -2  -2  948.44    6.29
  -1  -2  -3  378.80    3.76
  -1  -2  -3  378.93    3.31
  -1  -2  -4  416.26    4.41
  -1  -2  -4  384.53    4.08
  -1  -2  -5    6.74    0.60
  -1  -2  -5    6.19    0.61
  -1  -2  -5    5.98    0.65
  -1  -2  -5    6.54    0.62
  -1  -2  -5    6.85    0.60
  -1  -2  -6 1433.32   10.49
  -1  -2  -6 1436.98   11.13
  -1  -2  -6 1407.87   11.86
  -1  -2  -6 1414.72   11.42
  -1  -2  -7  550.42    6.70
  -1  -2  -7  545.60    5.83
  -1  -2  -7  559.11    6.31
  -1  -2  -8  297.02    4.27
  -1  -2  -8  305.97    4.56
  -1  -2  -9  410.48    4.60
  -1  -2  -9  414.57    4.56
  -1  -2 -10  323.50    3.02
  -1  -2 -10  325.37    3.18
  -1  -3  11    0.12    0.18
  -1  -3  10   27.85    1.19
   1   3 -10   28.37    1.38
  -1  -3  10   27.80    1.07
  -1  -3   9  192.54    3.49
   1   3  -9  188.43    3.80
  -1  -3   9  193.28    3.24
   1   3  -8    3.98    0.60
  -1  -3   8    4.14    0.57
  -1  -3   8    4.12    0.54
  -1  -3   7  279.89    3.90
  -1  -3   7  284.10    4.12
   1   3  -7  293.28    4.24
   1   3  -7  291.35    3.32
   1   3  -6    1.15    0.25
  -1  -3   6    1.81    0.34
   1   3  -5  268.66    3.22
   1   3  -4  128.77    1.86
  -1  -3   3  194.42    2.23
  -1  -3   2 1322.48    7.50
  -1  -3   2 1335.23    6.95
  -1  -3   2 1344.89    7.73
  -1  -3   1  551.05    3.80
  -1  -3   1  539.62    3.62
  -1  -3   1  550.67    3.41
  -1  -3   0 2016.71   10.83
  -1  -3   0 2026.45   10.87
  -1  -3   0 2042.86   10.78
  -1  -3  -1  166.40    1.85
  -1  -3  -1  164.60    1.94
  -1  -3  -2  422.94    3.83
  -1  -3  -2  446.31    3.61
  -1  -3  -3    0.96    0.22
  -1  -3  -3    0.89    0.25
  -1  -3  -4   48.49    1.51
  -1  -3  -4   48.16    1.39
  -1  -3  -4   46.38    1.37
  -1  -3  -5  221.51    3.32
  -1  -3  -5  229.63    3.69
  -1  -3  -5  222.52    3.56
  -1  -3  -5  230.66    3.94
  -1  -3  -6   38.20    1.45
  -1  -3  -6   37.25    1.51
  -1  -3  -6   38.31    1.50
  -1  -3  -6   39.53    1.72
  -1  -3  -6   39.64    1.47
  -1  -3  -7  506.89    5.44
  -1  -3  -7  507.32    5.76
  -1  -3  -8  123.80    2.45
  -1  -3  -9   29.16    1.11
   1   4 -11   90.35    1.92
  -1  -4  11   96.23    1.84
  -1  -4  11   94.50    1.62
  -1  -4  10   16.06    0.87
  -1  -4  10   17.32    0.97
   1   4 -10   14.95    1.00
  -1  -4   9   55.00    1.87
   1   4  -9   50.33    1.91
  -1  -4   9   54.39    1.74
  -1  -4   8   14.84    0.97
   1   4  -8   10.92    0.88
   1   4  -7  503.79    5.77
  -1  -4   7  503.44    5.58
  -1  -4   7  503.28    5.83
  -1  -4   6  387.43    4.47
  -1  -4   6  397.30    4.66
   1   4  -6  382.59    4.45
   1   4  -5   17.02    0.78
  -1  -4   5   18.40    0.90
  -1  -4   4  467.92    4.25
  -1  -4   4  480.64    4.10
  -1  -4   3  250.93    2.49
  -1  -4   3  253.51    2.70
  -1  -4   2  306.74    2.88
  -1  -4   2  300.35    2.63
  -1  -4   1   12.60    0.52
  -1  -4   0 2217.93   12.15
  -1  -4   0 2198.59   12.17
  -1  -4  -1  936.35    6.50
  -1  -4  -1  943.47    6.35
  -1  -4  -2   21.04    0.76
  -1  -4  -2   19.92    0.75
  -1  -4  -3   93.66    1.85
  -1  -4  -3   94.57    1.75
  -1  -4  -3   97.01    2.05
  -1  -4  -4  145.83    3.01
  -1  -4  -4  153.45    2.89
  -1  -4  -4  159.48    2.74
  -1  -4  -4  143.04    2.57
  -1  -4  -5  224.75    3.37
  -1  -4  -5  219.68    3.93
  -1  -4  -5  220.59    3.72
  -1  -4  -5  230.81    3.50
  -1  -4  -5  214.28    3.40
  -1  -4  -6   55.44    1.70
  -1  -4  -6   50.83    1.91
  -1  -4  -6   50.22    1.63
  -1  -4  -7  198.22    3.48
  -1  -4  -7  195.12    3.07
  -1  -4  -8   98.19    2.13
  -1  -5  11  347.64    3.73
  -1  -5  11  342.36    3.46
   1   5 -10  203.98    3.39
  -1  -5  10  215.78    3.25
  -1  -5   9   52.76    1.75
  -1  -5   9   54.59    1.85
  -1  -5   8 1075.36    9.48
  -1  -5   7  229.48    3.66
  -1  -5   7  245.42    3.87
  -1  -5   7  242.60    3.80
  -1  -5   7  238.84    3.49
  -1  -5   7  241.09    3.41
   1   5  -7  243.13    3.28
   1   5  -6   21.43    1.02
  -1  -5   6   22.02    1.01
  -1  -5   6   22.05    0.93
  -1  -5   6   25.76    1.15
  -1  -5   6   26.57    1.14
   1   5  -5  279.52    3.49
  -1  -5   5  284.71    3.26
  -1  -5   5  282.50    3.61
  -1  -5   4   29.18    1.00
  -1  -5   4   29.36    0.87
  -1  -5   3  201.00    2.28
  -1  -5   3  206.97    2.60
  -1  -5   2  329.01    3.33
  -1  -5   1  652.13    5.08
  -1  -5   0 1358.58    8.64
  -1  -5  -1   62.01    1.39
  -1  -5  -1   65.94    1.47
  -1  -5  -2   63.11    1.59
  -1  -5  -2   60.70    1.41
  -1  -5  -2   64.87    1.56
  -1  -5  -3  526.78    5.69
  -1  -5  -4   49.81    1.49
  -1  -5  -4   50.62    1.76
  -1  -5  -5    8.09    0.71
  -1  -5  -5    5.85    0.74
  -1  -5  -6   58.47    1.57
  -1  -5  -6   58.74    1.86
  -1  -5  -7   20.28    1.13
  -1  -5  -8    1.05    0.43
  -1  -6  11    8.55    0.51
  -1  -6  11    8.34    0.52
  -1  -6  10  455.74    4.84
  -1  -6  10  464.46    4.97
  -1  -6   9    0.54    0.34
  -1  -6   8   60.47    1.92
  -1  -6   8   57.13    1.62
  -1  -6   8   60.33    1.92
  -1  -6   7  293.82    4.24
  -1  -6   7  296.97    4.26
  -1  -6   6  210.20    3.38
  -1  -6   6  215.31    3.39
  -1  -6   6  210.75    3.35
  -1  -6   5    6.47    0.54
  -1  -6   5    7.62    0.62
  -1  -6   5    7.90    0.63
  -1  -6   4   57.45    1.62
  -1  -6   4   57.04    1.50
  -1  -6   4   55.86    1.53
  -1  -6   4   55.01    1.42
  -1  -6   3  146.51    2.50
  -1  -6   3  145.54    2.52
  -1  -6   3  148.43    2.45
  -1  -6   3  153.98    2.41
  -1  -6   2   46.63    1.38
  -1  -6   2   49.68    1.30
  -1  -6   2   45.73    1.37
  -1  -6   1   25.41    1.05
  -1  -6   1   26.79    1.04
  -1  -6   1   24.25    0.88
  -1  -6   1   23.94    1.02
  -1  -6   0  124.27    2.25
  -1  -6   0  123.72    2.07
  -1  -6   0  124.05    2.33
  -1  -6   0  124.25    2.38
  -1  -6  -1   31.73    1.20
  -1  -6  -2   45.08    1.41
  -1  -6  -5   28.27    1.35
  -1  -6  -6    7.67    0.82
  -1  -6  -7   15.37    0.70
  -1  -7  10    0.68    0.26
  -1  -7  10    0.75    0.29
  -1  -7   9  152.87    2.80
  -1  -7   9  151.19    2.74
  -1  -7   8  171.87    3.13
  -1  -7   8  168.93    3.04
  -1  -7   8  168.82    2.90
  -1  -7   7  541.33    5.91
  -1  -7   7  555.41    6.01
  -1  -7   6  225.82    3.23
  -1  -7   6  226.19    3.54
  -1  -7   6  224.95    3.51
  -1  -7   5    5.94    0.59
  -1  -7   5    5.00    0.53
  -1  -7   4  448.32    5.05
  -1  -7   4  449.63    4.83
  -1  -7   4  446.26    4.89
  -1  -7   3  306.74    3.99
  -1  -7   3  318.87    3.85
  -1  -7   2  222.93    3.39
  -1  -7   2  216.34    3.00
  -1  -7   2  221.15    3.53
  -1  -7   2  221.58    3.38
  -1  -7   1  891.93    7.59
  -1  -7   1  880.39    7.83
  -1  -7   1  886.33    7.73
  -1  -7   0  471.61    5.03
  -1  -7   0  466.21    5.18
  -1  -7   0  474.48    5.32
  -1  -7  -1   50.48    1.60
  -1  -7  -2  136.49    2.56
  -1  -8  10    5.86    0.43
  -1  -8   9  260.12    3.03
  -1  -8   9  267.31    3.37
  -1  -8   8   60.15    1.65
  -1  -8   8   60.86    1.67
  -1  -8   7    9.81    0.78
  -1  -8   7    9.52    0.71
  -1  -8   6   84.73    1.96
  -1  -8   5    5.79    0.61
  -1  -8   4    8.22    0.77
  -1  -8   4    7.74    0.71
  -1  -8   4    8.49    0.69
  -1  -8   3  147.83    3.05
  -1  -8   3  145.34    2.79
  -1  -8   2    2.31    0.44
  -1  -8   2    1.65    0.41
  -1  -8   1    9.62    0.77
  -1  -8   1    9.52    0.75
  -1  -8   1   11.31    0.81
  -1  -8   0   88.58    2.18
  -1  -8   0   88.58    2.03
  -1  -8  -1   12.95    0.82
  -1  -8  -2   15.26    0.79
  -1  -8  -2   16.10    0.83
  -1  -9   9  223.28    2.46
  -1  -9   9  228.15    2.47
  -1  -9   8    5.59    0.52
  -1  -9   8    6.78    0.54
  -1  -9   7    0.14    0.28
  -1  -9   7   -0.01    0.28
  -1  -9   7    0.11    0.19
  -1  -9   6    0.28    0.27
  -1  -9   6    0.09    0.31
  -1  -9   6    0.27    0.33
  -1  -9   5    9.55    0.80
  -1  -9   5    9.71    0.72
  -1  -9   5   10.42    0.79
  -1  -9   5    9.18    0.63
  -1  -9   4    8.66    0.70
  -1  -9   4   10.03    0.82
  -1  -9   4    8.53    0.71
  -1  -9   3   30.57    1.28
  -1  -9   3   30.89    1.26
  -1  -9   3   29.68    1.18
  -1  -9   3   29.10    1.29
  -1  -9   2  171.62    2.97
  -1  -9   2  162.28    3.04
  -1  -9   2  167.66    3.01
  -1  -9   1   58.95    1.64
  -1  -9   1   58.84    1.73
  -1  -9   0  363.07    4.28
  -1  -9   0  369.65    4.39
  -1  -9   0  362.65    3.97
  -1  -9  -1    0.89    0.32
  -1  -9  -1    0.71    0.29
  -1 -10   8   44.19    1.10
  -1 -10   8   43.09    1.03
  -1 -10   7   48.98    1.04
  -1 -10   7   50.58    1.37
  -1 -10   6    1.98    0.32
  -1 -10   6    1.97    0.35
  -1 -10   5    0.14    0.24
  -1 -10   5    0.29    0.21
  -1 -10   5    0.27    0.26
  -1 -10   5    0.43    0.27
  -1 -10   4    3.74    0.47
  -1 -10   4    2.68    0.38
  -1 -10   4    2.80    0.38
  -1 -10   3   10.16    0.68
  -1 -10   3   10.40    0.70
  -1 -10   3    9.25    0.65
  -1 -10   2    8.72    0.64
  -1 -10   2    7.75    0.58
  -1 -10   1   69.52    1.61
  -1 -10   1   68.82    1.46
  -1 -10   0   75.61    1.51
  -1 -10  -1    4.84    0.33
  -1 -11   5  105.01    1.57
  -1 -11   5   96.79    1.43
  -1 -11   4    4.04    0.31
  -1 -11   4    3.77    0.35
  -1 -11   3    3.03    0.31
  -1 -11   3    3.03    0.31
  -1 -11   2   35.31    0.82
  -1 -11   2   34.53    0.88
  -1 -11   1   15.65    0.53
   2 -11   1   36.77    0.87
   2 -11   1   35.87    0.87
   2 -11   2    3.49    0.33
   2 -11   4   21.12    0.73
   2 -11   4   19.28    0.65
   2 -11   5    0.62    0.18
   2 -11   5    0.72    0.20
   2 -10  -1    0.06    0.20
   2 -10   0    1.08    0.26
   2 -10   1   29.62    1.06
   2 -10   1   29.67    1.08
   2 -10   2   68.02    1.64
   2 -10   2   67.58    1.68
   2 -10   3   22.93    1.01
   2 -10   3   24.23    0.94
   2 -10   4   54.45    1.48
   2 -10   5   17.69    0.80
   2 -10   5   16.23    0.80
   2 -10   6    0.19    0.18
   2 -10   6    0.08    0.22
   2 -10   7    8.20    0.54
   2 -10   8   58.18    1.20
   2  -9  -3    3.88    0.42
   2  -9  -3    3.27    0.32
   2  -9  -2   97.15    2.05
   2  -9  -2   92.03    1.86
   2  -9  -1    0.07    0.29
   2  -9  -1    0.32    0.25
   2  -9  -1    0.09    0.33
   2  -9   0  114.32    2.30
   2  -9   0  118.66    2.57
   2  -9   1  111.19    2.40
   2  -9   1  108.80    2.51
   2  -9   1  112.39    2.43
   2  -9   2    6.78    0.66
   2  -9   2    6.38    0.60
   2  -9   2    6.94    0.65
   2  -9   3    1.50    0.35
   2  -9   3    1.21    0.38
   2  -9   4  353.59    4.61
   2  -9   4  360.38    4.47
   2  -9   5    0.74    0.32
   2  -9   5    0.63    0.36
   2  -9   6   41.05    1.44
   2  -9   6   39.36    1.27
   2  -9   7    3.14    0.41
   2  -9   8   67.12    1.46
   2  -9   8   69.47    1.52
   2  -9   9    0.54    0.20
   2  -8  -5    4.45    0.40
   2  -8  -4  114.78    2.25
   2  -8  -3   10.41    0.69
   2  -8  -3   10.61    0.82
   2  -8  -2   14.36    0.99
   2  -8  -2   13.76    0.88
   2  -8  -1   93.43    2.29
   2  -8  -1   93.17    2.11
   2  -8  -1   92.80    2.42
   2  -8   0  157.64    3.19
   2  -8   0  152.19    2.87
   2  -8   1   46.95    1.63
   2  -8   1   47.28    1.74
   2  -8   1   51.67    1.71
   2  -8   2  494.03    5.57
   2  -8   2  495.92    5.46
   2  -8   2  511.20    5.94
   2  -8   3   19.48    1.06
   2  -8   3   18.31    1.05
   2  -8   3   19.72    0.99
   2  -8   4   46.46    1.56
   2  -8   4   47.37    1.65
   2  -8   5  327.75    4.14
   2  -8   5  332.70    4.25
   2  -8   6  111.71    2.50
   2  -8   6  110.17    2.41
   2  -8   7  178.07    2.99
   2  -8   7  178.93    3.07
   2  -8   8    5.52    0.52
   2  -8   8    6.38    0.59
   2  -8   9   14.08    0.69
   2  -8   9   14.98    0.76
   2  -7  -6   32.91    0.89
   2  -7  -6   34.06    1.08
   2  -7  -5   12.30    0.76
   2  -7  -5    9.15    0.74
   2  -7  -4  150.77    2.53
   2  -7  -4  149.84    3.09
   2  -7  -3    1.10    0.36
   2  -7  -3    0.68    0.44
   2  -7  -2   73.17    2.00
   2  -7  -2   73.08    2.24
   2  -7  -1    5.79    0.54
   2  -7  -1    6.23    0.65
   2  -7  -1    6.17    0.60
   2  -7  -1    6.91    0.75
   2  -7   0   22.40    1.09
   2  -7   0   21.74    1.01
   2  -7   1  634.33    6.32
   2  -7   1  644.03    6.69
   2  -7   2   44.97    1.47
   2  -7   2   41.47    1.55
   2  -7   2   43.65    1.49
   2  -7   3  384.98    4.75
   2  -7   3  388.25    4.67
   2  -7   3  389.69    4.42
   2  -7   4   12.37    0.80
   2  -7   4   12.68    0.80
   2  -7   5   61.27    1.65
   2  -7   5   60.27    1.83
   2  -7   5   60.10    1.76
   2  -7   6  361.79    4.63
   2  -7   6  357.49    4.54
   2  -7   7    2.54    0.46
   2  -7   7    2.73    0.52
   2  -7   7    2.26    0.43
   2  -7   8  351.13    4.56
   2  -7   8  356.60    4.58
   2  -7   9   35.95    1.28
   2  -7  10    1.80    0.30
   2  -7  10    2.11    0.32
   2  -6  -7   33.78    1.02
   2  -6  -7   30.71    1.08
   2  -6  -6   34.99    1.40
   2  -6  -5   67.29    2.01
   2  -6  -4    2.82    0.82
   2  -6  -4    1.30    0.34
   2  -6  -3  116.95    2.50
   2  -6  -3  116.74    2.67
   2  -6  -2    0.84    0.29
   2  -6  -2    0.40    0.23
   2  -6  -1  164.66    2.70
   2  -6  -1  170.25    2.75
   2  -6  -1  161.84    3.15
   2  -6   0   20.49    0.92
   2  -6   0   20.97    1.06
   2  -6   1   16.81    0.93
   2  -6   1   17.30    0.84
   2  -6   1   17.76    0.88
   2  -6   2  613.42    5.58
   2  -6   2  597.98    5.93
   2  -6   2  599.15    5.64
   2  -6   3  675.69    5.84
   2  -6   3  683.36    6.05
   2  -6   4   83.24    1.85
   2  -6   4   83.70    1.91
   2  -6   5  607.87    5.97
   2  -6   5  607.79    6.11
   2  -6   5  618.65    6.06
   2  -6   6    2.60    0.48
  -2   6  -6    1.39    0.42
   2  -6   6    2.22    0.43
   2  -6   6    2.75    0.49
   2  -6   7  612.40    5.92
   2  -6   7  612.19    6.66
   2  -6   8   11.17    0.87
   2  -6   8   12.00    0.87
   2  -6   9   35.07    1.38
   2  -6   9   33.81    1.30
   2  -6  10   24.49    1.01
   2  -6  10   24.25    0.93
   2  -5  -8  113.49    1.88
   2  -5  -7    5.82    0.62
   2  -5  -7    6.14    0.92
   2  -5  -6   72.74    2.21
   2  -5  -6   74.16    2.21
   2  -5  -5  169.74    3.31
   2  -5  -5  170.45    3.57
   2  -5  -4  144.61    3.01
   2  -5  -4  142.85    3.19
   2  -5  -4  140.40    2.89
   2  -5  -3  109.44    2.48
   2  -5  -3  108.93    2.64
   2  -5  -3  107.87    2.36
   2  -5  -3  107.20    2.06
   2  -5  -2  114.18    2.08
   2  -5  -2  119.10    2.41
   2  -5  -2  115.27    2.21
   2  -5  -1   84.80    1.89
   2  -5  -1   79.40    1.68
   2  -5   0  123.56    2.06
   2  -5   2   50.39    1.31
   2  -5   2   53.61    1.29
   2  -5   3  297.38    3.47
   2  -5   4  245.37    3.20
   2  -5   5   59.49    1.64
   2  -5   5   58.92    1.64
   2  -5   6   24.11    1.03
   2  -5   6   18.48    0.88
  -2   5  -6   19.83    1.09
   2  -5   6   22.74    1.12
  -2   5  -7   12.46    0.94
   2  -5   7   11.68    0.88
   2  -5   7   11.72    0.86
   2  -5   8    4.45    0.62
   2  -5   8    4.51    0.58
   2  -5   9   -0.01    0.28
   2  -5  10   14.14    0.72
   2  -5  10   14.93    0.84
   2  -5  11   28.10    0.84
  -2   5 -11   28.62    1.00
   2  -4  -9    4.54    0.40
   2  -4  -8    1.93    0.38
   2  -4  -8    0.86    0.36
   2  -4  -7   15.02    1.30
   2  -4  -7   12.48    0.97
   2  -4  -7   13.10    0.87
   2  -4  -6    0.51    0.42
   2  -4  -6    1.08    0.84
   2  -4  -6    0.29    0.43
   2  -4  -5   36.89    1.60
   2  -4  -5   35.16    1.61
   2  -4  -4  138.01    2.77
   2  -4  -4  142.48    3.02
   2  -4  -3   15.61    0.73
   2  -4  -2   21.86    0.83
   2  -4  -1  115.53    1.87
   2  -4   0    4.22    0.34
   2  -4   0    3.14    0.33
   2  -4   1  673.73    5.02
   2  -4   1  674.22    5.11
   2  -4   2   75.82    1.36
   2  -4   3  153.49    2.09
   2  -4   4 1045.68    7.22
   2  -4   5   38.79    1.12
   2  -4   5   41.67    1.28
   2  -4   6  119.67    2.48
   2  -4   7  341.59    4.43
   2  -4   8   16.92    1.09
   2  -4   8   17.79    0.99
   2  -4   9   50.83    1.73
   2  -4   9   49.30    1.53
   2  -4  10   34.16    1.27
   2  -4  11    3.44    0.31
   2  -3  -9    0.62    0.55
   2  -3  -9    1.42    0.35
   2  -3  -8    1.41    0.49
   2  -3  -8    1.32    0.86
   2  -3  -8    1.11    0.46
   2  -3  -7  184.44    3.44
   2  -3  -7  184.64    3.70
   2  -3  -6   43.17    1.57
   2  -3  -6   44.01    1.74
   2  -3  -5   10.16    0.80
   2  -3  -5   10.56    0.77
   2  -3  -5    9.96    0.87
   2  -3  -4  222.61    3.33
   2  -3  -4  226.01    3.40
   2  -3  -3  207.98    3.00
   2  -3  -2    0.10    0.20
   2  -3  -1  533.81    4.37
   2  -3  -1  544.71    3.85
   2  -3   0  568.06    3.96
   2  -3   0  552.20    4.25
   2  -3   1  332.77    2.85
   2  -3   1  320.61    2.10
   2  -3   1  330.66    2.76
  -2   3  -1  315.23    2.11
   2  -3   2  155.28    1.75
   2  -3   3   58.97    1.12
   2  -3   4  853.90    5.87
   2  -3   5  410.63    3.68
  -2   3  -5  415.18    4.50
   2  -3   6  377.92    4.51
  -2   3  -6  380.67    4.73
   2  -3   6  372.40    4.25
   2  -3   7  188.52    3.29
  -2   3  -7  190.41    3.55
   2  -3   7  182.69    3.00
   2  -3   8  283.46    4.22
   2  -3   8  274.51    3.78
   2  -3   9   35.17    1.42
  -2   3 -10    0.40    0.41
   2  -3  10    0.32    0.23
  -2   3 -11  473.85    4.58
   2  -2 -10    0.03    0.22
   2  -2 -10   -0.07    0.26
   2  -2  -9    2.80    0.69
   2  -2  -9    2.53    0.51
   2  -2  -9    2.63    0.51
   2  -2  -8    6.10    0.75
   2  -2  -8    7.25    0.98
   2  -2  -7    6.11    0.87
   2  -2  -7    5.42    0.71
   2  -2  -6   49.99    1.67
   2  -2  -6   47.40    1.67
   2  -2  -6   50.60    1.74
   2  -2  -5  476.38    5.33
   2  -2  -5  476.84    5.25
   2  -2  -5  465.39    5.04
   2  -2  -4 1505.36   10.34
   2  -2  -3   79.66    1.59
   2  -2  -2  895.25    6.16
   2  -2  -1  391.71    2.67
   2  -2  -1  373.84    3.16
   2  -2   0 2951.74   15.19
   2  -2   0 2952.73   14.72
   2  -2   1   40.15    0.73
  -2   2  -1   39.88    0.62
   2  -2   2  196.26    1.88
  -2   2  -2  193.21    1.73
   2  -2   3  118.45    1.47
  -2   2  -3  108.90    1.42
   2  -2   4  739.73    4.97
  -2   2  -4  727.24    5.75
   2  -2   5   13.26    0.52
  -2   2  -5   12.55    0.74
   2  -2   6    0.24    0.21
   2  -2   6    0.94    0.28
  -2   2  -6    0.37    0.26
  -2   2  -6    0.64    0.22
  -2   2  -6    0.33    0.28
   2  -2   7   39.38    1.44
  -2   2  -7   40.76    1.65
  -2   2  -7   39.72    1.49
  -2   2  -8  418.39    5.17
   2  -2   8  411.47    5.08
   2  -2   9   36.65    1.35
  -2   2  -9   34.71    1.65
  -2   2  -9   38.19    1.43
  -2   2 -10   20.03    0.91
  -2   2 -10   19.58    1.10
   2  -1 -10   12.94    0.71
   2  -1 -10   13.93    0.81
   2  -1  -9    4.05    0.74
   2  -1  -9    3.57    0.63
   2  -1  -8    6.67    0.82
   2  -1  -7   21.24    1.18
   2  -1  -7   23.27    1.23
   2  -1  -6   87.49    2.15
   2  -1  -6   90.06    2.41
   2  -1  -6   88.89    2.16
   2  -1  -6   88.99    2.30
   2  -1  -5  161.23    2.79
   2  -1  -4  100.64    1.92
   2  -1  -3  332.74    3.31
   2  -1  -2  329.81    2.88
   2  -1  -2  331.32    2.00
  -2   1   1 3157.99   16.27
   2  -1  -1 3431.87   16.65
   2  -1  -1 3173.62   16.04
  -2   1   1 3371.61   15.55
  -2   1   0  605.98    3.09
  -2   1  -1  128.06    1.30
  -2   1  -2  354.09    2.75
   2  -1   2  335.60    2.14
  -2   1  -3   24.40    0.76
  -2   1  -3   53.38    1.04
  -2   1  -4  700.10    5.62
  -2   1  -5  117.68    2.27
  -2   1  -6   31.30    1.34
  -2   1  -6   30.57    1.26
  -2   1  -6   32.33    1.14
  -2   1  -6   31.52    1.33
   2  -1   6   31.75    1.17
  -2   1  -6   30.53    1.11
  -2   1  -7    3.74    0.59
  -2   1  -7    4.20    0.60
  -2   1  -7    4.42    0.51
  -2   1  -7    2.82    0.53
   2  -1   7    3.04    0.44
  -2   1  -8   83.35    2.60
  -2   1  -8   85.96    2.33
  -2   1  -9   29.66    1.48
  -2   1  -9   27.84    1.22
  -2   1  -9   28.35    1.27
  -2   1 -10    6.06    0.66
  -2   1 -10    7.26    0.60
   2   0 -11   91.79    1.61
   2   0 -11   97.73    1.61
   2   0 -10   27.70    1.18
   2   0  -9  130.22    2.87
   2   0  -9  124.57    2.47
   2   0  -8   43.79    1.86
   2   0  -8   46.01    1.59
   2   0  -7   43.19    1.58
   2   0  -7   42.88    1.50
   2   0  -7   42.29    1.66
   2   0  -7   43.68    1.78
   2   0  -6  249.97    3.70
   2   0  -6  245.55    3.89
   2   0  -6  251.04    3.49
   2   0  -6  248.55    3.59
   2   0  -5    2.35    0.37
   2   0  -4 1355.00    8.84
   2   0  -3 1401.04    8.30
   2   0  -3 1372.09    7.90
   2   0  -2   55.57    0.89
   2   0  -2   55.72    0.85
   2   0  -1  690.57    3.95
  -2   0   1  682.70    3.75
  -2   0   1  687.86    4.02
  -2   0   0 1514.04    7.64
   2   0   0 1512.75    7.46
  -2   0  -1  291.92    2.36
  -2   0  -1  293.30    2.18
  -2   0  -1  298.60    2.08
  -2   0  -2   56.07    0.96
  -2   0  -2   55.61    0.90
  -2   0  -2   56.03    1.05
  -2   0  -3 1066.83    6.50
  -2   0  -3 1045.51    6.96
  -2   0  -3 1051.75    6.94
  -2   0  -4  163.80    2.43
  -2   0  -5    6.73    0.58
  -2   0  -6   43.94    1.41
  -2   0  -6   42.88    1.38
  -2   0  -6   44.20    1.61
  -2   0  -6   42.03    1.54
  -2   0  -7   30.29    1.53
  -2   0  -7   34.68    1.36
  -2   0  -7   34.04    1.37
  -2   0  -7   32.93    1.46
  -2   0  -7   29.23    1.42
  -2   0  -8   -0.12    0.46
  -2   0  -8   -0.08    0.46
  -2   0  -8   -0.12    0.45
  -2   0  -9    0.32    0.43
  -2   0  -9    0.21    0.42
  -2   0  -9    0.07    0.37
  -2   0 -10   73.77    1.52
  -2   0 -10   78.80    1.71
   2   1 -11    4.28    0.41
   2   1 -10    1.03    0.42
  -2  -1   9   75.62    1.94
   2   1  -9   82.76    2.27
   2   1  -9   82.57    2.47
  -2  -1   8   77.04    1.92
   2   1  -8   74.90    2.27
   2   1  -8   78.18    2.40
  -2  -1   8   76.50    2.04
   2   1  -7    0.19    0.31
  -2  -1   7    0.42    0.25
   2   1  -7    0.30    0.38
  -2  -1   7    0.28    0.25
   2   1  -7    0.53    0.31
   2   1  -6  473.29    5.15
   2   1  -6  482.67    5.06
   2   1  -5   27.62    0.83
   2   1  -5   26.29    1.00
   2   1  -4  230.34    2.38
   2   1  -4  200.10    2.49
   2   1  -3 1106.62    6.71
  -2  -1   2  836.26    4.93
   2   1  -2  821.29    4.71
  -2  -1   2  822.97    5.35
  -2  -1   1  117.95    1.28
  -2  -1   1  117.54    1.26
  -2  -1   1  116.82    1.21
  -2  -1   0   85.21    1.10
  -2  -1   0   80.53    0.99
  -2  -1  -1   12.46    0.47
  -2  -1  -1   12.66    0.43
  -2  -1  -2 1602.21    9.11
  -2  -1  -3  340.18    3.38
  -2  -1  -4  922.25    7.13
  -2  -1  -5  236.99    3.79
  -2  -1  -5  235.72    3.23
  -2  -1  -5  226.55    3.44
  -2  -1  -5  225.85    3.19
  -2  -1  -5  240.83    3.50
  -2  -1  -6  549.92    5.60
  -2  -1  -6  527.24    6.04
  -2  -1  -6  545.79    6.39
  -2  -1  -6  547.90    6.08
  -2  -1  -6  549.03    5.76
  -2  -1  -7   11.14    0.91
  -2  -1  -7    9.19    0.92
  -2  -1  -7    9.75    0.88
  -2  -1  -8    0.40    0.43
  -2  -1  -8    0.49    0.48
  -2  -1  -8    0.60    0.46
  -2  -1 -10   13.06    0.68
   2   2 -11  107.33    1.80
  -2  -2  10   76.47    1.85
   2   2 -10   80.42    1.98
   2   2  -9   34.62    1.59
  -2  -2   9   32.98    1.28
  -2  -2   9   32.49    1.37
   2   2  -9   34.05    1.43
   2   2  -8  397.24    5.48
  -2  -2   8  410.08    5.15
  -2  -2   8  393.06    4.80
   2   2  -7  563.33    6.32
  -2  -2   7  572.48    6.04
   2   2  -7  553.82    6.05
  -2  -2   7  555.32    5.77
   2   2  -6    4.32    0.49
   2   2  -6    4.10    0.39
  -2  -2   6    3.55    0.43
  -2  -2   6    4.31    0.48
   2   2  -5 1331.15    8.36
   2   2  -5 1285.04    8.88
   2   2  -4 1047.13    6.91
  -2  -2   3  244.33    2.41
  -2  -2   3  249.41    2.75
   2   2  -3  248.87    2.23
   2   2  -2  497.87    3.04
  -2  -2   2  503.24    3.65
  -2  -2   1   38.02    0.75
  -2  -2   1   37.24    0.72
  -2  -2   1   36.00    0.74
  -2  -2   0  218.85    1.49
  -2  -2   0  229.99    2.12
  -2  -2  -1 1598.20    9.33
  -2  -2  -2   57.78    1.28
  -2  -2  -2   60.53    1.15
  -2  -2  -2   60.64    1.15
  -2  -2  -3   17.98    0.75
  -2  -2  -3   18.49    0.70
  -2  -2  -4 1587.62    9.93
  -2  -2  -4 1545.81   10.61
  -2  -2  -5  438.10    4.70
  -2  -2  -5  438.66    4.92
  -2  -2  -5  420.94    4.37
  -2  -2  -5  428.41    4.68
  -2  -2  -5  435.43    4.49
  -2  -2  -6  568.01    5.96
  -2  -2  -6  581.32    6.43
  -2  -2  -6  565.83    6.40
  -2  -2  -7  319.85    4.98
  -2  -2  -7  316.38    4.60
  -2  -2  -8   78.95    2.08
  -2  -2  -8   77.73    2.20
  -2  -2  -9   41.19    1.27
  -2  -2  -9   42.07    1.33
  -2  -3  11   53.38    1.27
   2   3 -10    2.28    0.48
  -2  -3  10    2.02    0.37
  -2  -3  10    2.03    0.41
   2   3  -9   30.19    1.27
  -2  -3   9   31.72    1.31
  -2  -3   9   31.95    1.40
   2   3  -9   33.00    1.51
  -2  -3   8   46.39    1.63
   2   3  -8   43.98    1.74
  -2  -3   8   47.31    1.72
  -2  -3   8   49.07    1.95
   2   3  -7  141.51    2.33
   2   3  -7  135.23    2.75
  -2  -3   7  133.37    2.78
  -2  -3   7  137.47    2.71
   2   3  -6   14.19    0.70
   2   3  -6   12.44    0.76
  -2  -3   5  150.58    2.65
   2   3  -5  149.03    2.28
  -2  -3   4    8.14    0.54
   2   3  -4    7.15    0.43
  -2  -3   3  597.89    4.08
   2   3  -3  590.38    4.05
  -2  -3   3  607.08    4.54
  -2  -3   3  610.52    4.59
  -2  -3   2  796.33    5.00
  -2  -3   2  809.74    5.37
  -2  -3   1  437.10    3.25
  -2  -3   1  415.89    3.43
  -2  -3   0    0.17    0.09
  -2  -3   0    0.56    0.17
  -2  -3   0    0.80    0.18
  -2  -3  -1  242.88    2.33
  -2  -3  -1  247.70    2.59
  -2  -3  -2   23.45    0.77
  -2  -3  -2   25.64    0.83
  -2  -3  -3  529.93    4.58
  -2  -3  -3  510.36    4.82
  -2  -3  -4  767.42    5.62
  -2  -3  -4  769.51    5.90
  -2  -3  -4  759.22    5.72
  -2  -3  -4  765.57    5.72
  -2  -3  -5  134.54    2.57
  -2  -3  -5  133.76    2.69
  -2  -3  -5  138.92    2.64
  -2  -3  -6   19.85    1.09
  -2  -3  -6   16.57    1.20
  -2  -3  -6   17.09    1.05
  -2  -3  -7   29.29    1.46
  -2  -3  -7   29.47    1.32
  -2  -3  -8   19.20    0.94
  -2  -3  -9   50.47    1.27
  -2  -4  11   47.39    1.26
  -2  -4  10    7.46    0.63
  -2  -4  10    7.88    0.67
  -2  -4   9    3.93    0.56
  -2  -4   9    4.33    0.62
  -2  -4   8  370.57    5.09
  -2  -4   8  395.38    5.05
   2   4  -7  153.20    2.56
  -2  -4   7  157.16    3.06
  -2  -4   7  149.08    2.99
  -2  -4   6   27.65    1.16
  -2  -4   6   22.73    0.96
  -2  -4   6   23.63    1.04
  -2  -4   6   26.40    1.15
  -2  -4   6   23.86    1.08
  -2  -4   5  400.93    4.31
  -2  -4   5  425.61    4.33
  -2  -4   4  233.20    2.79
  -2  -4   3  774.71    5.59
  -2  -4   3  749.13    5.71
  -2  -4   2    1.08    0.20
  -2  -4   2    1.42    0.24
  -2  -4   1   51.50    1.15
  -2  -4   1   50.74    1.01
  -2  -4   0  155.53    2.10
  -2  -4   0  160.50    2.09
  -2  -4  -1    5.54    0.42
  -2  -4  -2   27.47    0.92
  -2  -4  -3   50.75    1.50
  -2  -4  -3   57.54    1.41
  -2  -4  -4   13.36    0.81
  -2  -4  -4   12.89    0.74
  -2  -4  -4   13.09    0.84
  -2  -4  -5    0.98    0.50
  -2  -4  -5    1.16    0.39
  -2  -4  -5    1.57    0.47
  -2  -4  -6   27.71    1.23
  -2  -4  -6   29.73    1.46
  -2  -4  -7    1.02    0.38
  -2  -4  -7    1.97    0.57
  -2  -4  -8    8.96    0.53
  -2  -4  -8    7.51    0.75
  -2  -5  11   16.69    0.75
  -2  -5  11   16.53    0.71
  -2  -5  10  132.87    2.49
  -2  -5   9  354.17    4.77
  -2  -5   9  329.03    4.51
  -2  -5   8   51.23    1.82
  -2  -5   8   49.09    1.74
   2   5  -7  217.26    3.19
  -2  -5   7  207.53    3.23
  -2  -5   7  212.84    3.32
  -2  -5   7  217.37    3.65
  -2  -5   7  215.92    3.58
  -2  -5   6   26.37    1.12
  -2  -5   6   28.19    1.10
  -2  -5   6   26.71    1.17
  -2  -5   6   30.56    1.25
  -2  -5   5  332.77    3.69
  -2  -5   5  331.27    4.01
  -2  -5   5  338.51    3.76
  -2  -5   5  333.02    4.02
  -2  -5   5  327.31    4.01
  -2  -5   4  300.34    3.55
  -2  -5   4  296.81    3.35
  -2  -5   3  277.18    3.28
  -2  -5   3  270.97    3.00
  -2  -5   2  251.13    3.02
  -2  -5   1    6.69    0.47
  -2  -5   0  521.98    4.65
  -2  -5  -1   48.97    1.31
  -2  -5  -2   54.88    1.61
  -2  -5  -2   54.21    1.44
  -2  -5  -2   57.25    1.46
  -2  -5  -3   94.82    2.01
  -2  -5  -3  102.93    2.23
  -2  -5  -4   13.90    1.00
  -2  -5  -4   14.53    0.89
  -2  -5  -5   26.35    1.33
  -2  -5  -5   29.94    1.21
  -2  -5  -6   23.79    1.05
  -2  -5  -6   21.49    1.13
  -2  -5  -7    7.92    0.81
  -2  -6  11  302.96    3.16
  -2  -6  11  303.02    3.08
  -2  -6  10    9.52    0.68
  -2  -6   9  274.41    3.99
  -2  -6   9  279.70    3.99
  -2  -6   8  977.38    8.77
  -2  -6   8  987.00    8.10
  -2  -6   7   60.95    1.86
  -2  -6   7   60.98    1.80
  -2  -6   7   60.68    1.86
  -2  -6   6  277.40    3.97
  -2  -6   6  282.24    3.55
  -2  -6   6  281.41    4.01
  -2  -6   6  271.72    3.86
  -2  -6   6  281.13    3.96
  -2  -6   5  925.02    7.75
  -2  -6   5  915.24    7.41
  -2  -6   4  148.76    2.59
  -2  -6   4  149.35    2.61
  -2  -6   3   84.34    1.90
  -2  -6   3   88.90    1.93
  -2  -6   2   63.72    1.76
  -2  -6   2   61.48    1.63
  -2  -6   2   65.58    1.59
  -2  -6   1   45.30    1.37
  -2  -6   1   45.11    1.47
  -2  -6   1   46.95    1.32
  -2  -6   1   44.77    1.43
  -2  -6   0   37.17    1.22
  -2  -6   0   38.03    1.21
  -2  -6   0   38.09    1.31
  -2  -6   0   38.66    1.36
  -2  -6  -1    8.15    0.60
  -2  -6  -1    8.52    0.65
  -2  -6  -2    1.66    0.32
  -2  -6  -2    1.32    0.33
  -2  -6  -3  160.19    2.66
  -2  -6  -3    0.32    0.36
  -2  -6  -4  235.76    3.28
  -2  -6  -5    2.06    0.50
  -2  -6  -5    2.48    0.51
  -2  -6  -6    0.37    0.51
  -2  -7  10    9.27    0.58
  -2  -7  10    8.96    0.59
  -2  -7   9   78.99    1.92
  -2  -7   9   78.15    1.89
  -2  -7   9   74.02    1.59
  -2  -7   8  131.36    2.54
  -2  -7   8  131.94    2.67
  -2  -7   8  128.96    2.56
  -2  -7   7  153.52    2.94
  -2  -7   7  152.22    2.90
  -2  -7   6  150.56    2.98
  -2  -7   6  154.50    2.67
  -2  -7   6  148.42    2.76
  -2  -7   5  145.31    2.81
  -2  -7   5  142.04    2.67
  -2  -7   5  146.30    2.90
  -2  -7   4  518.80    5.56
  -2  -7   4  523.79    5.59
  -2  -7   3   91.24    2.15
  -2  -7   3   93.04    2.08
  -2  -7   2  234.91    3.50
  -2  -7   2  230.02    3.30
  -2  -7   2  235.42    3.76
  -2  -7   2  231.18    3.31
  -2  -7   1  664.07    6.69
  -2  -7   1  669.02    6.30
  -2  -7   1  654.43    6.08
  -2  -7   1  665.69    6.48
  -2  -7   0    7.92    0.62
  -2  -7   0    6.91    0.65
  -2  -7  -1  346.75    4.30
  -2  -7  -1  350.77    4.33
  -2  -7  -2  190.48    2.91
  -2  -8  10   47.62    1.08
  -2  -8   9    3.91    0.38
  -2  -8   9    4.55    0.45
  -2  -8   8    0.26    0.25
  -2  -8   8    0.07    0.25
  -2  -8   8    0.32    0.28
  -2  -8   7  137.67    2.82
  -2  -8   7  137.75    2.31
  -2  -8   7  138.00    2.70
  -2  -8   6  112.30    2.64
  -2  -8   6  114.47    2.30
  -2  -8   5  118.18    2.45
  -2  -8   5  119.64    2.63
  -2  -8   5  114.89    2.74
  -2  -8   4  293.83    4.13
  -2  -8   4  299.60    4.19
  -2  -8   4  298.06    3.92
  -2  -8   3    6.17    0.64
  -2  -8   3    5.81    0.59
  -2  -8   3    7.53    0.74
  -2  -8   3    6.90    0.67
  -2  -8   2    8.36    0.74
  -2  -8   2    7.30    0.69
  -2  -8   1  232.19    3.43
  -2  -8   1  229.82    3.63
  -2  -8   1  226.21    3.55
  -2  -8   0   20.73    0.93
  -2  -8   0   18.94    1.01
  -2  -8   0   19.44    1.01
  -2  -8  -1   68.82    1.77
  -2  -8  -1   66.81    1.73
  -2  -8  -2    9.64    0.60
  -2  -9   9    0.44    0.18
  -2  -9   8  135.83    2.27
  -2  -9   8  141.13    2.24
  -2  -9   7   33.79    1.26
  -2  -9   7   35.43    1.05
  -2  -9   6    5.93    0.61
  -2  -9   6    6.23    0.61
  -2  -9   6    5.93    0.54
  -2  -9   5   86.71    2.00
  -2  -9   5   83.79    2.20
  -2  -9   5   83.36    1.73
  -2  -9   5   85.47    2.06
  -2  -9   4   17.25    1.02
  -2  -9   4   16.32    0.90
  -2  -9   4   15.76    0.86
  -2  -9   3    7.34    0.69
  -2  -9   3    7.68    0.67
  -2  -9   3    7.72    0.60
  -2  -9   3    6.81    0.63
  -2  -9   2   34.79    1.27
  -2  -9   2   33.37    1.29
  -2  -9   1   10.74    0.68
  -2  -9   1   10.27    0.74
  -2  -9   0   87.10    1.90
  -2  -9  -1   -0.21    0.30
  -2  -9  -1   23.64    0.87
  -2 -10   8    0.51    0.18
  -2 -10   7    7.69    0.51
  -2 -10   7    8.04    0.51
  -2 -10   7    7.75    0.41
  -2 -10   6   31.98    1.11
  -2 -10   6   32.76    0.98
  -2 -10   6   31.94    1.04
  -2 -10   5   25.71    0.96
  -2 -10   5   26.11    0.96
  -2 -10   4    1.72    0.30
  -2 -10   4    1.89    0.34
  -2 -10   4    1.79    0.31
  -2 -10   4    1.74    0.34
  -2 -10   3    0.45    0.26
  -2 -10   3    0.23    0.27
  -2 -10   2    0.28    0.23
  -2 -10   2    0.29    0.27
  -2 -10   1    0.08    0.17
  -2 -10   1    0.01    0.22
  -2 -10   0    3.04    0.32
  -2 -11   5   72.19    1.19
  -2 -11   4    5.45    0.36
  -2 -11   3  100.68    1.40
  -2 -11   3   98.41    1.38
  -2 -11   2   21.04    0.61
   3 -11   2    7.79    0.42
   3 -11   3   48.32    1.03
   3 -11   4   24.34    0.70
   3 -10  -1    0.18    0.19
   3 -10   0    0.75    0.26
   3 -10   0    1.53    0.28
   3 -10   1  148.89    2.33
   3 -10   1  147.35    2.31
   3 -10   2   14.12    0.76
   3 -10   2   14.08    0.71
   3 -10   3   37.26    1.21
   3 -10   3   37.17    1.15
   3 -10   3   37.58    1.07
   3 -10   4   30.89    1.06
   3 -10   4   31.97    1.10
   3 -10   5   56.96    1.30
   3 -10   6   10.37    0.56
   3 -10   7    2.61    0.28
   3  -9  -3   31.98    0.88
   3  -9  -3   33.12    1.04
   3  -9  -2   26.35    1.07
   3  -9  -2   24.82    0.95
   3  -9  -1    0.53    0.31
   3  -9  -1    0.55    0.27
   3  -9  -1    0.63    0.38
   3  -9   0   22.05    1.01
   3  -9   0   22.22    1.06
   3  -9   0   23.70    1.18
   3  -9   1  148.57    2.74
   3  -9   1  154.22    2.79
   3  -9   1  148.89    2.96
   3  -9   2   12.58    0.78
   3  -9   2   11.33    0.76
   3  -9   3    0.73    0.29
   3  -9   3    0.43    0.32
   3  -9   3    0.31    0.31
   3  -9   4   11.25    0.76
   3  -9   4   11.89    0.83
   3  -9   5   25.99    1.03
   3  -9   6    2.91    0.45
   3  -9   6    2.39    0.37
   3  -9   7    0.15    0.24
   3  -9   8    1.39    0.28
   3  -8  -5   32.82    0.94
   3  -8  -4    9.72    0.69
   3  -8  -4    8.47    0.50
   3  -8  -3    4.98    0.61
   3  -8  -3    5.37    0.53
   3  -8  -2    0.76    0.35
   3  -8  -2    1.03    0.31
   3  -8  -2    1.38    0.48
   3  -8  -1    2.90    0.45
   3  -8  -1    2.67    0.49
   3  -8  -1    2.86    0.57
   3  -8   0  168.11    3.36
   3  -8   0  168.15    3.13
   3  -8   0  166.01    3.02
   3  -8   1   46.99    1.62
   3  -8   1   45.31    1.49
   3  -8   1   50.20    1.67
   3  -8   1   49.03    1.80
   3  -8   2   66.98    1.88
   3  -8   2   67.09    1.94
   3  -8   2   66.31    2.07
   3  -8   2   66.65    1.90
   3  -8   3    4.04    0.55
   3  -8   3    3.31    0.51
   3  -8   3    3.39    0.46
   3  -8   4  128.55    2.56
   3  -8   4  132.78    2.78
   3  -8   4  129.90    2.50
   3  -8   5  288.56    4.15
   3  -8   5  277.39    3.67
   3  -8   5  283.70    3.93
   3  -8   6   11.30    0.82
   3  -8   6   11.35    0.82
   3  -8   7   53.84    1.61
   3  -8   7   52.81    1.52
   3  -8   8   25.65    0.99
   3  -8   8   27.39    1.07
   3  -8   9   33.68    0.96
   3  -8   9   33.42    1.02
   3  -7  -6   50.23    1.07
   3  -7  -6   53.31    1.31
   3  -7  -5  111.78    1.99
   3  -7  -5  113.58    2.37
   3  -7  -4    6.14    0.55
   3  -7  -4    7.77    0.71
   3  -7  -4    6.76    0.73
   3  -7  -3   77.24    2.01
   3  -7  -3   76.21    2.27
   3  -7  -2  287.96    3.82
   3  -7  -2  283.31    4.53
   3  -7  -1   38.14    1.62
   3  -7  -1   37.61    1.39
   3  -7   0  151.81    2.79
   3  -7   0  151.83    3.14
   3  -7   0  147.07    2.83
   3  -7   1  382.82    4.79
   3  -7   1  388.53    4.77
   3  -7   1  395.84    5.18
   3  -7   2  263.18    3.86
   3  -7   2  268.56    4.14
   3  -7   2  268.17    3.74
   3  -7   3  143.16    2.56
   3  -7   3  148.59    2.79
   3  -7   4    6.34    0.60
   3  -7   4    6.73    0.62
   3  -7   5   52.62    1.72
   3  -7   5   54.08    1.70
   3  -7   6  322.13    4.30
   3  -7   6  327.78    4.34
   3  -7   6  332.74    4.46
   3  -7   7  150.02    2.86
   3  -7   7  155.36    2.99
   3  -7   7  150.27    2.68
   3  -7   8  108.06    2.34
   3  -7   9   24.36    1.01
   3  -7   9   24.00    0.98
   3  -7  10   26.49    0.84
   3  -7  10   27.33    0.81
   3  -6  -7   10.55    0.58
   3  -6  -6   25.62    1.08
   3  -6  -5    4.76    0.72
   3  -6  -4   70.19    2.02
   3  -6  -3   14.27    0.97
   3  -6  -2    2.43    0.40
   3  -6  -2    1.56    0.36
   3  -6  -1    7.26    0.60
   3  -6  -1    7.28    0.62
   3  -6   0    0.27    0.27
   3  -6   0    0.22    0.23
   3  -6   1   40.81    1.32
   3  -6   2    8.54    0.61
   3  -6   2    8.48    0.65
   3  -6   2    7.54    0.63
   3  -6   2    9.04    0.61
   3  -6   3    6.26    0.55
   3  -6   3   10.07    0.69
   3  -6   4   11.60    0.77
   3  -6   4   12.91    0.75
   3  -6   4   11.98    0.78
   3  -6   5  255.39    3.75
   3  -6   5  256.90    3.73
   3  -6   6    6.35    0.65
   3  -6   6    4.73    0.55
   3  -6   6    5.35    0.56
   3  -6   6    5.06    0.62
   3  -6   7    6.58    0.70
   3  -6   8   65.35    1.95
   3  -6   8   64.47    1.86
   3  -6   9   49.31    1.55
   3  -6   9   48.31    1.44
   3  -6  10   16.34    0.68
   3  -5  -8   23.93    0.82
   3  -5  -8   22.50    0.87
   3  -5  -7    4.21    0.61
   3  -5  -7    0.57    0.36
   3  -5  -6    1.34    0.81
   3  -5  -6    1.87    0.53
   3  -5  -5   28.77    1.48
   3  -5  -4    0.53    0.75
   3  -5  -4    0.85    0.35
   3  -5  -3  151.73    2.88
   3  -5  -3  151.38    2.97
   3  -5  -3  150.62    2.61
   3  -5  -3  156.02    3.21
   3  -5  -2   39.11    1.39
   3  -5  -2   38.51    1.34
   3  -5  -2   38.21    1.25
   3  -5  -2   37.45    1.26
   3  -5  -2   39.11    1.51
   3  -5  -1   12.68    0.72
   3  -5  -1   12.11    0.71
   3  -5   0   70.11    1.57
   3  -5   1  322.31    3.56
   3  -5   1  294.28    3.50
   3  -5   2   32.73    1.04
   3  -5   2   31.86    1.09
   3  -5   3   13.77    0.72
   3  -5   3   13.33    0.65
   3  -5   4   32.71    1.17
   3  -5   4   32.78    1.20
   3  -5   4   34.31    1.18
   3  -5   5  206.47    3.31
   3  -5   5  204.83    3.06
   3  -5   6    3.16    0.51
   3  -5   6    3.15    0.42
   3  -5   6    2.92    0.51
  -3   5  -6    3.58    0.55
   3  -5   7  110.33    2.60
   3  -5   7  108.75    2.48
   3  -5   8    4.24    0.56
   3  -5   9    0.77    0.31
   3  -5   9    2.18    0.43
   3  -5  10    1.19    0.24
  -3   5 -10    0.96    0.39
   3  -5  10    1.32    0.32
   3  -4  -9   31.20    0.83
   3  -4  -8   41.63    1.20
   3  -4  -8   43.72    1.38
   3  -4  -8   44.25    1.47
   3  -4  -7    6.85    0.66
   3  -4  -7    6.94    0.76
   3  -4  -6   84.66    2.40
   3  -4  -6   80.71    2.11
   3  -4  -5   50.26    1.84
   3  -4  -5   51.87    1.82
   3  -4  -4  325.33    4.42
   3  -4  -4  335.71    4.56
   3  -4  -4  337.56    4.85
   3  -4  -3   26.36    1.14
   3  -4  -3   26.92    1.16
   3  -4  -3   26.05    1.21
   3  -4  -2  281.45    3.57
   3  -4  -1   26.85    0.98
   3  -4  -1   29.33    0.86
   3  -4   0 1158.14    8.07
   3  -4   0 1224.45    7.77
   3  -4   1   94.42    1.66
   3  -4   1   98.23    1.66
   3  -4   2  133.17    2.00
   3  -4   2  137.19    1.94
   3  -4   3    5.21    0.37
   3  -4   3    4.92    0.40
   3  -4   4  300.40    3.39
   3  -4   5  233.60    3.28
   3  -4   5  241.57    3.08
   3  -4   5  240.76    3.46
  -3   4  -5  241.17    3.49
  -3   4  -6    8.41    0.75
   3  -4   6    9.33    0.76
   3  -4   6    9.86    0.73
   3  -4   7  179.55    3.38
  -3   4  -7  180.37    3.53
   3  -4   7  184.40    3.20
   3  -4   8  205.75    3.57
   3  -4   8  199.05    3.22
   3  -4   9   13.06    0.87
   3  -4   9   12.93    0.74
  -3   4 -10    0.41    0.38
   3  -4  10    0.36    0.24
   3  -3  -9   78.41    1.81
   3  -3  -9   78.68    1.64
   3  -3  -9   79.79    1.64
   3  -3  -8  217.61    3.42
   3  -3  -8  224.05    3.52
   3  -3  -8  220.45    3.76
   3  -3  -7   24.71    1.41
   3  -3  -7   23.62    1.23
   3  -3  -6   97.80    2.54
   3  -3  -6   90.64    2.47
   3  -3  -6   94.41    2.39
   3  -3  -5  295.11    4.37
   3  -3  -5  298.96    4.19
   3  -3  -4   81.05    2.01
   3  -3  -4   75.70    1.85
   3  -3  -4   79.93    2.01
   3  -3  -3  162.38    2.66
   3  -3  -2  964.81    7.14
   3  -3  -1  285.91    2.59
   3  -3  -1  293.83    3.11
   3  -3   0  180.04    1.98
  -3   3   0  164.95    1.76
  -3   3  -1  334.10    2.64
   3  -3   1  341.58    3.14
   3  -3   2  328.41    2.90
   3  -3   3   53.64    1.12
   3  -3   3   46.09    0.93
   3  -3   4  141.47    1.98
   3  -3   5    3.19    0.39
   3  -3   5    3.45    0.35
   3  -3   5    3.47    0.44
  -3   3  -5    3.74    0.47
   3  -3   6   89.46    2.14
  -3   3  -6   90.39    2.27
   3  -3   6   86.34    1.96
   3  -3   7   54.55    1.78
  -3   3  -7   52.56    1.89
   3  -3   7   55.08    1.62
   3  -3   8    3.04    0.51
   3  -3   9    7.62    0.65
  -3   3 -10    0.55    0.37
   3  -3  10    0.54    0.22
   3  -2 -10  108.86    1.85
   3  -2 -10  109.37    1.75
   3  -2  -9    0.65    0.38
   3  -2  -9   -0.42    0.55
   3  -2  -9    0.31    0.36
   3  -2  -8   35.00    1.53
   3  -2  -8   35.58    1.53
   3  -2  -7   17.92    1.20
   3  -2  -7   17.43    1.12
   3  -2  -6  299.36    4.33
   3  -2  -6  292.68    4.35
   3  -2  -6  295.43    4.39
   3  -2  -5  467.94    5.24
   3  -2  -5  457.88    5.16
   3  -2  -5  454.54    5.22
   3  -2  -3  303.35    3.44
   3  -2  -2  120.85    1.30
  -3   2   2  118.59    1.49
   3  -2  -1 1001.74    6.36
   3  -2  -1 1007.01    5.72
  -3   2   0   19.13    0.55
   3  -2   0   17.49    0.52
   3  -2   1 1261.39    7.38
  -3   2  -2    8.25    0.40
   3  -2   2    7.77    0.34
   3  -2   3  226.58    2.38
  -3   2  -3  209.32    2.40
   3  -2   4  110.10    1.70
  -3   2  -4  113.18    2.01
   3  -2   5  297.00    3.07
   3  -2   5  297.92    3.71
   3  -2   6   94.00    2.15
  -3   2  -6   90.54    2.17
  -3   2  -6   87.65    2.25
  -3   2  -6   91.67    2.31
  -3   2  -7  274.76    4.09
   3  -2   7  272.52    3.97
  -3   2  -7  269.75    4.40
  -3   2  -8  179.69    3.25
   3  -2   8  173.50    3.08
   3  -2   9    3.46    0.44
  -3   2  -9    3.44    0.52
  -3   2  -9    3.52    0.62
  -3   2 -10   58.60    1.37
  -3   2 -10   56.35    1.62
   3  -1 -10   39.12    1.29
   3  -1  -9    1.14    0.48
   3  -1  -9    0.01    0.58
   3  -1  -8    7.59    0.81
   3  -1  -8    6.98    0.81
   3  -1  -7   -0.02    0.26
   3  -1  -7    0.33    0.43
   3  -1  -7    0.79    0.45
   3  -1  -6   15.08    0.92
   3  -1  -6   14.77    0.93
   3  -1  -5    7.05    0.60
   3  -1  -4    8.41    0.56
   3  -1  -3   97.29    1.64
   3  -1  -2   10.89    0.32
  -3   1   2   11.55    0.45
   3  -1  -2   11.18    0.48
   3  -1  -1 2209.00   11.59
  -3   1   1 2200.35   11.26
  -3   1   0   98.60    1.33
  -3   1   0   98.32    0.89
  -3   1  -1  259.42    2.39
  -3   1  -1  256.15    1.98
  -3   1  -2   94.91    1.44
   3  -1   2   90.75    0.97
  -3   1  -3  415.85    3.75
  -3   1  -3  425.72    3.86
  -3   1  -4  811.61    6.41
   3  -1   5   13.21    0.58
  -3   1  -5   11.17    0.74
  -3   1  -5   11.43    0.77
  -3   1  -6    6.96    0.72
  -3   1  -6    7.43    0.60
  -3   1  -6    8.51    0.65
  -3   1  -6    6.86    0.68
  -3   1  -6    6.60    0.66
   3  -1   6    8.72    0.65
  -3   1  -7    6.52    0.69
  -3   1  -7    6.07    0.59
  -3   1  -7    6.26    0.71
   3  -1   7    5.72    0.58
  -3   1  -8   31.06    1.40
  -3   1  -8   30.98    1.53
  -3   1  -9    7.41    0.67
  -3   1  -9    8.06    0.71
  -3   1  -9    8.48    0.79
  -3   1 -10    2.95    0.40
   3   0 -10    8.89    0.69
   3   0  -9   32.68    1.44
   3   0  -8   65.36    1.84
   3   0  -8   65.72    2.09
   3   0  -7   17.56    1.07
  -3   0   7   16.05    0.91
   3   0  -6   66.75    1.92
  -3   0   6   65.99    1.67
   3   0  -6   66.07    1.73
  -3   0   6   66.59    1.73
   3   0  -6   70.34    2.01
   3   0  -5  734.16    6.36
   3   0  -4  156.98    2.26
  -3   0   3    0.30    0.11
   3   0  -3    0.13    0.15
   3   0  -2    0.09    0.09
   3   0  -2    0.20    0.12
  -3   0   2    0.22    0.08
  -3   0   2    0.40    0.13
  -3   0   1 1024.45    5.62
  -3   0   1 1019.04    5.95
  -3   0   0  485.54    3.60
  -3   0   0  470.69    3.12
  -3   0  -1  389.06    3.23
  -3   0  -1  385.02    2.86
  -3   0  -1  385.97    2.70
  -3   0  -2   17.62    0.56
  -3   0  -2   16.24    0.54
  -3   0  -2   16.75    0.65
  -3   0  -3   44.01    1.08
  -3   0  -3   43.41    1.20
  -3   0  -4  521.93    4.89
  -3   0  -5   29.25    1.34
  -3   0  -5   28.53    1.08
  -3   0  -5   32.14    1.25
  -3   0  -5   29.67    1.26
  -3   0  -6  214.02    3.33
  -3   0  -6  209.57    3.87
  -3   0  -6  211.23    3.59
  -3   0  -6  206.35    3.17
  -3   0  -6  204.96    3.55
  -3   0  -7   39.03    1.69
  -3   0  -7   42.37    1.51
  -3   0  -7   41.98    1.67
  -3   0  -8   95.61    2.43
  -3   0  -8   90.02    2.48
  -3   0  -9  103.62    2.26
  -3   0  -9  106.66    2.28
  -3   0  -9  102.15    2.34
  -3   0 -10   56.21    1.15
  -3   0 -10   62.29    1.35
   3   1 -11    2.87    0.32
   3   1 -10   81.49    1.97
   3   1  -9    4.23    0.61
  -3  -1   9    4.19    0.50
   3   1  -8   15.93    1.04
  -3  -1   8   15.50    0.90
  -3  -1   8   15.50    0.94
   3   1  -8   15.73    1.08
  -3  -1   7   78.17    1.98
   3   1  -7   78.88    2.12
  -3  -1   7   79.34    2.11
   3   1  -7   78.70    2.17
   3   1  -7   78.09    2.20
  -3  -1   6   60.90    1.68
   3   1  -6   59.38    1.75
   3   1  -6   60.38    1.67
  -3  -1   6   59.55    1.62
   3   1  -5  301.92    3.50
   3   1  -5  321.35    3.35
  -3  -1   4  568.77    4.40
   3   1  -4  576.72    4.55
   3   1  -3   43.02    0.95
  -3  -1   3   42.20    1.06
  -3  -1   3   39.69    0.84
   3   1  -3   38.92    0.83
   3   1  -2  250.05    2.23
  -3  -1   2  246.42    2.37
  -3  -1   1  234.83    2.29
  -3  -1   1  233.31    2.21
   3   1  -1  240.00    1.99
  -3  -1   1  237.97    2.11
  -3  -1   0 3272.63   16.93
  -3  -1   0 3237.93   16.49
   3   1   0 3248.14   15.88
  -3  -1  -1 1143.05    6.92
  -3  -1  -2  518.91    4.03
  -3  -1  -2  509.88    3.86
  -3  -1  -3   32.50    0.96
  -3  -1  -3   33.85    0.95
  -3  -1  -4  807.02    6.55
  -3  -1  -5 1263.14    8.30
  -3  -1  -5 1255.69    7.49
  -3  -1  -5 1246.02    7.69
  -3  -1  -6   62.48    1.98
  -3  -1  -6   63.39    1.82
  -3  -1  -6   64.36    1.87
  -3  -1  -7   39.52    1.50
  -3  -1  -7   34.60    1.56
  -3  -1  -7   38.32    1.58
  -3  -1  -8    9.24    0.87
  -3  -1  -8    8.93    0.82
  -3  -1  -9  141.54    2.49
   3   2 -11   12.18    0.56
   3   2 -10    1.11    0.34
  -3  -2  10    1.30    0.32
  -3  -2   9   26.77    1.17
   3   2  -9   26.00    1.24
  -3  -2   9   25.45    1.21
   3   2  -8   27.57    1.30
  -3  -2   8   27.76    1.30
  -3  -2   8   27.40    1.25
  -3  -2   7    7.99    0.69
   3   2  -7    7.92    0.70
  -3  -2   7    8.57    0.68
  -3  -2   7   11.11    0.82
  -3  -2   7   12.74    1.04
  -3  -2   6  306.54    4.03
   3   2  -6  298.28    3.93
   3   2  -6  309.70    3.55
  -3  -2   6  289.72    3.60
  -3  -2   6  291.43    4.33
  -3  -2   6  301.34    3.91
   3   2  -5    9.05    0.57
  -3  -2   5    7.59    0.52
  -3  -2   4  120.42    1.82
   3   2  -4  116.28    1.77
  -3  -2   3 1531.70    9.06
  -3  -2   2  829.70    5.49
  -3  -2   2  825.70    5.49
  -3  -2   1  252.26    2.50
  -3  -2   1  252.32    2.44
  -3  -2   0  133.03    1.80
  -3  -2   0  134.30    1.71
  -3  -2  -1  983.17    6.48
  -3  -2  -1  954.91    6.75
  -3  -2  -2  126.40    1.88
  -3  -2  -2  150.27    2.32
  -3  -2  -3  226.15    3.16
  -3  -2  -4   39.90    1.55
  -3  -2  -4   38.55    1.31
  -3  -2  -4   41.11    1.45
  -3  -2  -5    4.48    0.60
  -3  -2  -5    7.05    0.70
  -3  -2  -6   44.56    1.69
  -3  -2  -6   43.42    1.55
  -3  -2  -7    2.72    0.74
  -3  -2  -7    0.60    0.42
  -3  -2  -8    4.25    0.57
  -3  -2  -8    3.80    0.61
  -3  -2  -9   27.09    0.97
  -3  -2  -9   26.35    0.92
  -3  -3  11    1.86    0.27
  -3  -3  10    0.44    0.28
  -3  -3   9  230.55    3.81
  -3  -3   9  229.89    3.64
   3   3  -9  232.45    3.53
  -3  -3   8  231.66    3.88
   3   3  -8  222.94    3.55
  -3  -3   8  233.77    3.76
  -3  -3   7   11.88    0.80
   3   3  -7   11.28    0.70
  -3  -3   7   10.30    0.79
   3   3  -6   34.92    1.19
  -3  -3   6   31.26    1.16
  -3  -3   6   30.88    1.08
  -3  -3   6   32.35    1.28
  -3  -3   6   31.51    1.23
  -3  -3   5  819.69    6.60
  -3  -3   5  850.71    6.86
  -3  -3   4  391.66    3.84
  -3  -3   4  394.43    3.60
  -3  -3   4  391.33    3.92
  -3  -3   3  243.14    2.72
  -3  -3   3  234.22    2.71
  -3  -3   3  239.10    2.50
  -3  -3   2  111.80    1.71
  -3  -3   2  109.60    1.60
  -3  -3   2  105.94    1.67
  -3  -3   1  194.87    2.27
  -3  -3   1  208.94    2.40
  -3  -3   0  696.19    5.36
  -3  -3  -1 2173.87   13.05
  -3  -3  -2   93.27    1.73
  -3  -3  -2   95.96    1.93
  -3  -3  -3  250.95    3.37
  -3  -3  -3  240.14    3.25
  -3  -3  -3  258.21    2.92
  -3  -3  -3  247.31    3.62
  -3  -3  -4  152.43    2.74
  -3  -3  -4  151.02    2.54
  -3  -3  -4  151.90    2.80
  -3  -3  -5  188.03    3.19
  -3  -3  -5  190.49    3.29
  -3  -3  -5  196.28    3.23
  -3  -3  -6  275.20    3.96
  -3  -3  -6  280.87    4.21
  -3  -3  -7   39.87    1.43
  -3  -3  -7   36.04    1.39
  -3  -3  -7   35.28    1.54
  -3  -3  -8    5.80    0.53
  -3  -3  -8    5.60    0.61
  -3  -4  11    6.39    0.46
  -3  -4  10    2.15    0.40
  -3  -4  10    2.29    0.41
  -3  -4   9   98.89    2.37
  -3  -4   8  180.58    3.41
   3   4  -7   89.99    2.04
  -3  -4   7   83.43    2.09
  -3  -4   7   88.70    1.97
  -3  -4   7   90.60    2.34
  -3  -4   7   84.09    2.13
  -3  -4   7   90.19    2.28
  -3  -4   6   73.39    1.86
  -3  -4   6   75.00    1.83
   3   4  -6   79.59    1.82
  -3  -4   6   74.14    1.98
  -3  -4   6   77.66    1.91
  -3  -4   6   77.13    1.98
  -3  -4   5  214.24    2.82
  -3  -4   5  220.86    3.16
  -3  -4   5  219.32    3.11
  -3  -4   5  217.76    3.19
  -3  -4   5  213.42    3.17
  -3  -4   4   18.02    0.81
  -3  -4   4   19.76    0.83
  -3  -4   3    1.39    0.27
  -3  -4   3    1.26    0.24
  -3  -4   2  202.44    2.35
  -3  -4   1  832.16    6.06
  -3  -4   0    7.76    0.51
  -3  -4   0    8.04    0.53
  -3  -4  -1   36.26    1.12
  -3  -4  -1   35.53    1.14
  -3  -4  -2  547.79    5.05
  -3  -4  -2  531.67    5.66
  -3  -4  -2  544.16    4.79
  -3  -4  -3  133.98    2.60
  -3  -4  -3  133.11    2.32
  -3  -4  -4  369.07    4.30
  -3  -4  -4  353.93    4.30
  -3  -4  -5   79.14    2.04
  -3  -4  -5   78.50    2.04
  -3  -4  -6    2.32    0.55
  -3  -4  -6    2.56    0.47
  -3  -4  -7    0.75    0.43
  -3  -4  -7    0.46    0.31
  -3  -4  -8   29.30    0.99
  -3  -5  11   58.96    1.20
  -3  -5  10    2.60    0.42
  -3  -5  10    2.63    0.42
  -3  -5   9  189.04    3.34
  -3  -5   8   27.19    1.09
  -3  -5   8   28.49    1.33
  -3  -5   8   30.08    1.35
   3   5  -7   56.28    1.62
  -3  -5   7   55.19    1.70
  -3  -5   7   60.12    1.88
  -3  -5   7   57.55    1.69
  -3  -5   7   59.80    1.85
  -3  -5   6   13.49    0.84
  -3  -5   6   12.49    0.84
  -3  -5   6    9.76    0.62
  -3  -5   6   10.01    0.75
  -3  -5   6    9.08    0.68
  -3  -5   6   10.95    0.79
  -3  -5   5  339.00    3.93
  -3  -5   5  337.72    4.21
  -3  -5   5  334.50    4.10
  -3  -5   5  328.20    4.12
  -3  -5   4  295.85    3.61
  -3  -5   4  293.17    3.77
  -3  -5   4  292.42    3.56
  -3  -5   4  298.06    3.75
  -3  -5   3   61.45    1.65
  -3  -5   3   59.71    1.55
  -3  -5   2   48.00    1.45
  -3  -5   2   47.03    1.33
  -3  -5   2   51.48    1.39
  -3  -5   1   36.08    1.26
  -3  -5   1   36.10    1.14
  -3  -5   1   34.46    1.17
  -3  -5   0   52.43    1.41
  -3  -5   0   52.46    1.43
  -3  -5   0   51.23    1.42
  -3  -5  -1    0.99    0.27
  -3  -5  -1    0.30    0.26
  -3  -5  -1    0.17    0.22
  -3  -5  -2   59.14    1.78
  -3  -5  -2   58.85    1.60
  -3  -5  -2   58.42    1.49
  -3  -5  -3    6.67    0.66
  -3  -5  -3    6.81    0.59
  -3  -5  -4    1.12    0.44
  -3  -5  -4   -0.07    0.47
  -3  -5  -4    0.64    0.42
  -3  -5  -5   33.95    1.28
  -3  -5  -5   30.38    1.35
  -3  -5  -6   23.10    0.98
  -3  -5  -6   20.19    1.01
  -3  -5  -7   65.61    1.45
  -3  -6  11    2.61    0.27
  -3  -6  10   64.13    1.61
  -3  -6  10   65.70    1.45
  -3  -6  10   67.49    1.62
  -3  -6   9  132.99    2.62
  -3  -6   9  129.37    2.42
  -3  -6   9  134.27    2.62
  -3  -6   8  146.20    2.65
  -3  -6   8  150.36    2.94
  -3  -6   8  151.84    2.82
  -3  -6   8  152.02    2.95
  -3  -6   7  154.22    2.93
  -3  -6   7  153.28    2.94
  -3  -6   7  153.94    2.91
  -3  -6   7  154.76    2.97
  -3  -6   6    0.14    0.26
  -3  -6   6    0.58    0.28
  -3  -6   6    1.90    0.42
  -3  -6   6    1.44    0.37
  -3  -6   6    0.31    0.22
  -3  -6   5   10.10    0.75
  -3  -6   5   10.62    0.78
  -3  -6   5   10.43    0.72
  -3  -6   5   10.12    0.68
  -3  -6   5   10.37    0.75
  -3  -6   4  271.39    3.97
  -3  -6   4  262.29    3.63
  -3  -6   4  263.47    3.76
  -3  -6   4  263.30    3.67
  -3  -6   4  266.85    3.38
  -3  -6   4  272.12    3.82
  -3  -6   3  152.56    2.88
  -3  -6   3  145.66    2.61
  -3  -6   3  144.98    2.65
  -3  -6   3  147.68    2.63
  -3  -6   3  148.16    2.55
  -3  -6   3  151.23    2.68
  -3  -6   2  669.30    6.49
  -3  -6   2  661.49    6.14
  -3  -6   2  665.09    5.98
  -3  -6   2  655.25    6.14
  -3  -6   2  651.42    6.01
  -3  -6   2  669.89    6.12
  -3  -6   1   30.09    1.27
  -3  -6   1   31.67    1.16
  -3  -6   1   33.16    1.26
  -3  -6   0   33.67    1.27
  -3  -6   0   32.38    1.24
  -3  -6  -1    5.09    0.60
  -3  -6  -1    4.43    0.49
  -3  -6  -1    4.96    0.54
  -3  -6  -2  296.10    4.08
  -3  -6  -2  313.26    3.76
  -3  -6  -3   46.69    1.53
  -3  -6  -4    0.31    0.46
  -3  -6  -4  138.76    2.40
  -3  -6  -5   15.82    0.78
  -3  -7  10    1.02    0.23
  -3  -7  10    1.43    0.27
  -3  -7   9   74.74    1.77
  -3  -7   9   71.23    1.51
  -3  -7   9   72.22    1.69
  -3  -7   8   40.49    1.36
  -3  -7   8   39.70    1.34
  -3  -7   8   39.86    1.39
  -3  -7   7  193.81    3.29
  -3  -7   7  196.84    2.85
  -3  -7   7  203.11    3.34
  -3  -7   7  193.25    3.17
  -3  -7   6  643.88    6.74
  -3  -7   6  652.62    6.12
  -3  -7   5    4.91    0.60
  -3  -7   5    5.53    0.59
  -3  -7   5    4.04    0.54
  -3  -7   4  741.49    7.42
  -3  -7   4  745.44    7.07
  -3  -7   4  754.08    7.11
  -3  -7   4  736.36    6.51
  -3  -7   3  768.28    7.47
  -3  -7   3  741.02    6.94
  -3  -7   3  750.59    6.89
  -3  -7   3  741.00    6.88
  -3  -7   3  770.11    6.90
  -3  -7   2   14.80    0.89
  -3  -7   2   15.72    0.90
  -3  -7   2   16.89    0.97
  -3  -7   1 1029.47    8.16
  -3  -7   1 1020.50    8.35
  -3  -7   0  429.42    4.92
  -3  -7  -1    6.38    0.61
  -3  -7  -2  361.51    3.97
  -3  -7  -3    0.71    0.49
  -3  -8   9   44.03    1.08
  -3  -8   9   42.94    1.12
  -3  -8   8  120.49    2.14
  -3  -8   8  131.63    2.29
  -3  -8   7    8.56    0.68
  -3  -8   7    8.74    0.59
  -3  -8   7    7.85    0.66
  -3  -8   6  170.35    3.16
  -3  -8   6  176.77    2.86
  -3  -8   6  176.93    3.12
  -3  -8   5   35.41    1.46
  -3  -8   5   35.47    1.31
  -3  -8   5   33.93    1.36
  -3  -8   4  160.14    3.16
  -3  -8   4  158.37    2.92
  -3  -8   4  160.00    2.72
  -3  -8   3  235.45    3.58
  -3  -8   3  233.60    3.44
  -3  -8   3  237.32    3.51
  -3  -8   2  999.76    8.24
  -3  -8   2 1005.21    8.35
  -3  -8   1  110.14    2.21
  -3  -8   1  104.02    2.30
  -3  -8   0  216.00    3.22
  -3  -8  -1  168.03    2.61
  -3  -8  -2    0.05    0.38
  -3  -8  -2   13.48    0.62
  -3  -9   8   85.92    1.53
  -3  -9   8   87.93    1.62
  -3  -9   7    0.17    0.23
  -3  -9   7    0.40    0.21
  -3  -9   6   28.79    1.16
  -3  -9   6   30.41    1.06
  -3  -9   6   30.26    1.16
  -3  -9   5   45.97    1.54
  -3  -9   5   48.60    1.43
  -3  -9   5   46.98    1.45
  -3  -9   5   44.46    1.18
  -3  -9   4    1.03    0.31
  -3  -9   4    1.50    0.34
  -3  -9   4    0.59    0.32
  -3  -9   3   11.66    0.75
  -3  -9   3   10.77    0.71
  -3  -9   2   27.19    1.05
  -3  -9   2   27.39    1.09
  -3  -9   1  112.98    1.98
  -3  -9   1  114.41    2.17
  -3  -9   0  100.61    1.88
  -3  -9  -1  162.87    2.11
  -3 -10   7    1.36    0.19
  -3 -10   7    1.48    0.24
  -3 -10   6    0.08    0.17
  -3 -10   6    0.16    0.19
  -3 -10   5    0.95    0.26
  -3 -10   5    0.42    0.21
  -3 -10   4    0.07    0.21
  -3 -10   4    0.11    0.20
  -3 -10   3    3.28    0.36
  -3 -10   3    2.95    0.35
  -3 -10   2    1.68    0.26
  -3 -10   2    1.58    0.29
  -3 -10   1    5.92    0.41
  -3 -10   0    4.45    0.31
  -3 -10   0   -0.06    0.23
   4 -10   0    3.46    0.34
   4 -10   0    2.97    0.33
   4 -10   1   59.94    1.36
   4 -10   1   58.84    1.31
   4 -10   2   18.69    0.72
   4 -10   3    1.34    0.31
   4 -10   3    0.32    0.22
   4 -10   4    3.04    0.37
   4 -10   4    1.34    0.27
   4 -10   5   66.02    1.20
   4 -10   5   69.06    1.46
   4  -9  -3    9.10    0.53
   4  -9  -3    9.07    0.45
   4  -9  -2    0.72    0.26
   4  -9  -2    0.42    0.29
   4  -9  -1   33.71    1.08
   4  -9  -1   35.66    1.29
   4  -9   0   14.51    0.81
   4  -9   0   14.18    0.82
   4  -9   1  195.40    3.05
   4  -9   1  189.10    2.97
   4  -9   2   74.06    1.87
   4  -9   2   74.66    1.80
   4  -9   2   74.02    1.76
   4  -9   3    2.67    0.45
   4  -9   3    2.29    0.43
   4  -9   4    3.13    0.44
   4  -9   4    1.84    0.39
   4  -9   5   26.07    0.93
   4  -9   5   26.40    1.00
   4  -9   6   61.42    1.53
   4  -9   6   59.59    1.45
   4  -9   7    5.96    0.46
   4  -9   8  194.57    2.22
   4  -8  -4  214.21    2.48
   4  -8  -3    4.86    0.49
   4  -8  -2   68.45    1.80
   4  -8  -2   66.52    1.62
   4  -8  -1   80.34    1.96
   4  -8   0    5.87    0.65
   4  -8   0    5.61    0.61
   4  -8   1   58.37    1.75
   4  -8   1   54.69    1.73
   4  -8   2   75.88    1.94
   4  -8   2   79.70    2.07
   4  -8   3   22.70    1.10
   4  -8   4    9.99    0.72
   4  -8   4    9.82    0.73
   4  -8   5   95.58    2.28
   4  -8   5   96.22    2.18
   4  -8   6    2.20    0.43
   4  -8   6    2.20    0.44
   4  -8   7   10.93    0.66
   4  -8   7   10.75    0.73
   4  -8   8    1.09    0.30
   4  -8   8    0.88    0.24
   4  -7  -6  148.25    2.04
   4  -7  -5   36.21    1.08
   4  -7  -5   36.31    1.25
   4  -7  -4  147.41    2.50
   4  -7  -4  146.48    2.47
   4  -7  -4  149.97    2.89
   4  -7  -3  755.50    7.52
   4  -7  -3  727.34    6.50
   4  -7  -2    0.65    0.34
   4  -7  -2    0.04    0.44
   4  -7  -1   80.87    2.07
   4  -7  -1   71.86    2.21
   4  -7   0  963.11    8.35
   4  -7   0  966.59    8.97
   4  -7   1  221.16    3.44
   4  -7   1  228.99    3.90
   4  -7   2  515.52    5.20
   4  -7   2  527.09    5.54
   4  -7   2  529.60    5.71
   4  -7   2  530.23    6.17
   4  -7   2  511.46    5.45
   4  -7   3  262.95    3.68
   4  -7   3  273.32    3.84
   4  -7   4   43.98    1.50
   4  -7   4   39.33    1.36
   4  -7   5   15.57    0.97
   4  -7   5   15.35    0.89
   4  -7   6  104.85    2.30
   4  -7   6  101.79    2.30
   4  -7   6  106.25    2.41
   4  -7   7   20.57    0.92
   4  -7   7   19.98    1.01
   4  -7   8   14.99    0.83
   4  -7   8   14.51    0.82
   4  -7   9   45.07    1.21
   4  -7   9   44.90    1.17
   4  -6  -7   43.94    1.01
   4  -6  -7   44.24    1.09
   4  -6  -6   57.87    1.49
   4  -6  -6   55.52    1.59
   4  -6  -5  203.13    2.93
   4  -6  -5  205.31    3.20
   4  -6  -5  205.54    3.55
   4  -6  -4   39.33    1.48
   4  -6  -4   36.96    1.60
   4  -6  -3  296.87    4.09
   4  -6  -3  287.50    3.76
   4  -6  -3  302.75    4.69
   4  -6  -2  445.59    5.07
   4  -6  -2  450.71    5.02
   4  -6  -2  445.06    5.10
   4  -6  -2  443.18    5.74
   4  -6  -1    0.86    0.35
   4  -6  -1    1.26    0.33
   4  -6  -1    1.16    0.45
   4  -6   0  696.63    6.55
   4  -6   0  674.68    6.97
   4  -6   1  155.88    2.72
   4  -6   1  150.67    2.76
   4  -6   1  161.09    3.07
   4  -6   1  155.65    2.55
   4  -6   2   27.24    1.09
   4  -6   2   29.90    1.14
   4  -6   2   30.92    1.22
   4  -6   2   33.14    1.27
   4  -6   2   29.31    1.30
   4  -6   3  235.62    3.41
   4  -6   3  236.57    3.42
   4  -6   3  241.97    3.65
   4  -6   4   89.12    2.13
   4  -6   4   84.97    2.15
   4  -6   4   86.09    2.08
   4  -6   5   20.67    1.08
   4  -6   5   20.71    1.07
   4  -6   5   23.89    1.15
   4  -6   6   43.05    1.46
   4  -6   6   45.26    1.60
   4  -6   7    7.95    0.75
   4  -6   7    8.53    0.74
   4  -6   8   96.51    2.23
   4  -6   8   95.66    2.12
   4  -6   9   52.06    1.45
   4  -6   9   50.71    1.32
  -4   6 -10   11.35    0.62
   4  -5  -8   20.78    0.69
   4  -5  -7  113.04    2.11
   4  -5  -6   12.86    0.92
   4  -5  -6    9.95    0.86
   4  -5  -5   11.23    0.94
   4  -5  -5    7.85    0.83
   4  -5  -4    4.92    0.69
   4  -5  -4    2.74    0.58
   4  -5  -3    1.28    0.32
   4  -5  -3    1.37    0.46
   4  -5  -3    1.20    0.33
   4  -5  -2  181.26    3.04
   4  -5  -2  186.19    2.98
   4  -5  -2  184.08    3.04
   4  -5  -2  176.87    3.36
   4  -5  -2  189.03    3.41
   4  -5  -1   14.80    0.82
   4  -5  -1   15.10    0.84
   4  -5  -1   14.90    0.94
   4  -5   0   47.88    1.29
   4  -5   0   44.52    1.29
   4  -5   0   47.91    1.56
   4  -5   1 1046.13    8.13
   4  -5   1 1055.39    7.93
   4  -5   1 1068.91    7.91
   4  -5   2  163.51    2.63
   4  -5   2  162.45    2.84
   4  -5   2  170.33    2.56
   4  -5   2  162.14    2.65
   4  -5   3   34.04    1.07
   4  -5   3   33.65    1.20
   4  -5   3   34.75    1.16
   4  -5   4  624.38    5.97
   4  -5   4  621.95    5.90
   4  -5   5   90.05    2.16
   4  -5   5   92.39    2.23
   4  -5   6  211.73    3.50
   4  -5   6  201.59    3.24
   4  -5   6  210.53    3.60
   4  -5   7   53.54    1.81
   4  -5   7   54.32    1.71
   4  -5   8    6.92    0.62
   4  -5   9   22.86    1.02
   4  -5   9   21.14    0.86
  -4   5 -10   15.07    0.76
   4  -5  10   15.76    0.68
   4  -4  -8   22.23    0.92
   4  -4  -7    5.60    0.68
   4  -4  -7    4.35    0.51
   4  -4  -6  112.17    2.82
   4  -4  -6  104.21    2.35
   4  -4  -5    1.72    0.52
   4  -4  -5    0.97    0.37
   4  -4  -5    0.18    0.80
   4  -4  -4   23.75    1.28
   4  -4  -4   26.97    1.25
   4  -4  -4   26.20    1.34
   4  -4  -3   64.10    1.80
   4  -4  -3   63.82    1.80
   4  -4  -3   66.28    1.97
   4  -4  -2  157.32    2.68
   4  -4  -2  162.46    2.90
   4  -4  -1  463.44    4.16
   4  -4   0   67.17    1.53
   4  -4   0   54.87    1.29
   4  -4   1   48.60    1.25
   4  -4   1   38.20    1.11
   4  -4   2    8.14    0.50
   4  -4   2   19.39    0.81
  -4   4  -3    6.15    0.50
   4  -4   3    5.74    0.41
   4  -4   4   15.32    0.82
   4  -4   4   25.17    0.98
   4  -4   5  144.00    2.63
   4  -4   5  140.83    2.42
  -4   4  -5  141.87    2.80
   4  -4   6  100.86    2.28
   4  -4   6   93.31    2.02
  -4   4  -6   96.71    2.47
   4  -4   7   57.66    1.95
   4  -4   7   62.51    1.79
   4  -4   8  146.30    2.90
   4  -4   8  141.83    2.54
   4  -4   9   38.39    1.34
  -4   4 -10   94.07    1.86
   4  -4  10   94.29    1.64
   4  -3  -9   36.76    1.01
   4  -3  -9   39.06    1.04
   4  -3  -8  166.58    2.79
   4  -3  -8  162.06    2.77
   4  -3  -8  169.55    3.13
   4  -3  -7  170.34    3.21
   4  -3  -7  171.68    3.48
   4  -3  -7  165.06    3.12
   4  -3  -6    3.49    0.81
   4  -3  -6    4.69    0.70
   4  -3  -6    4.93    0.65
   4  -3  -5  380.07    4.89
   4  -3  -5  374.18    4.88
   4  -3  -5  385.09    5.32
   4  -3  -4  175.48    3.05
   4  -3  -4  173.12    2.99
   4  -3  -4  178.30    3.32
   4  -3  -3  110.94    2.27
   4  -3  -3  114.18    2.22
   4  -3  -3  109.77    2.34
   4  -3  -2  555.26    5.05
   4  -3  -1  157.78    1.95
  -4   3   0  510.78    4.04
   4  -3   0  501.11    4.03
  -4   3  -1  228.56    2.41
   4  -3   1  238.70    2.59
   4  -3   2   10.91    0.51
   4  -3   2   11.25    0.57
   4  -3   3  104.52    1.79
   4  -3   4    4.16    0.43
   4  -3   4    5.07    0.42
   4  -3   5    1.71    0.29
   4  -3   5    1.44    0.32
  -4   3  -5    0.97    0.32
   4  -3   6    4.78    0.52
   4  -3   6    4.53    0.57
  -4   3  -6    4.39    0.58
  -4   3  -7   58.39    1.76
   4  -3   7   61.99    1.88
   4  -3   7   59.51    1.66
   4  -3   8   55.68    1.76
  -4   3  -9    0.74    0.41
   4  -3   9    1.19    0.33
  -4   3 -10    3.43    0.41
   4  -2  -9   25.57    1.05
   4  -2  -9   26.75    0.97
   4  -2  -9   25.15    1.12
   4  -2  -8  211.33    3.77
   4  -2  -8  216.49    3.39
   4  -2  -8  211.60    3.57
   4  -2  -7  559.49    6.20
   4  -2  -7  550.18    6.38
   4  -2  -6  363.02    4.90
   4  -2  -6  376.65    4.93
   4  -2  -6  370.25    5.03
   4  -2  -5  223.22    3.57
   4  -2  -5  225.94    3.66
   4  -2  -5  227.46    3.56
   4  -2  -4  278.01    3.76
   4  -2  -4  283.66    3.84
   4  -2  -4  288.51    3.74
   4  -2  -4  277.08    3.38
   4  -2  -3  716.41    5.91
   4  -2  -2  131.33    1.96
   4  -2  -1 3327.68   17.14
  -4   2   0  330.08    3.06
   4  -2   0  306.30    2.91
  -4   2  -1    6.34    0.40
  -4   2  -2  479.84    4.09
   4  -2   2  465.48    3.52
  -4   2  -3   12.50    0.63
  -4   2  -4   13.10    0.71
   4  -2   4   12.56    0.64
  -4   2  -4   13.02    0.74
  -4   2  -4   13.53    0.70
   4  -2   5   70.71    1.54
  -4   2  -5   70.44    1.88
  -4   2  -6    4.97    0.69
  -4   2  -6    4.35    0.59
   4  -2   6    4.79    0.57
  -4   2  -6    5.49    0.62
  -4   2  -7   44.58    1.75
  -4   2  -7   43.55    1.62
   4  -2   7   44.86    1.55
  -4   2  -8    1.83    0.51
   4  -2   8    2.06    0.39
  -4   2  -9   93.47    2.21
  -4   2  -9   95.96    2.00
  -4   2 -10    0.90    0.24
   4  -1 -10    0.40    0.27
   4  -1 -10    0.15    0.24
   4  -1  -9   31.26    1.10
   4  -1  -9   29.94    1.27
   4  -1  -8    4.05    0.55
   4  -1  -8    3.04    0.61
   4  -1  -7   43.89    1.60
   4  -1  -7   47.23    1.78
   4  -1  -6  455.60    5.29
   4  -1  -6  445.02    5.59
   4  -1  -5   96.82    2.18
   4  -1  -5  102.22    2.19
   4  -1  -5   97.18    2.31
  -4   1   5   96.41    2.02
   4  -1  -4   75.49    1.66
  -4   1   4   74.25    1.60
  -4   1   3  678.38    4.95
   4  -1  -3  656.50    5.24
   4  -1  -2  902.84    5.96
   4  -1  -2  914.84    5.53
  -4   1   1  351.29    3.23
  -4   1   1  334.86    2.71
  -4   1   0  871.44    6.00
  -4   1  -1 1585.19    9.40
  -4   1  -1 1520.61    8.45
  -4   1  -2  104.40    1.77
  -4   1  -2  102.17    1.52
  -4   1  -3  588.58    4.89
  -4   1  -3  594.39    5.24
  -4   1  -4   44.02    1.31
  -4   1  -4   45.48    1.35
  -4   1  -5   69.30    2.08
  -4   1  -5   70.04    1.97
   4  -1   5   66.06    1.46
  -4   1  -5   70.94    1.87
  -4   1  -6  106.06    2.74
  -4   1  -6  107.96    2.15
  -4   1  -6  106.50    2.55
   4  -1   6  100.09    2.26
  -4   1  -7   60.56    2.13
  -4   1  -7   56.52    1.98
  -4   1  -7   60.47    1.66
  -4   1  -7   61.64    1.98
  -4   1  -8    8.40    0.78
  -4   1  -8    9.46    0.81
  -4   1  -9   17.75    0.90
  -4   1  -9   19.21    0.93
  -4   1 -10   10.94    0.51
   4   0 -10    1.75    0.35
   4   0  -9    0.07    0.43
   4   0  -8   34.48    1.52
  -4   0   8   31.58    1.24
   4   0  -7  178.81    3.07
  -4   0   7  180.55    3.12
   4   0  -7  186.97    3.53
  -4   0   7  180.33    3.41
   4   0  -6   12.01    0.78
  -4   0   6   11.86    0.78
   4   0  -6   11.85    0.86
  -4   0   6   14.53    0.93
   4   0  -5   77.89    1.80
   4   0  -5   76.67    1.99
  -4   0   5   77.19    1.85
  -4   0   5   82.21    1.96
  -4   0   4   34.13    1.08
  -4   0   3  259.95    2.76
  -4   0   2  238.83    2.44
  -4   0   1  361.99    3.34
  -4   0   1  355.26    3.01
  -4   0   1  355.40    2.65
  -4   0   0  421.03    3.74
  -4   0   0  419.80    3.12
  -4   0  -1  273.37    2.50
  -4   0  -1  275.06    2.94
  -4   0  -2  155.63    1.96
  -4   0  -2  160.35    2.35
  -4   0  -3  196.56    2.44
  -4   0  -3  200.92    2.94
  -4   0  -4   38.56    1.02
  -4   0  -4   35.46    1.35
  -4   0  -4   38.97    1.32
  -4   0  -5    2.90    0.45
  -4   0  -5    2.69    0.51
  -4   0  -6    2.09    0.60
  -4   0  -6    3.16    0.50
  -4   0  -6    1.53    0.45
  -4   0  -7    2.69    0.56
  -4   0  -7    3.01    0.57
  -4   0  -8    0.89    0.43
  -4   0  -9    8.55    0.63
  -4   0  -9    7.37    0.61
   4   1 -10   14.84    0.81
   4   1  -9   26.78    1.25
  -4  -1   9   24.89    1.08
   4   1  -8  415.99    5.41
  -4  -1   8  408.20    5.03
  -4  -1   7  130.59    2.87
  -4  -1   7  127.49    2.71
   4   1  -7  126.54    2.83
   4   1  -6   27.88    1.25
  -4  -1   6   28.06    1.21
  -4  -1   6   27.43    1.17
  -4  -1   5    0.07    0.22
   4   1  -5    0.09    0.21
  -4  -1   5    0.01    0.20
  -4  -1   5    0.43    0.28
  -4  -1   4   24.00    0.77
   4   1  -4   25.57    0.85
  -4  -1   3  257.81    2.57
   4   1  -3  256.13    2.68
  -4  -1   2    9.69    0.53
  -4  -1   2    9.43    0.48
  -4  -1   2    9.03    0.42
   4   1  -1 1394.88    7.87
  -4  -1   1 1417.98    8.84
  -4  -1   1 1416.80    8.16
  -4  -1   0    1.42    0.28
  -4  -1   0    7.85    0.41
  -4  -1  -1  288.53    2.86
  -4  -1  -2   32.27    0.93
  -4  -1  -3   52.51    1.30
  -4  -1  -3   53.71    1.55
  -4  -1  -4   13.64    0.97
  -4  -1  -4   13.69    0.80
  -4  -1  -4   11.75    0.82
  -4  -1  -4   10.81    0.84
  -4  -1  -4   12.43    0.61
  -4  -1  -5   52.13    1.63
  -4  -1  -5   53.76    1.83
  -4  -1  -6  106.61    2.94
  -4  -1  -6  110.80    2.41
  -4  -1  -6  110.91    2.71
  -4  -1  -7  139.90    2.66
  -4  -1  -7  140.66    2.96
  -4  -1  -8    3.77    0.61
  -4  -1  -8    4.22    0.58
  -4  -1  -9    8.29    0.57
   4   2 -10   20.00    0.90
  -4  -2  10   19.77    0.86
   4   2  -9   71.67    1.96
  -4  -2   9   71.26    1.95
   4   2  -8    7.83    0.74
  -4  -2   8    8.06    0.75
   4   2  -7  504.98    5.79
  -4  -2   7  507.54    5.87
  -4  -2   7  502.94    5.76
  -4  -2   7  508.10    5.70
   4   2  -6   11.52    0.79
  -4  -2   6   11.37    0.81
  -4  -2   6   13.67    0.86
  -4  -2   5   77.91    1.64
  -4  -2   5   74.47    1.86
  -4  -2   5   80.79    1.83
   4   2  -5   78.20    1.86
  -4  -2   5   73.20    1.61
  -4  -2   5   74.59    1.82
   4   2  -5   79.92    1.66
  -4  -2   4  380.07    3.72
  -4  -2   4  386.80    4.00
  -4  -2   3   19.94    0.72
  -4  -2   3   20.57    0.78
  -4  -2   3   20.50    0.79
   4   2  -3   19.92    0.70
  -4  -2   2  183.87    2.34
   4   2  -2  178.62    2.08
  -4  -2   2  183.07    2.24
  -4  -2   1  473.58    4.20
   4   2  -1  467.63    3.50
  -4  -2   1  464.38    3.85
  -4  -2   0  384.08    3.77
  -4  -2   0  386.22    3.51
  -4  -2  -1  115.56    1.86
  -4  -2  -1  120.34    2.11
  -4  -2  -2   52.59    1.30
  -4  -2  -2   53.34    1.52
  -4  -2  -3   96.44    2.35
  -4  -2  -3  100.51    2.17
  -4  -2  -3  103.15    1.92
  -4  -2  -3   98.23    1.65
  -4  -2  -3  101.64    2.25
  -4  -2  -3  104.66    2.24
  -4  -2  -4  128.92    2.94
  -4  -2  -4  127.58    1.90
  -4  -2  -4  129.43    2.52
  -4  -2  -4  129.14    2.29
  -4  -2  -4  130.41    2.71
  -4  -2  -5  135.03    3.19
  -4  -2  -5  134.16    2.87
  -4  -2  -5  132.72    2.67
  -4  -2  -6   22.73    1.14
  -4  -2  -6   22.56    1.22
  -4  -2  -7   34.72    1.34
  -4  -2  -7   32.46    1.37
  -4  -2  -8   36.02    1.23
  -4  -3  11    2.53    0.26
  -4  -3  10   60.51    1.59
   4   3  -9   25.43    1.10
  -4  -3   9   26.67    1.24
  -4  -3   8  511.70    6.05
   4   3  -8  509.02    5.62
  -4  -3   8  524.17    5.92
   4   3  -7   97.55    2.26
   4   3  -7  102.62    2.18
  -4  -3   6    9.37    0.65
  -4  -3   6    8.09    0.70
  -4  -3   6    8.41    0.70
  -4  -3   5   20.81    0.90
  -4  -3   5   18.68    0.78
  -4  -3   5   21.19    0.89
  -4  -3   5   20.49    0.98
   4   3  -5   21.55    0.91
  -4  -3   5   19.55    0.90
  -4  -3   5   19.66    0.97
  -4  -3   4    1.30    0.26
  -4  -3   4    1.58    0.28
   4   3  -4    1.68    0.28
  -4  -3   3  235.13    2.89
  -4  -3   3  235.28    2.85
  -4  -3   2  220.79    2.73
  -4  -3   2  225.72    2.74
  -4  -3   1 2017.03   12.12
  -4  -3   1 2007.40   11.97
  -4  -3   0  265.96    3.24
  -4  -3   0  262.62    3.05
  -4  -3  -1  468.95    4.49
  -4  -3  -1  468.04    4.86
  -4  -3  -2  304.08    4.22
  -4  -3  -2  301.39    4.02
  -4  -3  -2  309.28    3.65
  -4  -3  -2  310.06    3.31
  -4  -3  -3   62.99    1.98
  -4  -3  -3   61.80    1.80
  -4  -3  -4  449.57    5.62
  -4  -3  -4  451.55    4.44
  -4  -3  -4  446.95    5.05
  -4  -3  -4  453.34    3.71
  -4  -3  -5    3.38    0.72
  -4  -3  -5  131.97    2.78
  -4  -3  -6   10.33    0.83
  -4  -3  -7    8.60    0.78
  -4  -3  -7    9.03    0.69
  -4  -3  -8  193.79    2.39
  -4  -3  -8  187.56    2.62
  -4  -4  11    7.98    0.45
  -4  -4  11    8.22    0.47
  -4  -4  10  120.79    2.28
  -4  -4   9    0.67    0.36
  -4  -4   8  216.95    3.70
  -4  -4   8  204.41    3.56
  -4  -4   7   15.65    0.93
  -4  -4   7   16.21    0.87
  -4  -4   7   18.93    1.04
  -4  -4   7   17.78    1.06
  -4  -4   7   17.83    1.04
   4   4  -7   17.24    0.90
  -4  -4   6   39.62    1.40
  -4  -4   6   40.35    1.21
   4   4  -6   43.22    1.41
  -4  -4   6   41.33    1.39
  -4  -4   6   41.45    1.45
  -4  -4   6   42.59    1.53
  -4  -4   6   40.99    1.48
  -4  -4   5   25.11    1.06
  -4  -4   5   28.05    1.14
  -4  -4   5   25.35    0.99
  -4  -4   5   26.44    1.10
   4   4  -5   26.23    1.04
  -4  -4   5   25.80    1.12
  -4  -4   5   26.04    1.10
  -4  -4   4   61.31    1.58
  -4  -4   4   54.77    1.44
  -4  -4   4   58.59    1.57
  -4  -4   4   54.71    1.50
  -4  -4   4   60.44    1.66
  -4  -4   4   54.02    1.47
  -4  -4   3   92.83    1.76
  -4  -4   3   96.28    1.93
  -4  -4   3   91.75    1.92
  -4  -4   3   96.39    2.05
  -4  -4   3   99.15    1.97
  -4  -4   2   23.31    0.88
  -4  -4   2   22.68    0.91
  -4  -4   1   66.80    1.57
  -4  -4   1   63.59    1.65
  -4  -4   1   68.05    1.56
  -4  -4   0  801.82    6.50
  -4  -4   0  798.41    6.35
  -4  -4   0  802.52    6.77
  -4  -4  -1   16.44    0.78
  -4  -4  -1   15.56    0.86
  -4  -4  -2  102.50    2.16
  -4  -4  -2  105.62    2.51
  -4  -4  -2  106.96    1.95
  -4  -4  -3  167.93    3.07
  -4  -4  -3  170.67    2.77
  -4  -4  -4    8.59    0.79
  -4  -4  -4    9.49    0.77
  -4  -4  -4    8.86    0.57
  -4  -4  -5   44.93    1.55
  -4  -4  -5   44.18    1.52
  -4  -4  -6   84.36    1.91
  -4  -4  -6   82.36    2.16
  -4  -4  -7    5.03    0.55
  -4  -4  -7    1.56    0.39
  -4  -5  10    0.69    0.28
  -4  -5  10    0.98    0.29
  -4  -5   9    0.32    0.33
  -4  -5   9    0.21    0.31
  -4  -5   9    0.62    0.33
  -4  -5   8   12.35    0.75
  -4  -5   8   12.58    0.90
  -4  -5   8   12.50    0.88
  -4  -5   7    4.17    0.53
  -4  -5   7    3.83    0.54
  -4  -5   7    3.52    0.53
  -4  -5   6   84.37    2.14
  -4  -5   6   89.82    1.93
  -4  -5   6   89.25    2.18
   4   5  -6   87.08    2.04
  -4  -5   6   88.53    2.17
  -4  -5   6   88.77    2.19
  -4  -5   6   88.67    2.26
  -4  -5   6   88.83    2.18
  -4  -5   5   10.95    0.77
  -4  -5   5   11.71    0.74
  -4  -5   5   11.65    0.79
  -4  -5   5   10.79    0.73
  -4  -5   5   11.96    0.76
  -4  -5   5   10.49    0.79
  -4  -5   5   11.76    0.76
  -4  -5   4   43.73    1.42
  -4  -5   4   41.64    1.36
  -4  -5   4   42.13    1.44
  -4  -5   4   44.02    1.39
  -4  -5   4   43.51    1.21
  -4  -5   4   44.59    1.47
  -4  -5   3  127.73    2.46
  -4  -5   3  126.28    2.36
  -4  -5   3  127.17    2.42
  -4  -5   3  121.09    2.46
  -4  -5   3  125.80    2.19
  -4  -5   3  126.75    2.42
  -4  -5   2    7.42    0.62
  -4  -5   2    6.36    0.55
  -4  -5   2    5.75    0.51
  -4  -5   2    7.77    0.64
  -4  -5   2    8.25    0.61
  -4  -5   1  472.88    4.73
  -4  -5   0   87.33    2.00
  -4  -5   0   89.17    1.93
  -4  -5  -1    0.90    0.42
  -4  -5  -1    0.12    0.23
  -4  -5  -1    0.32    0.27
  -4  -5  -2  163.75    2.84
  -4  -5  -2  158.77    2.54
  -4  -5  -3   71.75    2.00
  -4  -5  -3    0.01    0.44
  -4  -5  -4    2.42    0.51
  -4  -5  -4    2.71    0.35
  -4  -5  -5   21.47    1.08
  -4  -5  -5   25.89    1.08
  -4  -5  -6   35.99    1.15
  -4  -5  -6   41.16    1.16
  -4  -6  10   21.49    0.83
  -4  -6  10   20.67    0.79
  -4  -6   9   21.28    0.97
  -4  -6   9   21.13    0.80
  -4  -6   9   22.15    1.01
  -4  -6   8  145.93    2.57
  -4  -6   8  143.81    2.74
  -4  -6   8  141.65    2.77
  -4  -6   8  150.73    2.81
  -4  -6   7    1.77    0.41
  -4  -6   7    2.53    0.38
  -4  -6   7    1.98    0.44
  -4  -6   7    2.16    0.47
  -4  -6   7    1.82    0.39
  -4  -6   6   37.84    1.31
  -4  -6   6   39.02    1.50
  -4  -6   6   34.18    1.42
  -4  -6   6   37.87    1.37
  -4  -6   5   14.46    0.89
  -4  -6   5   14.53    0.86
  -4  -6   5   14.66    0.93
  -4  -6   5   14.26    0.92
  -4  -6   5   14.92    0.93
  -4  -6   4  144.89    2.81
  -4  -6   4  125.78    2.52
  -4  -6   4  133.67    2.68
  -4  -6   4  140.08    2.77
  -4  -6   4  134.35    2.33
  -4  -6   4  135.29    2.70
  -4  -6   3   39.69    1.48
  -4  -6   3   40.38    1.42
  -4  -6   3   41.17    1.42
  -4  -6   3   37.91    1.44
  -4  -6   3   40.67    1.33
  -4  -6   2  752.61    6.80
  -4  -6   2  759.02    6.62
  -4  -6   2  759.96    6.95
  -4  -6   2  762.03    6.75
  -4  -6   1  250.35    3.44
  -4  -6   1  247.56    3.63
  -4  -6   0   52.14    1.62
  -4  -6   0   53.09    1.58
  -4  -6  -1  134.60    2.86
  -4  -6  -1  134.06    2.47
  -4  -6  -2   75.65    1.67
  -4  -6  -2   70.99    1.94
  -4  -6  -3  103.16    2.21
  -4  -6  -3  100.69    1.74
  -4  -6  -4    0.69    0.45
  -4  -6  -4    0.97    0.37
  -4  -6  -5    5.91    0.51
  -4  -7   9    3.09    0.33
  -4  -7   9    3.17    0.35
  -4  -7   8  235.66    3.20
  -4  -7   8  239.39    3.26
  -4  -7   8  235.98    3.23
  -4  -7   7  122.58    2.16
  -4  -7   7  125.18    2.49
  -4  -7   6   97.38    2.24
  -4  -7   6   98.60    2.12
  -4  -7   6   99.67    2.26
  -4  -7   5   24.05    1.17
  -4  -7   5   23.07    1.08
  -4  -7   5   22.06    1.11
  -4  -7   5   23.51    1.13
  -4  -7   4   12.49    0.89
  -4  -7   4   12.81    0.87
  -4  -7   4   12.47    0.84
  -4  -7   4   13.12    0.77
  -4  -7   3  622.16    6.57
  -4  -7   3  613.17    6.17
  -4  -7   3  608.08    6.04
  -4  -7   3  611.27    5.92
  -4  -7   2   84.52    2.04
  -4  -7   2   89.66    2.10
  -4  -7   1  241.96    3.39
  -4  -7   1  247.18    3.93
  -4  -7   1  236.81    3.52
  -4  -7   0    0.93    0.39
  -4  -7   0    0.88    0.35
  -4  -7  -1  119.44    2.43
  -4  -7  -1  131.05    2.33
  -4  -7  -2   38.39    1.29
  -4  -7  -2   41.66    1.15
  -4  -7  -3   -0.21    0.23
  -4  -7  -3   -0.01    0.43
  -4  -7  -4    4.06    0.39
  -4  -7  -4    2.29    0.39
  -4  -8   9    0.38    0.16
  -4  -8   8    4.31    0.42
  -4  -8   7    1.10    0.28
  -4  -8   7    1.50    0.30
  -4  -8   7    0.91    0.33
  -4  -8   6    0.46    0.26
  -4  -8   6    0.42    0.26
  -4  -8   6    0.16    0.29
  -4  -8   5    3.27    0.48
  -4  -8   5    3.44    0.46
  -4  -8   5    3.72    0.49
  -4  -8   4   90.62    2.09
  -4  -8   4   87.03    2.02
  -4  -8   4   87.97    1.89
  -4  -8   3    0.18    0.28
  -4  -8   3    0.24    0.31
  -4  -8   2   78.14    1.86
  -4  -8   2   78.13    1.89
  -4  -8   1    4.78    0.47
  -4  -8   1    5.44    0.55
  -4  -8   0   26.34    1.03
  -4  -8  -1    0.10    0.42
  -4  -8  -1  162.30    2.19
  -4  -8  -2    0.16    0.42
  -4  -8  -2   55.82    1.07
  -4  -8  -3    1.41    0.32
  -4  -9   8    9.37    0.48
  -4  -9   7    8.62    0.47
  -4  -9   7    8.96    0.55
  -4  -9   6   45.66    1.19
  -4  -9   6   45.31    1.26
  -4  -9   5   75.67    1.65
  -4  -9   4   67.12    1.59
  -4  -9   4   63.59    1.46
  -4  -9   4   63.90    1.42
  -4  -9   3    1.59    0.32
  -4  -9   3    1.50    0.32
  -4  -9   2    0.79    0.25
  -4  -9   2    0.94    0.30
  -4  -9   1  176.66    2.45
  -4  -9   0   -0.07    0.33
  -4  -9   0    0.20    0.22
  -4  -9  -1   -0.33    0.34
  -4  -9  -1   -0.14    0.19
  -4  -9  -1    0.07    0.15
  -4 -10   6    0.38    0.16
  -4 -10   4   37.76    0.94
  -4 -10   4   35.01    0.82
  -4 -10   3   67.74    1.20
  -4 -10   3   64.11    1.19
  -4 -10   2   19.05    0.64
  -4 -10   1   79.29    1.19
   5 -10   1   20.58    0.71
   5 -10   1   18.44    0.60
   5 -10   2   27.57    0.85
   5 -10   3   20.50    0.72
   5 -10   3   20.43    0.71
   5 -10   4  100.02    1.44
   5 -10   4  108.00    1.66
   5  -9  -2   18.31    0.70
   5  -9  -1    0.24    0.24
   5  -9  -1    0.20    0.22
   5  -9   0  104.90    1.97
   5  -9   0  105.78    1.98
   5  -9   1    0.16    0.22
   5  -9   1    2.73    0.38
   5  -9   2   45.12    1.36
   5  -9   2   46.45    1.34
   5  -9   2   44.01    1.19
   5  -9   3  163.36    2.56
   5  -9   3  165.91    2.66
   5  -9   4   11.17    0.63
   5  -9   4   11.45    0.71
   5  -9   5    7.45    0.56
   5  -9   5    7.34    0.51
   5  -9   6   64.95    1.39
   5  -9   6   66.67    1.37
   5  -9   7    8.43    0.44
   5  -8  -4    0.61    0.18
   5  -8  -4    0.41    0.23
   5  -8  -3    0.60    0.26
   5  -8  -3    1.30    0.36
   5  -8  -2   26.91    1.07
   5  -8  -2   27.10    0.98
   5  -8  -2   29.01    1.20
   5  -8  -1   19.98    0.99
   5  -8  -1   19.04    0.93
   5  -8  -1   19.08    1.05
   5  -8   0   13.07    0.83
   5  -8   0   13.77    0.84
   5  -8   0   13.41    0.94
   5  -8   1    7.76    0.64
   5  -8   2    2.46    0.39
   5  -8   2    3.52    0.50
   5  -8   3   44.89    1.38
   5  -8   3   47.94    1.50
   5  -8   4    1.65    0.40
   5  -8   4    1.49    0.35
   5  -8   5  111.28    2.27
   5  -8   5  112.18    2.25
   5  -8   6    2.01    0.40
   5  -8   6    2.13    0.37
   5  -8   7    6.65    0.45
   5  -8   7    7.37    0.54
   5  -7  -5  345.82    3.11
   5  -7  -5  344.14    3.27
   5  -7  -4   64.20    1.55
   5  -7  -4   62.90    1.49
   5  -7  -4   64.99    1.72
   5  -7  -3  326.83    3.89
   5  -7  -3  327.29    3.74
   5  -7  -2  290.08    3.83
   5  -7  -2  292.98    4.30
   5  -7  -1  143.17    2.75
   5  -7  -1  148.25    3.07
   5  -7   0  613.98    6.25
   5  -7   0  595.40    6.64
   5  -7   1   40.49    1.49
   5  -7   1   38.91    1.58
   5  -7   2  104.93    2.20
   5  -7   2  100.28    2.17
   5  -7   2  107.45    2.38
   5  -7   3  114.78    2.39
   5  -7   3  115.11    2.41
   5  -7   4    1.66    0.43
   5  -7   4    1.04    0.32
   5  -7   5  146.18    2.78
   5  -7   5  134.98    2.61
   5  -7   6    7.46    0.61
   5  -7   6    9.39    0.71
   5  -7   6    7.28    0.67
   5  -7   7   25.19    1.04
   5  -7   8   37.23    1.14
   5  -7   8   38.56    1.13
   5  -6  -6   82.80    1.62
   5  -6  -6   82.30    1.68
   5  -6  -5  138.41    2.63
   5  -6  -5  144.08    2.53
   5  -6  -4   12.27    0.87
   5  -6  -4   12.61    0.91
   5  -6  -3   97.94    2.31
   5  -6  -3   95.56    2.11
   5  -6  -3   98.91    2.50
   5  -6  -2   56.79    1.74
   5  -6  -2   63.02    1.80
   5  -6  -2   59.74    1.97
   5  -6  -1  454.09    5.13
   5  -6  -1  464.64    5.33
   5  -6  -1  457.41    5.66
   5  -6   0   82.85    2.05
   5  -6   0   78.07    2.20
   5  -6   1  414.42    4.69
   5  -6   1  424.17    4.84
   5  -6   1  416.98    5.00
   5  -6   1  420.33    4.90
   5  -6   1  409.52    5.20
   5  -6   2  291.27    3.86
   5  -6   2  291.31    3.78
   5  -6   2  287.74    3.98
   5  -6   2  279.90    4.02
   5  -6   3  347.44    4.31
   5  -6   3  330.38    4.17
   5  -6   4  897.73    7.89
   5  -6   4  898.18    7.85
   5  -6   5  254.00    3.81
   5  -6   6   26.38    1.10
   5  -6   6   26.24    1.22
   5  -6   6   27.18    1.24
   5  -6   7  181.98    3.08
   5  -6   7  180.23    2.99
   5  -6   8  239.87    3.29
   5  -6   8  233.93    3.08
   5  -6   9    2.33    0.33
   5  -6   9    2.63    0.28
   5  -5  -7    3.32    0.40
   5  -5  -7    3.45    0.39
   5  -5  -6   34.98    1.30
   5  -5  -6   33.03    1.28
   5  -5  -5   12.46    0.92
   5  -5  -5   13.53    0.96
   5  -5  -5   10.88    0.87
   5  -5  -4  110.83    2.57
   5  -5  -4  110.60    2.71
   5  -5  -4  107.93    2.66
   5  -5  -3   87.78    2.25
   5  -5  -3   86.28    2.06
   5  -5  -3   86.90    2.37
   5  -5  -2   98.79    2.33
   5  -5  -2  101.01    2.32
   5  -5  -2   98.50    2.44
   5  -5  -1  292.44    3.97
   5  -5  -1  296.13    4.02
   5  -5  -1  290.80    4.18
   5  -5  -1  291.22    3.61
   5  -5   0  515.61    5.37
   5  -5   0  512.34    5.67
   5  -5   0  522.96    5.13
   5  -5   1  104.52    2.16
   5  -5   1  108.55    2.40
   5  -5   2  613.19    5.84
   5  -5   2  588.48    5.48
   5  -5   2  600.37    5.81
  -5   5  -2  586.61    5.62
   5  -5   2  566.35    5.65
  -5   5  -3  674.46    6.26
   5  -5   3  684.39    6.08
   5  -5   4   82.61    2.04
   5  -5   5  178.29    3.09
   5  -5   5  183.11    3.27
   5  -5   6  465.61    5.30
   5  -5   6  464.67    5.54
   5  -5   7   61.92    1.87
   5  -5   7   62.44    1.76
   5  -5   8  215.68    3.28
   5  -5   8  224.87    3.04
   5  -5   9  192.25    2.67
   5  -4  -8   12.37    0.62
   5  -4  -8   12.05    0.57
   5  -4  -7  263.66    3.56
   5  -4  -7  262.12    3.76
   5  -4  -6   18.68    1.12
   5  -4  -6   17.59    0.93
   5  -4  -5   77.65    2.16
   5  -4  -5   75.67    2.27
   5  -4  -5   74.30    1.95
   5  -4  -4  104.86    2.48
   5  -4  -4  100.54    2.57
   5  -4  -3    4.38    0.58
   5  -4  -3    2.42    0.49
   5  -4  -2   10.73    0.77
   5  -4  -2    9.67    0.75
   5  -4  -1   75.29    1.88
   5  -4  -1   74.34    1.89
   5  -4  -1   76.53    1.76
   5  -4   0  279.58    3.67
   5  -4   0  277.16    3.28
  -5   4   0  277.22    3.35
   5  -4   0  272.84    3.64
   5  -4   0  279.29    3.49
   5  -4   1  192.82    2.77
  -5   4  -1  202.46    2.89
   5  -4   1  196.44    3.00
   5  -4   1  200.39    2.91
   5  -4   2    8.68    0.54
  -5   4  -2    8.89    0.64
   5  -4   2    7.94    0.60
   5  -4   3   15.75    0.85
  -5   4  -3   15.12    0.85
   5  -4   4  728.38    6.68
   5  -4   4  740.56    6.59
   5  -4   5   47.10    1.54
   5  -4   5   52.70    1.55
  -5   4  -5   50.59    1.70
   5  -4   6   28.43    1.21
   5  -4   7  376.33    4.80
   5  -4   7  362.63    4.35
   5  -4   8   34.39    1.31
  -5   4  -9  157.64    2.53
   5  -4   9  159.82    2.40
   5  -3  -8    1.80    0.39
   5  -3  -8    2.19    0.42
   5  -3  -7  211.98    3.38
   5  -3  -7  207.09    3.62
   5  -3  -7  205.32    3.34
   5  -3  -6  204.11    3.53
   5  -3  -6  201.91    3.74
   5  -3  -6  201.09    3.48
   5  -3  -5  174.90    3.28
   5  -3  -5  174.05    3.43
   5  -3  -5  174.85    3.25
   5  -3  -4  203.26    3.56
   5  -3  -4  200.95    3.37
   5  -3  -4  200.47    3.01
   5  -3  -3    3.29    0.49
   5  -3  -3    3.58    0.44
   5  -3  -3    3.35    0.44
   5  -3  -3    3.24    0.42
   5  -3  -2  102.85    2.21
  -5   3   2  101.22    1.96
   5  -3  -2  101.46    2.01
   5  -3  -1  122.43    2.30
  -5   3   1  117.93    1.99
   5  -3  -1  115.13    1.80
   5  -3  -1  122.93    2.16
  -5   3   0   38.53    1.08
   5  -3   0   38.36    1.06
   5  -3   0   38.33    1.17
   5  -3   1   71.34    1.49
   5  -3   2    1.67    0.31
  -5   3  -2    1.25    0.27
   5  -3   2    1.34    0.30
   5  -3   3  124.88    2.27
  -5   3  -3  130.74    2.42
   5  -3   4   33.68    1.20
  -5   3  -4   32.18    1.23
   5  -3   5   36.66    1.22
   5  -3   5   45.60    1.44
   5  -3   6    6.94    0.61
  -5   3  -6    6.46    0.73
  -5   3  -6    8.23    0.72
   5  -3   6    6.36    0.66
  -5   3  -7    1.96    0.42
   5  -3   7    0.44    0.34
   5  -3   8   33.91    1.26
   5  -3   9   16.13    0.71
   5  -2  -9    1.12    0.27
   5  -2  -9    1.54    0.34
   5  -2  -9    1.35    0.30
   5  -2  -8   14.01    0.83
   5  -2  -8   16.21    0.99
   5  -2  -8   14.15    0.88
   5  -2  -7  355.71    4.59
   5  -2  -7  343.53    4.77
   5  -2  -6   53.90    1.79
   5  -2  -6   55.23    1.88
   5  -2  -5  229.10    3.69
   5  -2  -5  231.28    3.82
   5  -2  -5  225.71    3.32
   5  -2  -4    0.45    0.30
  -5   2   4    0.56    0.24
   5  -2  -4    0.94    0.31
   5  -2  -3  187.90    3.03
   5  -2  -3  188.97    3.04
  -5   2   3  182.07    2.70
   5  -2  -3  186.78    2.84
   5  -2  -2   21.42    0.96
  -5   2   2   21.15    0.88
  -5   2   1   13.80    0.67
   5  -2  -1   14.77    0.60
  -5   2   0    2.11    0.30
   5  -2   0    0.50    0.20
  -5   2  -1  540.77    4.73
  -5   2  -2   39.00    1.17
   5  -2   3   86.56    1.77
  -5   2  -3   90.71    1.96
  -5   2  -3   91.89    1.94
   5  -2   4  577.43    5.28
  -5   2  -4  590.58    5.65
  -5   2  -4  595.37    6.25
   5  -2   4  571.54    5.35
  -5   2  -5   10.99    0.85
   5  -2   5   12.00    0.70
  -5   2  -6   26.84    1.42
  -5   2  -6   28.21    1.33
   5  -2   6   26.98    1.24
  -5   2  -7  186.49    3.58
   5  -2   7  192.41    3.19
  -5   2  -8   21.28    1.02
   5  -2   8   19.67    0.90
  -5   2  -9    2.71    0.36
   5  -1  -9    0.31    0.32
   5  -1  -9    0.67    0.30
   5  -1  -8   44.64    1.43
   5  -1  -8   44.96    1.63
   5  -1  -7   70.03    1.93
   5  -1  -7   69.83    2.14
   5  -1  -7   69.65    1.79
   5  -1  -6  150.52    2.91
   5  -1  -6  155.58    3.18
  -5   1   6  150.13    2.74
   5  -1  -5    1.03    0.36
  -5   1   5    0.95    0.30
   5  -1  -4  525.76    5.43
  -5   1   4  513.99    4.52
  -5   1   4  530.68    5.27
   5  -1  -4  536.09    5.71
   5  -1  -3  229.94    3.33
   5  -1  -3  224.95    3.09
  -5   1   2  775.60    6.27
  -5   1   1  792.46    6.19
  -5   1   0  305.81    3.41
  -5   1  -1  616.00    5.28
  -5   1  -2  536.18    5.07
  -5   1  -3   82.34    1.83
  -5   1  -3   88.59    2.00
  -5   1  -4   30.25    1.34
  -5   1  -4   30.05    1.12
  -5   1  -4   31.41    1.23
  -5   1  -5  376.71    5.36
  -5   1  -5  379.67    5.03
   5  -1   5  363.81    4.09
  -5   1  -6    0.09    0.47
  -5   1  -6    0.85    0.43
   5  -1   6    0.24    0.27
  -5   1  -7    0.30    0.46
  -5   1  -7    0.26    0.37
  -5   1  -8  120.16    2.44
  -5   1  -9    0.71    0.28
  -5   1  -9    1.11    0.30
   5   0 -10   18.88    0.80
   5   0  -9  124.43    2.48
   5   0  -8   -0.16    0.45
  -5   0   8    0.10    0.23
   5   0  -7  274.63    4.33
  -5   0   7  266.67    3.89
   5   0  -6    2.18    0.40
   5   0  -6    2.29    0.49
  -5   0   6    2.38    0.43
   5   0  -5   23.78    1.06
   5   0  -5   21.81    1.13
  -5   0   5   23.46    0.97
  -5   0   5   23.20    1.08
   5   0  -4  603.11    5.66
  -5   0   4  614.03    5.13
  -5   0   4  623.20    5.33
  -5   0   4  613.56    5.85
  -5   0   3   64.10    1.38
  -5   0   2  264.19    3.19
  -5   0   2  260.44    2.81
  -5   0   1  218.11    2.86
  -5   0   0 1388.20    9.30
  -5   0  -1    6.78    0.53
  -5   0  -1    6.62    0.39
  -5   0  -2   36.50    1.00
  -5   0  -2   38.25    1.28
  -5   0  -3  860.19    8.15
  -5   0  -3  851.96    6.49
  -5   0  -4    2.56    0.40
  -5   0  -4    2.67    0.51
  -5   0  -4    2.40    0.44
  -5   0  -5  891.45    9.06
  -5   0  -5  907.02    7.59
  -5   0  -5  907.73    8.55
  -5   0  -6   37.63    1.73
  -5   0  -6   39.25    1.36
  -5   0  -6   37.94    1.59
  -5   0  -7   62.34    1.63
  -5   0  -7   63.30    1.95
  -5   0  -8  186.99    3.00
  -5   0  -9   26.29    0.85
   5   1  -9   82.59    2.03
  -5  -1   9   79.27    1.81
   5   1  -8  422.07    5.34
   5   1  -7  123.20    2.81
  -5  -1   7  119.31    2.63
   5   1  -6  326.75    4.58
  -5  -1   6  323.29    4.17
  -5  -1   6  332.87    4.50
  -5  -1   5    1.79    0.31
   5   1  -5    1.71    0.38
  -5  -1   5    1.17    0.33
  -5  -1   5    0.85    0.28
  -5  -1   4   60.58    1.62
  -5  -1   4   55.80    1.41
   5   1  -4   56.21    1.62
  -5  -1   4   58.59    1.47
  -5  -1   3  131.57    2.29
  -5  -1   3  131.42    2.14
  -5  -1   2    2.28    0.29
  -5  -1   2    0.51    0.25
  -5  -1   1  863.63    6.75
  -5  -1   1  846.74    5.82
  -5  -1   0  382.19    3.52
  -5  -1  -1  318.32    3.24
  -5  -1  -2   10.97    0.59
  -5  -1  -2   10.02    0.55
  -5  -1  -2   10.76    0.74
  -5  -1  -3    8.54    0.55
  -5  -1  -3    8.34    0.68
  -5  -1  -3    8.22    0.58
  -5  -1  -3    8.33    0.77
  -5  -1  -3    8.11    0.70
  -5  -1  -4  270.09    4.47
  -5  -1  -4  272.66    3.79
  -5  -1  -4  280.32    4.23
  -5  -1  -5    4.62    0.78
  -5  -1  -5    3.82    0.56
  -5  -1  -5    4.36    0.65
  -5  -1  -6  275.49    3.82
  -5  -1  -6  286.64    4.36
  -5  -1  -7    2.34    0.56
  -5  -1  -7    1.82    0.48
  -5  -1  -8   30.66    1.19
  -5  -1  -8   27.68    1.08
  -5  -2  10   21.73    0.81
   5   2 -10   22.02    0.80
   5   2  -9  281.93    3.80
  -5  -2   9  276.52    3.74
   5   2  -8  102.64    2.41
  -5  -2   8  101.82    2.44
   5   2  -7  193.96    3.45
  -5  -2   7  201.73    3.54
  -5  -2   6    4.49    0.54
  -5  -2   6    4.89    0.47
  -5  -2   6    4.21    0.51
   5   2  -6    5.37    0.59
  -5  -2   5  126.30    2.15
  -5  -2   5  136.02    2.54
  -5  -2   5  127.44    2.29
  -5  -2   5  129.94    2.46
   5   2  -5  125.31    2.54
  -5  -2   5  127.04    2.60
   5   2  -5  130.62    2.32
  -5  -2   4  168.36    2.49
  -5  -2   4  177.72    2.77
  -5  -2   4  166.41    2.60
  -5  -2   4  168.32    2.71
  -5  -2   4  168.79    2.84
   5   2  -4  170.86    2.47
  -5  -2   3   33.31    1.04
  -5  -2   3   34.63    1.17
  -5  -2   3   33.59    1.09
  -5  -2   3   34.61    1.02
   5   2  -3   32.75    0.96
  -5  -2   2  186.33    2.73
  -5  -2   2  178.73    2.35
  -5  -2   1    9.13    0.62
  -5  -2   1    9.04    0.52
  -5  -2   0 2270.06   14.22
  -5  -2   0 2318.87   13.59
  -5  -2  -1   91.26    1.77
  -5  -2  -1   88.87    1.64
  -5  -2  -1   89.53    2.05
  -5  -2  -2   13.15    0.72
  -5  -2  -2   14.25    0.95
  -5  -2  -2   11.36    0.60
  -5  -2  -2   11.29    0.62
  -5  -2  -2   13.75    0.88
  -5  -2  -3 1097.09    9.75
  -5  -2  -3 1105.02    9.13
  -5  -2  -3 1117.79    8.53
  -5  -2  -3 1110.07    9.42
  -5  -2  -3 1109.89    7.74
  -5  -2  -3 1118.60    9.27
  -5  -2  -4    9.79    0.94
  -5  -2  -4   13.17    0.73
  -5  -2  -4   11.04    0.84
  -5  -2  -4   10.48    0.87
  -5  -2  -5  187.06    3.87
  -5  -2  -5  188.71    2.58
  -5  -2  -5  191.94    3.27
  -5  -2  -5  186.66    3.53
  -5  -2  -6   13.63    0.86
  -5  -2  -6    2.51    0.53
  -5  -2  -7    3.33    0.57
  -5  -2  -7    0.44    0.36
  -5  -2  -8    6.52    0.48
  -5  -3  10   53.00    1.35
  -5  -3  10   47.18    1.33
  -5  -3   9    0.14    0.29
   5   3  -8    9.21    0.71
  -5  -3   7   17.30    0.86
   5   3  -7   17.81    0.99
  -5  -3   7   18.87    1.09
  -5  -3   6    2.63    0.36
  -5  -3   6    2.51    0.40
  -5  -3   6    2.99    0.45
  -5  -3   6    2.53    0.46
   5   3  -6    3.02    0.42
  -5  -3   5  139.71    2.47
  -5  -3   5  138.93    2.35
  -5  -3   5  142.31    2.56
  -5  -3   5  142.35    2.55
  -5  -3   5  140.96    2.66
  -5  -3   5  142.14    2.75
   5   3  -5  136.34    2.39
   5   3  -4  225.35    3.04
  -5  -3   4  213.30    2.95
  -5  -3   4  217.72    3.14
  -5  -3   4  211.60    3.14
  -5  -3   4  215.65    3.18
  -5  -3   4  215.70    3.24
  -5  -3   4  209.75    3.32
  -5  -3   3    4.37    0.45
   5   3  -3    4.53    0.40
  -5  -3   3    4.21    0.44
  -5  -3   3    4.42    0.45
  -5  -3   3    5.10    0.47
  -5  -3   3    5.02    0.53
  -5  -3   3    4.71    0.39
  -5  -3   3    6.22    0.49
  -5  -3   2   15.05    0.79
  -5  -3   2   13.70    0.71
  -5  -3   2   15.72    0.85
  -5  -3   2   14.64    0.71
  -5  -3   1    2.33    0.37
  -5  -3   1    1.88    0.29
  -5  -3   1    1.47    0.33
  -5  -3   1    1.55    0.28
  -5  -3   1    2.05    0.32
  -5  -3   0    7.48    0.63
  -5  -3   0    7.81    0.58
  -5  -3   0    9.08    0.58
  -5  -3  -1   10.60    0.63
  -5  -3  -1    7.43    0.67
  -5  -3  -2   61.37    1.98
  -5  -3  -2   63.21    1.49
  -5  -3  -2   67.75    2.06
  -5  -3  -2   63.39    1.91
  -5  -3  -2   68.45    1.72
  -5  -3  -2   72.37    2.16
  -5  -3  -2   64.59    1.46
  -5  -3  -2   64.91    1.93
  -5  -3  -3  294.56    4.66
  -5  -3  -3  301.36    3.46
  -5  -3  -3  296.63    4.41
  -5  -3  -3  300.51    3.97
  -5  -3  -3  289.74    4.27
  -5  -3  -4    7.81    0.88
  -5  -3  -4    7.19    0.73
  -5  -3  -4    6.62    0.73
  -5  -3  -4    6.91    0.55
  -5  -3  -5   10.63    0.61
  -5  -3  -5    8.24    0.76
  -5  -3  -5    8.75    0.77
  -5  -3  -6   59.93    1.63
  -5  -3  -6   56.09    1.66
  -5  -3  -7    0.02    0.33
  -5  -3  -7   -0.06    0.27
  -5  -4  10    1.78    0.33
  -5  -4   9   13.17    0.82
  -5  -4   9   10.69    0.78
  -5  -4   8    0.17    0.32
  -5  -4   8    0.37    0.23
  -5  -4   7   25.33    0.94
  -5  -4   7   25.42    1.09
  -5  -4   7   25.15    1.24
  -5  -4   6   87.97    1.87
  -5  -4   6   88.07    2.09
  -5  -4   6   89.35    2.27
  -5  -4   6   83.18    2.24
   5   4  -6   82.80    1.96
  -5  -4   6   80.34    2.05
  -5  -4   5   32.37    1.19
   5   4  -5   33.81    1.25
  -5  -4   5   34.07    1.30
  -5  -4   5   32.85    1.31
  -5  -4   5   29.82    1.32
  -5  -4   5   34.26    1.30
  -5  -4   4   24.26    1.02
   5   4  -4   22.37    0.94
  -5  -4   4   23.87    1.08
  -5  -4   4   24.06    1.08
  -5  -4   4   24.35    1.05
  -5  -4   4   23.42    1.15
  -5  -4   4   22.98    0.84
  -5  -4   4   24.32    1.05
  -5  -4   3   35.00    1.21
  -5  -4   3   39.70    1.27
  -5  -4   3   35.21    1.25
   5   4  -3   39.59    1.17
  -5  -4   3   35.69    1.36
  -5  -4   3   36.49    1.12
  -5  -4   3   36.59    1.24
  -5  -4   2   31.65    1.18
  -5  -4   2   29.52    1.09
  -5  -4   2   29.00    1.08
  -5  -4   2   31.08    1.26
  -5  -4   2   32.91    1.10
  -5  -4   2   31.45    1.14
  -5  -4   1  399.57    4.24
  -5  -4   1  399.18    4.81
  -5  -4   1  409.61    4.65
  -5  -4   0   24.43    1.04
  -5  -4   0   24.16    0.98
  -5  -4   0   24.09    1.13
  -5  -4  -1   20.87    0.98
  -5  -4  -1   23.44    0.96
  -5  -4  -1   19.81    1.08
  -5  -4  -2   23.32    1.29
  -5  -4  -2   25.74    1.11
  -5  -4  -3    4.76    0.67
  -5  -4  -3    4.62    0.58
  -5  -4  -3    4.17    0.47
  -5  -4  -4    1.38    0.31
  -5  -4  -4    1.27    0.41
  -5  -4  -5   36.65    1.30
  -5  -4  -6   17.74    0.91
  -5  -4  -6   18.63    0.79
  -5  -5  10   84.08    1.59
  -5  -5  10   83.18    1.64
  -5  -5   9    2.69    0.41
  -5  -5   9    3.14    0.46
  -5  -5   8  238.49    3.19
  -5  -5   8  242.63    3.65
  -5  -5   8  241.95    3.71
  -5  -5   7  107.44    2.00
  -5  -5   7  109.99    2.31
  -5  -5   7  109.94    2.47
  -5  -5   7  102.47    2.50
  -5  -5   6    5.88    0.55
  -5  -5   6    5.58    0.62
  -5  -5   6    6.35    0.62
  -5  -5   6    6.83    0.71
  -5  -5   5   58.97    1.63
   5   5  -5   58.82    1.64
  -5  -5   5   61.27    1.94
  -5  -5   5   59.47    1.79
  -5  -5   4  160.26    2.88
   5   5  -4  153.11    2.60
  -5  -5   4  156.49    3.05
  -5  -5   4  150.11    2.37
  -5  -5   4  156.43    2.87
  -5  -5   3  497.42    5.29
  -5  -5   3  500.35    5.27
  -5  -5   3  506.07    5.76
  -5  -5   3  506.22    4.96
  -5  -5   3  501.29    5.36
  -5  -5   2  132.40    2.46
  -5  -5   2  130.14    2.39
  -5  -5   2  125.49    2.70
  -5  -5   2  127.41    2.50
  -5  -5   2  128.60    2.35
  -5  -5   1  450.71    4.71
  -5  -5   1  466.38    5.13
  -5  -5   0   64.70    1.80
  -5  -5   0   66.45    1.69
  -5  -5  -1   74.82    2.28
  -5  -5  -1   75.39    1.76
  -5  -5  -2  191.04    3.49
  -5  -5  -2  192.33    2.76
  -5  -5  -3  157.20    2.26
  -5  -5  -3  155.77    2.87
  -5  -5  -4   11.02    0.78
  -5  -5  -4   11.37    0.58
  -5  -5  -5   97.13    1.86
  -5  -5  -6   32.65    0.88
  -5  -6  10   27.79    0.78
  -5  -6  10   27.00    0.80
  -5  -6   9    9.61    0.48
  -5  -6   9   10.37    0.61
  -5  -6   9   10.36    0.65
  -5  -6   8   33.56    1.14
  -5  -6   8   32.01    1.17
  -5  -6   8   30.57    1.24
  -5  -6   7  191.61    2.71
  -5  -6   7  192.05    3.10
  -5  -6   7  189.50    3.01
  -5  -6   7  197.44    3.37
  -5  -6   6   71.92    1.94
  -5  -6   6   73.40    2.08
  -5  -6   5   49.37    1.52
  -5  -6   5   48.41    1.61
  -5  -6   5   46.12    1.67
  -5  -6   4  718.61    6.75
  -5  -6   4  717.25    7.16
  -5  -6   4  697.15    6.05
  -5  -6   3    3.04    0.48
  -5  -6   3    3.53    0.47
  -5  -6   3    2.61    0.51
  -5  -6   3    3.41    0.47
  -5  -6   2  258.89    3.60
  -5  -6   2  252.87    3.40
  -5  -6   2  259.27    3.57
  -5  -6   1   17.88    0.88
  -5  -6   0   63.39    2.07
  -5  -6   0   61.69    1.65
  -5  -6  -1   65.92    1.98
  -5  -6  -1   67.00    1.64
  -5  -6  -2  112.03    1.93
  -5  -6  -2  113.12    2.40
  -5  -6  -2  117.06    1.92
  -5  -6  -3   67.91    1.34
  -5  -6  -3   69.97    1.73
  -5  -6  -4   13.36    0.70
  -5  -6  -4    2.83    0.47
  -5  -6  -5    1.52    0.34
  -5  -7   9   55.94    1.05
  -5  -7   9   53.97    1.18
  -5  -7   8  100.97    1.85
  -5  -7   8   98.35    1.93
  -5  -7   7   99.22    1.83
  -5  -7   7  100.45    2.07
  -5  -7   7   93.89    2.08
  -5  -7   6   55.51    1.50
  -5  -7   6   54.48    1.63
  -5  -7   6   52.32    1.64
  -5  -7   5    2.87    0.45
  -5  -7   5    2.48    0.45
  -5  -7   5    2.99    0.50
  -5  -7   4    3.88    0.51
  -5  -7   4    4.82    0.54
  -5  -7   4    3.97    0.47
  -5  -7   3  188.07    3.03
  -5  -7   3  187.98    2.93
  -5  -7   3  188.49    2.90
  -5  -7   2   45.85    1.42
  -5  -7   2   45.25    1.44
  -5  -7   1   36.71    1.19
  -5  -7   1   36.08    1.49
  -5  -7   1   36.63    1.26
  -5  -7   0    8.14    0.71
  -5  -7   0    9.20    0.66
  -5  -7  -1    2.78    0.46
  -5  -7  -1    3.13    0.40
  -5  -7  -2   42.66    1.06
  -5  -7  -2   43.77    1.26
  -5  -7  -2   42.84    1.01
  -5  -7  -3    5.99    0.36
  -5  -7  -3    5.97    0.45
  -5  -8   8   32.16    0.90
  -5  -8   7    1.35    0.25
  -5  -8   6  134.90    2.15
  -5  -8   6  121.05    2.20
  -5  -8   5   63.64    1.61
  -5  -8   4    4.49    0.49
  -5  -8   4    4.55    0.46
  -5  -8   3    8.38    0.61
  -5  -8   3    8.37    0.60
  -5  -8   2    7.04    0.54
  -5  -8   2    8.13    0.65
  -5  -8   2    6.96    0.56
  -5  -8   1   58.35    1.53
  -5  -8   1   59.27    1.47
  -5  -8   0    0.02    0.35
  -5  -8   0   36.74    1.06
  -5  -8  -1   22.62    0.73
  -5  -8  -1   23.36    0.73
  -5  -8  -2    0.37    0.36
  -5  -8  -2   92.06    1.15
  -5  -9   7   13.98    0.49
  -5  -9   7   13.74    0.54
  -5  -9   6    2.59    0.30
  -5  -9   6    2.78    0.30
  -5  -9   5  419.61    3.70
  -5  -9   4   18.35    0.73
  -5  -9   4   17.27    0.65
  -5  -9   3    9.55    0.52
  -5  -9   2    4.45    0.33
  -5  -9   2    4.95    0.40
  -5  -9   1    0.92    0.24
  -5  -9   0    3.29    0.28
  -5  -9   0    3.31    0.27
   6  -9  -1   22.49    0.69
   6  -9  -1   23.39    0.73
   6  -9   0  125.96    1.90
   6  -9   0  120.61    1.81
   6  -9   1   23.55    0.76
   6  -9   1   22.66    0.75
   6  -9   2    2.37    0.34
   6  -9   2    2.37    0.33
   6  -9   3    3.12    0.35
   6  -9   3    3.25    0.38
   6  -9   5  181.63    2.26
   6  -9   5  168.83    2.05
   6  -8  -3   38.82    0.99
   6  -8  -2   24.01    0.83
   6  -8  -2   23.82    0.93
   6  -8  -1   83.50    1.80
   6  -8  -1   83.95    1.77
   6  -8   0   25.94    1.02
   6  -8   0   25.56    1.05
   6  -8   1   80.13    1.75
   6  -8   1   84.13    1.92
   6  -8   2   19.55    0.85
   6  -8   2   21.73    0.98
   6  -8   3   84.01    1.78
   6  -8   3   81.04    1.78
   6  -8   4  320.64    3.75
   6  -8   4  329.70    3.95
   6  -8   5   44.94    1.29
   6  -8   5   46.80    1.30
   6  -8   6    0.05    0.23
   6  -8   6   -0.01    0.19
   6  -8   7    0.62    0.20
   6  -7  -4  122.24    1.95
   6  -7  -4  121.55    1.87
   6  -7  -4  127.48    2.03
   6  -7  -3  139.82    2.26
   6  -7  -3  141.93    2.19
   6  -7  -3  144.07    2.48
   6  -7  -2    1.66    0.37
   6  -7  -2    4.60    0.56
   6  -7  -1    5.87    0.60
   6  -7  -1    4.36    0.56
   6  -7   0   12.64    0.88
   6  -7   1  126.26    2.32
   6  -7   1  125.18    2.53
   6  -7   2    0.85    0.35
   6  -7   2    1.22    0.38
   6  -7   3  169.28    2.89
   6  -7   3  167.49    2.79
   6  -7   4   18.02    0.96
   6  -7   5   45.38    1.47
   6  -7   5   41.60    1.35
   6  -7   6    1.30    0.29
   6  -7   6    1.73    0.35
   6  -7   7    1.16    0.31
   6  -7   7    1.39    0.28
   6  -7   8    0.54    0.17
   6  -6  -6    1.92    0.26
   6  -6  -5   68.59    1.57
   6  -6  -5   67.26    1.50
   6  -6  -4   27.10    1.11
   6  -6  -4   27.16    1.10
   6  -6  -3  142.90    2.68
   6  -6  -3  137.84    2.49
   6  -6  -3  145.16    2.76
   6  -6  -2   34.87    1.35
   6  -6  -2   34.56    1.32
   6  -6  -2   35.02    1.41
   6  -6  -1   25.75    1.18
   6  -6  -1   28.15    1.24
   6  -6  -1   28.06    1.28
   6  -6   0  127.81    2.42
   6  -6   0  124.16    2.68
   6  -6   1   23.80    1.09
   6  -6   1   23.42    1.14
   6  -6   2  104.09    2.29
   6  -6   2  106.60    2.34
   6  -6   3  280.80    3.91
   6  -6   3  268.46    3.64
   6  -6   4   95.14    2.23
   6  -6   4   95.22    2.21
   6  -6   5   24.47    1.15
   6  -6   5   25.91    1.17
   6  -6   6  310.21    4.02
   6  -6   6  304.73    3.94
   6  -6   7    2.45    0.41
   6  -6   7    2.73    0.42
   6  -6   8    1.73    0.30
   6  -6   8    1.90    0.28
   6  -5  -6  113.62    2.08
   6  -5  -5    3.54    0.54
   6  -5  -5    2.99    0.44
   6  -5  -4  355.27    4.16
   6  -5  -4  364.27    4.58
   6  -5  -3  310.98    4.34
   6  -5  -3  300.77    4.03
   6  -5  -3  301.13    4.23
   6  -5  -2    0.88    0.37
   6  -5  -2    0.98    0.38
   6  -5  -2    1.22    0.34
   6  -5  -1  121.66    2.64
   6  -5  -1  119.30    2.58
   6  -5  -1  121.84    2.38
   6  -5   0    2.09    0.39
   6  -5   0    2.43    0.45
   6  -5   0    1.88    0.41
   6  -5   1  502.36    5.17
  -6   5  -1  508.25    5.26
   6  -5   2   34.38    1.33
   6  -5   2   35.24    1.31
  -6   5  -2   33.51    1.28
  -6   5  -3    1.12    0.36
   6  -5   4 1530.79   11.22
   6  -5   5  138.67    2.69
   6  -5   5  144.46    2.87
   6  -5   6  500.24    5.28
   6  -5   6  503.15    5.58
   6  -5   7  594.66    5.46
   6  -5   8    0.31    0.18
   6  -5   8    0.59    0.26
   6  -4  -7  340.74    3.73
   6  -4  -6   17.38    0.98
   6  -4  -6   18.97    0.99
   6  -4  -5  550.92    6.00
   6  -4  -4   60.01    1.91
   6  -4  -3   90.39    2.32
   6  -4  -3   91.08    2.03
   6  -4  -2  195.06    3.43
   6  -4  -2  194.60    3.06
   6  -4  -1   11.72    0.83
  -6   4   1   10.37    0.68
   6  -4  -1   11.57    0.77
   6  -4   0  129.62    2.45
  -6   4   0  124.07    2.36
   6  -4   0  127.05    2.44
   6  -4   1    0.01    0.19
  -6   4  -1    0.15    0.24
   6  -4   1    0.23    0.29
   6  -4   2  303.80    3.96
  -6   4  -2  327.17    4.21
   6  -4   3   71.19    1.89
   6  -4   3   73.57    1.91
  -6   4  -3   73.45    1.94
   6  -4   4   27.05    1.17
   6  -4   5  100.10    2.22
   6  -4   6   65.06    1.74
   6  -4   6   65.83    1.94
   6  -4   7  385.42    4.60
   6  -4   7  374.90    4.04
   6  -4   8   81.74    1.74
   6  -3  -8   85.99    1.58
   6  -3  -8   85.56    1.63
   6  -3  -7   16.61    0.89
   6  -3  -7   17.05    0.91
   6  -3  -6  250.27    3.81
   6  -3  -6  236.71    3.72
   6  -3  -5   24.20    1.25
   6  -3  -5   24.23    1.20
   6  -3  -5   24.00    1.03
   6  -3  -4   50.06    1.75
   6  -3  -4   49.57    1.52
  -6   3   3  893.04    7.70
  -6   3   3  910.51    7.45
   6  -3  -2   88.73    2.21
  -6   3   2   88.94    2.01
  -6   3   2   83.33    1.92
   6  -3  -2   89.38    2.04
   6  -3  -1  247.28    3.73
  -6   3   1  245.92    3.38
   6  -3  -1  253.11    3.47
   6  -3   0  229.05    2.97
  -6   3   0  238.23    3.31
   6  -3   1    2.76    0.39
   6  -3   1    1.46    0.35
  -6   3  -2   12.40    0.80
   6  -3   2   11.65    0.72
   6  -3   2   12.19    0.76
   6  -3   3   84.56    1.98
   6  -3   4  299.84    3.87
  -6   3  -4  306.23    4.10
  -6   3  -4  296.67    4.21
   6  -3   5  104.47    2.20
  -6   3  -5  103.14    2.41
  -6   3  -6  149.90    3.16
  -6   3  -6  149.86    2.83
   6  -3   6  158.80    3.00
  -6   3  -7    1.44    0.44
   6  -3   7    1.11    0.36
   6  -3   8  163.72    2.45
   6  -2  -8    1.29    0.33
   6  -2  -8    1.98    0.37
   6  -2  -7  136.45    2.60
   6  -2  -7  128.09    2.63
   6  -2  -7  136.04    2.73
   6  -2  -6   19.05    1.06
   6  -2  -6   19.33    1.08
   6  -2  -6   18.35    1.09
   6  -2  -6   18.55    0.92
   6  -2  -5  100.43    2.47
   6  -2  -5  101.50    2.50
  -6   2   5   99.97    2.14
   6  -2  -5  101.64    2.24
   6  -2  -4  311.32    4.41
  -6   2   4  308.29    4.23
  -6   2   4  303.03    3.93
   6  -2  -4  312.09    4.12
   6  -2  -3  659.29    6.55
  -6   2   3  645.21    6.26
  -6   2   3  634.99    6.05
   6  -2  -3  661.80    6.20
  -6   2   2    0.59    0.25
   6  -2  -2    0.06    0.28
  -6   2   2    0.39    0.24
   6  -2  -2   -0.01    0.24
  -6   2   1    0.14    0.21
  -6   2   1   -0.06    0.22
  -6   2   0  199.91    2.93
  -6   2   0  195.96    2.96
   6  -2   0  190.65    2.67
   6  -2   0  198.80    2.92
  -6   2  -1    3.90    0.44
   6  -2   1    3.52    0.42
   6  -2   1    3.98    0.45
  -6   2  -2  165.02    2.79
   6  -2   2  156.40    2.61
   6  -2   2  157.83    2.56
  -6   2  -2  163.88    2.76
   6  -2   3  557.04    5.44
  -6   2  -3  608.56    5.95
   6  -2   4  198.72    2.92
  -6   2  -4  204.18    3.26
  -6   2  -4  204.73    3.65
   6  -2   4  194.15    3.02
  -6   2  -5    3.55    0.68
  -6   2  -6   28.19    1.44
  -6   2  -6   28.14    1.30
   6  -2   6   28.57    1.20
  -6   2  -7    0.03    0.39
  -6   2  -7    0.24    0.32
   6  -2   7    0.25    0.26
  -6   2  -8    6.07    0.52
   6  -1  -9   43.86    1.14
   6  -1  -8   79.80    1.72
   6  -1  -8   75.80    1.89
   6  -1  -7    8.15    0.69
   6  -1  -7    7.64    0.71
  -6   1   7    8.43    0.62
   6  -1  -7    8.60    0.66
   6  -1  -6    8.42    0.72
   6  -1  -6    7.33    0.74
  -6   1   6    9.10    0.69
   6  -1  -6    7.04    0.66
   6  -1  -5  626.66    6.48
  -6   1   5  633.09    6.63
   6  -1  -5  640.77    6.85
  -6   1   5  617.23    6.17
   6  -1  -5  647.20    6.39
   6  -1  -4   29.84    1.27
  -6   1   4   30.94    1.30
  -6   1   4   30.87    1.05
  -6   1   4   31.24    1.25
   6  -1  -4   30.59    1.25
   6  -1  -3    2.66    0.43
  -6   1   3    2.13    0.37
   6  -1  -3    1.80    0.37
  -6   1   2   23.26    1.03
  -6   1   2   25.49    0.93
  -6   1   2   23.53    1.01
   6  -1  -2   23.47    1.01
  -6   1   1  306.56    3.43
   6  -1  -1  307.89    3.73
  -6   1   0   30.02    1.14
  -6   1   0   29.44    1.10
   6  -1   0   28.11    1.03
  -6   1  -1   53.67    1.55
  -6   1  -1   51.38    1.46
  -6   1  -1   56.24    1.33
   6  -1   1   50.98    1.36
  -6   1  -2   21.45    0.97
   6  -1   2   20.85    0.87
  -6   1  -2   21.54    1.04
  -6   1  -3  333.11    4.17
  -6   1  -3  325.42    4.43
  -6   1  -4   45.48    1.47
  -6   1  -4   48.00    1.76
  -6   1  -4   48.30    1.63
  -6   1  -5   56.55    2.10
  -6   1  -5   59.50    1.98
  -6   1  -6    1.42    0.53
  -6   1  -6    0.88    0.45
   6  -1   6    1.59    0.35
  -6   1  -7    5.41    0.60
  -6   1  -8   12.06    0.69
   6   0  -9  441.40    4.34
   6   0  -8  182.05    3.14
   6   0  -8  178.82    2.77
   6   0  -7   43.23    1.65
  -6   0   7   44.94    1.50
   6   0  -7   44.49    1.52
   6   0  -6  258.45    3.71
  -6   0   6  263.80    3.93
   6   0  -6  259.41    4.16
   6   0  -5  137.53    2.67
  -6   0   5  127.70    2.74
  -6   0   5  136.56    2.29
   6   0  -5  131.19    2.86
   6   0  -4  131.47    2.56
  -6   0   4  131.07    2.61
  -6   0   4  135.02    2.27
  -6   0   3    0.85    0.31
  -6   0   3    1.53    0.30
   6   0  -3    1.02    0.28
  -6   0   3    1.82    0.35
   6   0  -3    1.38    0.36
  -6   0   2    4.97    0.42
   6   0  -2    4.54    0.48
  -6   0   1  158.01    2.72
  -6   0   1  158.84    2.35
  -6   0   1  163.88    2.62
  -6   0   1  162.41    2.29
   6   0  -1  153.90    2.48
  -6   0   0  604.58    5.85
  -6   0   0  595.71    4.81
  -6   0   0  607.03    5.55
  -6   0   0  603.68    5.09
  -6   0   0  611.38    5.08
   6   0   0  591.41    5.23
  -6   0  -1  329.60    4.20
  -6   0  -1  321.23    3.39
  -6   0  -1  323.49    3.79
  -6   0  -1  320.99    3.48
  -6   0  -2   30.19    1.02
  -6   0  -2   28.95    0.97
  -6   0  -2   27.85    1.22
  -6   0  -3 1212.96    9.04
  -6   0  -3 1227.17   10.56
  -6   0  -3 1193.25    8.14
  -6   0  -3 1204.33   10.00
  -6   0  -4  311.38    4.69
  -6   0  -4  316.93    4.54
  -6   0  -5  164.95    3.63
  -6   0  -5  181.14    3.49
  -6   0  -6   14.54    1.13
  -6   0  -6   12.97    0.94
  -6   0  -7    1.80    0.43
  -6   0  -8   16.43    0.76
  -6  -1   9    3.49    0.38
  -6  -1   9    3.97    0.42
   6   1  -9    3.42    0.40
  -6  -1   8  292.10    3.91
   6   1  -7  216.78    3.70
  -6  -1   7  216.88    3.53
  -6  -1   6    2.48    0.36
  -6  -1   6    1.70    0.43
  -6  -1   5    3.12    0.42
  -6  -1   5    3.04    0.42
  -6  -1   5    3.02    0.48
  -6  -1   4 2085.36   13.73
  -6  -1   4 2046.65   12.84
  -6  -1   4 1943.10   12.85
  -6  -1   4 1951.23   13.54
  -6  -1   4 2060.31   13.39
  -6  -1   3  171.91    2.98
  -6  -1   3  162.32    2.55
  -6  -1   3  165.81    2.82
  -6  -1   3  172.59    2.85
  -6  -1   3  162.21    2.30
   6   1  -3  163.26    2.75
  -6  -1   2  248.09    3.57
  -6  -1   2  235.44    3.04
  -6  -1   2  236.20    3.29
  -6  -1   2  246.59    3.34
  -6  -1   2  244.89    2.93
   6   1  -2  231.66    3.18
  -6  -1   1    5.77    0.40
  -6  -1   1    5.96    0.47
  -6  -1   1    6.34    0.52
  -6  -1   1    7.53    0.58
  -6  -1   1    7.16    0.50
   6   1  -1    5.77    0.48
  -6  -1   0   90.76    1.70
  -6  -1   0   89.95    1.62
  -6  -1   0   88.73    1.86
  -6  -1   0   91.52    1.75
  -6  -1  -1   14.74    0.90
  -6  -1  -1   15.92    0.72
  -6  -1  -1   16.00    0.79
  -6  -1  -1   14.61    0.72
  -6  -1  -2   87.69    2.20
  -6  -1  -2   89.29    1.83
  -6  -1  -2   87.76    1.74
  -6  -1  -2   91.07    2.31
  -6  -1  -3  702.59    6.88
  -6  -1  -3  710.14    7.75
  -6  -1  -3  716.39    6.19
  -6  -1  -4  675.63    7.73
  -6  -1  -4  662.17    6.40
  -6  -1  -4  664.45    7.24
  -6  -1  -5    0.77    0.55
  -6  -1  -5    0.61    0.36
  -6  -1  -5    0.84    0.45
  -6  -1  -6    1.75    0.42
  -6  -1  -6    1.00    0.44
  -6  -1  -7   78.03    1.53
  -6  -1  -7   74.01    1.80
  -6  -1  -8   32.45    0.97
  -6  -2  10    1.70    0.22
  -6  -2  10    2.06    0.28
   6   2 -10    1.84    0.24
  -6  -2   9  123.62    2.21
  -6  -2   9  116.75    2.19
   6   2  -9  121.78    2.15
  -6  -2   8    7.92    0.67
  -6  -2   7   42.96    1.23
  -6  -2   7   44.81    1.63
  -6  -2   6  106.22    2.12
  -6  -2   6  112.28    2.56
  -6  -2   5  389.11    4.90
  -6  -2   5  380.29    4.63
  -6  -2   5  388.33    4.39
  -6  -2   5  394.82    4.92
  -6  -2   5  383.35    4.85
  -6  -2   4    0.32    0.28
  -6  -2   4    0.27    0.26
  -6  -2   4    0.36    0.32
  -6  -2   4    0.47    0.25
  -6  -2   3   29.09    1.22
  -6  -2   3   25.00    1.02
  -6  -2   3   25.91    1.09
  -6  -2   3   26.91    1.18
  -6  -2   3   26.34    0.92
  -6  -2   2  296.66    4.02
  -6  -2   2  304.16    3.57
  -6  -2   2  303.23    3.59
  -6  -2   2  299.14    3.73
  -6  -2   2  302.79    3.98
  -6  -2   2  306.87    3.39
  -6  -2   1   86.30    2.09
  -6  -2   1   84.05    1.77
  -6  -2   1   85.52    1.58
  -6  -2   1   87.46    1.85
  -6  -2   1   90.66    2.10
  -6  -2   1   86.23    1.74
  -6  -2   1   92.13    1.77
  -6  -2   0   17.48    0.99
  -6  -2   0   15.82    0.74
  -6  -2   0   15.49    0.71
  -6  -2   0   16.58    0.78
  -6  -2   0   18.77    0.81
  -6  -2  -1   67.08    1.52
  -6  -2  -1   69.10    1.64
  -6  -2  -1   68.01    1.99
  -6  -2  -2  129.43    2.86
  -6  -2  -2  136.05    3.05
  -6  -2  -2  131.43    2.19
  -6  -2  -2  131.95    2.93
  -6  -2  -3    1.10    0.51
  -6  -2  -3    0.90    0.39
  -6  -2  -3    1.26    0.60
  -6  -2  -3    0.15    0.39
  -6  -2  -3    0.20    0.39
  -6  -2  -4    4.21    0.74
  -6  -2  -4    3.95    0.57
  -6  -2  -4    4.86    0.68
  -6  -2  -5  191.45    3.76
  -6  -2  -5  193.87    3.13
  -6  -2  -5  190.69    3.43
  -6  -2  -6    1.43    0.43
  -6  -2  -6    0.25    0.33
  -6  -2  -7   32.59    0.93
  -6  -2  -7   30.12    1.01
  -6  -3  10   23.64    0.75
  -6  -3  10   22.26    0.78
   6   3 -10   24.38    0.76
  -6  -3   9   32.37    1.14
  -6  -3   9   31.15    1.16
  -6  -3   8   24.40    1.15
  -6  -3   7   57.48    1.52
  -6  -3   7   60.55    1.86
  -6  -3   7   60.39    1.89
  -6  -3   6   45.64    1.44
  -6  -3   6   47.72    1.66
  -6  -3   6   45.64    1.67
  -6  -3   5    1.87    0.40
  -6  -3   5    1.19    0.33
  -6  -3   5    1.63    0.36
  -6  -3   5    1.90    0.39
  -6  -3   5    2.29    0.42
   6   3  -5    1.52    0.33
  -6  -3   5    1.99    0.47
  -6  -3   4  335.75    4.41
  -6  -3   4  334.29    4.00
  -6  -3   4  341.02    4.36
  -6  -3   4  342.29    4.60
  -6  -3   4  327.91    3.50
  -6  -3   3   35.09    1.35
  -6  -3   3   38.10    1.26
  -6  -3   3   39.45    1.31
  -6  -3   3   38.24    1.30
  -6  -3   3   34.36    1.37
  -6  -3   3   36.15    1.11
  -6  -3   2  276.00    3.47
  -6  -3   2  272.97    3.49
  -6  -3   2  275.87    3.96
  -6  -3   2  281.82    3.49
  -6  -3   2  279.51    3.35
  -6  -3   1    1.01    0.36
  -6  -3   1    0.81    0.27
  -6  -3   1    0.74    0.26
  -6  -3   1    1.24    0.30
  -6  -3   1    1.33    0.33
  -6  -3   0  147.29    2.33
  -6  -3   0  156.30    2.65
  -6  -3   0  155.59    2.48
  -6  -3   0  152.18    2.99
  -6  -3  -1   72.48    1.65
  -6  -3  -1   75.41    2.22
  -6  -3  -1   73.75    1.82
  -6  -3  -1   74.73    1.69
  -6  -3  -1   76.31    2.19
  -6  -3  -2    0.35    0.43
  -6  -3  -2    0.72    0.56
  -6  -3  -2    0.40    0.24
  -6  -3  -2    0.02    0.31
  -6  -3  -2    0.38    0.43
  -6  -3  -2    0.91    0.42
  -6  -3  -2    0.64    0.28
  -6  -3  -3  576.05    6.78
  -6  -3  -3  596.21    6.35
  -6  -3  -3  583.90    6.39
  -6  -3  -4   68.47    2.20
  -6  -3  -4   75.86    1.66
  -6  -3  -4   69.69    1.95
  -6  -3  -4   68.43    2.01
  -6  -3  -5   49.50    1.49
  -6  -3  -5   43.17    1.46
  -6  -3  -6   70.64    1.51
  -6  -3  -6   64.45    1.54
  -6  -4  10   15.87    0.65
   6   4 -10   17.97    0.65
  -6  -4   9   36.66    1.18
  -6  -4   8   55.18    1.32
  -6  -4   8   57.26    1.66
  -6  -4   7    0.22    0.27
  -6  -4   7    0.55    0.43
  -6  -4   7    0.69    0.34
  -6  -4   6  409.44    4.39
  -6  -4   6  397.36    4.65
  -6  -4   6  400.43    4.91
  -6  -4   5  114.59    2.27
  -6  -4   5  115.17    2.41
  -6  -4   5  116.49    2.47
  -6  -4   5  111.64    2.64
  -6  -4   4  829.81    7.39
  -6  -4   4  837.32    7.23
  -6  -4   4  831.39    7.89
  -6  -4   4  824.47    6.42
  -6  -4   3  588.62    5.70
  -6  -4   3  597.86    5.83
  -6  -4   3  588.51    6.37
  -6  -4   3  594.15    5.35
  -6  -4   3  587.71    5.75
  -6  -4   2  385.04    4.80
  -6  -4   2  385.69    4.40
  -6  -4   2  384.66    4.36
  -6  -4   2  402.04    5.09
  -6  -4   2  401.09    4.60
  -6  -4   2  400.36    4.30
  -6  -4   1    5.74    0.52
  -6  -4   1    6.64    0.59
  -6  -4   1    5.91    0.62
  -6  -4   0   41.07    1.41
  -6  -4   0   41.17    1.30
  -6  -4   0   39.40    1.55
  -6  -4  -1   87.18    2.49
  -6  -4  -1   82.46    1.83
  -6  -4  -2  138.46    2.34
  -6  -4  -2  131.16    2.90
  -6  -4  -2  136.42    2.28
  -6  -4  -3  442.28    5.27
  -6  -4  -3  428.77    5.08
  -6  -4  -4  119.15    2.35
  -6  -4  -4  113.59    2.22
  -6  -4  -5   15.35    0.85
  -6  -4  -5   18.07    0.84
  -6  -4  -5   16.78    0.77
  -6  -4  -6   70.25    1.29
  -6  -5   9   14.36    0.69
  -6  -5   9   12.83    0.71
  -6  -5   8    9.00    0.56
  -6  -5   8    8.28    0.62
  -6  -5   7  224.94    3.16
  -6  -5   7  226.61    3.34
  -6  -5   7  215.71    3.58
  -6  -5   6   16.94    0.85
  -6  -5   6   18.84    0.98
  -6  -5   6   16.44    0.90
  -6  -5   6   18.83    1.09
  -6  -5   5  252.71    3.46
  -6  -5   5  249.93    3.68
  -6  -5   5  240.80    3.97
  -6  -5   4   23.10    1.09
  -6  -5   4   21.48    1.18
  -6  -5   4   21.43    0.90
  -6  -5   3  112.78    2.29
  -6  -5   3  109.01    2.28
  -6  -5   3  116.23    2.69
  -6  -5   3  114.26    2.16
  -6  -5   2  354.93    4.09
  -6  -5   2  360.15    4.14
  -6  -5   1    0.14    0.22
  -6  -5   0   17.24    1.12
  -6  -5   0   20.85    0.96
  -6  -5  -1   13.26    1.01
  -6  -5  -1   13.22    0.75
  -6  -5  -2    0.57    0.32
  -6  -5  -2   -0.01    0.54
  -6  -5  -2    1.57    0.49
  -6  -5  -2    0.68    0.28
  -6  -5  -3   39.05    1.08
  -6  -5  -3   37.97    1.35
  -6  -5  -4   -0.08    0.32
  -6  -5  -4    1.92    0.31
  -6  -5  -5   17.48    0.68
  -6  -6   9   30.39    0.80
  -6  -6   9   29.25    0.92
  -6  -6   8    5.81    0.43
  -6  -6   8    6.10    0.45
  -6  -6   8    6.87    0.57
  -6  -6   7   16.63    0.74
  -6  -6   7   16.70    0.83
  -6  -6   7   14.67    0.89
  -6  -6   6   21.21    0.91
  -6  -6   6   16.94    1.00
  -6  -6   5  260.87    3.49
  -6  -6   5  258.86    3.65
  -6  -6   5  255.10    3.97
  -6  -6   4  278.49    3.70
  -6  -6   4  276.86    3.74
  -6  -6   4  263.76    4.11
  -6  -6   4  267.07    3.28
  -6  -6   3   60.65    1.64
  -6  -6   3   58.23    1.60
  -6  -6   3   58.38    1.53
  -6  -6   2   26.10    1.06
  -6  -6   2   26.43    1.07
  -6  -6   1   12.54    0.69
  -6  -6   0    0.41    0.43
  -6  -6   0    0.51    0.44
  -6  -6   0    0.42    0.30
  -6  -6  -1   -0.06    0.30
  -6  -6  -1   -0.01    0.49
  -6  -6  -1    0.23    0.36
  -6  -6  -1    0.25    0.27
  -6  -6  -2    0.56    0.34
  -6  -6  -2    0.69    0.24
  -6  -6  -3  163.50    2.29
  -6  -6  -3    2.00    0.55
  -6  -6  -4   79.53    1.35
  -6  -7   8   10.52    0.51
  -6  -7   8    8.80    0.53
  -6  -7   7    0.27    0.19
  -6  -7   7    0.34    0.27
  -6  -7   6    3.43    0.40
  -6  -7   6    2.63    0.44
  -6  -7   5  183.80    2.80
  -6  -7   4  279.36    3.48
  -6  -7   4  272.29    3.43
  -6  -7   4  268.90    3.12
  -6  -7   3    0.17    0.25
  -6  -7   3    0.88    0.25
  -6  -7   3    0.26    0.27
  -6  -7   2    3.41    0.40
  -6  -7   2    3.57    0.45
  -6  -7   1   64.75    1.84
  -6  -7   1   63.28    1.51
  -6  -7   0   25.00    1.07
  -6  -7   0   25.21    0.91
  -6  -7  -1    8.17    0.50
  -6  -7  -1    7.99    0.58
  -6  -7  -1    8.48    0.49
  -6  -7  -2  158.90    1.71
  -6  -7  -2  155.72    2.01
  -6  -8   7    0.54    0.19
  -6  -8   6   10.14    0.52
  -6  -8   6   10.11    0.54
  -6  -8   5   50.82    1.22
  -6  -8   5   54.90    1.24
  -6  -8   4    3.64    0.38
  -6  -8   4    3.60    0.34
  -6  -8   4    3.70    0.35
  -6  -8   3   12.35    0.61
  -6  -8   3   12.42    0.75
  -6  -8   3   13.09    0.62
  -6  -8   2   37.68    0.94
  -6  -8   2   36.24    0.96
  -6  -8   2   36.27    1.14
  -6  -8   2   38.81    1.04
  -6  -8   1  125.35    1.77
  -6  -8   1  124.37    1.99
  -6  -8   1  128.17    1.87
  -6  -8   0    0.01    0.36
  -6  -8   0   -0.29    0.24
  -6  -8   0    0.66    0.21
  -6  -8  -1   15.42    0.49
  -6  -8  -1    0.30    0.31
  -6  -9   5   62.38    1.06
  -6  -9   4   88.50    1.29
  -6  -9   2    0.31    0.27
  -6  -9   2   31.80    0.71
   7  -8  -2    0.36    0.18
   7  -8  -1   72.24    1.40
   7  -8  -1   72.19    1.42
   7  -8   0   31.72    0.93
   7  -8   1    2.65    0.37
   7  -8   2    1.21    0.27
   7  -8   2    1.26    0.29
   7  -8   3    3.84    0.39
   7  -8   3    3.41    0.34
   7  -8   4   30.53    0.97
   7  -8   4   30.21    0.94
   7  -8   5   42.06    1.00
   7  -8   5   43.12    1.04
   7  -7  -3  179.81    2.16
   7  -7  -2   38.31    1.14
   7  -7  -1    0.94    0.32
   7  -7   0    4.69    0.44
   7  -7   0    5.31    0.55
   7  -7   1   29.22    1.05
   7  -7   1   29.55    1.13
   7  -7   2   11.00    0.70
   7  -7   2   11.65    0.72
   7  -7   3    6.99    0.59
   7  -7   3    6.83    0.52
   7  -7   4  225.09    3.08
   7  -7   5   60.44    1.39
   7  -7   5   54.91    1.32
   7  -7   6  100.25    1.65
   7  -7   6  105.62    1.77
   7  -6  -5   12.21    0.52
   7  -6  -3   80.25    1.73
   7  -6  -2   30.81    1.17
   7  -6  -1   27.46    1.05
   7  -6  -1   25.50    1.13
   7  -6   0   14.03    0.82
   7  -6   0   14.23    0.88
   7  -6   1    1.31    0.40
   7  -6   1    0.85    0.34
   7  -6   2  107.78    2.26
   7  -6   2  104.07    2.18
   7  -6   3   77.03    1.93
   7  -6   4   92.91    2.06
   7  -6   5   83.83    1.88
   7  -6   5   82.58    1.88
   7  -6   6    1.00    0.30
   7  -6   6    0.82    0.29
   7  -6   7   12.17    0.60
   7  -6   7   11.64    0.55
   7  -5  -6    6.71    0.45
   7  -5  -5   15.93    0.81
   7  -5  -4    2.00    0.36
   7  -5  -4    1.86    0.41
   7  -5  -3   46.85    1.60
   7  -5  -3   46.83    1.47
   7  -5  -3   47.30    1.31
   7  -5  -2    0.63    0.38
   7  -5  -2    0.65    0.32
   7  -5  -1  174.26    2.89
  -7   5   0    1.07    0.31
   7  -5   1  111.24    2.39
  -7   5  -1  108.95    2.30
   7  -5   2   11.93    0.84
   7  -5   2   11.30    0.77
  -7   5  -2   11.92    0.80
   7  -5   3    9.28    0.74
   7  -5   4  167.88    2.90
   7  -5   5    6.43    0.60
   7  -5   5    6.26    0.64
   7  -5   6   66.01    1.69
   7  -5   6   62.97    1.53
   7  -5   7    7.24    0.45
   7  -4  -7  105.22    1.63
   7  -4  -6    1.51    0.35
   7  -4  -4   16.06    0.82
   7  -4  -3  742.85    7.38
   7  -4  -3  741.56    6.60
   7  -4  -2   61.02    1.92
  -7   4   2   55.15    1.55
   7  -4  -2   59.77    1.70
  -7   4   1  102.89    2.21
   7  -4  -1  106.77    2.32
  -7   4   0   36.76    1.35
   7  -4   0   37.42    1.37
  -7   4  -1    3.94    0.51
   7  -4   2    2.70    0.48
  -7   4  -2    2.65    0.48
   7  -4   3  287.15    3.87
  -7   4  -3  277.77    4.01
   7  -4   4  433.63    4.85
   7  -4   5  204.55    3.06
  -7   4  -5  194.57    3.43
   7  -4   6    6.33    0.59
   7  -4   6    4.53    0.45
   7  -4   7    0.89    0.30
   7  -3  -7   -0.11    0.23
   7  -3  -6   46.68    1.46
   7  -3  -5  313.35    4.26
   7  -3  -5  300.89    3.68
   7  -3  -4   26.28    1.27
   7  -3  -4   25.91    1.13
   7  -3  -3    0.60    0.44
  -7   3   3    0.93    0.31
  -7   3   2  279.23    3.82
   7  -3  -2  293.02    3.98
  -7   3   1   67.31    1.82
   7  -3  -1   71.08    1.90
  -7   3   0   28.56    1.21
  -7   3  -1   76.84    2.00
   7  -3   1   75.52    1.91
  -7   3  -2   32.66    1.34
   7  -3   3   62.30    1.74
  -7   3  -3   65.71    2.04
   7  -3   4  201.48    3.09
  -7   3  -4  196.09    3.39
   7  -3   5    1.49    0.34
  -7   3  -5    1.47    0.49
  -7   3  -5    1.28    0.39
  -7   3  -6   20.88    1.12
  -7   3  -6   21.93    0.97
   7  -3   6   19.81    0.99
   7  -3   7    7.72    0.54
   7  -2  -7    9.15    0.62
   7  -2  -7    9.27    0.54
   7  -2  -6    2.10    0.43
   7  -2  -6    2.10    0.39
   7  -2  -5  335.50    4.50
  -7   2   5  323.47    4.01
   7  -2  -5  329.47    4.17
   7  -2  -4    8.51    0.77
  -7   2   4    9.45    0.71
   7  -2  -4    8.63    0.73
   7  -2  -3  150.34    3.03
  -7   2   3  145.40    2.76
   7  -2  -3  149.33    2.82
  -7   2   2  153.55    2.92
  -7   2   2  156.14    2.86
  -7   2   1  186.20    3.11
   7  -2  -1  187.84    3.07
  -7   2   0  145.82    2.75
   7  -2   0  143.38    2.46
  -7   2   0  159.86    2.83
   7  -2   0  159.62    2.78
  -7   2  -1   47.63    1.57
   7  -2   1   45.96    1.44
   7  -2   1   50.59    1.53
  -7   2  -2   84.10    2.11
   7  -2   2   70.91    1.85
   7  -2   3  170.90    2.77
  -7   2  -3  178.68    3.13
  -7   2  -3  178.25    3.55
  -7   2  -4  442.52    5.54
  -7   2  -5   34.92    1.61
  -7   2  -5   35.25    1.44
  -7   2  -6   28.57    1.34
  -7   2  -6   28.65    1.19
   7  -2   6   31.36    1.15
  -7   2  -7   57.47    1.43
   7  -2   7   52.82    1.25
   7  -1  -8    7.23    0.44
   7  -1  -7  112.08    2.12
  -7   1   7  109.48    1.98
   7  -1  -7  112.89    2.10
   7  -1  -6   15.65    0.90
  -7   1   6   14.89    0.83
   7  -1  -6   15.00    0.89
   7  -1  -5  155.14    2.95
  -7   1   5  157.58    2.88
   7  -1  -5  160.80    2.94
   7  -1  -4   81.81    2.15
  -7   1   4   82.53    2.09
   7  -1  -4   82.50    2.12
   7  -1  -3  556.05    6.08
  -7   1   3  543.32    6.01
  -7   1   3  555.35    5.84
  -7   1   2  122.34    2.64
  -7   1   2  126.28    2.56
   7  -1  -2  122.36    2.47
  -7   1   1  507.12    5.66
   7  -1  -1  504.14    5.31
  -7   1   0  193.89    3.29
  -7   1   0  203.22    3.23
   7  -1   0  195.93    3.05
  -7   1  -1   27.93    1.25
  -7   1  -1   27.53    1.18
   7  -1   1   26.17    1.06
  -7   1  -2   44.11    1.50
  -7   1  -2   42.80    1.59
  -7   1  -3   92.75    2.18
  -7   1  -3   93.24    2.62
  -7   1  -4 1161.17   10.01
  -7   1  -5  138.90    3.19
  -7   1  -5  142.56    2.98
   7  -1   5  136.79    2.52
  -7   1  -6   43.90    1.64
  -7   1  -6   46.37    1.52
  -7   1  -7   35.07    1.14
  -7   0   8    4.77    0.42
   7   0  -8    4.71    0.44
  -7   0   7  173.58    2.80
   7   0  -7  170.92    2.83
  -7   0   6  301.02    4.08
   7   0  -6  307.99    4.15
   7   0  -5   42.82    1.48
  -7   0   5   41.71    1.27
  -7   0   5   43.38    1.54
  -7   0   4 1531.24   10.52
  -7   0   4 1522.89   11.35
  -7   0   3   72.41    2.07
  -7   0   3   74.30    1.76
   7   0  -3   75.67    1.96
  -7   0   2  106.14    2.49
  -7   0   2  114.17    2.17
  -7   0   2  111.20    2.41
   7   0  -2  107.47    2.29
  -7   0   1 1445.70   11.12
  -7   0   1 1489.10    9.98
  -7   0   1 1466.45   10.72
  -7   0   1 1468.00    9.93
   7   0  -1 1449.74   10.35
  -7   0   0  401.60    5.08
   7   0   0  400.34    4.39
  -7   0  -1   51.85    1.76
  -7   0  -1   56.47    1.48
  -7   0  -2  252.90    3.58
  -7   0  -2  251.14    3.16
  -7   0  -2  242.83    4.02
  -7   0  -3  138.75    2.59
  -7   0  -3  153.84    3.36
  -7   0  -4    1.06    0.60
  -7   0  -4    1.06    0.49
  -7   0  -5   54.59    1.83
  -7   0  -6    0.48    0.44
  -7   0  -6    0.53    0.35
  -7   0  -7   41.75    1.20
  -7  -1   9  193.44    2.21
   7   1  -9  205.99    2.31
  -7  -1   8   32.67    1.10
   7   1  -8   34.76    1.15
  -7  -1   7   53.48    1.60
  -7  -1   7   51.30    1.52
   7   1  -7   52.56    1.62
  -7  -1   6  771.17    6.33
  -7  -1   6  776.27    7.25
  -7  -1   5   65.15    1.64
  -7  -1   5   64.62    1.83
   7   1  -5   63.62    1.88
  -7  -1   4  324.40    3.96
  -7  -1   4  327.43    4.39
  -7  -1   4  323.89    4.26
   7   1  -4  323.67    4.33
  -7  -1   3  264.86    4.07
  -7  -1   3  266.11    3.85
  -7  -1   3  256.15    3.71
  -7  -1   3  256.09    3.18
   7   1  -3  255.58    3.68
  -7  -1   2  195.28    3.47
  -7  -1   2  214.62    3.04
  -7  -1   2  213.18    3.33
  -7  -1   2  204.98    3.24
  -7  -1   2  220.60    2.95
   7   1  -2  207.07    3.16
  -7  -1   1    0.74    0.29
  -7  -1   1    0.53    0.31
  -7  -1   1    1.02    0.33
   7   1  -1    0.80    0.30
  -7  -1   0  791.51    6.27
  -7  -1   0  797.65    6.37
  -7  -1   0  809.81    6.94
  -7  -1  -1    5.71    0.54
  -7  -1  -1    6.29    0.56
  -7  -1  -1    5.94    0.55
  -7  -1  -1    5.43    0.66
  -7  -1  -2    8.22    0.73
  -7  -1  -2    8.82    0.93
  -7  -1  -2    8.46    0.62
  -7  -1  -3   45.36    1.89
  -7  -1  -3   45.47    1.50
  -7  -1  -3   48.00    1.83
  -7  -1  -3   45.43    1.26
  -7  -1  -4  333.97    5.15
  -7  -1  -4  340.33    4.10
  -7  -1  -4  342.92    4.82
  -7  -1  -5   41.11    1.66
  -7  -1  -5   40.19    1.22
  -7  -1  -5   41.71    1.55
  -7  -1  -6   10.34    0.72
  -7  -1  -7   32.19    0.95
  -7  -2   9    1.72    0.26
  -7  -2   9    1.12    0.25
   7   2  -9    1.72    0.29
  -7  -2   8   22.50    0.96
  -7  -2   8   20.37    0.93
   7   2  -8   21.03    0.94
  -7  -2   7    8.01    0.52
  -7  -2   7    8.90    0.71
   7   2  -7    8.35    0.71
  -7  -2   6   21.91    0.95
  -7  -2   6   22.57    1.13
  -7  -2   6   24.64    1.18
   7   2  -6   24.38    1.18
  -7  -2   5   63.01    1.67
  -7  -2   5   64.65    1.88
  -7  -2   5   62.59    1.89
   7   2  -5   60.34    1.81
  -7  -2   4  630.50    5.98
  -7  -2   4  651.11    6.43
  -7  -2   4  659.82    6.60
  -7  -2   4  604.15    5.26
   7   2  -4  628.25    6.27
  -7  -2   3 1264.69   10.47
  -7  -2   3 1305.95    9.56
  -7  -2   3 1320.13    9.94
  -7  -2   3 1314.45   10.15
  -7  -2   3 1284.82    8.97
   7   2  -3 1278.46    9.62
  -7  -2   2  388.89    4.32
  -7  -2   2  386.79    4.57
  -7  -2   2  387.60    4.83
  -7  -2   2  398.59    4.24
  -7  -2   1    0.19    0.32
  -7  -2   1    0.24    0.25
  -7  -2   1    0.24    0.24
  -7  -2   1    0.93    0.31
  -7  -2   1    0.27    0.31
  -7  -2   0  778.86    6.34
  -7  -2   0  762.74    6.14
  -7  -2   0  763.61    7.70
  -7  -2  -1  531.56    6.27
  -7  -2  -1  517.46    5.13
  -7  -2  -1  529.53    5.17
  -7  -2  -2    0.30    0.46
  -7  -2  -2    1.73    0.47
  -7  -2  -2    0.67    0.42
  -7  -2  -2    0.56    0.46
  -7  -2  -2    0.81    0.35
  -7  -2  -3 1195.32   10.61
  -7  -2  -3 1194.85    8.57
  -7  -2  -3 1197.17    9.47
  -7  -2  -3 1175.10   10.07
  -7  -2  -4    4.94    0.71
  -7  -2  -4    3.82    0.53
  -7  -2  -4    3.95    0.60
  -7  -2  -5   11.60    0.68
  -7  -2  -5   11.09    0.77
  -7  -2  -6   22.20    0.75
  -7  -2  -6   19.31    0.82
  -7  -3   9   39.04    1.04
  -7  -3   9   40.95    1.09
  -7  -3   8    0.75    0.32
  -7  -3   8    1.30    0.31
   7   3  -8    1.32    0.34
  -7  -3   7  151.74    2.34
  -7  -3   7  161.11    2.82
  -7  -3   7  151.32    2.85
   7   3  -7  155.76    2.75
  -7  -3   6   14.56    0.80
  -7  -3   6   15.34    0.92
   7   3  -6   15.30    0.92
  -7  -3   5  279.17    3.70
  -7  -3   5  281.25    3.98
  -7  -3   5  279.41    4.19
   7   3  -5  267.56    3.82
  -7  -3   4    5.87    0.58
  -7  -3   4    6.47    0.61
  -7  -3   4    6.56    0.68
  -7  -3   4    5.45    0.48
   7   3  -4    5.53    0.57
  -7  -3   3  161.11    2.72
  -7  -3   3  162.35    2.84
  -7  -3   3  176.40    3.25
  -7  -3   3  171.13    2.60
  -7  -3   2  537.50    5.29
  -7  -3   2  538.96    5.39
  -7  -3   2  548.63    5.23
  -7  -3   1   80.82    1.68
  -7  -3   1   85.29    1.80
  -7  -3   0    0.79    0.47
  -7  -3   0    1.09    0.36
  -7  -3  -1  211.85    2.97
  -7  -3  -1  220.17    3.91
  -7  -3  -1  213.28    3.86
  -7  -3  -1  218.09    3.05
  -7  -3  -2   37.98    1.60
  -7  -3  -2   37.85    1.51
  -7  -3  -2   38.07    1.53
  -7  -3  -2   39.59    1.23
  -7  -3  -3    2.79    0.57
  -7  -3  -3    3.10    0.73
  -7  -3  -3    4.32    0.52
  -7  -3  -3    2.75    0.49
  -7  -3  -3    1.72    0.46
  -7  -3  -4  312.48    3.80
  -7  -3  -4  304.55    3.94
  -7  -3  -5    9.28    0.58
  -7  -3  -5    4.91    0.47
  -7  -4   9   16.35    0.64
  -7  -4   9   15.05    0.67
   7   4  -9   17.25    0.66
  -7  -4   8  289.70    2.87
  -7  -4   8  296.65    3.43
   7   4  -8  293.36    3.42
  -7  -4   7   14.00    0.71
  -7  -4   7   15.10    0.82
  -7  -4   7   16.17    0.94
   7   4  -7   14.22    0.80
  -7  -4   6   11.84    0.73
  -7  -4   6   12.13    0.78
  -7  -4   6   10.64    0.83
   7   4  -6   10.83    0.74
  -7  -4   5  215.98    3.26
  -7  -4   5  210.53    3.59
  -7  -4   4  446.97    4.84
  -7  -4   4  469.82    5.02
  -7  -4   4  460.21    4.92
  -7  -4   4  479.42    5.70
  -7  -4   4  457.99    4.45
  -7  -4   3  336.70    4.08
  -7  -4   3  338.45    4.07
  -7  -4   3  343.88    4.76
  -7  -4   3  331.05    3.86
  -7  -4   2   68.25    1.71
  -7  -4   2   64.17    1.44
  -7  -4   2   65.30    1.62
  -7  -4   2   68.21    1.67
  -7  -4   1   11.72    0.69
  -7  -4   1   11.19    0.66
  -7  -4   0    0.08    0.31
  -7  -4   0    0.45    0.48
  -7  -4   0    1.33    0.37
  -7  -4  -1   17.02    0.82
  -7  -4  -1   18.02    1.13
  -7  -4  -1   18.91    0.88
  -7  -4  -2   57.00    1.45
  -7  -4  -2   48.12    1.82
  -7  -4  -2   55.43    1.76
  -7  -4  -2   49.96    1.58
  -7  -4  -2   57.13    1.36
  -7  -4  -3  139.48    2.05
  -7  -4  -3  132.07    2.42
  -7  -4  -4  405.26    4.08
  -7  -4  -5   44.48    0.99
  -7  -5   8   46.65    1.02
  -7  -5   8   45.48    1.12
   7   5  -8   45.66    1.13
  -7  -5   7  180.58    2.51
  -7  -5   7  183.33    2.60
   7   5  -7  178.57    2.52
  -7  -5   6   14.35    0.77
  -7  -5   6   14.03    0.74
  -7  -5   5   76.49    1.75
  -7  -5   5   70.82    1.75
  -7  -5   4   10.57    0.71
  -7  -5   4   10.67    0.71
  -7  -5   4   10.69    0.63
  -7  -5   3  120.60    2.28
  -7  -5   3  118.20    2.21
  -7  -5   3  122.00    2.15
  -7  -5   2   81.69    1.80
  -7  -5   2   76.25    1.59
  -7  -5   2   78.53    1.68
  -7  -5   2   81.93    1.83
  -7  -5   1    0.29    0.23
  -7  -5   1   -0.07    0.28
  -7  -5   1    0.23    0.39
  -7  -5   0   30.87    1.05
  -7  -5   0   33.56    1.11
  -7  -5  -1    2.97    0.42
  -7  -5  -1    3.52    0.66
  -7  -5  -1    4.22    0.45
  -7  -5  -2    1.22    0.33
  -7  -5  -2    0.49    0.51
  -7  -5  -2    0.30    0.26
  -7  -5  -3  187.57    2.18
  -7  -6   8   19.62    0.61
  -7  -6   8   19.01    0.74
  -7  -6   7   71.94    1.43
  -7  -6   7   70.41    1.65
  -7  -6   6    1.96    0.33
  -7  -6   6    6.72    0.61
  -7  -6   5  171.04    2.58
  -7  -6   4  238.50    3.10
  -7  -6   4  236.28    2.84
  -7  -6   3  132.31    2.23
  -7  -6   3  126.39    2.09
  -7  -6   3  132.53    2.14
  -7  -6   2    6.47    0.48
  -7  -6   2    7.26    0.56
  -7  -6   1   40.54    1.13
  -7  -6   1   45.19    1.62
  -7  -6   0  126.18    2.47
  -7  -6   0  122.08    1.97
  -7  -6  -1   23.00    0.98
  -7  -6  -1   25.20    0.81
  -7  -6  -2   33.18    0.85
  -7  -6  -2   29.63    0.96
  -7  -6  -3    1.95    0.26
  -7  -7   6   67.74    1.31
  -7  -7   5    3.52    0.38
  -7  -7   5    3.09    0.33
  -7  -7   4   20.81    0.80
  -7  -7   4   19.81    0.73
  -7  -7   4   20.30    0.71
  -7  -7   3    0.33    0.21
  -7  -7   3    0.48    0.23
  -7  -7   2   20.86    0.71
  -7  -7   2   22.94    1.04
  -7  -7   2   21.93    0.79
  -7  -7   1   10.81    0.53
  -7  -7   1   10.79    0.68
  -7  -7   1   11.46    0.58
  -7  -7   0    0.78    0.24
  -7  -7   0    0.01    0.34
  -7  -7   0    0.52    0.26
  -7  -7   0    0.68    0.24
  -7  -7  -1   11.39    0.47
  -7  -7  -1    9.86    0.51
  -7  -8   4   67.70    1.35
  -7  -8   3   56.42    1.19
  -7  -8   3   59.46    1.05
  -7  -8   2    1.31    0.32
  -7  -8   2    5.56    0.35
   8  -8   2    1.09    0.21
   8  -7  -2   13.91    0.56
   8  -7  -2   14.77    0.58
   8  -7  -1   95.20    1.57
   8  -7  -1   99.25    1.69
   8  -7   0   10.92    0.52
   8  -7   0   11.87    0.62
   8  -7   1   23.35    0.82
   8  -7   1   23.55    0.85
   8  -7   2    5.60    0.45
   8  -7   2    4.65    0.39
   8  -7   3   10.14    0.57
   8  -7   4   66.09    1.34
   8  -7   4   65.19    1.29
   8  -7   5    2.20    0.26
   8  -6  -3    3.49    0.35
   8  -6  -2   87.63    1.74
   8  -6  -1   18.35    0.77
   8  -6   0  150.92    2.36
   8  -6   0  151.53    2.50
   8  -6   1   12.58    0.72
   8  -6   1   12.19    0.71
   8  -6   2    2.89    0.42
   8  -6   2    3.92    0.41
   8  -6   3    8.28    0.57
   8  -6   4  159.03    2.38
   8  -6   4  148.28    2.30
   8  -6   5  179.59    2.40
   8  -6   5  187.71    2.39
   8  -5  -4   30.42    0.91
   8  -5  -3    2.09    0.37
   8  -5  -2    6.96    0.59
   8  -5  -1  147.68    2.63
   8  -5   0   50.70    1.52
  -8   5   0   48.04    1.38
   8  -5   1   15.07    0.86
   8  -5   1   15.57    0.84
  -8   5  -1   14.20    0.79
   8  -5   2   28.00    1.03
   8  -5   3    6.02    0.57
   8  -5   4   19.83    0.90
   8  -5   4   20.94    0.95
   8  -5   5    7.06    0.51
   8  -5   5    6.62    0.53
   8  -5   6  136.29    1.77
   8  -4  -4    2.67    0.40
   8  -4  -4    3.54    0.39
   8  -4  -3   14.64    0.79
  -8   4   2  153.56    2.53
   8  -4  -2  157.06    2.68
  -8   4   1   26.64    1.10
   8  -4  -1   28.44    1.17
  -8   4   0   10.09    0.74
  -8   4  -1  140.11    2.68
   8  -4   2   29.82    1.21
  -8   4  -2   29.16    1.22
   8  -4   3   32.27    1.20
   8  -4   4    1.30    0.34
   8  -4   5   62.45    1.41
  -8   4  -5   59.68    1.65
   8  -4   5   63.75    1.61
   8  -4   6   19.56    0.80
   8  -3  -5    3.24    0.39
  -8   3   4   34.39    1.12
   8  -3  -4   36.93    1.24
  -8   3   3  290.79    3.74
   8  -3  -3  296.72    3.88
  -8   3   2   30.06    1.21
   8  -3  -2   31.13    1.25
  -8   3   1  408.94    4.82
  -8   3   0   17.47    0.99
   8  -3   0   15.71    0.94
  -8   3  -1   13.09    0.88
   8  -3   2  294.25    3.88
   8  -3   3   16.68    0.86
  -8   3  -3   16.45    0.93
  -8   3  -3   16.16    0.98
   8  -3   4  195.47    2.75
  -8   3  -4  192.39    3.06
  -8   3  -5    0.69    0.40
  -8   3  -5    0.18    0.27
   8  -3   5    0.02    0.26
  -8   3  -6    0.18    0.29
   8  -3   6    0.61    0.24
   8  -2  -6   44.20    1.18
  -8   2   5    0.10    0.21
   8  -2  -5    0.53    0.30
  -8   2   4   51.15    1.51
   8  -2  -4   51.31    1.58
  -8   2   3    2.18    0.42
   8  -2  -3    0.91    0.41
  -8   2   2  267.43    3.81
   8  -2  -2  258.87    3.76
  -8   2   1  586.25    6.09
   8  -2  -1  586.65    5.96
   8  -2   0   13.06    0.84
  -8   2  -1    4.58    0.57
   8  -2   1    4.06    0.51
   8  -2   2   38.86    1.32
  -8   2  -2   43.80    1.54
   8  -2   3  339.03    3.88
  -8   2  -3  347.31    4.96
  -8   2  -4    0.16    0.34
  -8   2  -5  209.70    3.55
  -8   2  -5  211.52    3.18
   8  -2   5  215.21    2.98
  -8   2  -6    3.88    0.50
  -8   2  -6    4.34    0.43
   8  -2   6    3.39    0.35
  -8   1   7   24.36    0.77
   8  -1  -7   26.79    0.87
  -8   1   6    0.09    0.23
   8  -1  -6   -0.05    0.26
  -8   1   5    3.64    0.47
   8  -1  -5    3.52    0.51
  -8   1   4    3.49    0.49
  -8   1   3   36.42    1.41
   8  -1  -3   35.55    1.39
  -8   1   2   73.37    2.01
   8  -1  -2   76.98    1.99
  -8   1   1  217.27    3.47
   8  -1  -1  232.62    3.46
  -8   1   0  279.63    4.00
   8  -1   0  274.55    3.70
  -8   1  -1    8.09    0.70
   8  -1   1    8.76    0.65
  -8   1  -2  171.78    3.02
  -8   1  -3   37.90    1.33
  -8   1  -3   37.83    1.59
  -8   1  -4  265.93    3.98
  -8   1  -5    3.12    0.57
  -8   1  -5    2.18    0.43
   8  -1   5    2.18    0.32
  -8   1  -6   63.38    1.64
  -8   1  -6   63.05    1.47
   8   0  -8   32.45    0.83
  -8   0   7    9.47    0.58
   8   0  -7    9.79    0.60
  -8   0   6  227.16    3.23
   8   0  -6  229.89    3.25
  -8   0   5    4.03    0.51
  -8   0   4   22.69    1.13
   8   0  -4   23.51    1.11
   8   0  -3   26.23    1.17
  -8   0   2  202.72    3.36
   8   0  -2  201.60    3.22
  -8   0   1   59.18    1.75
   8   0  -1   55.32    1.60
  -8   0   0   -0.03    0.28
   8   0   0    0.24    0.26
  -8   0  -1  135.67    2.61
  -8   0  -2   22.21    1.03
  -8   0  -2   21.98    1.34
  -8   0  -3   19.78    0.91
  -8   0  -3   21.47    1.22
  -8   0  -4  117.35    2.79
  -8   0  -4  109.78    2.49
  -8   0  -5    0.40    0.34
  -8   0  -6   14.68    0.70
  -8  -1   8    3.17    0.31
   8   1  -8    3.46    0.34
  -8  -1   7   82.63    1.76
  -8  -1   6    0.82    0.31
   8   1  -6    0.68    0.34
  -8  -1   5  128.88    2.24
   8   1  -5  126.12    2.52
  -8  -1   4  190.80    2.90
  -8  -1   4  192.87    3.24
   8   1  -4  186.59    3.12
  -8  -1   3   25.91    1.06
  -8  -1   3   27.92    1.22
   8   1  -3   26.93    1.15
  -8  -1   2  116.94    2.22
  -8  -1   2  110.61    2.41
   8   1  -2  108.85    2.24
  -8  -1   1  255.08    3.66
  -8  -1   1  257.33    3.42
  -8  -1   0   52.88    1.58
  -8  -1   0   54.25    1.51
  -8  -1  -1   99.90    2.14
  -8  -1  -1  104.65    2.05
  -8  -1  -2  113.12    2.84
  -8  -1  -3   16.50    1.11
  -8  -1  -3   16.80    1.06
  -8  -1  -4    7.35    0.75
  -8  -1  -4    6.57    0.66
  -8  -1  -5  232.59    3.38
  -8  -1  -5  233.30    3.15
  -8  -1  -6   53.53    1.16
  -8  -2   8  129.77    1.92
  -8  -2   7    0.11    0.21
   8   2  -7    0.81    0.30
  -8  -2   6    0.79    0.26
  -8  -2   6    1.51    0.36
  -8  -2   6    1.00    0.32
   8   2  -6    1.00    0.35
  -8  -2   5  170.27    2.65
  -8  -2   5  173.53    2.97
  -8  -2   5  167.09    2.88
   8   2  -5  166.59    2.83
  -8  -2   4  176.55    3.02
  -8  -2   4  171.93    3.03
   8   2  -4  166.31    2.83
  -8  -2   3    9.72    0.68
  -8  -2   3    9.75    0.73
  -8  -2   3    9.66    0.75
  -8  -2   3    9.86    0.66
   8   2  -3    9.06    0.66
  -8  -2   2  258.07    3.38
  -8  -2   2  257.38    3.60
  -8  -2   1  103.47    1.99
  -8  -2   1  103.88    2.16
  -8  -2   1  105.81    2.12
  -8  -2   0  100.65    2.03
  -8  -2  -1  102.47    2.37
  -8  -2  -1  108.68    2.75
  -8  -2  -2  324.89    4.08
  -8  -2  -2  332.00    4.62
  -8  -2  -2  335.80    3.59
  -8  -2  -3   16.56    1.03
  -8  -2  -3   16.51    0.83
  -8  -2  -3   16.26    0.97
  -8  -2  -4   17.69    0.96
  -8  -2  -4   18.25    0.74
  -8  -2  -4   18.22    0.91
  -8  -2  -5  188.17    2.48
  -8  -3   8   39.10    1.01
   8   3  -8   39.14    0.99
  -8  -3   7   18.76    0.69
  -8  -3   7   19.37    0.84
  -8  -3   7   20.06    0.87
   8   3  -7   18.99    0.82
  -8  -3   6   34.17    1.08
  -8  -3   6   33.98    1.20
  -8  -3   6   32.42    1.22
   8   3  -6   33.14    1.14
  -8  -3   5   29.93    1.09
  -8  -3   5   30.07    1.16
  -8  -3   5   30.39    1.25
   8   3  -5   29.24    1.10
  -8  -3   4   16.81    0.85
  -8  -3   4   17.91    0.92
  -8  -3   4   16.40    0.97
  -8  -3   4   15.76    0.73
  -8  -3   3  108.51    2.10
  -8  -3   3  106.72    2.19
  -8  -3   3  108.62    2.02
  -8  -3   2    0.51    0.26
  -8  -3   2    0.62    0.32
  -8  -3   1    8.39    0.55
  -8  -3   1    3.95    0.40
  -8  -3   0  191.54    2.68
  -8  -3   0  192.51    3.56
  -8  -3   0  197.10    3.57
  -8  -3   0  192.31    2.84
  -8  -3  -1   65.44    1.53
  -8  -3  -1   62.43    1.83
  -8  -3  -1   60.31    1.83
  -8  -3  -1   62.15    1.52
  -8  -3  -2  119.71    2.33
  -8  -3  -2  125.76    1.94
  -8  -3  -3  159.19    2.43
  -8  -3  -3  153.76    2.56
  -8  -3  -4    8.57    0.49
  -8  -3  -4    8.02    0.52
  -8  -4   8   62.22    1.16
  -8  -4   8   60.51    1.23
  -8  -4   7   51.79    1.12
  -8  -4   7   52.60    1.24
   8   4  -7   50.51    1.17
  -8  -4   6   15.97    0.72
  -8  -4   6   16.15    0.76
  -8  -4   6   14.00    0.82
   8   4  -6   14.94    0.69
  -8  -4   5   10.86    0.65
  -8  -4   5   10.81    0.66
  -8  -4   5   11.14    0.78
  -8  -4   4   44.21    1.29
  -8  -4   4   39.56    1.10
  -8  -4   3    0.43    0.25
  -8  -4   3    0.75    0.30
  -8  -4   2   17.72    0.78
  -8  -4   2   18.55    0.86
  -8  -4   1   39.13    1.12
  -8  -4   0   19.75    0.84
  -8  -4   0   19.59    1.11
  -8  -4   0   19.11    0.85
  -8  -4  -1    3.58    0.45
  -8  -4  -1    2.62    0.48
  -8  -4  -1    2.46    0.38
  -8  -4  -2    0.54    0.30
  -8  -4  -2    0.50    0.24
  -8  -4  -3   12.22    0.61
  -8  -5   7    0.65    0.18
  -8  -5   7    0.87    0.26
  -8  -5   5   15.52    0.71
  -8  -5   4   28.40    0.96
  -8  -5   4   28.35    0.88
  -8  -5   3    5.27    0.43
  -8  -5   3    4.72    0.44
  -8  -5   2   71.79    1.36
  -8  -5   2   75.75    1.57
  -8  -5   1   52.14    1.21
  -8  -5   1   53.73    1.72
  -8  -5   0   26.33    0.88
  -8  -5   0   24.85    1.08
  -8  -5   0   25.35    0.89
  -8  -5  -1   20.61    0.74
  -8  -5  -1   20.14    0.89
  -8  -5  -1   19.00    0.70
  -8  -5  -2   12.39    0.62
  -8  -6   6   38.77    0.89
  -8  -6   5   40.17    0.97
  -8  -6   4   55.42    1.14
  -8  -6   4   53.22    1.07
  -8  -6   3    0.76    0.24
  -8  -6   2   59.49    1.10
  -8  -6   2   57.64    1.61
  -8  -6   1   35.49    0.88
  -8  -6   1   34.75    0.95
  -8  -6   0    3.84    0.33
  -8  -6   0    3.17    0.32
  -8  -7   4    0.72    0.26
  -8  -7   3    2.50    0.34
  -8  -7   3    2.13    0.23
  -8  -7   2   60.59    1.25
  -8  -7   2   55.31    1.00
   9  -6  -1   52.02    1.00
   9  -6  -1   55.40    1.15
   9  -6   0   17.12    0.64
   9  -6   0   17.64    0.68
   9  -6   1  117.55    1.76
   9  -6   1  107.48    1.61
   9  -6   2   49.11    1.12
   9  -6   3   98.79    1.54
   9  -5  -3    1.62    0.26
   9  -5  -2   10.76    0.54
   9  -5  -1   26.00    0.90
   9  -5  -1   24.33    0.90
   9  -5   0    0.41    0.26
   9  -5   0    0.34    0.25
  -9   5   0    0.40    0.20
   9  -5   1   29.92    0.94
   9  -5   2   17.86    0.77
   9  -5   3   19.52    0.76
   9  -5   3   20.12    0.79
   9  -5   4    1.21    0.24
   9  -5   4    1.16    0.25
   9  -4  -4   10.74    0.53
   9  -4  -3    4.36    0.44
  -9   4   2    3.48    0.37
  -9   4   1   35.07    1.13
   9  -4   0   59.91    1.51
  -9   4   0   61.90    1.55
   9  -4   1   28.21    1.05
   9  -4   1   26.04    0.93
  -9   4  -1   27.08    1.04
   9  -4   2    6.30    0.52
   9  -4   3   15.10    0.70
   9  -4   4   96.75    1.55
  -9   4  -4   92.83    1.85
   9  -4   5    0.49    0.20
   9  -3  -5    6.74    0.40
   9  -3  -5    7.41    0.41
  -9   3   4  105.47    1.67
   9  -3  -4  114.53    1.87
  -9   3   3   62.70    1.45
   9  -3  -3   62.63    1.50
  -9   3   2    4.93    0.48
  -9   3   1   15.64    0.84
   9  -3  -1   14.41    0.81
  -9   3   0  124.37    2.41
   9  -3   1   49.50    1.41
  -9   3  -1   48.83    1.51
   9  -3   2    0.15    0.24
  -9   3  -2    0.32    0.30
   9  -3   3    6.04    0.46
  -9   3  -3    5.22    0.49
  -9   3  -4   25.92    1.09
   9  -3   4   27.93    0.98
  -9   3  -5   15.82    0.73
   9  -3   5   15.89    0.63
   9  -2  -6   17.10    0.57
  -9   2   5    7.38    0.46
   9  -2  -5    7.78    0.51
  -9   2   4    3.01    0.38
   9  -2  -4    3.12    0.42
  -9   2   3   36.90    1.24
  -9   2   2    0.54    0.31
   9  -2  -2    0.34    0.32
  -9   2   1   52.25    1.57
   9  -2  -1   50.82    1.48
   9  -2   1   82.74    1.80
  -9   2  -1   87.27    2.03
   9  -2   2    0.17    0.22
  -9   2  -2    0.19    0.35
  -9   2  -2    0.22    0.29
  -9   2  -3   30.16    1.17
  -9   2  -4   14.94    0.89
  -9   2  -4   14.50    0.75
   9  -2   4   13.70    0.68
  -9   2  -5   29.43    1.03
  -9   2  -5   29.38    0.85
   9  -2   5   26.95    0.76
  -9   1   6   72.05    1.31
   9  -1  -6   73.49    1.39
  -9   1   5   83.99    1.68
   9  -1  -5   83.40    1.70
  -9   1   4    0.44    0.28
   9  -1  -4    0.36    0.30
  -9   1   3   12.11    0.77
   9  -1  -3   12.33    0.76
   9  -1  -2  228.39    3.26
  -9   1   1    6.35    0.60
   9  -1  -1    5.96    0.56
  -9   1   0   46.99    1.49
   9  -1   0   43.18    1.31
  -9   1  -1   11.90    0.78
  -9   1  -2   40.60    1.30
  -9   1  -2   43.10    1.58
  -9   1  -3   33.82    1.41
  -9   1  -3   33.38    1.28
  -9   1  -4   14.27    0.77
   9  -1   4   12.91    0.61
  -9   1  -5   36.45    1.13
  -9   1  -5   36.21    0.98
   9   0  -7    0.16    0.16
  -9   0   6    9.92    0.56
  -9   0   5    0.28    0.24
   9   0  -5    0.21    0.27
   9   0  -4   25.23    1.03
  -9   0   3    0.32    0.29
   9   0  -3   -0.01    0.27
  -9   0   2   73.99    1.86
   9   0  -2   73.27    1.74
  -9   0   1   23.45    1.06
   9   0  -1   21.76    0.93
  -9   0   0    0.22    0.26
  -9   0  -1    1.13    0.33
  -9   0  -2   27.79    1.01
  -9   0  -2   29.09    1.30
  -9   0  -3   66.14    1.89
  -9   0  -3   64.82    1.75
  -9   0  -4   58.09    1.59
  -9   0  -4   57.74    1.47
  -9   0  -5    0.95    0.23
  -9  -1   7    6.59    0.39
   9   1  -7    7.39    0.42
   9   1  -6   19.86    0.80
  -9  -1   5    8.12    0.59
   9   1  -5    7.46    0.56
  -9  -1   4   15.52    0.83
   9   1  -4   14.37    0.78
  -9  -1   3    0.75    0.31
   9   1  -3    0.32    0.26
  -9  -1   2    6.71    0.59
   9   1  -2    6.53    0.52
  -9  -1   1   26.02    1.07
  -9  -1   0    3.53    0.43
  -9  -1  -1    0.72    0.42
  -9  -1  -1    0.95    0.27
  -9  -1  -2    0.85    0.42
  -9  -1  -2    0.09    0.33
  -9  -1  -3   28.39    1.17
  -9  -1  -3   28.69    1.12
  -9  -1  -4    2.28    0.38
  -9  -1  -4    1.99    0.33
  -9  -2   7   65.33    1.22
   9   2  -7   64.49    1.18
  -9  -2   6    6.38    0.47
   9   2  -6    6.55    0.46
  -9  -2   5   22.72    0.92
   9   2  -5   22.25    0.86
  -9  -2   4    4.09    0.45
   9   2  -4    3.61    0.40
  -9  -2   3   16.73    0.83
  -9  -2   2   28.43    1.06
  -9  -2   1   16.44    0.78
  -9  -2   0  305.43    4.35
  -9  -2  -1   14.92    0.88
  -9  -2  -1   15.47    0.92
  -9  -2  -2   10.46    0.71
  -9  -2  -2   10.67    0.71
  -9  -2  -3   15.79    0.76
  -9  -2  -3   16.52    0.77
  -9  -3   6    1.79    0.27
   9   3  -6    2.40    0.28
  -9  -3   5  117.92    1.93
  -9  -3   4   15.62    0.70
  -9  -3   4   14.90    0.71
  -9  -3   3   87.43    1.69
  -9  -3   1    1.13    0.37
  -9  -3   1    1.15    0.40
  -9  -3   0   39.09    1.24
  -9  -3   0   37.76    1.28
  -9  -3  -1   29.31    0.96
  -9  -3  -1   27.73    1.03
  -9  -3  -2   36.98    0.93
  -9  -3  -2   35.56    1.04
  -9  -4   5    5.63    0.39
  -9  -4   4  305.96    3.06
  -9  -4   2   76.74    1.87
  -9  -4   2   77.72    1.46
  -9  -4   1   10.41    0.69
  -9  -4   0    0.50    0.26
  -9  -4   0    0.89    0.27
  -9  -4  -1    1.89    0.29
  -9  -5   5   52.79    0.97
  -9  -5   3    1.97    0.38
  -9  -5   2    7.73    0.56
  -9  -5   2    7.28    0.43
  -9  -5   1   41.98    1.12
  -9  -5   0   50.49    1.08
  10  -4  -2    2.24    0.25
  10  -4  -2    2.05    0.25
  10  -4  -1    7.69    0.43
  10  -4   0    9.05    0.48
  10  -4   1    0.97    0.22
 -10   3   2  157.67    2.07
  10  -3  -1   24.89    0.84
  10  -3  -1   24.50    0.81
 -10   3   1   24.43    0.84
  10  -3   0   39.46    1.02
  10  -3   0   37.92    0.94
 -10   3   0   39.56    1.08
 -10   3   0   38.27    1.08
  10  -3   1   -0.06    0.16
 -10   3  -1    0.06    0.19
 -10   3  -3    0.21    0.24
  10  -3   3    0.04    0.14
 -10   2   3    0.12    0.17
  10  -2  -3    0.20    0.20
 -10   2   2   85.37    1.64
 -10   2   1   19.46    0.83
  10  -2   0   16.28    0.68
 -10   2   0   16.32    0.86
  10  -2   1   13.94    0.56
 -10   2  -1   14.48    0.68
 -10   2  -1   14.56    0.75
 -10   2  -2    4.21    0.41
 -10   2  -3   96.84    1.79
  10  -2   3   96.77    1.47
 -10   1   4   42.63    1.04
  10  -1  -4   41.48    1.01
 -10   1   3    5.66    0.45
  10  -1  -3    5.27    0.42
  10  -1  -2    0.17    0.21
 -10   1   1   79.01    1.66
 -10   1   0   17.31    0.78
 -10   1   0   17.92    0.95
 -10   1  -1    4.70    0.41
 -10   1  -1    4.37    0.49
 -10   1  -2    7.73    0.61
 -10   1  -2    8.34    0.56
 -10   1  -3    0.16    0.25
 -10   1  -3    0.18    0.19
 -10   0   5    0.61    0.18
  10   0  -5    0.60    0.19
  10   0  -4    5.56    0.40
 -10   0   3    0.27    0.21
  10   0  -3    0.10    0.19
 -10   0   2    3.62    0.40
  10   0  -2    3.57    0.35
 -10   0   1   11.87    0.65
 -10   0   0   63.56    1.39
 -10   0  -1    0.96    0.35
 -10   0  -1    1.34    0.24
 -10   0  -1    1.18    0.35
 -10   0  -2    0.24    0.29
 -10   0  -2    0.69    0.27
 -10  -1   5   13.63    0.55
 -10  -1   4  125.53    1.87
  10   1  -4  117.56    1.62
 -10  -1   3    0.54    0.22
 -10  -1   2   26.79    0.89
 -10  -1   1   86.42    1.57
 -10  -1   1   87.31    2.00
 -10  -1   0   14.41    0.81
 -10  -1  -1  130.07    2.09
 -10  -1  -1  134.23    2.18
 -10  -1  -2   48.15    1.17
 -10  -2   4   61.62    1.18
 -10  -2   3   27.53    0.80
 -10  -2   2   57.65    1.50
 -10  -2   1   10.03    0.65
 -10  -2   0   57.74    1.36
 -10  -2  -1    0.17    0.19
   0   0   0    0.00    0.00


TITL wq0419 in P-1
REM P-1 (#2 in standard setting)
CELL 1.54184   8.715289   9.290195   9.509781 107.9887  94.9731  92.7296
ZERR    3.00   0.000134   0.000192   0.000121   0.0016   0.0012   0.0015
LATT  1
SFAC C H N O
UNIT 33.00 30.00 3.00 3.00
TREF
HKLF 4
END
_computing_structure_solution     'SHELXT 2014/5 (Sheldrick, 2014)'
;
_shelx_hkl_checksum              10026
_olex2_submission_special_instructions 'No special instructions were received'
_oxdiff_exptl_absorpt_empirical_details
;
Empirical correction (ABSPACK) includes:
- Absorption correction using spherical harmonics
- Frame scaling
;
_oxdiff_exptl_absorpt_empirical_full_max 1.557
_oxdiff_exptl_absorpt_empirical_full_min 0.628
loop_
_space_group_symop_operation_xyz
'x, y, z'
'-x, -y, -z'
loop_
_atom_site_label
_atom_site_type_symbol
_atom_site_fract_x
_atom_site_fract_y
_atom_site_fract_z
_atom_site_U_iso_or_equiv
_atom_site_adp_type
_atom_site_occupancy
_atom_site_site_symmetry_order
_atom_site_calc_flag
_atom_site_refinement_flags_posn
_atom_site_refinement_flags_adp
_atom_site_refinement_flags_occupancy
_atom_site_disorder_assembly
_atom_site_disorder_group
N1 N 0.48413(11) 0.71017(11) 0.85515(10) 0.0262(2) Uani 1 1 d . . . . .
C1 C 0.62276(13) 0.63741(13) 0.83792(12) 0.0244(3) Uani 1 1 d . . . . .
C2 C 0.65129(14) 0.49989(14) 0.86027(13) 0.0289(3) Uani 1 1 d . . . . .
H2 H 0.572046 0.439421 0.878278 0.035 Uiso 1 1 calc R U . . .
C3 C 0.80097(14) 0.45470(14) 0.85510(14) 0.0317(3) Uani 1 1 d . . . . .
H3 H 0.821604 0.362923 0.870104 0.038 Uiso 1 1 calc R U . . .
C4 C 0.91995(14) 0.54328(15) 0.82813(14) 0.0320(3) Uani 1 1 d . . . . .
H4 H 1.019438 0.511225 0.825653 0.038 Uiso 1 1 calc R U . . .
C5 C 0.89042(13) 0.68054(14) 0.80468(13) 0.0285(3) Uani 1 1 d . . . . .
H5 H 0.970154 0.740717 0.787001 0.034 Uiso 1 1 calc R U . . .
C6 C 0.74177(13) 0.72703(13) 0.80780(12) 0.0238(2) Uani 1 1 d . . . . .
C7 C 0.67967(13) 0.86805(13) 0.78293(12) 0.0251(3) Uani 1 1 d . . . . .
C8 C 0.61507(13) 0.83875(12) 0.61928(12) 0.0249(3) Uani 1 1 d . . . . .
C9 C 0.46830(13) 0.81123(13) 0.64408(13) 0.0266(3) Uani 1 1 d . . . . .
C10 C 0.50594(13) 0.84585(13) 0.80843(12) 0.0259(3) Uani 1 1 d . . . . .
H10 H 0.462791 0.936773 0.869956 0.031 Uiso 1 1 calc R U . . .
C11 C 0.33513(13) 0.62343(15) 0.78929(14) 0.0311(3) Uani 1 1 d . . . . .
H11A H 0.252481 0.681531 0.834252 0.037 Uiso 1 1 calc R U . . .
H11B H 0.331363 0.529514 0.813804 0.037 Uiso 1 1 calc R U . . .
C12 C 0.30561(14) 0.58519(15) 0.61981(14) 0.0349(3) Uani 1 1 d . . . . .
H12A H 0.202631 0.535228 0.586804 0.042 Uiso 1 1 calc R U . . .
H12B H 0.378748 0.514441 0.573704 0.042 Uiso 1 1 calc R U . . .
C13 C 0.32021(14) 0.72579(16) 0.56688(14) 0.0342(3) Uani 1 1 d . . . . .
H13A H 0.321987 0.695506 0.459890 0.041 Uiso 1 1 calc R U . . .
H13B H 0.234105 0.787667 0.593146 0.041 Uiso 1 1 calc R U . . .
C14 C 0.69202(13) 0.83088(12) 0.48653(12) 0.0255(3) Uani 1 1 d . . . . .
C15 C 0.60510(14) 0.82526(13) 0.35391(13) 0.0295(3) Uani 1 1 d . . . . .
H15 H 0.498656 0.830458 0.351683 0.035 Uiso 1 1 calc R U . . .
C16 C 0.67547(15) 0.81205(14) 0.22599(14) 0.0329(3) Uani 1 1 d . . . . .
H16 H 0.615933 0.806849 0.138280 0.040 Uiso 1 1 calc R U . . .
C17 C 0.83398(16) 0.80655(14) 0.22800(14) 0.0349(3) Uani 1 1 d . . . . .
H17 H 0.880965 0.796350 0.141649 0.042 Uiso 1 1 calc R U . . .
C18 C 0.92205(15) 0.81629(16) 0.35910(15) 0.0361(3) Uani 1 1 d . . . . .
H18 H 1.028838 0.814654 0.361418 0.043 Uiso 1 1 calc R U . . .
C19 C 0.85176(14) 0.82851(14) 0.48728(13) 0.0312(3) Uani 1 1 d . . . . .
H19 H 0.912157 0.835203 0.574953 0.037 Uiso 1 1 calc R U . . .
C20 C 0.77163(15) 1.01669(14) 0.86805(14) 0.0338(3) Uani 1 1 d . . . . .
H20A H 0.788512 1.024473 0.971326 0.051 Uiso 1 1 calc R U . . .
H20B H 0.715285 1.099728 0.857516 0.051 Uiso 1 1 calc R U . . .
H20C H 0.869340 1.020027 0.829219 0.051 Uiso 1 1 calc R U . . .
loop_
_atom_site_aniso_label
_atom_site_aniso_U_11
_atom_site_aniso_U_22
_atom_site_aniso_U_33
_atom_site_aniso_U_23
_atom_site_aniso_U_13
_atom_site_aniso_U_12
N1 0.0226(5) 0.0307(5) 0.0253(5) 0.0084(4) 0.0040(4) 0.0011(4)
C1 0.0232(5) 0.0297(6) 0.0187(5) 0.0055(4) 0.0016(4) 0.0006(4)
C2 0.0300(6) 0.0304(6) 0.0270(6) 0.0105(5) 0.0034(5) -0.0023(5)
C3 0.0357(7) 0.0293(6) 0.0320(6) 0.0124(5) 0.0018(5) 0.0042(5)
C4 0.0254(6) 0.0382(7) 0.0343(6) 0.0135(5) 0.0022(5) 0.0066(5)
C5 0.0232(6) 0.0347(6) 0.0282(6) 0.0116(5) 0.0013(4) -0.0012(5)
C6 0.0249(5) 0.0267(6) 0.0182(5) 0.0054(4) 0.0007(4) -0.0002(4)
C7 0.0248(6) 0.0264(6) 0.0230(5) 0.0062(4) 0.0031(4) 0.0015(4)
C8 0.0277(6) 0.0222(5) 0.0250(6) 0.0077(4) 0.0020(4) 0.0048(4)
C9 0.0271(6) 0.0278(6) 0.0254(6) 0.0084(5) 0.0025(4) 0.0069(5)
C10 0.0254(6) 0.0267(6) 0.0243(6) 0.0055(5) 0.0045(4) 0.0038(4)
C11 0.0214(6) 0.0368(7) 0.0354(7) 0.0116(5) 0.0059(5) -0.0003(5)
C12 0.0261(6) 0.0387(7) 0.0346(7) 0.0048(5) 0.0022(5) -0.0041(5)
C13 0.0252(6) 0.0477(8) 0.0279(6) 0.0101(5) -0.0001(5) 0.0023(5)
C14 0.0316(6) 0.0201(5) 0.0252(6) 0.0071(4) 0.0045(5) 0.0030(4)
C15 0.0319(6) 0.0281(6) 0.0298(6) 0.0112(5) 0.0022(5) 0.0038(5)
C16 0.0430(7) 0.0306(6) 0.0256(6) 0.0103(5) 0.0011(5) 0.0012(5)
C17 0.0454(7) 0.0326(6) 0.0271(6) 0.0085(5) 0.0113(5) 0.0007(5)
C18 0.0329(6) 0.0421(7) 0.0341(7) 0.0117(6) 0.0093(5) 0.0036(5)
C19 0.0308(6) 0.0356(7) 0.0272(6) 0.0103(5) 0.0019(5) 0.0020(5)
C20 0.0363(7) 0.0293(6) 0.0321(6) 0.0052(5) 0.0031(5) -0.0035(5)
loop_
_atom_type_symbol
_atom_type_description
_atom_type_scat_dispersion_real
_atom_type_scat_dispersion_imag
_atom_type_scat_source
C C 0.0181 0.0091 'International Tables Vol C Tables 4.2.6.8 and 6.1.1.4'
H H 0.0000 0.0000 'International Tables Vol C Tables 4.2.6.8 and 6.1.1.4'
N N 0.0311 0.0180 'International Tables Vol C Tables 4.2.6.8 and 6.1.1.4'
loop_
_geom_angle_atom_site_label_1
_geom_angle_atom_site_label_2
_geom_angle_atom_site_label_3
_geom_angle
_geom_angle_site_symmetry_1
_geom_angle_site_symmetry_3
_geom_angle_publ_flag
C1 N1 C10 106.71(9) . . ?
C1 N1 C11 120.06(10) . . ?
C10 N1 C11 111.81(9) . . ?
C2 C1 N1 126.77(10) . . ?
C2 C1 C6 120.68(11) . . ?
C6 C1 N1 112.29(10) . . ?
C1 C2 H2 120.8 . . ?
C1 C2 C3 118.47(11) . . ?
C3 C2 H2 120.8 . . ?
C2 C3 H3 119.3 . . ?
C4 C3 C2 121.42(11) . . ?
C4 C3 H3 119.3 . . ?
C3 C4 H4 120.1 . . ?
C3 C4 C5 119.86(11) . . ?
C5 C4 H4 120.1 . . ?
C4 C5 H5 120.2 . . ?
C6 C5 C4 119.68(11) . . ?
C6 C5 H5 120.2 . . ?
C1 C6 C7 110.30(10) . . ?
C5 C6 C1 119.86(11) . . ?
C5 C6 C7 129.84(10) . . ?
C6 C7 C8 111.79(9) . . ?
C6 C7 C10 100.86(9) . . ?
C8 C7 C10 84.43(8) . . ?
C20 C7 C6 115.71(10) . . ?
C20 C7 C8 119.72(10) . . ?
C20 C7 C10 119.14(10) . . ?
C9 C8 C7 93.72(9) . . ?
C9 C8 C14 134.44(11) . . ?
C14 C8 C7 131.61(10) . . ?
C8 C9 C10 94.46(9) . . ?
C8 C9 C13 141.17(11) . . ?
C13 C9 C10 120.83(10) . . ?
N1 C10 C7 108.93(9) . . ?
N1 C10 C9 112.05(9) . . ?
N1 C10 H10 115.1 . . ?
C7 C10 H10 115.1 . . ?
C9 C10 C7 87.17(8) . . ?
C9 C10 H10 115.1 . . ?
N1 C11 H11A 108.7 . . ?
N1 C11 H11B 108.7 . . ?
N1 C11 C12 114.33(9) . . ?
H11A C11 H11B 107.6 . . ?
C12 C11 H11A 108.7 . . ?
C12 C11 H11B 108.7 . . ?
C11 C12 H12A 108.9 . . ?
C11 C12 H12B 108.9 . . ?
C11 C12 C13 113.25(10) . . ?
H12A C12 H12B 107.7 . . ?
C13 C12 H12A 108.9 . . ?
C13 C12 H12B 108.9 . . ?
C9 C13 C12 105.73(10) . . ?
C9 C13 H13A 110.6 . . ?
C9 C13 H13B 110.6 . . ?
C12 C13 H13A 110.6 . . ?
C12 C13 H13B 110.6 . . ?
H13A C13 H13B 108.7 . . ?
C15 C14 C8 120.15(11) . . ?
C19 C14 C8 121.82(10) . . ?
C19 C14 C15 118.03(10) . . ?
C14 C15 H15 119.6 . . ?
C16 C15 C14 120.85(11) . . ?
C16 C15 H15 119.6 . . ?
C15 C16 H16 119.9 . . ?
C17 C16 C15 120.30(11) . . ?
C17 C16 H16 119.9 . . ?
C16 C17 H17 120.2 . . ?
C18 C17 C16 119.59(11) . . ?
C18 C17 H17 120.2 . . ?
C17 C18 H18 119.9 . . ?
C17 C18 C19 120.24(12) . . ?
C19 C18 H18 119.9 . . ?
C14 C19 H19 119.5 . . ?
C18 C19 C14 120.94(11) . . ?
C18 C19 H19 119.5 . . ?
C7 C20 H20A 109.5 . . ?
C7 C20 H20B 109.5 . . ?
C7 C20 H20C 109.5 . . ?
H20A C20 H20B 109.5 . . ?
H20A C20 H20C 109.5 . . ?
H20B C20 H20C 109.5 . . ?
loop_
_geom_bond_atom_site_label_1
_geom_bond_atom_site_label_2
_geom_bond_distance
_geom_bond_site_symmetry_2
_geom_bond_publ_flag
N1 C1 1.4097(14) . ?
N1 C10 1.4698(15) . ?
N1 C11 1.4750(15) . ?
C1 C2 1.3886(16) . ?
C1 C6 1.4027(16) . ?
C2 H2 0.9300 . ?
C2 C3 1.3896(17) . ?
C3 H3 0.9300 . ?
C3 C4 1.3832(18) . ?
C4 H4 0.9300 . ?
C4 C5 1.3925(17) . ?
C5 H5 0.9300 . ?
C5 C6 1.3848(16) . ?
C6 C7 1.5173(15) . ?
C7 C8 1.5443(15) . ?
C7 C10 1.5680(15) . ?
C7 C20 1.5152(16) . ?
C8 C9 1.3475(16) . ?
C8 C14 1.4640(15) . ?
C9 C10 1.4980(15) . ?
C9 C13 1.4877(17) . ?
C10 H10 0.9800 . ?
C11 H11A 0.9700 . ?
C11 H11B 0.9700 . ?
C11 C12 1.5349(18) . ?
C12 H12A 0.9700 . ?
C12 H12B 0.9700 . ?
C12 C13 1.5418(19) . ?
C13 H13A 0.9700 . ?
C13 H13B 0.9700 . ?
C14 C15 1.3989(16) . ?
C14 C19 1.3928(16) . ?
C15 H15 0.9300 . ?
C15 C16 1.3840(17) . ?
C16 H16 0.9300 . ?
C16 C17 1.3836(19) . ?
C17 H17 0.9300 . ?
C17 C18 1.3819(19) . ?
C18 H18 0.9300 . ?
C18 C19 1.3873(17) . ?
C19 H19 0.9300 . ?
C20 H20A 0.9600 . ?
C20 H20B 0.9600 . ?
C20 H20C 0.9600 . ?
loop_
_geom_torsion_atom_site_label_1
_geom_torsion_atom_site_label_2
_geom_torsion_atom_site_label_3
_geom_torsion_atom_site_label_4
_geom_torsion
_geom_torsion_site_symmetry_1
_geom_torsion_site_symmetry_2
_geom_torsion_site_symmetry_3
_geom_torsion_site_symmetry_4
_geom_torsion_publ_flag
N1 C1 C2 C3 -172.40(11) . . . . ?
N1 C1 C6 C5 172.57(10) . . . . ?
N1 C1 C6 C7 -7.33(13) . . . . ?
N1 C11 C12 C13 -54.37(14) . . . . ?
C1 N1 C10 C7 -8.70(11) . . . . ?
C1 N1 C10 C9 86.04(11) . . . . ?
C1 N1 C11 C12 -74.26(13) . . . . ?
C1 C2 C3 C4 -0.13(18) . . . . ?
C1 C6 C7 C8 -86.78(11) . . . . ?
C1 C6 C7 C10 1.52(11) . . . . ?
C1 C6 C7 C20 131.51(10) . . . . ?
C2 C1 C6 C5 -1.97(17) . . . . ?
C2 C1 C6 C7 178.13(10) . . . . ?
C2 C3 C4 C5 -0.35(19) . . . . ?
C3 C4 C5 C6 -0.33(18) . . . . ?
C4 C5 C6 C1 1.47(17) . . . . ?
C4 C5 C6 C7 -178.65(11) . . . . ?
C5 C6 C7 C8 93.33(14) . . . . ?
C5 C6 C7 C10 -178.37(11) . . . . ?
C5 C6 C7 C20 -48.38(16) . . . . ?
C6 C1 C2 C3 1.29(17) . . . . ?
C6 C7 C8 C9 95.94(10) . . . . ?
C6 C7 C8 C14 -79.11(14) . . . . ?
C6 C7 C10 N1 4.39(11) . . . . ?
C6 C7 C10 C9 -107.97(9) . . . . ?
C7 C8 C9 C10 3.71(9) . . . . ?
C7 C8 C9 C13 -152.74(16) . . . . ?
C7 C8 C14 C15 -170.31(11) . . . . ?
C7 C8 C14 C19 9.80(18) . . . . ?
C8 C7 C10 N1 115.55(9) . . . . ?
C8 C7 C10 C9 3.19(8) . . . . ?
C8 C9 C10 N1 -112.95(10) . . . . ?
C8 C9 C10 C7 -3.65(9) . . . . ?
C8 C9 C13 C12 103.32(17) . . . . ?
C8 C14 C15 C16 -177.55(10) . . . . ?
C8 C14 C19 C18 177.99(11) . . . . ?
C9 C8 C14 C15 16.61(19) . . . . ?
C9 C8 C14 C19 -163.29(13) . . . . ?
C10 N1 C1 C2 -175.85(11) . . . . ?
C10 N1 C1 C6 10.01(12) . . . . ?
C10 N1 C11 C12 51.85(13) . . . . ?
C10 C7 C8 C9 -3.55(9) . . . . ?
C10 C7 C8 C14 -178.61(12) . . . . ?
C10 C9 C13 C12 -49.04(14) . . . . ?
C11 N1 C1 C2 -47.40(16) . . . . ?
C11 N1 C1 C6 138.47(10) . . . . ?
C11 N1 C10 C7 -141.81(9) . . . . ?
C11 N1 C10 C9 -47.07(12) . . . . ?
C11 C12 C13 C9 48.51(13) . . . . ?
C13 C9 C10 N1 50.09(14) . . . . ?
C13 C9 C10 C7 159.39(11) . . . . ?
C14 C8 C9 C10 178.53(12) . . . . ?
C14 C8 C9 C13 22.1(3) . . . . ?
C14 C15 C16 C17 -1.00(18) . . . . ?
C15 C14 C19 C18 -1.91(18) . . . . ?
C15 C16 C17 C18 -0.83(19) . . . . ?
C16 C17 C18 C19 1.3(2) . . . . ?
C17 C18 C19 C14 0.1(2) . . . . ?
C19 C14 C15 C16 2.35(17) . . . . ?
C20 C7 C8 C9 -124.06(11) . . . . ?
C20 C7 C8 C14 60.88(16) . . . . ?
C20 C7 C10 N1 -123.40(11) . . . . ?
C20 C7 C10 C9 124.24(11) . . . . ?
