#------------------------------------------------------------------------------
#$Date: 2022-07-27 00:55:19 +0300 (Wed, 27 Jul 2022) $
#$Revision: 276944 $
#$URL: file:///home/coder/svn-repositories/cod/cif/7/13/04/7130407.cif $
#------------------------------------------------------------------------------
#
# This file is available in the Crystallography Open Database (COD),
# http://www.crystallography.net/
#
# All data on this site have been placed in the public domain by the
# contributors.
#
data_7130407
loop_
_publ_author_name
'Abeysekera, Amila M.'
'Averkiev, Boris B.'
'Sinha, Abhijeet Shekhar'
'Aaker\"oy, Christer'
_publ_section_title
;
 Evaluating structure-property relationship in a new family of
 mechanically flexible co-crystals
;
_journal_name_full               'Chemical Communications'
_journal_paper_doi               10.1039/D2CC02047E
_journal_year                    2022
_chemical_formula_moiety         'C7 H7 I N2 O, C7 H6 O2'
_chemical_formula_sum            'C14 H13 I N2 O3'
_chemical_formula_weight         384.16
_space_group_crystal_system      triclinic
_space_group_IT_number           2
_space_group_name_Hall           '-P 1'
_space_group_name_H-M_alt        'P -1'
_atom_sites_solution_hydrogens   mixed
_atom_sites_solution_primary     dual
_audit_creation_date             2019-10-21
_audit_creation_method
;
APEX2 v2014.11-0
Olex2 1.2
(compiled 2018.05.29 svn.r3508 for OlexSys, GUI svn.r5506)
;
_audit_update_record
;
2022-02-14 deposited with the CCDC.	2022-07-26 downloaded from the CCDC.
;
_cell_angle_alpha                78.42(3)
_cell_angle_beta                 86.37(3)
_cell_angle_gamma                86.54(3)
_cell_formula_units_Z            2
_cell_length_a                   4.1768(8)
_cell_length_b                   11.513(2)
_cell_length_c                   15.476(3)
_cell_measurement_reflns_used    9529
_cell_measurement_temperature    200.(2)
_cell_measurement_theta_max      69.666
_cell_measurement_theta_min      3.923
_cell_volume                     726.7(2)
_computing_cell_refinement       'SAINT v8.34A (Bruker, 2013)'
_computing_data_collection       'Bruker MicroStar'
_computing_data_reduction        'SAINT v8.34A (Bruker, 2013)'
_computing_molecular_graphics    'Olex2 (Dolomanov et al., 2009)'
_computing_publication_material  'Olex2 (Dolomanov et al., 2009)'
_computing_structure_refinement  'SHELXL-2014/7 (Sheldrick, 2014)'
_computing_structure_solution    'XT (Sheldrick, 2015)'
_diffrn_ambient_temperature      200.(2)
_diffrn_measured_fraction_theta_full 'ACTA 50'
_diffrn_measured_fraction_theta_max 0.924
_diffrn_measurement_device_type  'Bruker MicroStar'
_diffrn_measurement_method       '\f and \w scans'
_diffrn_radiation_type           CuK\a
_diffrn_radiation_wavelength     1.54178
_diffrn_reflns_av_R_equivalents  0.0567
_diffrn_reflns_av_unetI/netI     0.0459
_diffrn_reflns_limit_h_max       5
_diffrn_reflns_limit_h_min       -5
_diffrn_reflns_limit_k_max       13
_diffrn_reflns_limit_k_min       -13
_diffrn_reflns_limit_l_max       17
_diffrn_reflns_limit_l_min       -18
_diffrn_reflns_number            11978
_diffrn_reflns_theta_full        'ACTA 50'
_diffrn_reflns_theta_max         70.27
_diffrn_reflns_theta_min         2.92
_exptl_absorpt_coefficient_mu    17.400
_exptl_absorpt_correction_T_max  0.40
_exptl_absorpt_correction_T_min  0.05
_exptl_absorpt_correction_type   multi-scan
_exptl_absorpt_process_details
;
SADABS-2014/5 (Bruker,2014/5) was used for absorption correction.
wR2(int) was 0.1400 before and 0.0850 after correction.
The Ratio of minimum to maximum transmission is 0.0587.
The \l/2 correction factor is 0.00150.
;
_exptl_crystal_colour            colorless
_exptl_crystal_density_diffrn    1.756
_exptl_crystal_density_method    'not measured'
_exptl_crystal_description       Parallelepiped
_exptl_crystal_F_000             376
_exptl_crystal_size_max          0.413
_exptl_crystal_size_mid          0.165
_exptl_crystal_size_min          0.064
_refine_diff_density_max         1.616
_refine_diff_density_min         -1.123
_refine_ls_extinction_method     none
_refine_ls_goodness_of_fit_ref   1.060
_refine_ls_hydrogen_treatment    mixed
_refine_ls_matrix_type           full
_refine_ls_number_parameters     190
_refine_ls_number_reflns         2543
_refine_ls_number_restraints     2
_refine_ls_restrained_S_all      1.059
_refine_ls_R_factor_all          0.0490
_refine_ls_R_factor_gt           0.0479
_refine_ls_shift/su_max          0.001
_refine_ls_shift/su_mean         0.000
_refine_ls_structure_factor_coef Fsqd
_refine_ls_weighting_details
'w=1/[\s^2^(Fo^2^)+(0.0887P)^2^+0.8219P] where P=(Fo^2^+2Fc^2^)/3'
_refine_ls_weighting_scheme      calc
_refine_ls_wR_factor_gt          0.1244
_refine_ls_wR_factor_ref         0.1257
_reflns_number_gt                2443
_reflns_number_total             2543
_reflns_threshold_expression     'I > 2\s(I)'
_cod_data_source_file            d2cc02047e2.cif
_cod_data_source_block           I-Me_BA
_cod_original_cell_volume        726.7(3)
_cod_database_code               7130407
_shelx_res_file
;
AA-Acetyl-BA.res created by SHELXL-2014/7

TITL aa-acetyl-ba_a.res in P-1
CELL 1.54178 4.1768 11.5131 15.4759 78.42 86.372 86.539
ZERR 2 0.0008 0.0023 0.0031 0.03 0.03 0.03
LATT 1
SFAC C H I N O
UNIT 28 26 2 4 6
EQIV $1 1+X,+Y,+Z
EQIV $2 -1+X,+Y,+Z
EQIV $3_[1-x, 2-y, -z]
DFIX 0.88 0.05 N8 H8
DFIX 0.82 0.03 O20 H20

L.S. 20
PLAN  20
SIZE 0.064 0.165 0.413
TEMP -73.15
HTAB N8 O19_$2
HTAB O20 N2_$1
BIND I7 I7_$3
BOND $H
fmap 2
acta
REM <olex2.extras>
REM <HklSrc "%.\\AA-Acetyl-BA.hkl">
REM </olex2.extras>

WGHT    0.088700    0.821900
FVAR       0.50600
C1    1    1.013435    0.467899    0.172479    11.00000    0.03593    0.02833 =
         0.03747   -0.01544   -0.00485    0.00506
N2    4    0.808277    0.519968    0.224798    11.00000    0.04673    0.02887 =
         0.03609   -0.01109   -0.00065    0.01146
C3    1    0.730347    0.634898    0.200451    11.00000    0.04008    0.02909 =
         0.04234   -0.01056   -0.00137    0.00665
AFIX  43
H3    2    0.582148    0.671076    0.237357    11.00000   -1.20000
AFIX   0
C4    1    0.854226    0.703578    0.124471    11.00000    0.03037    0.03006 =
         0.04603   -0.00886   -0.00530   -0.00102
C5    1    1.069324    0.651011    0.070117    11.00000    0.03632    0.03749 =
         0.04030   -0.01026    0.00116   -0.00176
AFIX  43
H5    2    1.158653    0.696659    0.017003    11.00000   -1.20000
AFIX   0
C6    1    1.151146    0.532385    0.094081    11.00000    0.04052    0.03990 =
         0.03967   -0.01877    0.00074    0.00123
AFIX  43
H6    2    1.298895    0.494565    0.058068    11.00000   -1.20000
AFIX   0
I7    3    0.709262    0.882897    0.090225    11.00000    0.03992    0.02913 =
         0.06804   -0.00113   -0.00436    0.00458
H8    2    0.956002    0.313349    0.249571    11.00000    0.03215
N8    4    1.064285    0.346593    0.203198    11.00000    0.03812    0.03049 =
         0.03977   -0.01536    0.00372    0.00924
C9    1    1.260620    0.267887    0.165554    11.00000    0.03774    0.03656 =
         0.05237   -0.02559   -0.00325    0.00860
O10   5    1.441551    0.298374    0.101824    11.00000    0.06311    0.04661 =
         0.06876   -0.02547    0.01910    0.00739
C11   1    1.229009    0.140591    0.211300    11.00000    0.05695    0.03441 =
         0.07688   -0.02896    0.00204    0.00926
AFIX 137
H11A  2    1.299778    0.088359    0.170265    11.00000   -1.50000
H11B  2    1.004069    0.127314    0.230847    11.00000   -1.50000
H11C  2    1.362580    0.123146    0.262600    11.00000   -1.50000
AFIX   0

C12   1    1.321057    0.265228    0.481420    11.00000    0.03984    0.02664 =
         0.03753   -0.01550   -0.00706    0.00991
C13   1    1.177830    0.340857    0.534794    11.00000    0.04439    0.03231 =
         0.04435   -0.01945   -0.00533    0.01012
AFIX  43
H13   2    1.198985    0.424185    0.518252    11.00000   -1.20000
AFIX   0
C14   1    1.006100    0.293624    0.611426    11.00000    0.04876    0.05515 =
         0.04459   -0.02372   -0.00163    0.01216
AFIX  43
H14   2    0.906539    0.344955    0.647263    11.00000   -1.20000
AFIX   0
C15   1    0.976860    0.172266    0.636842    11.00000    0.06396    0.05731 =
         0.04393   -0.01110    0.00240   -0.00382
AFIX  43
H15   2    0.860039    0.140384    0.690149    11.00000   -1.20000
AFIX   0
C16   1    1.120060    0.097112    0.583664    11.00000    0.06817    0.03774 =
         0.05819   -0.01084    0.00536   -0.00330
AFIX  43
H16   2    1.102205    0.013676    0.600788    11.00000   -1.20000
AFIX   0
C17   1    1.286899    0.144037    0.506503    11.00000    0.06563    0.02805 =
         0.04483   -0.01387   -0.00368    0.01101
AFIX  43
H17   2    1.380164    0.092680    0.469826    11.00000   -1.20000
AFIX   0
C18   1    1.506107    0.312300    0.398561    11.00000    0.04837    0.02392 =
         0.03720   -0.01180   -0.00726    0.00950
O19   5    1.650503    0.248629    0.353547    11.00000    0.06529    0.02808 =
         0.04286   -0.01566    0.00609    0.01274
H20   2    1.619307    0.453222    0.335955    11.00000    0.05544
O20   5    1.501011    0.429314    0.377293    11.00000    0.07703    0.02366 =
         0.04610   -0.01046    0.01330    0.00878
HKLF 4

REM  aa-acetyl-ba_a.res in P-1
REM R1 =  0.0479 for    2443 Fo > 4sig(Fo)  and  0.0490 for all    2543 data
REM    190 parameters refined using      2 restraints

END

WGHT      0.0887      0.8219

REM Highest difference peak  1.616,  deepest hole -1.123,  1-sigma level  0.173
Q1    1   0.4924  0.8929  0.0796  11.00000  0.05    1.62
Q2    1   0.9348  0.8721  0.0993  11.00000  0.05    1.21
Q3    1   0.6745  0.8965 -0.0262  11.00000  0.05    0.97
Q4    1   1.1937  0.8777  0.0967  11.00000  0.05    0.93
Q5    1   0.7703  0.8386  0.2206  11.00000  0.05    0.89
Q6    1   0.5537  0.9398 -0.0082  11.00000  0.05    0.58
Q7    1   0.5164  1.0005  0.0343  11.00000  0.05    0.50
Q8    1   0.9009  0.8017  0.1654  11.00000  0.05    0.47
Q9    1   0.5126  0.2007  0.7227  11.00000  0.05    0.42
Q10   1   1.0591  0.0953  0.1766  11.00000  0.05    0.42
Q11   1   0.8055  0.7132 -0.0007  11.00000  0.05    0.41
Q12   1   1.1792  0.0860  0.7328  11.00000  0.05    0.41
Q13   1   1.0748  0.2468  0.7290  11.00000  0.05    0.39
Q14   1   0.4242  0.1229  0.7204  11.00000  0.05    0.38
Q15   1   1.4509  0.3206  0.0018  11.00000  0.05    0.37
Q16   1   1.1760  0.0296  0.7168  11.00000  0.05    0.37
Q17   1   0.6223  0.5229  0.2070  11.00000  0.05    0.36
Q18   1   1.5786  0.3178  0.5274  11.00000  0.05    0.34
Q19   1   1.0185  0.1714  0.6960  11.00000  0.05    0.33
Q20   1   0.9259  0.2787  0.6988  11.00000  0.05    0.33
;
_shelx_res_checksum              50115
_shelx_hkl_file
;
  -1   0   0    5.00    1.90
   1   0   0    5.00    0.70
  -2   0   0  644.54   50.09
   2   0   0  675.93   46.50
   2   0   0  604.04   48.10
   2   0   0  685.83   46.40
   3   0   0  208.98   19.90
   3   0   0  218.48   17.20
   3   0   0  214.18   16.80
   3   0   0  207.18   15.80
   3   0   0  210.08   16.10
   4   0   0  110.99    8.30
   4   0   0  102.29    7.70
   4   0   0  103.69   13.60
   4   0   0  112.39    8.10
   4   0   0   90.79    7.90
   4   0   0  102.59    7.40
   4   0   0   87.29    9.30
   4   0   0   77.89   12.30
  -5   0   0   70.79    6.10
  -5   0   0   69.29    6.30
   5   0   0   83.29    6.50
   5   0   0   72.99    6.10
   5   0   0   87.09    5.90
   5  -1   0   20.80    2.50
   5  -1   0   21.50    2.10
  -5   1   0   18.80    3.20
   4  -1   0  147.29   10.70
   4  -1   0  134.79   10.90
   4  -1   0  145.59   11.50
   4  -1   0  145.39   17.80
   4  -1   0  135.09   16.20
   4  -1   0  170.98   11.70
   4  -1   0  143.69   11.30
   3  -1   0    5.70    4.50
   3  -1   0    8.20    1.80
   3  -1   0   -0.70    2.40
   3  -1   0    3.40    2.00
   3  -1   0    4.40    1.40
   3  -1   0    1.70    1.00
   2  -1   0 1094.09   78.89
   2  -1   0 1173.28   77.09
   2  -1   0 1163.38   77.29
  -2   1   0  929.61   80.79
   1  -1   0 1557.24  107.59
  -1   1   0 1501.45  109.69
   0  -1   0   50.09    5.60
  -1  -1   0 4247.57  295.17
   1   1   0 4117.49  293.87
  -2  -1   0  342.27   26.50
   2   1   0  319.87   22.90
   2   1   0  334.57   22.80
   2   1   0  262.57   24.50
   3   1   0  808.22   54.49
   3   1   0  674.03   53.99
   3   1   0  689.63   58.19
   3   1   0  843.72   54.19
   4   1   0    6.20    1.80
   4   1   0    8.90    1.70
   4   1   0    7.20    6.00
   4   1   0    9.50    2.10
   4   1   0   11.40    1.20
   4   1   0   10.20    2.00
   4   1   0    8.30    1.50
   4   1   0    7.10    2.60
   5   1   0   88.89    7.00
   5   1   0   81.69    6.70
   4  -2   0  196.18   14.50
   4  -2   0  210.98   14.60
   4  -2   0  194.58   14.60
   4  -2   0  179.28   18.90
   4  -2   0  175.78   14.00
   4  -2   0  169.28   18.60
   4  -2   0  192.08   13.80
   3  -2   0  406.76   29.70
   3  -2   0  387.46   32.80
   3  -2   0  406.66   30.10
   3  -2   0  424.56   29.40
   3  -2   0  433.36   34.60
  -3   2   0  417.26   30.00
  -3   2   0  387.86   30.40
   2  -2   0  312.07   23.00
   2  -2   0  320.37   22.80
   2  -2   0  302.37   24.30
   2  -2   0  307.47   24.50
   2  -2   0  316.87   22.30
  -2   2   0  342.87   23.30
   1  -2   0 1854.81  131.79
   1  -2   0 1890.11  131.69
   1  -2   0 1755.12  134.39
   1  -2   0 1987.10  131.39
  -1   2   0 1859.61  131.79
  -1   2   0 1893.01  131.89
   0  -2   0  433.16   29.80
   0   2   0  344.97   29.20
  -1  -2   0 1472.95  101.39
   1   2   0 1431.96   99.69
   1   2   0 1232.98  101.39
   1   2   0 1510.65   99.89
  -2  -2   0  188.98   16.40
   2   2   0  168.68   12.90
   2   2   0  160.68   13.00
   3   2   0  170.58   12.40
   3   2   0  127.99   11.10
   3   2   0  182.88   12.20
   3   2   0  145.89   12.30
   3   2   0  126.69   16.00
   4   2   0  137.89    9.80
   4   2   0  119.89   10.30
   4   2   0   91.59   13.40
   4   2   0  110.99    8.90
   4   2   0  131.89    9.40
   4   2   0  121.99    9.60
   4   2   0  114.49    8.60
   4   2   0  105.29    9.30
   5   2   0    3.60    1.20
   5   2   0    2.50    0.70
   5   2   0    3.00    1.20
   4  -3   0   36.30    4.10
   4  -3   0   33.00    8.30
   4  -3   0   38.00    4.20
   4  -3   0   37.50    7.20
   4  -3   0   42.70    4.30
   4  -3   0   36.50    4.20
   4  -3   0   41.80    3.50
   4  -3   0   32.90    3.60
  -4   3   0   43.10    3.90
  -4   3   0   41.30    4.10
   3  -3   0  565.64   43.10
   3  -3   0  552.74   39.60
   3  -3   0  538.45   42.50
  -3   3   0  534.95   40.50
  -3   3   0  546.05   39.90
   2  -3   0  112.39    9.20
   2  -3   0  126.69    8.40
   2  -3   0  115.49    9.10
   2  -3   0  122.09   10.30
   2  -3   0  109.99   10.60
  -2   3   0  125.69    9.40
  -2   3   0  123.99    9.70
   1  -3   0 1459.45  103.79
   1  -3   0 1658.43  103.39
   1  -3   0 1509.65  107.09
  -1   3   0 1410.16  103.99
  -1   3   0 1473.35  104.19
  -1   3   0 1329.77  105.99
   0  -3   0  418.26   29.70
   0   3   0  411.26   28.70
   0   3   0  349.47   30.20
  -1  -3   0 1297.27   88.89
   1   3   0 1148.09   86.39
   1   3   0 1215.28   86.69
  -2  -3   0 1356.06   95.49
   2   3   0 1347.97   91.79
   2   3   0 1235.28   91.69
   2   3   0 1233.18   91.99
   3   3   0   10.50    2.40
   3   3   0    9.90    2.40
   3   3   0   11.60    2.50
   3   3   0    6.90    1.70
   3   3   0    7.30    2.40
   3   3   0    6.50    3.70
   3   3   0   13.90    1.50
  -4  -3   0  132.49   12.20
   4   3   0  160.78   12.50
   4   3   0  152.28   12.10
   4   3   0  174.18   12.20
   4   3   0  155.98   11.70
   4   3   0  151.18   12.90
   4   3   0  173.98   12.60
   4   3   0  159.58   11.40
   5   3   0    1.10    1.10
   4  -4   0   56.29    5.30
   4  -4   0   54.49    5.20
   4  -4   0   52.19    4.40
   4  -4   0   50.49    5.30
   4  -4   0   48.80    7.20
   4  -4   0   50.79    5.20
   4  -4   0   51.69    4.90
  -4   4   0   50.99    4.80
  -4   4   0   51.09    5.00
   3  -4   0  159.08   15.00
   3  -4   0  164.18   12.30
   3  -4   0  156.18   12.60
   3  -4   0  159.28   15.30
   3  -4   0  151.78   14.00
   3  -4   0  168.68   12.20
  -3   4   0  155.68   13.80
  -3   4   0  160.08   13.20
   2  -4   0  589.44   40.40
   2  -4   0  555.94   38.40
   2  -4   0  513.35   40.90
   2  -4   0  515.95   39.20
  -2   4   0  552.54   40.00
  -2   4   0  554.54   39.60
   1  -4   0  354.16   26.30
  -1   4   0  348.27   27.20
  -1   4   0  297.07   23.90
  -1   4   0  313.57   24.20
   0  -4   0 1994.70  138.19
   0   4   0 1794.52  139.79
   0   4   0 1969.90  136.89
   0   4   0 1995.10  137.19
  -1  -4   0  143.59   12.00
   1   4   0  181.08   13.10
   1   4   0  136.69   14.70
   1   4   0  171.08   12.60
  -2  -4   0  666.93   48.70
   2   4   0  572.14   44.20
   2   4   0  628.04   44.90
   2   4   0  584.94   44.10
   3   4   0  122.39   10.10
   3   4   0  144.39   11.30
   3   4   0  111.79    9.10
   3   4   0  118.99    9.70
   3   4   0  141.99   10.70
   3   4   0  112.69   10.10
   4   4   0   62.39    5.00
   4   4   0   53.49    6.10
   4   4   0   54.99    5.80
   4   4   0   62.29    5.80
   4   4   0   66.59    5.50
   4   4   0   59.19    5.50
   4   4   0   60.59    4.70
   4   4   0   61.19    5.90
   4  -5   0  123.29   10.60
   4  -5   0  119.89   10.40
   4  -5   0  131.09   10.70
   4  -5   0  133.29   11.90
   4  -5   0  129.09   10.90
   4  -5   0  136.79    9.80
   3  -5   0    3.40    1.40
   3  -5   0    4.40    0.90
   3  -5   0    2.40    2.30
   3  -5   0    4.40    1.70
   3  -5   0    4.80    1.20
   3  -5   0    4.10    1.50
   3  -5   0    1.20    1.80
   3  -5   0    3.00    1.80
   3  -5   0    4.80    1.60
   3  -5   0    3.10    3.10
  -3   5   0    3.90    2.70
   2  -5   0  786.32   59.39
   2  -5   0  900.41   58.29
   2  -5   0  841.22   58.29
  -2   5   0  773.42   58.09
  -2   5   0  728.73   58.49
  -1   5   0  379.36   27.70
  -1   5   0  367.16   28.20
   0  -5   0 4003.30  279.57
   0   5   0 3917.11  278.27
   0   5   0 3841.12  282.17
   0   5   0 4064.59  278.57
  -1  -5   0  709.33   55.89
   1   5   0  850.11   57.39
   1   5   0  727.13   59.19
   1   5   0  849.91   56.79
  -2  -5   0  130.49   10.90
   2   5   0  133.89   11.30
   2   5   0  136.79   11.10
   2   5   0  140.09   11.90
   3   5   0  245.98   18.10
   3   5   0  210.08   15.80
   3   5   0  207.78   15.90
   3   5   0  186.78   16.10
   3   5   0  206.98   15.00
   3   5   0  242.88   16.90
   3   5   0  181.78   15.50
   3   5   0  222.18   16.80
   3   5   0  212.88   16.30
   3   5   0  179.58   15.00
  -4  -5   0   -0.60    1.20
   4   5   0    0.50    1.50
   4   5   0    0.70    1.50
   4   5   0    2.60    1.10
   4   5   0    3.50    2.50
   4   5   0    0.10    1.50
   4   5   0    1.90    1.30
   4   5   0    3.30    1.70
   4   5   0    1.60    0.70
   4  -6   0  105.09    8.90
   4  -6   0  105.99    8.70
   4  -6   0  114.19    9.10
   4  -6   0   91.09    8.20
   4  -6   0   87.49    7.60
   4  -6   0   96.79    8.70
  -4   6   0   75.19    9.30
   3  -6   0   54.39    6.30
   3  -6   0   38.90    4.80
   3  -6   0   44.60    4.90
   3  -6   0   43.60    6.70
   3  -6   0   40.80    3.90
   3  -6   0   38.80    5.60
   3  -6   0   45.70    5.30
   3  -6   0   45.70    5.10
   3  -6   0   44.50    4.70
   3  -6   0   51.89    3.90
   3  -6   0   43.90    6.10
   2  -6   0  522.25   36.20
   2  -6   0  492.45   36.00
   2  -6   0  421.06   34.50
   2  -6   0  512.95   35.90
   1  -6   0  508.55   36.00
  -1   6   0  471.65   37.90
  -1   6   0  509.05   37.30
  -1   6   0  506.15   40.40
   0  -6   0    5.10    1.20
   0   6   0    6.30    1.50
   0   6   0    6.90    1.50
   0   6   0    8.40    3.90
  -1  -6   0 2425.36  175.38
   1   6   0 2556.24  179.48
   1   6   0 2497.65  176.18
   1   6   0 2467.15  175.58
  -2  -6   0    9.70    2.10
   2   6   0   12.90    3.00
   2   6   0   14.50    3.50
   2   6   0   11.30    2.80
   3   6   0  218.48   15.40
   3   6   0  225.18   17.60
   3   6   0  220.28   16.50
   3   6   0  195.48   15.70
   3   6   0  195.18   16.70
   3   6   0  193.98   15.60
   3   6   0  233.08   15.60
   3   6   0  223.68   16.20
   3   6   0  221.58   19.40
  -4  -6   0   58.59    6.20
   4   6   0   70.19    6.20
   4   6   0   69.19    6.00
   4   6   0   55.19    6.30
   4   6   0   67.69    5.30
   4   6   0   77.69    6.20
   4   6   0   75.99    6.80
   4   6   0   69.79    5.50
   4  -7   0   35.70    3.70
   4  -7   0   42.10    4.00
   4  -7   0   37.90    3.60
   4  -7   0   37.40    3.60
  -4   7   0   37.50    4.30
   3  -7   0  275.07   21.80
   3  -7   0  270.57   21.60
   3  -7   0  248.48   21.30
   3  -7   0  260.67   21.40
   3  -7   0  335.57   21.80
   2  -7   0    7.20    2.10
   2  -7   0    4.50    1.70
   2  -7   0    8.30    2.50
   2  -7   0    7.90    1.90
   2  -7   0    5.80    1.20
   2  -7   0    6.60    2.40
  -2   7   0    0.40    3.80
  -2   7   0    9.70    3.50
  -2   7   0    1.20    3.60
   1  -7   0 1267.67   90.29
   1  -7   0 1321.57   90.29
  -1   7   0 1225.48   94.69
  -1   7   0 1235.58   91.29
  -1   7   0 1308.27   90.89
   0   7   0  448.46   31.70
   0   7   0  446.16   31.40
   0   7   0  404.56   35.30
  -1  -7   0  171.08   13.60
   1   7   0  178.18   14.00
   1   7   0  191.98   17.50
   1   7   0  173.58   13.50
  -2  -7   0  247.78   17.30
   2   7   0  217.88   18.50
   2   7   0  229.58   17.10
   2   7   0  203.58   17.70
   2   7   0  212.28   18.80
  -3  -7   0   39.90    4.70
   3   7   0   36.10    4.50
   3   7   0   40.40    3.30
   3   7   0   39.40    3.70
   3   7   0   44.70    6.60
   3   7   0   42.50    6.50
   3   7   0   41.90    4.70
   3   7   0   34.50    4.40
   3   7   0   43.90    3.50
   3   7   0   43.70    4.10
   3   7   0   44.40    3.50
   3   7   0   36.20    5.60
  -4  -7   0  127.99   11.50
   4   7   0  161.38   11.10
   4   7   0  166.18   11.80
   4   7   0  138.39   11.40
   4   7   0  151.58   11.00
   4   7   0  151.08   11.80
   4   7   0  165.88   11.50
   3  -8   0  320.67   24.40
   3  -8   0  328.67   24.40
   3  -8   0  324.87   24.30
   3  -8   0  331.57   24.20
   3  -8   0  339.57   24.70
   3  -8   0  316.27   24.50
   3  -8   0  356.56   23.30
  -3   8   0  297.07   24.80
   2  -8   0  626.74   48.40
   2  -8   0  662.53   49.10
   2  -8   0  674.03   49.40
   2  -8   0  742.73   49.60
   2  -8   0  673.43   49.20
   2  -8   0  728.13   49.50
   2  -8   0  685.23   49.20
  -2   8   0  662.63   49.70
   1  -8   0  127.59   10.00
   1  -8   0  123.79   10.00
  -1   8   0  131.99   10.90
  -1   8   0  128.99   10.40
  -1   8   0  121.29   14.00
   0  -8   0  636.84   48.80
   0   8   0  707.43   49.10
   0   8   0  679.63   53.39
   0   8   0  722.43   49.50
  -1  -8   0   14.50    2.10
  -1  -8   0    8.20    1.40
   1   8   0   12.10    2.00
   1   8   0   13.00    2.40
   1   8   0   14.10    4.70
   2   8   0  595.84   40.50
   2   8   0  483.05   41.80
   2   8   0  518.15   40.40
   2   8   0  609.04   40.40
   2   8   0  549.25   40.00
   2   8   0  570.14   42.20
   3   8   0   68.89    5.40
   3   8   0   73.09    6.20
   3   8   0   67.59    6.50
   3   8   0   71.39    6.40
   3   8   0   68.29    5.80
   3   8   0   76.09    8.20
   3   8   0   67.29    8.00
   3   8   0   74.39    6.40
   3   8   0   67.29    5.90
  -4  -8   0   45.80    4.10
   4   8   0   46.60    4.30
   4   8   0   44.40    3.70
   4   8   0   49.99    4.00
   4   8   0   48.10    3.80
   4   8   0   52.89    3.90
   4   8   0   57.39    5.40
   4   8   0   52.39    4.10
   3  -9   0    3.60    1.10
  -3   9   0    4.00    1.90
  -3   9   0    1.60    1.60
   2  -9   0  211.68   16.70
   2  -9   0  213.88   16.60
   2  -9   0  234.08   16.50
   2  -9   0  209.88   15.90
  -2   9   0  207.38   16.50
  -2   9   0  239.98   16.90
   1  -9   0   23.80    3.00
   1  -9   0   25.50    2.90
  -1   9   0   27.20    2.90
  -1   9   0   22.50    3.30
  -1   9   0   28.10    3.00
   0  -9   0  496.65   37.20
   0   9   0  527.75   37.20
   0   9   0  543.55   37.30
   0   9   0  523.95   37.50
   0   9   0  508.95   37.80
  -1  -9   0  191.98   13.80
  -1  -9   0  179.88   13.10
   1   9   0  182.88   13.30
   1   9   0  178.08   13.20
   1   9   0  165.78   14.70
   1   9   0  167.78   13.40
   1   9   0  170.28   13.80
  -2  -9   0   71.89    6.00
   2   9   0   63.29    5.50
   2   9   0   58.19    7.00
   2   9   0   63.39    5.60
   2   9   0   52.19    7.10
   3   9   0  131.09   12.90
   3   9   0  165.48   11.80
   3   9   0  144.99   13.20
   3   9   0  166.58   12.00
   3   9   0  158.88   11.70
  -3  10   0   28.40    2.80
   2 -10   0   78.79    6.80
   2 -10   0   79.39    6.90
   2 -10   0   83.09    6.40
  -2  10   0   88.79    7.00
  -2  10   0   83.89    6.80
   1 -10   0  124.29    9.80
  -1  10   0  125.79    9.60
  -1  10   0  124.59    9.60
   0 -10   0   24.40    2.60
   0  10   0   26.00    2.60
   0  10   0   26.50    2.80
  -1 -10   0  287.37   21.40
  -1 -10   0  293.77   20.90
   1  10   0  276.87   20.90
   1  10   0  291.47   20.90
   2  10   0    4.60    1.40
   2  10   0    2.40    1.50
   2  10   0    1.60    1.20
   2  10   0    4.40    2.40
   3  10   0   53.09    4.20
   3  10   0   43.30    5.00
   3  10   0   51.79    4.20
   2 -11   0   26.80    2.40
  -2  11   0   23.90    2.70
  -2  11   0   25.20    2.60
  -1  11   0  405.26   29.10
  -1  11   0  405.86   29.10
   0 -11   0    4.40    1.10
   0  11   0    6.50    1.40
   0  11   0    6.80    1.60
  -1 -11   0  138.89   10.00
   1  11   0  125.19    9.90
   1  11   0  133.09   10.00
   2  11   0   73.89    5.80
   2  11   0   71.69    5.80
   3  11   0   22.10    2.50
  -2  12   0   20.60    1.90
  -1  12   0   98.69    7.40
  -1  12   0   95.89    7.40
   0 -12   0  116.89    9.10
   0  12   0  121.39    9.10
   0  12   0  126.39    9.10
  -1 -12   0   31.20    2.80
   1  12   0   29.60    2.80
   1  12   0   29.10    2.80
   2  12   0  117.99    8.70
   2  12   0  118.49    8.70
  -1  13   0    0.70    0.90
   0  13   0  155.18   10.80
   0  13   0  142.09   10.80
   1  13   0   28.40    2.50
   1  13   0   30.20    2.50
   1  13  -1   65.59    5.00
   0  13  -1   64.49    4.90
   2  12  -1   93.59    7.10
   2  12  -1   99.79    7.20
   1  12  -1   12.10    1.60
   1  12  -1   10.00    1.60
  -1 -12   1   13.80    1.60
   0  12  -1  290.37   20.60
   0 -12   1  281.67   20.60
  -1  12  -1   17.60    2.00
   2  11  -1  169.28   12.40
   2  11  -1  170.68   12.50
   1  11  -1   85.59    6.90
   1  11  -1   87.09    6.90
  -1 -11   1   94.09    6.90
   0  11  -1  220.28   15.70
   0  11  -1  212.88   15.60
   0 -11   1  208.68   15.60
  -1  11  -1  208.28   15.30
  -2  11  -1   34.90    3.10
   2 -11   1   32.40    2.80
   3  10  -1   20.90    2.10
   3  10  -1   18.70    3.10
   3  10  -1   21.50    2.10
   3  10  -1   15.10    2.70
   2  10  -1   11.00    1.80
   2  10  -1    7.60    2.80
   2  10  -1   11.40    1.80
   2  10  -1    7.40    2.50
   1  10  -1  408.36   30.70
   1  10  -1  431.36   30.70
  -1 -10   1  430.56   31.20
  -1 -10   1  442.26   30.70
   0  10  -1   18.00    2.10
   0  10  -1   15.70    2.00
   0 -10   1   14.80    1.90
  -1  10  -1  252.27   18.30
  -1  10  -1  253.77   18.30
   1 -10   1  242.08   18.50
  -2  10  -1   40.00    3.70
   2 -10   1   35.30    3.60
   2 -10   1   32.00    3.50
   2 -10   1   36.70    3.20
  -3  10  -1   98.39    7.40
   3   9  -1  322.17   22.30
   3   9  -1  283.87   23.50
   3   9  -1  270.27   23.30
   3   9  -1  320.77   22.40
   3   9  -1  320.17   22.10
   2   9  -1    1.70    1.20
   2   9  -1    1.80    2.40
   2   9  -1    3.00    1.30
   2   9  -1    1.40    2.00
  -2  -9   1    1.30    1.10
   1   9  -1  143.19   10.40
   1   9  -1  139.89   10.70
   1   9  -1  113.89   11.50
   1   9  -1  118.49   11.90
   1   9  -1  145.79   10.50
  -1  -9   1  145.69   10.80
  -1  -9   1  147.39   10.30
   0   9  -1  161.88   12.90
   0   9  -1  175.68   12.50
   0   9  -1  167.38   12.40
   0   9  -1  166.38   12.60
   0  -9   1  161.88   12.30
  -1   9  -1  310.87   22.30
  -1   9  -1  318.87   22.50
  -1   9  -1  297.27   22.60
   1  -9   1  311.47   22.60
   1  -9   1  296.97   22.50
  -2   9  -1  337.77   24.70
  -2   9  -1  371.26   25.00
   2  -9   1  320.27   24.10
   2  -9   1  335.37   24.90
   2  -9   1  322.27   24.70
  -3   9  -1   14.50    2.50
   3  -9   1   13.70    1.40
   3  -9   1   11.00    2.60
   4   8  -1   34.90    2.60
   4   8  -1   34.20    2.80
   4   8  -1   33.80    2.90
   4   8  -1   33.40    2.90
   4   8  -1   31.00    2.50
   4   8  -1   33.70    4.00
   3   8  -1   35.00    2.90
   3   8  -1   26.40    5.00
   3   8  -1   37.10    3.60
   3   8  -1   35.70    4.10
   3   8  -1   32.90    3.60
   3   8  -1   33.20    3.10
   3   8  -1   31.20    2.80
   3   8  -1   38.30    3.40
   3   8  -1   32.50    4.60
   3   8  -1   32.10    5.30
   2   8  -1  275.07   24.50
   2   8  -1  321.37   23.10
   2   8  -1  307.67   22.80
   2   8  -1  324.37   23.20
   2   8  -1  279.67   23.10
   2   8  -1  301.97   24.80
  -2  -8   1  358.86   23.40
   1   8  -1  263.07   20.60
   1   8  -1  284.57   24.30
   1   8  -1  287.17   20.30
  -1  -8   1  269.67   20.40
  -1  -8   1  269.07   19.90
   0   8  -1  850.81   65.19
   0   8  -1  895.31   60.99
   0   8  -1  900.31   61.39
   0  -8   1  781.82   60.69
  -1   8  -1    7.50    3.80
  -1   8  -1   10.70    2.20
  -1   8  -1    5.10    2.10
   1  -8   1    4.40    1.20
   1  -8   1    6.60    1.40
  -2   8  -1  394.56   30.30
   2  -8   1  400.66   29.60
   2  -8   1  397.36   30.00
   2  -8   1  433.76   30.00
   2  -8   1  463.35   30.20
   2  -8   1  416.96   29.90
   2  -8   1  392.76   29.80
   2  -8   1  360.26   29.10
  -3   8  -1   33.10    4.80
   3  -8   1   35.40    3.70
   3  -8   1   41.00    4.10
   3  -8   1   31.80    4.10
   3  -8   1   36.20    3.80
   3  -8   1   32.70    4.00
   3  -8   1   39.00    3.10
   3  -8   1   32.80    3.80
   4   7  -1   52.89    4.10
   4   7  -1   50.19    4.70
   4   7  -1   54.19    4.70
   4   7  -1   49.70    4.30
   4   7  -1   49.00    3.90
   4   7  -1   55.19    4.40
  -4  -7   1   44.40    4.40
   3   7  -1   13.40    2.40
   3   7  -1   10.40    2.40
   3   7  -1   13.10    2.10
   3   7  -1    8.30    3.20
   3   7  -1   12.50    2.50
   3   7  -1    9.20    3.50
   3   7  -1   12.20    3.80
   3   7  -1   12.60    1.60
   3   7  -1   10.90    1.80
   3   7  -1    7.80    2.80
  -3  -7   1    9.50    2.20
   2   7  -1  374.06   31.20
   2   7  -1  447.26   32.70
   2   7  -1  378.56   32.00
   2   7  -1  445.66   32.30
   2   7  -1  421.66   30.90
  -2  -7   1  461.35   31.10
   1   7  -1  171.68   13.10
   1   7  -1  155.98   12.60
   1   7  -1  168.88   16.40
  -1  -7   1  166.18   12.70
   0   7  -1  290.37   20.50
   0   7  -1  262.07   24.20
   0   7  -1  283.67   20.80
  -1   7  -1  646.04   50.99
  -1   7  -1  657.83   47.90
  -1   7  -1  649.43   47.30
   1  -7   1  655.83   47.00
   1  -7   1  664.83   46.90
  -2   7  -1   36.70    8.00
  -2   7  -1   45.90    7.40
  -2   7  -1   53.49    6.70
   2  -7   1   49.70    5.10
   2  -7   1   53.49    4.40
   2  -7   1   62.39    5.40
   2  -7   1   57.39    5.90
   2  -7   1   51.79    5.70
   2  -7   1   58.59    5.40
  -3   7  -1  297.37   27.70
   3  -7   1  389.56   25.40
   3  -7   1  396.06   27.00
   3  -7   1  368.16   27.20
   3  -7   1  311.27   26.40
   3  -7   1  333.07   26.90
   3  -7   1  345.07   27.20
   3  -7   1  397.16   26.80
  -4   7  -1    4.70    2.10
   4  -7   1    4.30    1.60
   4   6  -1   51.09    4.00
   4   6  -1   59.59    4.90
   4   6  -1   47.40    4.60
   4   6  -1   53.59    5.20
   4   6  -1   54.19    4.30
   4   6  -1   39.80    4.90
   4   6  -1   49.70    4.90
  -4  -6   1   37.60    4.60
   3   6  -1   28.20    3.30
   3   6  -1   22.60    2.50
   3   6  -1   29.30    2.60
   3   6  -1   26.60    3.80
   3   6  -1   20.60    2.60
   3   6  -1   23.30    3.60
   3   6  -1   22.50    4.30
   3   6  -1   31.90    4.10
   3   6  -1   27.90    5.30
   2   6  -1  209.78   17.20
   2   6  -1  202.58   17.10
   2   6  -1  195.08   17.70
  -2  -6   1  245.48   16.60
   1   6  -1  878.81   65.69
   1   6  -1  859.71   62.39
   1   6  -1  866.01   62.79
   1   6  -1  848.72   61.89
  -1  -6   1  877.51   61.79
   0   6  -1  135.39   14.00
   0   6  -1  151.38   10.90
   0   6  -1  150.08   10.60
   0  -6   1  119.29   10.40
  -1   6  -1  669.23   52.59
  -1   6  -1  692.03   49.60
  -1   6  -1  648.44   50.09
   1  -6   1  714.23   48.80
   2  -6   1   37.90    3.40
   2  -6   1   38.70    4.50
   2  -6   1   41.20    4.40
   3  -6   1  150.08   10.10
   3  -6   1  124.99   11.90
   3  -6   1  133.89   11.40
   3  -6   1  148.09   12.20
   3  -6   1  115.19   11.00
   3  -6   1  135.79   11.20
   3  -6   1  161.68   12.00
   3  -6   1  119.09   10.70
   4  -6   1  173.68   13.60
   4  -6   1  180.48   14.00
   4  -6   1  181.88   14.30
   4  -6   1  173.58   14.10
   4  -6   1  172.98   14.00
   4   5  -1   40.80    4.70
   4   5  -1   44.10    3.60
   4   5  -1   41.70    3.80
   4   5  -1   41.00    4.40
   4   5  -1   51.09    7.80
   4   5  -1   40.60    4.50
   4   5  -1   37.50    4.60
   4   5  -1   48.10    4.50
   3   5  -1   98.29    8.30
   3   5  -1   97.39    9.20
   3   5  -1  127.99    9.90
   3   5  -1  104.69    8.30
   3   5  -1  103.39    9.70
   3   5  -1  126.89    9.40
   3   5  -1   99.39    8.80
   3   5  -1  124.09    9.70
   3   5  -1  107.49    8.10
   2   5  -1   12.50    2.50
   2   5  -1   12.30    2.60
   2   5  -1   13.50    3.00
  -2  -5   1    8.20    1.90
   1   5  -1  597.84   52.99
   1   5  -1  774.62   51.49
   1   5  -1  787.52   50.89
  -1  -5   1  641.64   49.99
   0   5  -1  227.48   15.30
   0   5  -1  193.18   18.50
   0   5  -1  228.28   15.60
   0  -5   1  172.38   15.00
  -1   5  -1  537.65   38.00
  -1   5  -1  499.35   38.40
   2  -5   1  402.16   29.30
   2  -5   1  340.57   32.00
   2  -5   1  405.16   29.10
   2  -5   1  408.46   29.40
  -3   5  -1  106.89   11.20
  -3   5  -1  124.89   10.60
  -3   5  -1  111.39   10.20
   3  -5   1  117.09   11.20
   3  -5   1  119.59   12.50
   3  -5   1  139.89   10.70
   3  -5   1  122.79   10.00
   3  -5   1  114.49   11.70
   3  -5   1  122.59   10.20
   3  -5   1  139.79   10.50
   3  -5   1  132.69   11.40
   3  -5   1  126.19    9.50
   3  -5   1  152.08    9.60
   3  -5   1  134.89   11.40
   4  -5   1  120.59   10.50
   4  -5   1  105.49    9.00
   4  -5   1  112.19    8.60
   4  -5   1  111.99    9.40
   4  -5   1  110.29    9.40
   4  -5   1  110.19    9.60
   4   4  -1    0.50    1.30
   4   4  -1    0.50    1.50
   4   4  -1    2.00    1.10
   4   4  -1   -1.30    1.40
   4   4  -1    0.00    1.20
   4   4  -1    0.80    1.20
   4   4  -1    2.50    2.40
   4   4  -1    3.60    0.80
   4   4  -1    1.80    1.50
  -4  -4   1   -0.30    1.00
   3   4  -1  526.05   35.10
   3   4  -1  416.46   34.60
   3   4  -1  494.25   35.90
   3   4  -1  468.65   35.10
   3   4  -1  471.85   34.50
   2   4  -1  251.07   19.20
   2   4  -1  257.17   18.50
   2   4  -1  249.68   18.70
  -2  -4   1  227.48   18.50
   1   4  -1  261.27   23.80
   1   4  -1  287.37   21.30
   1   4  -1  303.17   21.80
  -1  -4   1  284.27   20.90
   0   4  -1 1212.98   95.59
   0   4  -1 1309.67   92.49
   0   4  -1 1365.26   92.79
   0  -4   1 1339.27   93.19
  -2   4  -1  759.32   56.89
  -2   4  -1  763.12   56.49
   2  -4   1  779.02   57.79
   2  -4   1  755.82   55.39
   2  -4   1  859.61   57.49
   2  -4   1  823.82   56.99
  -3   4  -1  100.89   10.30
  -3   4  -1  112.99    9.90
   3  -4   1  117.99    9.30
   3  -4   1  108.99   11.40
   3  -4   1  110.99    8.90
   3  -4   1  113.39    8.80
   3  -4   1  105.69   11.40
   3  -4   1  128.79    8.70
   3  -4   1  103.19   10.50
  -4   4  -1  153.68   12.40
  -4   4  -1  158.68   12.70
   4  -4   1  167.68   12.90
   4  -4   1  161.38   12.70
   4  -4   1  156.68   12.30
   4  -4   1  170.88   12.00
   4  -4   1  164.48   12.50
   4  -4   1  167.58   13.10
   4  -4   1  151.28   14.40
   4   3  -1   69.69    7.20
   4   3  -1   83.79    7.10
   4   3  -1   94.39    6.30
   4   3  -1   93.89    7.40
   4   3  -1   83.49    7.60
   4   3  -1   89.09    6.70
  -4  -3   1   71.19    7.00
   3   3  -1    6.70    2.10
   3   3  -1    6.00    1.60
   3   3  -1    7.00    2.20
   3   3  -1    9.00    2.20
   3   3  -1    8.80    2.30
   2   3  -1 1684.83  126.99
   2   3  -1 1854.81  126.59
   2   3  -1 1649.04  126.69
  -2  -3   1 1980.50  130.39
   1   3  -1   33.00    3.10
   1   3  -1   21.40    2.60
   1   3  -1   18.40    5.10
  -1  -3   1   28.20    4.20
   0   3  -1 1974.90  139.19
   0   3  -1 1824.72  141.89
   0   3  -1 2040.80  139.49
   0  -3   1 2053.99  139.69
  -1   3  -1  384.66   29.10
  -1   3  -1  417.26   32.10
  -1   3  -1  389.56   29.30
   1  -3   1  436.06   28.50
  -2   3  -1  726.53   51.99
  -2   3  -1  712.83   52.29
   2  -3   1  749.82   51.19
   2  -3   1  709.43   53.29
   2  -3   1  771.12   53.29
   2  -3   1  705.53   51.79
  -3   3  -1  470.25   36.20
  -3   3  -1  475.55   35.60
   3  -3   1  498.15   38.10
   3  -3   1  481.35   35.30
   3  -3   1  459.65   35.20
   3  -3   1  520.55   35.00
   3  -3   1  510.55   38.80
  -4   3  -1    6.00    1.80
  -4   3  -1    5.50    2.10
   4  -3   1    3.70    1.60
   4  -3   1    6.90    1.80
   4  -3   1    4.30    1.00
   4  -3   1    5.50    1.80
   4  -3   1    0.70    2.00
   4  -3   1    7.20    6.00
   4  -3   1    4.60    1.60
   4  -3   1    5.40    3.30
   4  -3   1    5.50    1.40
   5   2  -1    1.10    1.00
   5   2  -1   -1.30    1.00
   5   2  -1   -0.80    0.60
   4   2  -1  129.59   11.00
   4   2  -1  128.79    9.70
   4   2  -1  123.69   10.00
   4   2  -1  149.88   10.60
   4   2  -1  116.69   10.30
   4   2  -1  151.18   10.70
   3   2  -1  144.39   11.90
   3   2  -1  148.59   11.50
   3   2  -1  135.29   11.30
   2   2  -1  102.39    7.40
   2   2  -1   78.79    7.10
   2   2  -1   86.39    7.40
  -2  -2   1   95.19   10.10
   1   2  -1  723.53   54.99
   1   2  -1  801.02   56.89
   1   2  -1  743.73   55.19
  -1  -2   1  843.62   56.49
   0   2  -1  228.18   19.10
   0  -2   1  232.38   17.00
  -1   2  -1 1942.91  143.59
  -1   2  -1 2002.40  141.29
  -1   2  -1 2053.69  141.49
  -1   2  -1 1702.33  143.49
   1  -2   1 2066.69  141.39
   1  -2   1 2197.18  140.99
   1  -2   1 2087.19  141.29
  -2   2  -1   69.79    5.70
  -2   2  -1   71.79    5.50
   2  -2   1   65.49    6.70
   2  -2   1   62.99    6.70
   2  -2   1   66.59    5.30
   2  -2   1   66.89    5.40
   2  -2   1   65.39    4.80
  -3   2  -1  381.26   29.50
  -3   2  -1  380.36   29.00
   3  -2   1  381.06   29.10
   3  -2   1  437.36   33.80
   3  -2   1  388.56   28.80
   3  -2   1  418.76   28.80
   3  -2   1  402.26   31.90
   4  -2   1   50.79    8.90
   4  -2   1   56.29    5.10
   4  -2   1   61.49    5.10
   4  -2   1   54.69    4.70
   4  -2   1   51.79    5.30
   4  -2   1   49.10    8.70
   4  -2   1   55.89    4.40
   4  -2   1   54.89    5.20
   5   1  -1   31.60    3.20
   5   1  -1   33.90    3.40
   4   1  -1   49.00   10.10
   4   1  -1   61.19    5.00
   4   1  -1   45.00    4.70
   4   1  -1   47.20    5.60
   4   1  -1   60.89    5.20
   4   1  -1   53.39    4.10
   4   1  -1   51.39    4.40
   3   1  -1  182.78   14.50
   3   1  -1  178.38   14.80
   3   1  -1  206.78   15.10
   2   1  -1  150.48   11.20
   2   1  -1  119.39   12.80
   2   1  -1  153.28   11.00
  -2  -1   1  159.78   14.20
   1   1  -1 4304.87  295.87
   1   1  -1 3912.01  295.87
  -1  -1   1 4404.96  296.97
  -1   1  -1   32.30    4.30
   1  -1   1   30.20    2.20
   1  -1   1   30.70    2.40
  -2   1  -1  408.36   37.30
   2  -1   1  496.35   35.20
   2  -1   1  489.65   33.60
   2  -1   1  459.85   33.00
   2  -1   1  491.15   33.40
  -3   1  -1   61.09    5.80
   3  -1   1   64.49    5.30
   3  -1   1   61.59    8.40
   3  -1   1   59.19   10.10
   3  -1   1   62.09    5.50
   3  -1   1   51.59    6.40
   3  -1   1   63.79    5.50
  -4   1  -1  249.88   19.20
   4  -1   1  261.77   18.60
   4  -1   1  230.48   19.20
   4  -1   1  250.67   18.90
   4  -1   1  278.97   19.30
   4  -1   1  271.47   19.30
   4  -1   1  277.77   19.50
   4  -1   1  265.07   25.10
   4  -1   1  258.57   23.80
   4  -1   1  256.87   19.70
  -5   1  -1    2.70    1.10
  -5   1  -1    3.20    1.50
   5  -1   1   -0.50    0.70
   5  -1   1   -0.60    1.00
   5   0  -1   40.50    3.80
   5   0  -1   38.20    3.90
  -5   0   1   42.70    4.40
  -5   0   1   29.60    3.70
   4   0  -1    0.90    1.30
   4   0  -1    1.90    1.20
   4   0  -1   -0.20    5.20
   4   0  -1    1.30    1.80
   4   0  -1    1.20    0.90
   4   0  -1    1.50    1.30
   3   0  -1  448.06   40.10
   3   0  -1  528.25   35.90
   3   0  -1  487.95   36.30
   3   0  -1  502.85   36.10
   2   0  -1  205.88   14.00
   2   0  -1  165.78   15.70
   2   0  -1  195.98   14.10
  -2   0   1  190.98   17.30
   1   0  -1  679.93   49.30
  -1   0   1  718.53   50.99
   0   0  -1  596.94   48.70
   0   0  -1  738.63   46.90
  -1   0  -1  625.84   44.00
   1   0   1  567.14   42.10
  -2   0  -1 1168.68   88.29
   2   0   1 1223.38   84.09
   2   0   1 1202.98   84.29
   2   0   1 1174.08   85.99
   3   0   1    3.50    1.20
   3   0   1    5.90    6.50
   3   0   1    1.50    1.70
   3   0   1    1.40    2.90
   3   0   1    2.30    1.10
   3   0   1    2.80    1.10
   4   0   1   93.79   12.80
   4   0   1   82.79    9.40
   4   0   1  111.49    8.40
   4   0   1  116.19    8.30
   4   0   1   93.29    8.10
   4   0   1  101.39    7.80
   4   0   1  103.99    7.50
   4   0   1  104.49    8.10
   4   0   1  101.49   14.40
  -5   0  -1   49.30    4.70
  -5   0  -1   55.29    4.90
   5   0   1   56.69    4.90
   5   0   1   62.99    4.30
   5   0   1   53.89    6.10
   5   0   1   51.79    4.60
   5  -1  -1   49.70    3.90
   5  -1  -1   47.90    4.50
   4  -1  -1   49.60    4.60
   4  -1  -1   44.10    4.10
   4  -1  -1   34.30    8.30
   4  -1  -1   51.09    3.90
   4  -1  -1   57.79    5.00
   4  -1  -1   46.90   10.90
   3  -1  -1   55.19    6.40
   3  -1  -1   70.59    6.10
   3  -1  -1   76.29   12.30
   3  -1  -1   60.99    9.20
   3  -1  -1   71.59    5.80
   2  -1  -1 1045.00   79.89
   2  -1  -1 1225.98   77.99
   2  -1  -1 1205.78   78.19
  -2   1   1  932.21   81.49
   1  -1  -1   18.00    3.50
   1  -1  -1   21.00    1.90
   1  -1  -1   25.10    2.00
   0  -1  -1  620.44   48.30
  -1  -1  -1  429.86   31.10
   1   1   1  390.66   29.20
  -2  -1  -1  437.16   33.00
   2   1   1  396.06   28.80
   2   1   1  365.36   30.70
   2   1   1  405.06   28.60
   3   1   1  296.77   23.10
   3   1   1  289.27   27.10
   3   1   1  324.27   24.00
   3   1   1  338.57   23.80
   3   1   1  350.46   23.60
   4   1   1   49.40    6.70
   4   1   1   59.99    5.10
   4   1   1   60.29    4.70
   4   1   1   57.29    6.90
   4   1   1   67.89    5.70
   4   1   1   74.49    5.70
   4   1   1   57.29    5.40
   4   1   1   58.89   10.70
   4   1   1   64.99    5.40
  -5  -1  -1   69.09    6.00
  -5  -1  -1   72.49    6.10
   5   1   1   78.39    6.20
   5   1   1   74.39    5.80
   5   1   1   79.19    5.60
   5   1   1   65.49    6.60
   4  -2  -1  249.28   19.20
   4  -2  -1  292.07   19.40
   4  -2  -1  263.07   18.40
   4  -2  -1  228.28   18.60
   4  -2  -1  263.27   24.70
   4  -2  -1  263.97   19.10
   4  -2  -1  226.98   23.70
   3  -2  -1    8.20    2.70
   3  -2  -1   13.30    5.20
   3  -2  -1   13.70    4.80
   3  -2  -1   12.40    2.50
   3  -2  -1   14.00    2.20
  -3   2   1   16.80    3.10
  -3   2   1   15.70    2.80
   2  -2  -1  349.87   24.70
   2  -2  -1  342.67   24.90
   2  -2  -1  341.77   24.10
   2  -2  -1  312.47   26.40
   2  -2  -1  341.87   26.30
  -2   2   1  369.16   25.20
   1  -2  -1  561.24   37.20
   1  -2  -1  510.25   37.60
   1  -2  -1  519.75   37.50
  -1   2   1  546.65   38.40
  -1   2   1  524.15   37.60
  -1   2   1  519.85   37.70
   0  -2  -1 2181.98  140.09
   0   2   1 1665.73  135.39
  -1  -2  -1 1109.99   79.99
   1   2   1 1127.99   77.79
   1   2   1 1069.49   77.89
  -2  -2  -1    8.10    3.40
   2   2   1    9.10    1.40
   2   2   1    6.60    2.80
   2   2   1   12.30    1.60
   3   2   1  483.05   37.00
   3   2   1  568.74   36.70
   3   2   1  425.76   40.30
   3   2   1  489.45   36.00
   3   2   1  548.55   36.90
   4   2   1   18.50    2.40
   4   2   1   18.20    2.20
   4   2   1   14.20    7.10
   4   2   1   16.80    3.70
   4   2   1   16.90    2.50
   4   2   1   19.90    2.90
   4   2   1   21.10    1.80
   4   2   1   19.50    3.90
   4   2   1   19.10    2.80
   5   2   1   29.80    3.10
   5   2   1   32.20    3.00
   4  -3  -1  147.89   12.20
   4  -3  -1  160.08   16.00
   4  -3  -1  161.38   12.80
   4  -3  -1  140.09   17.90
   4  -3  -1  183.28   13.10
   4  -3  -1  164.68   12.80
   4  -3  -1  173.58   12.00
   3  -3  -1  215.28   15.50
   3  -3  -1  198.08   15.80
   3  -3  -1  188.18   18.50
   3  -3  -1  199.98   18.90
  -3   3   1  207.88   15.90
  -3   3   1  199.78   16.40
   2  -3  -1  456.65   33.70
   2  -3  -1  427.96   35.30
   2  -3  -1  427.16   34.50
   2  -3  -1  486.25   32.80
   2  -3  -1  475.05   33.50
  -2   3   1  506.65   33.80
  -2   3   1  489.05   34.10
   1  -3  -1  584.74   40.00
   1  -3  -1  594.94   39.60
   1  -3  -1  487.45   43.30
  -1   3   1  552.44   41.50
  -1   3   1  571.74   40.30
  -1   3   1  579.54   40.20
   0  -3  -1   66.59    7.80
   0   3   1   51.69    6.00
   0   3   1   69.29    5.80
  -1  -3  -1 1305.97   97.69
   1   3   1 1396.16   94.79
   1   3   1 1312.07   94.89
  -2  -3  -1  202.28   19.00
   2   3   1  183.38   15.40
   2   3   1  236.68   15.80
   2   3   1  197.68   15.30
   3   3   1  235.98   15.90
   3   3   1  204.38   14.60
   3   3   1  177.18   15.00
   3   3   1  196.88   15.90
   3   3   1  182.98   19.10
  -4  -3  -1  137.09   11.90
   4   3   1  168.78   12.30
   4   3   1  149.69   12.80
   4   3   1  152.88   11.10
   4   3   1  151.68   11.80
   4   3   1  135.39   12.00
   4   3   1  134.09   15.40
   4   3   1  170.58   12.60
   4   3   1  157.68   11.40
   4   3   1  161.48   11.70
   5   3   1   16.30    2.20
   5   3   1   17.30    2.20
   4  -4  -1    6.60    2.00
   4  -4  -1    9.10    2.40
   4  -4  -1    8.40    2.10
   4  -4  -1    5.60    3.30
   3  -4  -1  620.84   48.60
   3  -4  -1  695.43   49.40
   3  -4  -1  722.13   49.90
   3  -4  -1  672.03   52.89
   3  -4  -1  718.43   49.50
   3  -4  -1  696.33   52.39
  -3   4   1  676.43   50.99
  -3   4   1  716.43   50.39
   2  -4  -1   21.00    3.10
   2  -4  -1   13.50    3.70
   2  -4  -1   11.30    2.00
   2  -4  -1   14.80    1.10
   2  -4  -1   16.40    2.10
  -2   4   1   16.10    3.00
  -2   4   1   17.70    2.70
   1  -4  -1  899.11   66.49
  -1   4   1  853.51   65.69
  -1   4   1  929.81   64.19
  -1   4   1  903.61   63.89
   0  -4  -1  753.52   56.49
   0   4   1  768.42   54.39
   0   4   1  771.02   54.69
  -1  -4  -1  144.89   16.30
   1   4   1  179.78   13.10
   1   4   1  132.99   14.70
   1   4   1  158.98   12.30
  -2  -4  -1 1085.99   78.59
   2   4   1 1055.49   73.79
   2   4   1 1043.10   73.69
   2   4   1  943.41   73.79
   3   4   1    3.30    1.80
   3   4   1    2.40    0.80
   3   4   1    3.60    2.20
   3   4   1    2.80    1.60
   3   4   1    2.60    1.50
   3   4   1    4.30    1.90
   3   4   1    1.60    1.40
   4   4   1  105.09    8.40
   4   4   1   92.19    8.70
   4   4   1  106.79    7.90
   4   4   1   93.49    8.60
   4   4   1   95.99    9.20
   4   4   1  114.89    8.90
   4   4   1  101.39    7.60
   4   4   1  105.99    8.90
   4   4   1  107.39    8.20
   4  -5  -1   67.49    6.70
   4  -5  -1   71.19    6.70
   4  -5  -1   72.69    6.70
   4  -5  -1   77.59    6.00
   4  -5  -1   70.99    8.00
   4  -5  -1   66.89    6.80
   3  -5  -1  248.58   18.40
   3  -5  -1  198.48   18.70
   3  -5  -1  243.78   20.40
   3  -5  -1  269.47   18.60
   3  -5  -1  258.37   17.70
   3  -5  -1  244.58   21.80
   3  -5  -1  262.27   18.50
   3  -5  -1  231.58   19.60
   3  -5  -1  268.87   17.50
   3  -5  -1  214.18   20.70
  -3   5   1  213.08   19.40
   2  -5  -1  656.23   47.90
   2  -5  -1  570.74   45.80
   2  -5  -1  605.84   45.80
  -2   5   1  685.03   46.30
  -2   5   1  651.23   46.80
   1  -5  -1  359.46   28.80
   1  -5  -1  433.96   30.10
  -1   5   1  385.96   30.40
  -1   5   1  353.96   27.60
  -1   5   1  328.07   27.90
   0  -5  -1 2908.31  209.18
   0   5   1 2956.80  207.28
   0   5   1 2965.90  207.58
  -1  -5  -1  108.49   15.00
  -1  -5  -1  107.19    9.40
   1   5   1  144.29   10.60
   1   5   1  134.79   13.50
  -2  -5  -1  339.07   32.30
   2   5   1  320.87   25.10
   2   5   1  340.17   25.40
   2   5   1  338.87   25.70
   3   5   1  193.48   14.70
   3   5   1  161.28   12.90
   3   5   1  153.38   12.50
   3   5   1  172.08   13.60
   3   5   1  155.48   12.80
   3   5   1  196.58   14.30
   3   5   1  163.08   13.30
   3   5   1  176.78   13.70
   4   5   1   45.10    4.40
   4   5   1   44.80    4.70
   4   5   1   41.60    3.50
   4   5   1   35.00    4.40
   4   5   1   46.20    4.00
   4   5   1   38.00    4.70
   4   5   1   44.20    3.80
   4  -6  -1   44.60    5.20
   4  -6  -1   42.20    5.00
   4  -6  -1   46.20    4.10
   4  -6  -1   45.70    5.00
   4  -6  -1   38.50    5.00
   4  -6  -1   55.29    5.70
  -4   6   1   30.90    6.00
   3  -6  -1   15.50    3.10
   3  -6  -1   15.10    2.80
   3  -6  -1   17.50    2.20
   3  -6  -1   12.80    3.10
   3  -6  -1   18.80    3.10
   3  -6  -1   11.30    3.30
   3  -6  -1    9.20    2.90
   3  -6  -1   13.80    4.40
   3  -6  -1   16.60    3.00
   3  -6  -1   18.80    2.10
   3  -6  -1    9.70    3.00
   2  -6  -1  830.42   54.69
   2  -6  -1  657.53   56.89
   2  -6  -1  805.52   53.09
   2  -6  -1  694.83   55.49
   1  -6  -1  442.76   29.70
   1  -6  -1  432.06   32.20
  -1   6   1  396.46   30.70
  -1   6   1  414.76   34.20
  -1   6   1  339.77   31.10
   0  -6  -1  179.78   14.00
   0  -6  -1  191.08   15.80
   0   6   1  165.58   17.30
   0   6   1  188.48   13.80
   0   6   1  185.48   14.00
  -1  -6  -1  258.97   20.20
   1   6   1  267.67   23.90
   1   6   1  289.27   21.40
   1   6   1  269.37   20.50
  -2  -6  -1  107.89    9.20
   2   6   1  105.99    9.90
   2   6   1   98.69    9.70
   2   6   1  128.09   11.10
   3   6   1  202.08   16.50
   3   6   1  256.87   18.90
   3   6   1  219.48   17.10
   3   6   1  267.87   18.10
   3   6   1  227.98   16.40
   3   6   1  247.08   18.70
   3   6   1  210.08   17.70
   3   6   1  222.18   17.00
   3   6   1  230.58   16.70
   3   6   1  204.88   16.40
  -4  -6  -1    0.30    1.20
   4   6   1    1.30    2.60
   4   6   1    0.40    0.60
   4   6   1    1.30    0.90
   4   6   1   -0.80    1.50
   4   6   1    2.20    1.60
   4   6   1   -0.30    1.50
   4   6   1    1.20    1.60
   4   6   1    2.40    1.10
   4  -7  -1  185.28   14.90
   4  -7  -1  215.68   14.90
   4  -7  -1  191.28   14.80
   4  -7  -1  213.38   14.80
  -4   7   1  174.38   15.00
   3  -7  -1   25.50    4.30
   3  -7  -1   25.70    4.30
   3  -7  -1   22.70    2.90
   3  -7  -1   25.80    4.20
   3  -7  -1   35.00    5.10
   3  -7  -1   28.90    4.30
   3  -7  -1   35.00    4.90
   3  -7  -1   23.30    4.20
  -3   7   1   20.70    5.60
   2  -7  -1   28.60    3.80
   2  -7  -1   26.20    3.60
   2  -7  -1   30.20    4.00
   2  -7  -1   23.90    3.70
   2  -7  -1   22.70    2.50
   2  -7  -1   22.20    3.40
  -2   7   1   12.70    5.00
  -2   7   1   22.90    4.60
   1  -7  -1  512.25   35.80
   1  -7  -1  500.05   35.90
  -1   7   1  461.55   36.90
  -1   7   1  499.35   40.90
  -1   7   1  493.45   36.40
   0   7   1   30.40    7.10
   0   7   1   34.30    3.40
   0   7   1   36.10    3.70
  -1  -7  -1  604.04   44.00
   1   7   1  615.54   44.40
   1   7   1  598.54   43.80
   1   7   1  618.24   48.10
  -2  -7  -1  146.39   11.70
   2   7   1  131.79   12.60
   2   7   1  147.99   11.50
   2   7   1  142.59   13.70
  -3  -7  -1  177.28   14.90
   3   7   1  194.08   14.90
   3   7   1  159.58   13.40
   3   7   1  190.28   13.50
   3   7   1  197.38   19.00
   3   7   1  200.28   17.20
   3   7   1  189.48   14.10
   3   7   1  200.98   17.30
   3   7   1  157.18   14.70
  -4  -7  -1   36.40    4.10
   4   7   1   49.60    3.70
   4   7   1   46.60    4.20
   4   7   1   42.40    4.50
   4   7   1   57.29    6.40
   4   7   1   40.60    4.30
   4   7   1   44.80    3.50
   4   7   1   47.30    4.10
   3  -8  -1  341.57   25.30
   3  -8  -1  343.27   25.70
   3  -8  -1  288.77   26.50
   3  -8  -1  374.36   25.90
   3  -8  -1  370.86   25.60
   3  -8  -1  342.17   25.30
   3  -8  -1  353.56   25.60
  -3   8   1  302.87   25.80
   2  -8  -1  196.98   15.00
   2  -8  -1  199.58   15.30
   2  -8  -1  189.28   14.80
   2  -8  -1  197.28   14.80
   2  -8  -1  192.38   15.10
   2  -8  -1  179.08   13.80
   2  -8  -1  187.48   14.80
  -2   8   1  152.88   15.80
  -2   8   1  186.88   15.50
   1  -8  -1  342.37   24.60
   1  -8  -1  330.37   24.60
  -1   8   1  310.57   29.10
  -1   8   1  345.87   25.00
  -1   8   1  334.77   25.50
   0  -8  -1  155.18   12.20
   0   8   1  170.48   12.50
   0   8   1  157.28   16.70
   0   8   1  169.28   12.80
  -1  -8  -1  383.06   27.00
  -1  -8  -1  352.56   26.30
   1   8   1  355.86   26.70
   1   8   1  368.96   27.10
   1   8   1  366.76   30.90
  -2  -8  -1  287.37   19.80
   2   8   1  291.37   21.60
   2   8   1  223.48   19.00
   2   8   1  253.87   19.50
   2   8   1  227.18   20.60
   2   8   1  232.68   19.60
   2   8   1  277.67   21.40
   3   8   1    8.90    2.30
   3   8   1   14.20    4.10
   3   8   1    6.90    1.20
   3   8   1    9.30    2.20
   3   8   1   11.70    2.50
   3   8   1   10.60    3.70
  -4  -8  -1  129.89   10.30
   4   8   1  144.49   10.50
   4   8   1  147.29   10.10
   4   8   1  134.89   10.10
   4   8   1  129.79   10.20
   3  -9  -1  156.18   11.30
   3  -9  -1  148.79   11.70
   3  -9  -1  138.79   11.20
   3  -9  -1  166.48   11.40
   3  -9  -1  135.89   11.30
  -3   9   1  142.59   11.60
   2  -9  -1  165.88   12.10
   2  -9  -1  147.79   12.30
   2  -9  -1  156.88   12.00
   2  -9  -1  161.48   12.20
   2  -9  -1  161.58   12.30
   2  -9  -1  137.39   12.10
   2  -9  -1  142.39   11.40
  -2   9   1  163.88   12.60
   1  -9  -1  194.38   15.40
   1  -9  -1  190.08   15.30
   1  -9  -1  233.98   15.30
  -1   9   1  208.48   17.00
  -1   9   1  196.18   15.20
  -1   9   1  189.78   15.60
  -1   9   1  205.38   15.20
   0  -9  -1  392.46   28.70
   0   9   1  389.86   28.70
   0   9   1  410.76   28.80
   0   9   1  382.76   33.30
   0   9   1  408.06   28.90
   0   9   1  398.36   29.20
  -1  -9  -1    1.30    1.10
  -1  -9  -1    0.60    0.70
   1   9   1    2.00    1.00
   1   9   1    0.90    1.10
   1   9   1    1.50    1.10
   1   9   1    2.10    1.40
   1   9   1    2.20    1.20
   2   9   1  255.27   18.60
   2   9   1  219.08   20.00
   2   9   1  264.27   18.60
   2   9   1  255.97   20.50
  -3  -9  -1   53.59    4.40
   3   9   1   38.30    5.60
   3   9   1   41.90    5.70
   3   9   1   45.50    4.40
   3   9   1   42.30    4.20
   3   9   1   48.10    4.40
   3   9   1   51.49    3.50
  -3  10   1   32.60    3.00
  -3  10   1   31.30    3.00
   2 -10  -1  547.95   39.70
   2 -10  -1  534.95   40.30
   2 -10  -1  547.15   40.10
   2 -10  -1  537.65   40.30
  -2  10   1  582.04   40.20
  -2  10   1  604.74   40.30
   1 -10  -1    4.70    1.40
  -1  10   1    3.10    1.50
  -1  10   1    2.20    1.30
   0 -10  -1  204.08   15.60
   0  10   1  218.78   15.60
   0  10   1  208.98   15.50
  -1 -10  -1  183.58   14.10
  -1 -10  -1  194.38   13.70
   1  10   1  169.88   13.60
   1  10   1  184.28   13.60
   2  10   1   27.60    3.00
   2  10   1   28.60    4.30
   2  10   1   33.80    3.30
   3  10   1  137.19   10.10
   3  10   1  144.49   10.20
   3  10   1  125.89   11.00
   2 -11  -1  110.19    8.20
   2 -11  -1  106.09    8.70
  -2  11   1  116.79    8.60
  -2  11   1  112.39    8.60
   1 -11  -1  214.18   15.70
  -1  11   1  205.68   15.50
  -1  11   1  210.78   15.50
   0 -11  -1  115.49    9.20
   0  11   1  121.69    9.20
   0  11   1  123.49    9.30
  -1 -11  -1  292.87   20.20
   1  11   1  260.47   20.10
   1  11   1  278.17   20.10
   2  11   1    2.70    1.20
   2  11   1    1.80    0.90
   3  11   1   37.10    3.10
  -2  12   1    0.30    0.70
   1 -12  -1  176.58   12.70
  -1  12   1  171.58   12.80
  -1  12   1  173.38   12.80
   0 -12  -1   94.59    7.50
   0  12   1   97.69    7.50
   0  12   1  102.19    7.60
  -1 -12  -1   94.99    6.80
   1  12   1   80.19    6.60
   1  12   1   85.69    6.70
   2  12   1   75.39    5.70
   2  12   1   75.39    5.80
  -1  13   1   35.80    3.10
   0 -13  -1   83.49    6.90
   0  13   1   96.49    6.80
   0  13   1   91.99    6.90
   1  13   1    0.90    0.80
   1  13   1    0.70    0.60
   0  13  -2    9.10    1.20
   2  12  -2   14.40    1.50
   1  12  -2  112.69    8.70
  -1 -12   2  123.09    8.70
   0  12  -2  110.09    8.00
   0 -12   2  104.19    8.00
  -1  12  -2   12.00    1.50
   2  11  -2  203.18   13.20
   2  11  -2  154.68   13.70
   1  11  -2    1.30    1.00
  -1 -11   2    1.50    0.80
   0  11  -2  208.58   14.90
   0 -11   2  197.58   14.80
  -1  11  -2    8.70    1.60
  -2  11  -2  121.09    8.80
   2 -11   2  112.29    8.50
   3  10  -2    3.50    0.90
   3  10  -2    1.40    1.40
   3  10  -2    3.20    1.10
   3  10  -2    3.10    1.50
   3  10  -2    3.40    0.90
   2  10  -2   70.39    5.40
   2  10  -2   60.59    6.70
   2  10  -2   70.89    5.30
   2  10  -2   52.39    6.50
   1  10  -2  160.78   12.10
  -1 -10   2  168.28   12.00
  -1 -10   2  157.98   12.40
   0  10  -2  162.98   11.80
   0 -10   2  151.68   11.60
  -1  10  -2  519.95   36.40
   1 -10   2  497.95   36.60
  -2  10  -2    6.60    1.70
   2 -10   2    6.20    1.10
   2 -10   2    3.40    1.10
   2 -10   2    4.70    1.20
  -3  10  -2  145.69   10.70
   3   9  -2   63.49    5.10
   3   9  -2   64.29    4.80
   3   9  -2   62.29    5.20
   3   9  -2   66.29    5.10
   3   9  -2   67.39    4.90
   3   9  -2   62.99    4.60
   3   9  -2   51.29    6.20
   3   9  -2   59.29    4.70
   3   9  -2   52.69    6.30
   2   9  -2  127.29   10.10
   2   9  -2  136.69   10.40
   2   9  -2  111.59   11.80
   2   9  -2  141.39   10.30
   2   9  -2  143.09   10.30
   2   9  -2  130.79   12.10
  -2  -9   2  148.39   10.80
   1   9  -2  243.08   17.80
   1   9  -2  233.78   18.30
   1   9  -2  235.08   19.60
   1   9  -2  230.78   18.00
  -1  -9   2  254.17   18.20
  -1  -9   2  260.67   17.70
   0   9  -2    2.90    1.20
   0   9  -2    2.70    1.30
   0   9  -2    5.80    1.30
   0  -9   2    3.30    0.90
  -1   9  -2  224.68   18.50
  -1   9  -2  268.97   18.40
   1  -9   2  245.48   18.30
   1  -9   2  256.47   18.50
  -2   9  -2  235.18   15.80
   2  -9   2  203.08   15.60
   2  -9   2  191.88   15.00
   2  -9   2  197.78   15.50
  -3   9  -2  214.48   15.50
   3  -9   2  205.28   14.90
   4   8  -2    2.90    1.60
   4   8  -2    5.30    0.70
   3   8  -2  187.68   14.00
   3   8  -2  192.78   13.90
   3   8  -2  197.98   14.30
   3   8  -2  199.38   15.30
   3   8  -2  167.98   15.80
   3   8  -2  186.88   14.50
   3   8  -2  189.78   13.80
   3   8  -2  198.28   14.60
   3   8  -2  196.18   14.20
   2   8  -2   23.40    4.50
   2   8  -2   24.10    2.80
   2   8  -2   23.90    2.40
   2   8  -2   22.10    2.90
   2   8  -2   25.20    2.30
   2   8  -2   23.30    3.30
   2   8  -2   28.50    3.00
   2   8  -2   24.10    4.50
   2   8  -2   30.20    4.00
  -2  -8   2   28.20    3.30
   1   8  -2  388.46   29.30
   1   8  -2  414.46   33.10
   1   8  -2  394.16   28.90
  -1  -8   2  399.66   29.00
  -1  -8   2  395.16   28.50
   0   8  -2  283.57   24.50
   0   8  -2  294.67   21.00
   0   8  -2  295.97   20.60
   0  -8   2  251.37   20.20
  -1   8  -2  121.69   13.10
  -1   8  -2  116.09   10.00
  -1   8  -2  132.89    9.50
  -1   8  -2  115.29    9.60
   1  -8   2  120.79    9.40
   1  -8   2  116.79    9.40
  -2   8  -2  456.95   32.80
   2  -8   2  489.95   32.40
   2  -8   2  427.76   32.50
   2  -8   2  486.65   32.50
   2  -8   2  399.86   31.80
   2  -8   2  413.06   32.30
  -3   8  -2   12.40    2.90
   3  -8   2    9.10    1.90
   3  -8   2   16.60    1.70
   3  -8   2   12.00    2.00
   3  -8   2   10.70    2.10
   3  -8   2   17.50    2.50
   4   7  -2   40.50    3.30
   4   7  -2   37.10    3.10
   4   7  -2   41.60    3.50
   4   7  -2   38.50    3.60
   4   7  -2   37.90    3.70
   4   7  -2   40.70    4.90
   4   7  -2   41.10    3.50
  -4  -7   2   38.30    3.50
   3   7  -2  198.78   14.80
   3   7  -2  208.18   15.30
   3   7  -2  178.98   16.70
   3   7  -2  201.58   14.60
   3   7  -2  199.48   16.60
   3   7  -2  189.58   14.90
   3   7  -2  193.98   14.20
   3   7  -2  206.78   14.50
   3   7  -2  186.18   16.70
   3   7  -2  190.48   15.70
   2   7  -2  291.47   25.00
   2   7  -2  298.47   24.30
   2   7  -2  377.16   25.90
   2   7  -2  299.67   24.40
   2   7  -2  332.47   24.10
   2   7  -2  305.17   23.90
  -2  -7   2  375.26   24.30
   1   7  -2   28.60    5.90
   1   7  -2   27.00    3.30
   1   7  -2   28.10    3.00
   1   7  -2   21.60    2.70
  -1  -7   2   28.40    2.90
   0   7  -2 1202.58   95.39
   0   7  -2 1344.87   92.09
   0   7  -2 1335.27   91.69
  -1   7  -2  108.99    9.10
  -1   7  -2  120.69   12.60
  -1   7  -2  114.09    9.60
   1  -7   2  109.39    8.70
   1  -7   2  108.39    8.80
  -2   7  -2  175.88   18.30
  -2   7  -2  211.28   17.60
  -2   7  -2  190.08   17.70
   2  -7   2  224.18   17.00
   2  -7   2  242.28   16.80
   2  -7   2  204.68   16.00
   2  -7   2  250.37   17.20
   2  -7   2  249.78   17.00
  -3   7  -2  347.67   29.70
   3  -7   2  386.06   29.20
   3  -7   2  389.06   29.00
   3  -7   2  404.36   27.90
   3  -7   2  412.06   29.10
   3  -7   2  378.36   29.10
   3  -7   2  417.06   29.00
  -4   7  -2   45.60    4.60
   4  -7   2   55.29    4.40
   4   6  -2  101.29    7.50
   4   6  -2   84.89    7.40
   4   6  -2   87.69    7.90
   4   6  -2   96.39    7.70
   4   6  -2  109.89    9.90
   4   6  -2   91.69    8.00
   4   6  -2   94.09    7.10
   3   6  -2    4.50    1.90
   3   6  -2    3.60    2.30
   3   6  -2    3.70    1.30
   3   6  -2    6.10    2.10
   3   6  -2    5.60    1.10
   3   6  -2    5.50    1.90
   3   6  -2    5.60    1.50
   3   6  -2    4.50    2.60
   3   6  -2    5.60    2.40
   2   6  -2  545.15   37.90
   2   6  -2  455.35   37.70
   2   6  -2  454.35   37.10
   2   6  -2  485.45   37.10
  -2  -6   2  557.54   36.50
   1   6  -2   62.09    6.00
   1   6  -2   58.29    8.30
   1   6  -2   62.89    5.80
   1   6  -2   59.49    5.40
  -1  -6   2   59.89    5.20
   0   6  -2  433.36   30.40
   0   6  -2  436.76   30.70
   0   6  -2  388.66   33.80
  -1   6  -2  705.63   52.89
  -1   6  -2  724.13   52.39
  -1   6  -2  703.03   55.39
   1  -6   2  772.72   51.99
  -2   6  -2   51.09    7.40
   2  -6   2   80.09    6.50
   2  -6   2   79.39    6.60
   2  -6   2   65.59    5.50
  -3   6  -2  118.29   10.40
   3  -6   2  104.19   10.20
   3  -6   2  133.09    9.20
   3  -6   2  141.39   10.70
   3  -6   2  140.19   11.00
   3  -6   2  131.69   10.30
   3  -6   2  119.89   10.60
   3  -6   2  111.09   10.80
   3  -6   2  114.99   10.30
  -4   6  -2   44.10    5.70
   4  -6   2   45.50    5.00
   4  -6   2   46.40    4.60
   4  -6   2   48.00    4.40
   4  -6   2   50.99    5.10
   4   5  -2   79.79    6.70
   4   5  -2   82.99    7.20
   4   5  -2   79.79    6.30
   4   5  -2   91.89    7.40
   4   5  -2   77.19    7.60
   4   5  -2   86.89    7.20
   3   5  -2  123.79   10.50
   3   5  -2  131.29   10.90
   3   5  -2  144.99   10.90
   3   5  -2  108.99   10.70
   3   5  -2  137.69    9.50
   3   5  -2  117.69    9.60
   3   5  -2  114.19    9.70
   3   5  -2  154.48   11.20
   3   5  -2  118.29   10.20
   2   5  -2  141.49   11.10
   2   5  -2  113.19   11.50
   2   5  -2  119.39   11.00
  -2  -5   2  158.88   10.90
   1   5  -2  827.62   66.69
   1   5  -2  991.30   66.49
   1   5  -2  884.61   69.39
   1   5  -2 1064.69   67.29
   1   5  -2  866.51   66.39
  -1  -5   2  927.31   65.89
   0   5  -2   69.19    4.90
   0   5  -2   50.49    5.00
   0   5  -2   60.29    8.00
   0  -5   2   50.89    4.70
  -1   5  -2  484.15   36.50
  -1   5  -2  455.95   33.80
  -1   5  -2  433.76   34.40
  -2   5  -2   40.20    5.40
  -2   5  -2   43.20    5.90
   2  -5   2   62.49    5.40
   2  -5   2   62.79    5.50
  -3   5  -2  348.17   26.30
  -3   5  -2  356.16   26.50
   3  -5   2  378.76   26.70
   3  -5   2  320.97   27.80
   3  -5   2  401.86   28.10
   3  -5   2  368.56   25.80
   3  -5   2  323.97   26.40
   3  -5   2  409.26   27.80
   3  -5   2  326.37   26.00
   3  -5   2  369.56   26.90
  -4   5  -2   20.30    3.90
  -4   5  -2   27.20    3.70
   4  -5   2   31.00    3.70
   4  -5   2   33.40    3.50
   4  -5   2   33.60    4.90
   4  -5   2   30.10    3.90
   4  -5   2   32.10    4.10
   4   4  -2   26.80    3.40
   4   4  -2   23.00    3.50
   4   4  -2   30.20    3.00
   4   4  -2   22.50    3.80
   4   4  -2   31.70    2.60
   4   4  -2   27.30    3.50
   4   4  -2   36.10    3.90
   4   4  -2   38.60    7.30
   3   4  -2  313.17   23.40
   3   4  -2  287.77   22.20
   3   4  -2  269.27   22.30
   3   4  -2  253.87   21.80
   3   4  -2  304.77   22.70
   3   4  -2  356.16   22.60
   2   4  -2    4.40    1.50
   2   4  -2    3.90    1.30
   2   4  -2    5.80    2.00
  -2  -4   2    7.40    1.80
   1   4  -2  680.13   48.20
   1   4  -2  590.54   44.80
   1   4  -2  594.64   44.60
   1   4  -2  572.74   44.40
  -1  -4   2  647.14   44.20
   0   4  -2  356.46   24.40
   0   4  -2  288.57   26.80
   0   4  -2  349.27   24.10
  -1   4  -2  841.22   55.29
  -1   4  -2  685.23   51.89
  -1   4  -2  661.93   52.29
  -2   4  -2 1100.29   94.39
   2  -4   2 1402.36   95.39
   2  -4   2 1445.36   95.59
   2  -4   2 1274.07   95.69
   2  -4   2 1452.25   95.29
  -3   4  -2   15.50    3.70
  -3   4  -2   27.00    3.20
  -3   4  -2   21.70    3.80
  -3   4  -2   27.10    3.30
   3  -4   2   23.40    4.90
   3  -4   2   22.70    5.30
   3  -4   2   22.20    2.30
   3  -4   2   20.00    2.30
   3  -4   2   21.70    4.10
   3  -4   2   24.10    2.80
   3  -4   2   23.40    2.80
   3  -4   2   24.40    3.00
   3  -4   2   23.80    2.70
   3  -4   2   22.90    2.60
  -4   4  -2  244.28   19.20
  -4   4  -2  243.78   19.00
   4  -4   2  246.98   20.70
   4  -4   2  247.48   19.10
   4  -4   2  269.77   19.50
   4  -4   2  273.07   19.40
   4  -4   2  254.47   18.90
   4  -4   2  244.38   18.70
   4   3  -2   21.30    2.90
   4   3  -2   21.40    2.30
   4   3  -2   17.60    2.80
   4   3  -2   21.30    3.00
   4   3  -2   16.80    2.90
   4   3  -2   13.30    2.70
  -4  -3   2   14.00    2.30
   3   3  -2  175.58   14.70
   3   3  -2  178.18   14.40
   3   3  -2  180.08   14.60
   3   3  -2  188.98   15.20
   3   3  -2  208.58   14.60
   2   3  -2  288.67   21.50
   2   3  -2  282.17   21.10
   2   3  -2  277.77   22.10
   2   3  -2  328.97   21.00
  -2  -3   2  246.18   21.30
   1   3  -2  740.03   52.39
   1   3  -2  720.13   52.09
   0   3  -2 1454.45  101.09
   0   3  -2 1296.07  103.69
   0   3  -2 1537.55  101.39
  -1   3  -2   27.20    2.80
  -1   3  -2   29.80    3.10
  -1   3  -2   28.10    4.90
  -1   3  -2   26.00    4.30
   1  -3   2   31.10    2.10
  -2   3  -2  787.12   58.49
  -2   3  -2  785.82   58.19
   2  -3   2  826.82   59.49
   2  -3   2  810.32   57.39
   2  -3   2  774.52   57.99
   2  -3   2  921.31   59.69
   2  -3   2  824.42   58.89
  -3   3  -2  216.08   18.20
  -3   3  -2  220.08   17.70
   3  -3   2  259.77   19.90
   3  -3   2  233.78   19.80
   3  -3   2  238.98   17.10
   3  -3   2  250.47   20.70
   3  -3   2  223.88   17.30
   3  -3   2  232.88   17.50
   3  -3   2  221.68   17.10
  -4   3  -2  195.68   14.40
  -4   3  -2  190.58   14.10
   4  -3   2  187.28   14.00
   4  -3   2  183.48   13.50
   4  -3   2  194.28   14.50
   4  -3   2  182.28   14.20
   4  -3   2  178.38   13.90
   4  -3   2  171.18   16.60
   4  -3   2  187.58   14.60
   4   2  -2  151.88   12.60
   4   2  -2  147.39   12.10
   4   2  -2  162.88   11.50
   4   2  -2  158.18   11.90
   4   2  -2  175.48   12.50
   3   2  -2   61.99    6.50
   3   2  -2   60.49    6.00
   3   2  -2   75.09    6.00
   2   2  -2 1419.66  109.49
   2   2  -2 1404.96  109.19
   2   2  -2 1637.44  109.09
  -2  -2   2 1724.03  112.69
   1   2  -2  404.76   29.20
   1   2  -2  411.76   29.40
   0   2  -2 1135.99   82.79
  -1   2  -2 1154.48   86.29
  -1   2  -2 1177.08   86.39
  -1   2  -2 1288.67   88.99
   1  -2   2 1187.88   86.19
   1  -2   2 1322.67   85.89
  -2   2  -2  109.29    8.40
  -2   2  -2  109.39    8.20
   2  -2   2  102.79    7.50
   2  -2   2  103.29    8.00
   2  -2   2  104.29    8.20
   2  -2   2  110.19    9.50
   2  -2   2  115.69    9.80
  -3   2  -2  514.05   39.50
  -3   2  -2  517.75   39.10
   3  -2   2  523.15   39.20
   3  -2   2  614.94   43.80
   3  -2   2  615.64   39.20
   3  -2   2  526.95   38.80
   3  -2   2  563.04   41.80
   3  -2   2  470.35   40.40
   4  -2   2    2.40    2.30
   4  -2   2    9.00    2.00
   4  -2   2    2.50    3.60
   4  -2   2    7.30    1.20
   4  -2   2    7.60    1.60
   4  -2   2    6.60    1.90
   4  -2   2   11.10    1.80
   4  -2   2    5.60    1.70
   4  -2   2    6.00    3.80
   5   1  -2    4.80    0.80
   4   1  -2   76.19    6.10
   4   1  -2   67.39    6.30
   4   1  -2   74.79    6.90
   4   1  -2   54.29   11.10
   4   1  -2   92.09    6.80
   4   1  -2   79.99    5.70
   3   1  -2  144.39   10.80
   3   1  -2  111.69   14.60
   3   1  -2  138.79   11.10
   3   1  -2  131.19   10.60
   2   1  -2  841.42   63.09
   2   1  -2  873.21   63.29
  -2  -1   2  958.70   66.49
   1   1  -2  517.95   38.60
   1   1  -2  530.35   38.80
  -1  -1   2  588.14   40.00
   0   1  -2   18.80    2.80
  -1   1  -2 3049.59  211.98
  -1   1  -2 2908.01  209.78
   1  -1   2 2949.00  209.68
   1  -1   2 3035.60  209.48
  -2   1  -2   51.59    8.00
   2  -1   2   55.69    4.40
   2  -1   2   57.59    4.50
   2  -1   2   54.29    3.90
   2  -1   2   58.29    5.90
  -3   1  -2  174.28   14.30
  -3   1  -2  183.98   14.00
   3  -1   2  194.88   17.10
   3  -1   2  185.38   13.90
   3  -1   2  181.48   14.00
   3  -1   2  209.18   19.40
   3  -1   2  168.88   15.20
   3  -1   2  183.08   13.70
  -4   1  -2  172.98   13.10
   4  -1   2  169.88   12.40
   4  -1   2  172.28   12.90
   4  -1   2  175.18   13.40
   4  -1   2  176.28   13.20
   4  -1   2  174.68   12.90
   4  -1   2  167.68   17.80
   4  -1   2  157.28   12.90
   4  -1   2  169.48   12.70
   4  -1   2  166.88   16.90
  -5   1  -2   29.30    2.90
  -5   1  -2   22.80    3.00
   5  -1   2   25.10    2.60
   5  -1   2   28.10    2.90
   4   0  -2   94.99    7.20
   4   0  -2   78.79   13.60
   4   0  -2   86.19    7.10
   4   0  -2   82.89    6.20
   4   0  -2   70.59    6.40
   3   0  -2  578.24   41.50
   3   0  -2  606.44   42.00
   3   0  -2  598.64   42.00
   3   0  -2  507.25   46.20
   2   0  -2    2.40    2.00
   2   0  -2    6.00    1.20
   2   0  -2    4.60    1.00
  -2   0   2    3.70    2.40
   1   0  -2 1145.19   88.89
   1   0  -2 1432.66   89.29
  -1   0   2 1210.28   90.39
   0   0  -2  234.28   20.80
   0   0  -2  288.77   18.60
  -1   0  -2  150.68   12.20
   1   0   2  129.69   10.00
  -2   0  -2  503.55   41.70
   2   0   2  541.95   39.20
   2   0   2  519.95   37.40
   2   0   2  534.25   37.30
   3   0   2  147.79   18.10
   3   0   2  151.48   12.40
   3   0   2  170.08   13.70
   3   0   2  156.88   12.10
   3   0   2  163.38   15.60
   3   0   2  157.48   12.10
   3   0   2  182.88   12.80
  -4   0  -2  138.09   10.70
   4   0   2  133.39   10.40
   4   0   2  137.49   10.60
   4   0   2  144.49   11.10
   4   0   2  133.89   10.00
   4   0   2  134.79   17.80
   4   0   2  146.59   11.80
   4   0   2  127.39   15.10
   4   0   2  149.88   11.00
   4   0   2  138.99   10.60
   4   0   2  127.49   10.60
  -5   0  -2   10.80    2.20
  -5   0  -2   10.40    1.90
   5   0   2   10.60    1.70
   5   0   2   13.00    1.90
   4  -1  -2    2.50    1.00
   4  -1  -2    6.00    2.00
   4  -1  -2    0.90    1.60
   4  -1  -2    3.50    5.50
   4  -1  -2    3.50    3.40
   4  -1  -2    0.70    1.30
   3  -1  -2  239.78   20.20
   3  -1  -2  298.97   20.30
   3  -1  -2  290.17   19.80
   3  -1  -2  222.58   23.80
   3  -1  -2  261.87   24.20
   2  -1  -2  737.33   59.79
   2  -1  -2  895.61   57.79
   2  -1  -2  906.81   57.99
  -2   1   2  711.23   61.19
   1  -1  -2 1128.89   80.49
   1  -1  -2 1068.19   80.19
   1  -1  -2 1112.19   80.29
  -1   1   2 1248.18   80.59
   0  -1  -2 1391.06  103.49
  -1  -1  -2   34.70    4.80
   1   1   2   32.20    2.70
  -2  -1  -2  904.31   65.49
   2   1   2  802.32   62.69
   2   1   2  876.01   60.69
   2   1   2  850.51   60.79
   3   1   2   88.99    6.70
   3   1   2   83.29    6.90
   3   1   2   87.99    7.50
   3   1   2   79.69   17.10
   3   1   2   75.19   10.00
   3   1   2   98.09    8.30
   3   1   2   80.39    7.10
   4   1   2  113.79    8.30
   4   1   2   92.79   14.10
   4   1   2  127.39    9.30
   4   1   2  111.09   13.90
   4   1   2  117.99    8.90
   4   1   2  124.59    9.50
   4   1   2  109.59    8.90
   4   1   2  109.69    8.60
   4   1   2   95.49   10.20
   4   1   2  107.79   10.10
   4   1   2  113.69    8.80
  -5  -1  -2   31.80    3.50
  -5  -1  -2   33.50    3.40
   5   1   2   35.80    3.30
   5   1   2   31.50    3.70
   5   1   2   37.80    3.30
   4  -2  -2  194.78   13.40
   4  -2  -2  193.58   14.20
   4  -2  -2  193.68   14.30
   4  -2  -2  164.98   13.60
   4  -2  -2  158.18   19.30
   4  -2  -2  189.88   19.40
   3  -2  -2  222.28   16.60
   3  -2  -2  197.68   20.20
   3  -2  -2  221.78   22.20
   3  -2  -2  223.18   17.00
  -3   2   2  216.98   17.40
  -3   2   2  223.38   16.90
   2  -2  -2  386.46   33.30
   2  -2  -2  366.06   32.30
   2  -2  -2  440.56   30.70
   2  -2  -2  463.85   31.60
   2  -2  -2  470.35   31.40
  -2   2   2  493.65   31.90
   1  -2  -2   26.20    2.50
   1  -2  -2   25.40    2.40
   1  -2  -2   28.90    2.10
  -1   2   2   27.60    2.50
  -1   2   2   31.20    3.00
  -1   2   2   34.50    2.70
   0  -2  -2  508.05   40.20
   0   2   2  388.66   31.40
  -1  -2  -2  630.24   46.50
   1   2   2  596.24   43.50
   1   2   2  616.24   43.40
  -2  -2  -2  980.70   70.59
   2   2   2  886.31   65.89
   2   2   2  924.61   65.79
   3   2   2  362.16   25.90
   3   2   2  308.17   29.20
   3   2   2  376.56   25.20
   3   2   2  338.27   26.10
   3   2   2  359.66   25.60
  -4  -2  -2    1.90    1.30
   4   2   2    2.10    1.30
   4   2   2    1.70    2.00
   4   2   2    3.50    1.40
   4   2   2    2.80    1.60
   4   2   2    2.50    1.00
   4   2   2   -3.50    2.30
   4   2   2    0.00    5.10
   4   2   2    1.50    1.50
   4   2   2    2.90    0.60
   4   2   2    2.20    1.20
   4   2   2    1.70    0.90
  -5  -2  -2   48.80    4.80
   5   2   2   55.69    4.70
   5   2   2   61.19    4.60
   4  -3  -2  347.07   23.70
   4  -3  -2  321.37   24.40
   4  -3  -2  349.17   28.50
   4  -3  -2  309.37   24.50
   4  -3  -2  319.77   24.40
   3  -3  -2   85.99   11.00
   3  -3  -2   96.69    7.70
   3  -3  -2   87.99    8.00
   3  -3  -2   83.19    7.00
   3  -3  -2   76.19   10.70
   3  -3  -2   79.39    7.00
  -3   3   2   96.89    8.20
  -3   3   2   89.09    8.50
   2  -3  -2  490.15   34.90
   2  -3  -2  419.46   35.50
   2  -3  -2  504.55   34.60
   2  -3  -2  485.05   33.80
   2  -3  -2  427.66   36.60
  -2   3   2  529.65   34.90
  -2   3   2  513.25   35.20
   1  -3  -2  366.16   26.60
   1  -3  -2  380.86   27.10
  -1   3   2  384.26   27.50
  -1   3   2  376.36   28.10
  -1   3   2  388.96   27.30
   0  -3  -2 1395.36  104.09
   0   3   2 1414.96   99.89
  -1  -3  -2 1376.06   98.79
   1   3   2 1265.37   94.39
   1   3   2 1366.86   94.39
  -2  -3  -2   11.60    4.30
  -2  -3  -2    6.50    1.20
   2   3   2   10.60    1.50
   2   3   2    7.50    3.20
   2   3   2   11.70    1.60
   3   3   2  163.88   12.00
   3   3   2  140.79   12.30
   3   3   2  124.09   15.70
   3   3   2  131.59   11.60
   3   3   2  163.88   11.80
   3   3   2  167.88   11.20
  -4  -3  -2   11.80    2.30
   4   3   2   16.50    2.60
   4   3   2   18.90    7.10
   4   3   2   16.50    2.70
   4   3   2   19.00    3.90
   4   3   2   15.70    2.70
   4   3   2   17.40    2.70
   4   3   2   11.60    2.50
   4   3   2   18.20    1.60
   4   3   2   15.60    2.00
   4   3   2   17.30    2.10
   4   3   2   12.50    3.10
   5   3   2   32.00    3.90
   4  -4  -2   84.19    6.60
   4  -4  -2   80.19    7.50
   4  -4  -2   76.79    7.30
   4  -4  -2   85.69    7.50
   4  -4  -2   88.19    9.80
   3  -4  -2  260.07   19.40
   3  -4  -2  255.37   22.00
   3  -4  -2  232.88   22.60
   3  -4  -2  263.47   19.00
   3  -4  -2  251.97   18.90
  -3   4   2  246.98   20.60
  -3   4   2  261.67   20.10
   2  -4  -2  228.48   17.30
   2  -4  -2  185.38   18.10
   2  -4  -2  221.68   16.20
   2  -4  -2  195.78   15.20
  -2   4   2  233.28   17.10
  -2   4   2  232.58   16.70
   1  -4  -2 1848.92  150.28
  -1   4   2 2164.68  148.99
  -1   4   2 2163.38  147.49
  -1   4   2 2178.08  147.89
   0  -4  -2  502.35   39.10
   0   4   2  493.45   36.20
   0   4   2  498.85   35.90
  -1  -4  -2 1202.38   99.79
   1   4   2 1396.86   94.49
   1   4   2 1384.06   94.69
  -2  -4  -2  634.14   48.20
   2   4   2  548.15   42.40
   2   4   2  585.24   42.30
   3   4   2  238.38   16.60
   3   4   2  212.38   15.60
   3   4   2  188.18   16.20
   3   4   2  188.98   18.80
   3   4   2  176.48   15.30
   3   4   2  208.48   15.90
   3   4   2  201.48   14.90
  -4  -4  -2   70.99    7.20
   4   4   2   82.29    6.30
   4   4   2   94.09    7.50
   4   4   2   82.29    6.80
   4   4   2   89.99    7.40
   4   4   2   76.89    7.40
   4   4   2   78.19    8.10
   4   4   2   88.39    6.70
   4   4   2   89.79    7.20
   4   4   2   85.79    7.60
   4   4   2   89.29    7.50
   4  -5  -2    6.50    2.50
   4  -5  -2    6.60    1.50
   4  -5  -2    5.70    3.00
   4  -5  -2    8.40    2.70
   4  -5  -2    3.70    1.90
   4  -5  -2    5.50    2.00
   3  -5  -2  368.16   32.00
   3  -5  -2  452.85   30.20
   3  -5  -2  429.16   34.90
   3  -5  -2  450.25   33.40
   3  -5  -2  440.26   31.00
   3  -5  -2  462.05   31.20
   3  -5  -2  349.77   31.20
   2  -5  -2   86.29    8.30
   2  -5  -2   85.89    8.30
   2  -5  -2  109.29   10.90
  -2   5   2  123.49    9.50
  -2   5   2  113.89    9.90
   1  -5  -2  519.75   37.20
   1  -5  -2  479.15   35.00
  -1   5   2  437.96   36.20
  -1   5   2  470.05   34.50
  -1   5   2  435.56   34.80
   0  -5  -2  622.64   47.80
   0   5   2  627.94   45.20
   0   5   2  642.34   45.50
  -1  -5  -2   75.59   13.20
   1   5   2   89.29   10.60
  -2  -5  -2  669.53   56.09
   2   5   2  702.33   49.70
   2   5   2  665.23   49.90
   2   5   2  705.03   49.99
   3   5   2   19.10    6.90
   3   5   2   28.00    3.70
   3   5   2   26.50    3.40
   3   5   2   21.80    3.40
   3   5   2   22.60    2.50
   3   5   2   33.80    4.70
   3   5   2   23.60    2.60
   3   5   2   21.10    3.30
   3   5   2   23.90    2.80
   3   5   2   36.80    4.20
   4   5   2  165.68   13.10
   4   5   2  178.18   13.90
   4   5   2  201.08   14.00
   4   5   2  179.98   13.00
   4   5   2  162.68   12.70
   4   5   2  190.58   13.50
   4   5   2  158.48   13.80
   4   5   2  167.98   14.00
   4  -6  -2   62.39    5.40
   4  -6  -2   61.29    6.50
   4  -6  -2   60.39    6.50
   4  -6  -2   60.99    6.30
   4  -6  -2   56.89    6.30
   4  -6  -2   71.09    6.90
   3  -6  -2   41.20    5.70
   3  -6  -2   44.40    6.40
   3  -6  -2   47.00    5.30
   3  -6  -2   50.19    5.90
   3  -6  -2   50.69    5.20
   3  -6  -2   40.90    5.70
   3  -6  -2   41.90    7.20
   3  -6  -2   48.50    5.10
   3  -6  -2   49.30    4.40
   2  -6  -2  784.42   61.19
   2  -6  -2  850.41   59.79
   2  -6  -2  828.62   60.29
   2  -6  -2  920.11   59.79
  -2   6   2  742.63   60.19
   1  -6  -2    4.60    1.70
   1  -6  -2    3.30    2.20
   1  -6  -2    3.60    1.30
   1  -6  -2    4.30    1.90
  -1   6   2    2.40    2.70
  -1   6   2    6.60    2.90
  -1   6   2    3.60    2.70
   0  -6  -2 1122.09   92.09
   0  -6  -2 1339.07   94.59
   0   6   2 1382.06   92.09
   0   6   2 1354.86   92.39
  -1  -6  -2  200.58   17.70
   1   6   2  267.97   19.00
   1   6   2  256.17   22.30
  -2  -6  -2  208.38   17.50
   2   6   2  251.97   18.50
   2   6   2  230.18   18.50
   3   6   2   85.59    8.10
   3   6   2   83.09    6.50
   3   6   2   74.99    6.90
   3   6   2   81.89    7.00
   3   6   2   93.99    9.10
   3   6   2  105.99   10.10
   3   6   2   83.19    8.00
   3   6   2   87.39    7.10
   3   6   2   84.69    7.50
   3   6   2   94.49    8.10
  -4  -6  -2   -0.10    1.30
   4   6   2    3.20    1.80
   4   6   2    2.10    0.60
   4   6   2   -0.80    1.70
   4   6   2    3.40    1.00
   4   6   2    1.40    1.50
   4   6   2    0.30    1.70
   4   6   2    4.10    1.00
   4   6   2    2.80    1.70
   4  -7  -2  156.18   11.40
   4  -7  -2  155.88   12.30
   4  -7  -2  152.18   12.20
   4  -7  -2  178.38   12.30
   4  -7  -2  167.28   12.20
  -4   7   2  131.59   12.30
   3  -7  -2   37.70    4.90
   3  -7  -2   31.70    4.70
   3  -7  -2   31.60    4.90
   3  -7  -2   34.40    3.80
   3  -7  -2   35.90    5.10
   3  -7  -2   31.40    4.80
   3  -7  -2   37.30    4.70
   3  -7  -2   28.20    5.40
   3  -7  -2   42.20    5.90
   3  -7  -2   41.10    5.60
  -3   7   2   18.80    5.60
   2  -7  -2  224.98   14.30
   2  -7  -2  159.48   15.00
   2  -7  -2  193.88   16.40
   2  -7  -2  206.48   16.10
   2  -7  -2  163.78   15.10
   2  -7  -2  201.98   15.70
   1  -7  -2  416.06   29.40
   1  -7  -2  422.46   29.30
  -1   7   2  373.86   30.50
  -1   7   2  366.46   33.70
  -1   7   2  403.66   30.00
   0   7   2  301.07   21.70
   0   7   2  291.87   21.30
   0   7   2  274.17   25.60
  -1  -7  -2  697.13   50.69
   1   7   2  700.03   54.79
   1   7   2  724.43   51.19
   1   7   2  686.63   50.49
  -2  -7  -2   42.00    4.80
   2   7   2   36.20    5.60
   2   7   2   42.20    4.30
   2   7   2   37.30    5.70
  -3  -7  -2  210.68   16.50
   3   7   2  231.68   15.60
   3   7   2  202.28   16.50
   3   7   2  175.38   15.40
   3   7   2  209.88   15.50
  -4  -7  -2   13.70    2.30
   4   7   2   12.40    2.70
   4   7   2   17.80    1.80
   4   7   2   20.40    3.00
   4   7   2   15.80    2.70
   4   7   2   11.00    2.20
   3  -8  -2  194.78   15.10
   3  -8  -2  188.48   15.20
   3  -8  -2  223.48   15.90
   3  -8  -2  187.88   15.40
   3  -8  -2  189.08   15.50
   3  -8  -2  195.28   14.20
   3  -8  -2  211.68   15.60
   3  -8  -2  179.18   15.20
  -3   8   2  161.38   15.50
   2  -8  -2  174.38   12.90
   2  -8  -2  173.48   14.10
   2  -8  -2  196.38   14.40
   2  -8  -2  177.48   14.40
   2  -8  -2  169.48   13.80
   2  -8  -2  187.98   14.10
   2  -8  -2  180.18   14.50
  -2   8   2  157.98   14.40
  -2   8   2  136.69   15.20
   1  -8  -2  315.77   23.80
   1  -8  -2  343.27   24.40
   1  -8  -2  334.87   24.50
  -1   8   2  333.07   29.90
  -1   8   2  318.57   25.20
  -1   8   2  331.57   24.80
   0  -8  -2   23.10    2.70
   0   8   2   23.80    3.10
   0   8   2   25.70    2.90
   0   8   2   22.20    6.10
  -1  -8  -2  379.16   26.40
  -1  -8  -2  329.47   25.50
   1   8   2  344.57   25.90
   1   8   2  358.16   26.40
   1   8   2  349.67   30.20
  -2  -8  -2   89.69    7.60
   2   8   2   97.19    9.30
   2   8   2   81.49    7.90
   2   8   2   68.29    6.70
   2   8   2   76.49    8.50
   2   8   2   68.99    6.80
  -3  -8  -2  110.79    8.50
   3   8   2  110.19    8.70
   3   8   2  123.99   11.00
   3   8   2   90.59    7.60
   3   8   2   84.19    8.00
   3   8   2   89.69    8.50
  -4  -8  -2   21.80    2.30
   4   8   2   16.00    2.30
   4   8   2   25.50    2.50
   4   8   2   21.40    2.20
   4   8   2   24.60    2.60
   3  -9  -2  241.98   17.30
   3  -9  -2  226.48   17.40
   3  -9  -2  255.37   17.40
   3  -9  -2  237.68   17.80
   3  -9  -2  216.98   17.40
  -3   9   2  222.88   17.50
   2  -9  -2   90.89    7.90
   2  -9  -2   80.09    6.90
   2  -9  -2   86.49    7.40
   2  -9  -2   81.59    7.70
   2  -9  -2   83.09    7.90
   2  -9  -2   98.89    7.80
   2  -9  -2   88.49    7.70
  -2   9   2   95.99    8.00
   1  -9  -2  338.87   25.10
   1  -9  -2  404.16   26.40
   1  -9  -2  359.06   25.80
   1  -9  -2  336.67   25.60
   1  -9  -2  384.76   25.60
   1  -9  -2  342.47   25.70
  -1   9   2  334.57   25.40
  -1   9   2  297.77   26.20
  -1   9   2  349.17   25.40
  -1   9   2  328.77   25.80
   0  -9  -2  327.87   23.90
   0   9   2  305.77   28.60
   0   9   2  332.67   24.00
   0   9   2  319.07   24.30
   0   9   2  344.17   24.00
  -1  -9  -2  172.08   12.70
  -1  -9  -2  182.38   13.40
   1   9   2  153.88   12.60
   1   9   2  174.08   12.80
   1   9   2  166.08   13.00
   1   9   2  159.68   13.30
   1   9   2  181.28   22.50
  -2  -9  -2  390.46   25.70
   2   9   2  304.37   24.70
   2   9   2  330.87   24.70
   2   9   2  355.16   26.70
   2   9   2  310.47   26.20
  -3  -9  -2    7.70    1.60
   3   9   2    4.10    2.40
   3   9   2   13.40    2.20
   3   9   2    7.70    1.90
   3 -10  -2   55.09    4.70
  -3  10   2   68.19    5.00
   2 -10  -2   59.69    4.80
   2 -10  -2   58.59    5.20
   2 -10  -2   60.69    5.70
   2 -10  -2   55.69    5.40
  -2  10   2   62.39    5.60
  -2  10   2   59.79    5.40
   1 -10  -2   76.09    6.50
   1 -10  -2   75.69    6.90
   1 -10  -2   63.09    6.60
   1 -10  -2   80.39    6.50
   1 -10  -2   73.19    6.00
  -1  10   2   71.59    6.10
  -1  10   2   73.99    6.30
   0 -10  -2  580.54   41.10
   0  10   2  541.45   41.20
   0  10   2  613.24   41.10
   0  10   2  557.54   40.90
  -1 -10  -2   19.00    2.80
  -1 -10  -2   19.10    2.40
   1  10   2   17.30    2.10
   1  10   2   20.90    2.50
   2  10   2   58.49    6.30
   2  10   2   68.69    5.50
   2  10   2   60.39    5.20
   3  10   2   88.29    6.90
   3  10   2   87.29    6.30
   2 -11  -2  234.38   16.70
   2 -11  -2  217.68   17.30
  -2  11   2  244.38   17.20
  -2  11   2  235.78   17.00
   1 -11  -2   65.49    5.40
  -1  11   2   68.39    5.70
  -1  11   2   66.49    5.50
   0 -11  -2  115.79    8.90
   0  11   2  109.99    8.70
   0  11   2  119.49    8.90
  -1 -11  -2   68.69    5.40
   1  11   2   58.29    5.10
   1  11   2   65.79    5.40
   2  11   2   79.09    6.10
   2  11   2   72.79    6.00
   3  11   2   28.70    2.60
  -2  12   2   41.60    3.30
  -2  12   2   34.60    3.30
   1 -12  -2  211.48   15.30
  -1  12   2  219.08   15.50
  -1  12   2  202.28   15.30
   0  12   2   10.80    1.50
   0  12   2    8.40    1.70
  -1 -12  -2  265.47   17.90
   1  12   2  240.68   17.80
   1  12   2  229.28   17.70
   2  12   2   11.30    1.70
  -1  13   2   85.69    6.50
   0 -13  -2   40.30    3.50
   0  13   2   43.30    3.60
  -1 -13  -2   99.09    7.20
   1  13   2   75.89    6.30
   1  12  -3  100.39    7.70
  -1 -12   3  109.09    7.70
   0  12  -3   22.30    2.10
   0 -12   3   20.80    2.00
  -1  12  -3  109.29    8.10
   2  11  -3   43.00    4.60
   2  11  -3   56.29    4.10
   1  11  -3   75.19    5.90
  -1 -11   3   76.49    5.90
   0  11  -3  244.58   17.30
   0 -11   3  231.88   17.20
  -1  11  -3    0.50    0.90
  -2  11  -3  140.89   10.50
   2 -11   3  144.79   10.60
   3  10  -3   17.80    1.40
   3  10  -3   12.70    2.30
   3  10  -3   11.60    2.20
   3  10  -3   15.60    1.60
   2  10  -3  154.98   13.90
   2  10  -3  173.38   12.50
   2  10  -3  171.98   12.40
   2  10  -3  155.68   12.30
  -2 -10   3  190.08   12.40
   1  10  -3    8.80    1.60
   1  10  -3    6.30    2.50
  -1 -10   3    8.20    1.30
   0  10  -3  220.88   15.50
   0 -10   3  200.98   15.40
  -1  10  -3  132.89   10.10
   1 -10   3  135.19   10.70
  -2  10  -3  149.69   10.70
   2 -10   3  136.49   10.80
   2 -10   3  142.19   10.40
   3   9  -3    8.10    2.40
   3   9  -3   11.50    1.30
   3   9  -3   11.40    1.40
   3   9  -3    9.50    2.70
   3   9  -3   11.50    1.20
   3   9  -3   12.10    1.70
   3   9  -3   10.10    1.50
   3   9  -3   12.30    1.10
   2   9  -3   48.10    6.20
   2   9  -3   54.69    4.60
   2   9  -3   55.79    7.60
   2   9  -3   47.30    4.10
   2   9  -3   41.00    5.90
   2   9  -3   52.49    4.00
  -2  -9   3   55.49    4.20
   1   9  -3  139.69   10.40
   1   9  -3  131.19   12.20
   1   9  -3  133.59   10.20
   1   9  -3  138.49   10.50
  -1  -9   3  147.89   10.40
  -1  -9   3  142.09   10.80
   0   9  -3  100.09    7.30
   0   9  -3   90.79    7.40
   0  -9   3   87.89    7.10
  -1   9  -3  246.58   17.10
   1  -9   3  232.68   17.30
   1  -9   3  218.68   17.10
  -2   9  -3   17.20    2.60
   2  -9   3   12.60    2.10
   2  -9   3   14.30    2.30
  -3   9  -3   91.49    7.10
   3  -9   3   88.69    6.60
   4   8  -3   30.60    2.70
   3   8  -3   54.69    6.80
   3   8  -3   67.79    5.70
   3   8  -3   67.69    5.30
   3   8  -3   65.69    5.20
   3   8  -3   66.99    5.60
   3   8  -3   64.49    5.40
   3   8  -3   65.79    7.10
   3   8  -3   63.49    5.00
   3   8  -3   73.79    5.50
   2   8  -3   39.80    3.90
   2   8  -3   38.60    3.10
   2   8  -3   37.30    5.40
   2   8  -3   43.70    4.80
   2   8  -3   33.20    5.20
   2   8  -3   37.70    3.40
   2   8  -3   37.00    3.30
   2   8  -3   37.70    3.80
   2   8  -3   36.10    3.50
  -2  -8   3   44.10    4.10
   1   8  -3  348.37   26.00
   1   8  -3  349.57   26.30
   1   8  -3  354.16   26.70
   1   8  -3  355.96   27.90
   1   8  -3  332.27   26.00
   1   8  -3  438.36   35.70
  -1  -8   3  375.96   26.40
   0   8  -3   30.30    3.30
   0   8  -3   21.60    2.70
   0   8  -3   31.10    6.00
   0   8  -3   29.40    2.90
   0  -8   3   26.40    2.50
  -1   8  -3  335.77   24.80
  -1   8  -3  378.06   24.80
  -1   8  -3  328.37   25.20
   1  -8   3  325.27   24.70
   1  -8   3  331.27   24.80
  -2   8  -3  103.29    8.70
   2  -8   3   94.19    8.30
   2  -8   3  116.09    8.40
   2  -8   3  101.29    8.50
  -3   8  -3   38.30    4.30
   3  -8   3   39.30    3.40
   3  -8   3   39.20    4.10
   3  -8   3   47.30    4.00
   4   7  -3    2.60    0.90
   4   7  -3    2.10    0.70
   4   7  -3    1.10    0.50
   4   7  -3    1.10    1.70
   4   7  -3    2.10    0.80
   4   7  -3    0.40    0.70
   4   7  -3    2.60    0.70
   4   7  -3    0.40    0.80
   4   7  -3    0.10    1.40
  -4  -7   3    0.60    0.60
   3   7  -3  171.18   12.40
   3   7  -3  175.78   12.60
   3   7  -3  174.08   12.80
   3   7  -3  162.88   12.70
   3   7  -3  151.78   14.30
   3   7  -3  165.68   12.10
   3   7  -3  175.78   13.10
   3   7  -3  147.99   13.00
   3   7  -3  171.78   13.90
   2   7  -3   13.10    1.70
   2   7  -3   14.40    1.90
   2   7  -3    8.80    2.50
   2   7  -3   16.60    5.40
   2   7  -3   12.70    3.20
   2   7  -3   12.50    2.50
   2   7  -3   14.50    2.70
   2   7  -3   17.50    2.40
   2   7  -3   13.90    3.10
   2   7  -3   10.60    2.40
   2   7  -3   17.90    2.30
   1   7  -3  554.64   44.50
   1   7  -3  661.13   49.10
   1   7  -3  621.64   45.30
   1   7  -3  656.83   45.40
   1   7  -3  629.24   44.90
  -1  -7   3  629.84   44.90
   0   7  -3  574.44   40.20
   0   7  -3  534.75   43.60
   0   7  -3  558.24   39.90
  -1   7  -3   94.29   11.20
  -1   7  -3   98.09    8.60
  -1   7  -3  106.79    8.20
   1  -7   3  100.99    8.00
  -2   7  -3  317.57   26.40
  -2   7  -3  349.07   26.60
  -2   7  -3  361.26   27.40
   2  -7   3  377.16   27.00
   2  -7   3  366.56   26.90
   2  -7   3  420.56   27.00
   2  -7   3  368.06   27.00
  -3   7  -3   13.00    3.60
  -3   7  -3   18.60    2.20
  -3   7  -3   10.00    1.80
   3  -7   3   15.60    1.80
   3  -7   3   15.90    2.90
   3  -7   3   14.80    2.50
   3  -7   3   10.80    2.30
   3  -7   3   13.50    2.30
   4   6  -3   45.20    3.90
   4   6  -3   44.80    3.60
   4   6  -3   41.60    4.10
   4   6  -3   49.99    4.20
   4   6  -3   49.60    6.40
   4   6  -3   43.30    3.80
   4   6  -3   39.50    4.30
  -4  -6   3   42.40    4.10
   3   6  -3  137.79   10.60
   3   6  -3  140.99   10.40
   3   6  -3  131.09   10.00
   3   6  -3  130.79    9.40
   3   6  -3  119.79   10.10
   3   6  -3  113.29   11.10
   3   6  -3  105.69   10.40
   3   6  -3  128.79    9.90
   2   6  -3  415.16   32.60
   2   6  -3  439.76   32.10
   2   6  -3  424.96   33.50
   2   6  -3  443.26   33.30
  -2  -6   3  467.75   32.10
   1   6  -3   13.30    4.30
   1   6  -3   10.90    2.30
   1   6  -3    9.40    2.30
   1   6  -3   12.20    2.40
   1   6  -3   11.80    1.90
  -1  -6   3   10.90    1.70
   0   6  -3  553.04   44.50
   0   6  -3  629.64   41.20
   0   6  -3  615.04   40.80
   0   6  -3  482.05   41.10
  -1   6  -3    9.30    3.60
  -1   6  -3    9.20    2.40
  -1   6  -3    9.60    2.10
   1  -6   3   10.10    1.60
  -2   6  -3  415.06   36.60
   2  -6   3  561.34   35.90
   3  -6   3  221.58   16.00
   3  -6   3  228.48   15.90
   3  -6   3  192.18   15.80
   3  -6   3  205.68   14.70
   3  -6   3  194.68   16.00
   3  -6   3  171.28   15.70
  -4   6  -3   21.00    2.10
  -4   6  -3   18.70    2.20
  -4   6  -3   15.60    3.20
   4  -6   3   19.60    4.30
   4  -6   3   19.00    2.70
   4   5  -3  112.39    9.90
   4   5  -3  126.89   10.70
   4   5  -3  125.79    9.70
   4   5  -3  132.69   10.10
   4   5  -3  125.09    9.20
   4   5  -3  121.39    9.60
   3   5  -3    4.80    2.00
   3   5  -3    7.30    2.30
   3   5  -3    5.40    1.50
   3   5  -3    6.60    3.30
   3   5  -3    5.10    1.10
   3   5  -3    3.90    1.90
   3   5  -3    4.10    1.90
   3   5  -3    4.30    1.80
   3   5  -3    3.20    1.20
   2   5  -3  366.86   29.40
   2   5  -3  381.46   28.90
   2   5  -3  410.16   28.90
   1   5  -3  343.37   26.60
   1   5  -3  330.77   26.40
   1   5  -3  370.46   26.20
   1   5  -3  372.46   26.80
   1   5  -3  348.57   29.50
  -1  -5   3  363.26   25.90
   0   5  -3 2095.99  123.79
   0   5  -3 1785.62  127.49
   0   5  -3 1573.94  123.99
   0  -5   3 1562.94  123.59
  -1   5  -3  615.44   43.10
  -1   5  -3  577.54   43.60
  -1   5  -3  544.75   45.40
   1  -5   3  628.94   42.50
  -2   5  -3    2.90    2.10
  -2   5  -3    0.10    2.10
   2  -5   3    2.70    1.30
  -3   5  -3  321.47   24.80
  -3   5  -3  314.47   25.00
   3  -5   3  322.37   24.60
   3  -5   3  348.37   25.30
   3  -5   3  381.96   25.80
   3  -5   3  349.67   25.10
   3  -5   3  299.07   24.80
   3  -5   3  311.37   26.10
   3  -5   3  332.67   24.20
   3  -5   3  388.96   26.10
  -4   5  -3   17.10    3.60
  -4   5  -3   18.50    4.00
   4  -5   3   31.30    3.30
   4  -5   3   30.10    3.90
   4  -5   3   30.10    3.70
   4  -5   3   29.70    4.40
   4   4  -3   42.90    4.50
   4   4  -3   49.90    4.60
   4   4  -3   45.50    3.70
   4   4  -3   46.60    4.10
   4   4  -3   44.80    4.60
   4   4  -3   38.40    4.70
   3   4  -3   93.29    8.50
   3   4  -3  101.09    8.20
   3   4  -3  114.09    8.90
   3   4  -3  107.69    8.90
   3   4  -3   89.49    7.80
   3   4  -3  118.99    9.40
   3   4  -3  103.99    8.10
   3   4  -3  124.09    9.10
   3   4  -3  117.89   12.30
   3   4  -3   98.29    9.10
   2   4  -3   69.99    7.10
   2   4  -3   74.99    6.50
   2   4  -3   82.49    7.40
   2   4  -3   65.59    6.60
  -2  -4   3   88.39    6.80
   1   4  -3  743.23   59.29
   1   4  -3  842.22   59.09
   1   4  -3  813.12   59.29
   1   4  -3  817.42   59.49
  -1  -4   3  911.71   58.89
   0   4  -3   11.80    1.80
   0   4  -3    8.50    1.80
   0   4  -3   13.20    1.60
   0   4  -3    8.90    3.40
  -1   4  -3 1892.51  148.89
  -1   4  -3 2328.57  151.88
  -2   4  -3   41.20    5.00
  -2   4  -3   43.40    4.60
   2  -4   3   58.79    5.00
  -3   4  -3  199.58   14.80
  -3   4  -3  204.08   15.10
   3  -4   3  192.18   14.70
   3  -4   3  185.38   14.60
   3  -4   3  209.28   15.20
   3  -4   3  177.98   16.90
   3  -4   3  180.28   14.90
   3  -4   3  230.68   15.50
  -4   4  -3   82.29    7.60
  -4   4  -3   74.39    7.30
   4  -4   3   79.99    8.70
   4  -4   3   91.19    7.60
   4  -4   3   83.89    7.00
   4  -4   3   85.69    7.30
   4  -4   3   82.09    7.20
   4   3  -3   17.50    3.00
   4   3  -3   24.50    3.10
   4   3  -3   26.30    2.70
   4   3  -3   28.50    2.30
   4   3  -3   23.60    3.20
   3   3  -3  250.97   20.80
   3   3  -3  271.77   21.20
   3   3  -3  296.47   20.90
   3   3  -3  273.57   21.70
   3   3  -3  302.47   20.80
   2   3  -3   39.80    4.10
   2   3  -3   39.30    3.80
   2   3  -3   30.00    4.20
   2   3  -3   39.40    3.40
  -2  -3   3   34.40    3.80
   1   3  -3  425.56   33.50
   1   3  -3  476.55   33.20
   1   3  -3  480.15   33.50
   0   3  -3 1776.12  122.29
   0   3  -3 1687.23  121.99
   0   3  -3 1733.23  125.39
  -1   3  -3   91.79    7.00
  -1   3  -3   95.39    7.30
   1  -3   3   76.49    6.20
  -2   3  -3  853.41   62.49
  -2   3  -3  853.41   62.79
   2  -3   3  969.80   63.89
   2  -3   3  843.32   62.29
  -3   3  -3    3.10    1.80
   3  -3   3    2.30    1.10
   3  -3   3    1.70    2.70
   3  -3   3    3.50    2.60
   3  -3   3    2.40    1.00
   3  -3   3    2.30    1.20
   3  -3   3    4.10    1.30
  -4   3  -3  158.48   12.60
  -4   3  -3  166.48   12.40
   4  -3   3  143.99   14.40
   4  -3   3  162.38   12.50
   4  -3   3  165.78   12.80
   4  -3   3  160.58   12.10
   4  -3   3  155.78   12.30
   4   2  -3   65.39    6.10
   4   2  -3   69.49    6.20
   4   2  -3   74.09    5.30
   4   2  -3   83.39    6.40
   4   2  -3   56.79    5.90
   4   2  -3   67.49    5.70
   3   2  -3  305.87   21.80
   3   2  -3  284.97   22.10
   3   2  -3  294.77   22.60
   2   2  -3  459.55   33.70
   2   2  -3  476.15   34.00
   1   2  -3  510.55   34.70
   1   2  -3  421.76   32.50
   1   2  -3  429.46   32.30
   0   2  -3 3017.40  223.28
   0   2  -3 3273.67  221.58
  -1   2  -3  130.89   10.30
  -1   2  -3  133.19   10.50
  -1   2  -3  142.09   12.80
  -1   2  -3  162.88   12.60
   1  -2   3  147.59    9.90
   1  -2   3  134.09   10.20
  -2   2  -3  382.86   27.80
  -2   2  -3  384.76   27.50
   2  -2   3  379.46   27.40
   2  -2   3  367.56   26.90
   2  -2   3  420.76   29.00
   2  -2   3  368.66   27.50
  -3   2  -3  137.29   11.70
  -3   2  -3  134.19   11.20
   3  -2   3  160.38   13.90
   3  -2   3  155.38   15.30
   3  -2   3  138.19   12.90
   3  -2   3  149.29   11.20
   3  -2   3  140.59   11.00
  -4   2  -3   87.29    7.10
  -4   2  -3   77.69    7.00
  -4   2  -3   90.09    7.30
   4  -2   3   84.39    6.80
   4  -2   3   78.29   10.10
   4  -2   3   85.59    7.20
   4  -2   3   91.59    7.20
   4  -2   3   82.59    6.90
   4  -2   3   73.89    9.70
   4  -2   3   84.99    7.30
   4  -2   3   76.29    6.40
   4   1  -3   52.19    5.20
   4   1  -3   64.19    5.60
   4   1  -3   66.29    4.60
   4   1  -3   55.49    5.50
   4   1  -3   60.89    5.00
   3   1  -3    4.00    1.60
   3   1  -3    4.20    1.30
   3   1  -3    2.20    1.50
   3   1  -3    4.90    3.80
   2   1  -3  577.14   43.10
   2   1  -3  557.74   42.80
  -2  -1   3  672.43   46.10
   1   1  -3  329.47   25.50
   1   1  -3  340.77   25.70
  -1  -1   3  407.86   26.90
   0   1  -3  687.13   48.20
  -1   1  -3   34.50    2.70
   1  -1   3   32.30    2.40
   1  -1   3   32.90    2.60
  -2   1  -3  238.08   16.80
  -2   1  -3  209.58   21.20
   2  -1   3  256.07   18.30
   2  -1   3  225.48   16.50
   2  -1   3  221.18   16.10
   2  -1   3  225.98   16.70
  -3   1  -3  395.76   31.40
  -3   1  -3  397.06   31.00
   3  -1   3  401.56   32.60
   3  -1   3  475.85   36.50
   3  -1   3  412.66   30.80
   3  -1   3  482.95   34.40
   3  -1   3  426.46   31.20
   3  -1   3  457.65   31.00
  -4   1  -3    2.50    1.60
   4  -1   3    3.00    1.50
   4  -1   3    4.40    3.70
   4  -1   3    3.00    1.20
   4  -1   3    2.50    3.70
   4  -1   3    5.80    1.40
   4  -1   3    2.50    0.70
   4  -1   3    3.90    1.00
   4  -1   3    5.20    1.70
   4  -1   3    2.30    1.30
  -5   1  -3   39.40    4.70
   4   0  -3  128.29   17.20
   4   0  -3  189.58   13.10
   4   0  -3  159.98   12.30
   4   0  -3  173.78   12.00
   3   0  -3  203.48   15.60
   3   0  -3  211.98   16.10
   3   0  -3  175.58   20.80
   3   0  -3  217.28   15.80
   2   0  -3  692.13   49.50
   2   0  -3  678.03   49.30
  -2   0   3  714.43   52.79
   1   0  -3 1752.62  125.69
   1   0  -3 1823.62  125.79
   0   0  -3  650.43   48.10
   0   0  -3  648.04   45.70
  -1   0  -3  884.71   61.19
   1   0   3  772.42   58.29
  -2   0  -3   20.30    5.30
   2   0   3   20.30    3.50
   2   0   3   17.80    1.70
   2   0   3   20.10    1.90
   3   0   3  340.17   22.30
   3   0   3  292.87   27.70
   3   0   3  276.17   21.90
   3   0   3  308.37   21.70
   3   0   3  271.37   21.60
   3   0   3  300.27   23.30
   3   0   3  305.87   25.00
  -4   0  -3   98.89    8.20
   4   0   3   92.69   11.90
   4   0   3  109.09    8.90
   4   0   3  104.29    8.40
   4   0   3   92.19    7.70
   4   0   3   97.09   13.90
   4   0   3  100.19    7.70
   4   0   3   99.69    7.30
   4   0   3  105.89    8.20
   4   0   3   97.59    7.80
   4   0   3   90.49    8.00
  -5   0  -3    9.00    1.80
  -5   0  -3   11.00    2.10
   5   0   3    6.90    1.40
   4  -1  -3   43.60    4.30
   4  -1  -3   41.00   11.40
   4  -1  -3   51.69    5.10
   4  -1  -3   54.69    5.00
   4  -1  -3   56.59    4.10
   3  -1  -3  504.75   43.60
   3  -1  -3  566.54   38.90
   3  -1  -3  562.04   38.50
   3  -1  -3  485.65   38.70
   2  -1  -3   42.80    3.60
   2  -1  -3   41.50    5.90
   2  -1  -3   46.30    3.90
  -2   1   3   36.80    6.30
   1  -1  -3 1308.67   94.49
   1  -1  -3 1313.97   93.89
   1  -1  -3 1381.26   93.99
  -1  -1  -3 9999.00  684.93
   1   1   3 9435.96  682.53
  -2  -1  -3  539.95   42.80
   2   1   3  520.35   37.70
   2   1   3  547.55   39.90
   2   1   3  520.65   37.80
   3   1   3   14.60    1.90
   3   1   3   12.20    2.00
   3   1   3   13.30    6.50
   3   1   3   17.20    3.40
   3   1   3   13.30    4.70
   3   1   3   16.30    2.60
  -4  -1  -3  192.28   14.10
   4   1   3  208.28   14.30
   4   1   3  172.98   13.70
   4   1   3  185.18   13.60
   4   1   3  195.78   14.40
   4   1   3  182.68   14.80
   4   1   3  181.58   13.70
   4   1   3  178.68   13.30
   4   1   3  174.78   20.40
   4   1   3  176.98   18.60
   4   1   3  172.28   13.90
  -5  -1  -3    1.10    1.30
  -5  -1  -3   -0.40    1.40
   5   1   3    0.10    1.00
   5   1   3   -0.90    0.90
   4  -2  -3   33.00    3.90
   4  -2  -3   26.30   11.20
   4  -2  -3   31.90    2.80
   4  -2  -3   31.90    3.70
   4  -2  -3   26.70    6.60
   3  -2  -3  146.19   16.80
   3  -2  -3  159.38   12.80
   3  -2  -3  158.48   12.40
   3  -2  -3  160.68   17.10
  -3   2   3  162.08   12.70
  -3   2   3  156.48   13.10
   2  -2  -3  332.77   23.00
   2  -2  -3  317.57   22.30
   2  -2  -3  337.07   23.30
   2  -2  -3  280.37   25.40
   1  -2  -3  864.11   60.49
   1  -2  -3  859.41   60.99
   1  -2  -3  776.02   61.39
   1  -2  -3  834.72   60.89
  -1   2   3  885.61   60.99
  -1   2   3  904.51   61.09
  -1   2   3  916.61   61.59
   0  -2  -3 2757.62  197.88
   0  -2  -3 2586.04  203.98
   0   2   3 3081.39  197.98
  -1  -2  -3 1277.87   94.49
   1   2   3 1208.78   90.19
   1   2   3 1358.66   90.79
  -2  -2  -3 1882.81  124.49
   2   2   3 1733.23  118.49
   2   2   3 1455.55  120.49
   2   2   3 1661.93  118.59
  -3  -2  -3   41.00    4.00
   3   2   3   34.70    4.20
   3   2   3   34.80    3.70
   3   2   3   21.30    7.30
   3   2   3   31.70    6.70
   3   2   3   36.80    4.30
   3   2   3   45.60    3.50
   3   2   3   46.20    5.10
   3   2   3   33.40    3.40
  -4  -2  -3  143.39   11.10
   4   2   3  139.69   10.30
   4   2   3  132.69   12.00
   4   2   3  128.89   15.70
   4   2   3  144.09   10.80
   4   2   3  136.19   12.30
   4   2   3  143.99   11.00
   4   2   3  119.09   17.60
   4   2   3  156.18   11.50
   4   2   3  141.19   10.70
   4   2   3  161.18   11.40
   4   2   3  147.89   10.60
   4   2   3  117.79   11.00
  -5  -2  -3   53.69    4.40
  -5  -2  -3   47.10    4.50
   4  -3  -3  183.98   15.20
   4  -3  -3  232.58   20.70
   4  -3  -3  199.88   15.30
   4  -3  -3  190.08   14.40
   3  -3  -3   45.10    5.20
   3  -3  -3   46.20    4.20
   3  -3  -3   46.00    4.70
   3  -3  -3   43.70    4.20
   3  -3  -3   48.70    8.90
   3  -3  -3   53.49    9.10
  -3   3   3   46.10    5.60
  -3   3   3   46.10    5.20
   2  -3  -3 1809.32  128.49
   2  -3  -3 1869.21  129.39
   2  -3  -3 1701.63  130.29
   2  -3  -3 1554.44  131.69
   2  -3  -3 1885.21  129.69
  -2   3   3 2007.10  130.09
  -2   3   3 1996.50  129.69
   1  -3  -3  162.28   12.30
  -1   3   3  167.88   12.50
  -1   3   3  173.08   12.70
  -1   3   3  168.98   13.30
   0   3   3 1705.13  130.19
   0   3   3 1979.10  130.29
  -1  -3  -3  895.31   65.79
   1   3   3  808.42   60.59
   1   3   3  800.42   59.49
   1   3   3  861.91   59.49
  -2  -3  -3   36.80    7.30
  -2  -3  -3   28.40    2.80
   2   3   3   33.70    3.10
   2   3   3   25.50    5.10
   2   3   3   34.50    3.00
  -3  -3  -3  357.96   24.20
   3   3   3  302.27   24.60
   3   3   3  323.27   24.00
   3   3   3  323.37   24.30
   3   3   3  371.46   23.80
   3   3   3  290.57   24.10
  -4  -3  -3    1.10    1.20
   4   3   3    2.60    1.60
   4   3   3    3.90    1.00
   4   3   3    5.20    1.90
   4   3   3    3.50    1.50
   4   3   3    3.10    1.40
   4   3   3    2.50    4.90
   4   3   3   -0.60    2.60
   4   3   3    3.10    1.50
   4   3   3    1.70    1.80
   4   3   3    3.30    1.10
   4  -4  -3  136.89   12.60
   4  -4  -3  106.89    9.50
   4  -4  -3  110.39    8.60
   4  -4  -3  110.89    9.60
   4  -4  -3  112.09    9.50
   3  -4  -3   92.49   10.60
   3  -4  -3   89.59    7.30
   3  -4  -3   83.49    7.30
   3  -4  -3   89.69    7.80
   3  -4  -3   81.29   11.50
   3  -4  -3   84.29    6.50
  -3   4   3   90.09    8.50
  -3   4   3   87.19    9.10
   2  -4  -3  486.35   33.70
   2  -4  -3  415.16   36.10
   2  -4  -3  397.56   32.60
  -2   4   3  512.35   34.10
  -2   4   3  510.75   34.70
  -1   4   3 1556.34  113.39
  -1   4   3 1581.04  112.29
  -1   4   3 1620.14  112.69
   0   4   3  568.64   38.20
   0   4   3  470.35   38.90
   0   4   3  556.04   38.40
  -1  -4  -3  833.12   72.09
   1   4   3  944.81   65.29
   1   4   3  957.00   65.09
  -2  -4  -3    1.00    0.70
  -2  -4  -3    1.60    3.60
   2   4   3    4.10    1.20
   2   4   3    2.50    1.00
   2   4   3   -0.60    2.50
  -3  -4  -3  316.47   22.50
   3   4   3  314.27   22.50
   3   4   3  295.67   22.30
   3   4   3  285.27   23.10
   3   4   3  281.07   22.40
   3   4   3  262.77   26.50
   3   4   3  353.26   22.10
   3   4   3  293.27   22.50
  -4  -4  -3   43.90    5.00
   4   4   3   59.69    4.50
   4   4   3   54.49    5.50
   4   4   3   43.40    5.20
   4   4   3   50.99    4.40
   4   4   3   53.19    4.10
   4   4   3   55.49    5.10
   4   4   3   60.79    5.60
   4   4   3   55.19    5.20
   4   4   3   51.29    4.90
   4  -5  -3   90.69    8.90
   4  -5  -3   69.09    6.80
   4  -5  -3   68.09    5.90
   4  -5  -3   71.09    6.80
   4  -5  -3   68.29    6.80
   3  -5  -3  379.16   26.40
   3  -5  -3  292.77   27.30
   3  -5  -3  386.26   26.40
   3  -5  -3  411.56   29.10
   3  -5  -3  356.26   30.30
   3  -5  -3  304.57   26.50
   3  -5  -3  360.26   25.50
   2  -5  -3   29.70    3.70
   2  -5  -3   35.10    6.20
   2  -5  -3   45.20    5.00
   2  -5  -3   28.50    3.60
  -2   5   3   40.30    5.50
  -2   5   3   39.10    5.00
   1  -5  -3  860.81   60.69
   1  -5  -3  876.31   64.19
   1  -5  -3  900.21   61.79
  -1   5   3  766.52   61.39
  -1   5   3  824.52   62.49
   0  -5  -3  267.37   22.30
   0   5   3  236.88   18.70
   0   5   3  248.38   18.50
  -1  -5  -3  593.64   54.99
   1   5   3  689.73   50.39
   1   5   3  697.43   49.60
  -2  -5  -3   98.79   14.30
  -2  -5  -3   83.89    7.60
   2   5   3   99.19    8.10
   2   5   3  103.79    7.90
   2   5   3   80.49    9.50
  -3  -5  -3   23.70    3.20
   3   5   3   29.80    7.00
   3   5   3   24.80    4.20
   3   5   3   28.40    3.00
   3   5   3   29.40    6.50
   3   5   3   23.40    3.10
   3   5   3   24.40    3.00
   3   5   3   26.20    3.20
   3   5   3   24.20    3.30
   3   5   3   23.20    3.30
   3   5   3   20.80    2.50
  -4  -5  -3  120.39   11.30
   4   5   3  128.59   11.40
   4   5   3  152.28   10.70
   4   5   3  135.59   11.70
   4   5   3  170.08   11.30
   4   5   3  150.88   11.30
   4   5   3  141.59   11.80
   4   5   3  136.29   11.60
   4   5   3  150.38   11.00
   4   5   3  149.69   11.30
   4  -6  -3    1.90    1.70
   4  -6  -3    3.50    1.30
   4  -6  -3    2.30    2.10
   4  -6  -3    0.10    2.50
   4  -6  -3    0.80    2.10
   4  -6  -3    2.00    1.60
  -4   6   3    2.90    2.80
   3  -6  -3  285.07   20.00
   3  -6  -3  236.28   20.00
   3  -6  -3  262.87   20.40
   3  -6  -3  241.68   19.90
   3  -6  -3  245.98   18.60
   3  -6  -3  282.47   21.20
   3  -6  -3  251.47   19.60
   3  -6  -3  225.58   21.70
   3  -6  -3  252.87   19.60
   2  -6  -3  306.27   24.30
   2  -6  -3  333.27   24.30
   2  -6  -3  310.77   26.10
   2  -6  -3  335.27   23.20
   2  -6  -3  356.46   25.40
  -2   6   3  285.67   26.00
  -2   6   3  318.97   25.60
   1  -6  -3  422.96   30.10
   1  -6  -3  443.76   33.20
   1  -6  -3  382.56   29.40
   1  -6  -3  469.85   30.80
  -1   6   3  418.76   31.10
  -1   6   3  341.87   32.10
  -1   6   3  347.37   31.40
   0  -6  -3 1652.43  114.49
   0  -6  -3 1681.53  117.59
   0   6   3 1488.25  114.69
   0   6   3 1576.54  114.39
   0   6   3 1678.03  114.19
  -1  -6  -3  350.06   33.70
  -1  -6  -3  341.67   25.80
   1   6   3  330.67   26.60
   1   6   3  391.56   30.20
  -2  -6  -3  624.84   45.30
  -2  -6  -3  564.84   53.99
   2   6   3  712.23   45.80
   2   6   3  672.43   46.00
   2   6   3  546.55   46.40
  -3  -6  -3   24.70    3.40
   3   6   3   22.10    3.30
   3   6   3   30.60    3.80
   3   6   3   27.90    3.30
   3   6   3   27.80    3.80
   3   6   3   25.00    2.70
   3   6   3   25.30    3.50
  -4  -6  -3   51.29    5.20
   4   6   3   56.59    5.20
   4   6   3   48.20    5.50
   4   6   3   62.79    4.70
   4   6   3   49.00    5.20
   4   6   3   59.39    5.80
   4  -7  -3   43.90    4.50
   4  -7  -3   52.79    5.10
   4  -7  -3   51.79    3.80
   4  -7  -3   44.40    4.60
   4  -7  -3   45.10    4.60
   3  -7  -3   38.40    4.80
   3  -7  -3   28.10    5.00
   3  -7  -3   32.00    4.80
   3  -7  -3   38.80    5.30
   3  -7  -3   27.70    3.60
   3  -7  -3   37.60    5.40
   3  -7  -3   28.50    4.60
   3  -7  -3   34.50    5.30
   3  -7  -3   31.90    4.50
   3  -7  -3   24.90    5.40
   2  -7  -3  387.06   29.60
   2  -7  -3  397.26   28.10
   2  -7  -3  368.26   28.10
   2  -7  -3  325.87   28.70
   2  -7  -3  343.57   28.10
   2  -7  -3  380.06   28.30
   2  -7  -3  389.16   26.70
   1  -7  -3   29.90    3.90
   1  -7  -3   28.30    3.30
   1  -7  -3   23.70    3.20
   1  -7  -3   24.70    5.00
   1  -7  -3   30.30    4.10
  -1   7   3   19.20    5.90
  -1   7   3   32.20    5.00
  -1   7   3   24.00    5.10
   0  -7  -3  649.24   47.50
   0  -7  -3  682.83   48.00
   0  -7  -3  665.23   49.90
   0   7   3  553.14   50.19
   0   7   3  670.23   47.20
   0   7   3  697.13   46.90
  -1  -7  -3  564.34   48.20
  -1  -7  -3  506.75   38.90
   1   7   3  551.14   39.60
   1   7   3  542.95   43.60
   1   7   3  510.55   38.80
  -2  -7  -3  613.64   41.60
   2   7   3  571.24   41.90
   2   7   3  523.75   40.50
   2   7   3  546.05   42.10
  -3  -7  -3  147.49   12.80
  -3  -7  -3  151.48   11.40
   3   7   3  129.19   10.70
   3   7   3  134.39   11.60
   3   7   3  115.29   10.60
  -4  -7  -3    5.90    1.80
   4   7   3   10.30    2.20
   4   7   3   15.90    2.90
   4   7   3   10.90    2.40
   4   7   3    9.20    2.00
   4   7   3   15.50    2.00
   3  -8  -3   36.40    4.90
   3  -8  -3   34.00    3.30
   3  -8  -3   34.20    4.40
   3  -8  -3   35.40    4.80
   3  -8  -3   34.50    4.90
   3  -8  -3   42.30    5.60
   3  -8  -3   39.90    5.20
   3  -8  -3   42.20    5.30
  -3   8   3   35.00    5.10
   2  -8  -3  399.96   30.40
   2  -8  -3  372.76   30.00
   2  -8  -3  464.05   31.00
   2  -8  -3  434.36   31.00
   2  -8  -3  410.96   31.30
   2  -8  -3  404.06   30.90
   2  -8  -3  445.36   30.70
   2  -8  -3  361.46   32.20
   2  -8  -3  423.86   31.00
   2  -8  -3  451.55   29.30
   2  -8  -3  367.86   29.00
  -2   8   3  344.67   30.40
   1  -8  -3  374.86   25.70
   1  -8  -3  353.56   24.90
   1  -8  -3  327.67   25.40
   1  -8  -3  356.86   25.80
  -1   8   3  322.47   30.90
  -1   8   3  329.27   26.40
  -1   8   3  340.67   25.90
   0  -8  -3  521.95   37.60
   0   8   3  511.95   37.90
   0   8   3  536.25   37.60
   0   8   3  513.65   43.00
  -1  -8  -3  625.34   42.20
  -1  -8  -3  566.74   41.20
   1   8   3  563.34   46.20
   1   8   3  564.04   41.90
   1   8   3  549.85   41.40
  -2  -8  -3   31.90    4.20
   2   8   3   35.10    5.40
   2   8   3   24.00    3.80
   2   8   3   31.00    4.60
   2   8   3   32.80    5.00
  -3  -8  -3  212.38   15.60
   3   8   3  168.28   14.90
   3   8   3  235.78   18.00
   3   8   3  221.88   16.00
   3   8   3  175.18   16.00
  -4  -8  -3   10.60    1.70
   4   8   3   10.00    1.50
   4   8   3   14.10    2.00
   3  -9  -3  104.89    8.40
   3  -9  -3  102.59    8.80
   3  -9  -3  111.39    9.10
   3  -9  -3  122.99    8.80
   3  -9  -3  104.19    8.70
  -3   9   3   97.59    8.60
   2  -9  -3   82.89    7.50
   2  -9  -3   76.89    6.90
   2  -9  -3   83.29    6.60
   2  -9  -3   81.99    7.70
   2  -9  -3   94.19    7.60
   2  -9  -3   81.79    7.60
   2  -9  -3   79.49    7.50
  -2   9   3   79.89    7.30
   1  -9  -3 1517.05  109.99
   1  -9  -3 1736.73  109.79
   1  -9  -3 1721.23  109.89
   1  -9  -3 1603.04  109.99
   1  -9  -3 1573.94  109.99
   1  -9  -3 1492.95  109.29
  -1   9   3 1388.06  109.89
  -1   9   3 1428.56  109.49
  -1   9   3 1471.65  109.59
   0  -9  -3   96.89    7.60
   0   9   3   84.49    7.80
   0   9   3   95.59   12.70
   0   9   3   93.99    7.60
   0   9   3   92.09    7.40
  -1  -9  -3  419.76   28.10
  -1  -9  -3  399.26   27.20
   1   9   3  347.47   27.30
   1   9   3  346.07   27.70
   1   9   3  318.67   34.60
   1   9   3  393.16   27.20
  -2  -9  -3  145.29   11.30
   2   9   3  124.19   10.50
   2   9   3  128.99   11.80
  -3  -9  -3  106.69    8.20
   3   9   3  114.49    8.60
   3   9   3   94.99    7.70
   3   9   3   97.59    8.30
   3   9   3   99.09    9.50
   3 -10  -3  107.39    8.70
  -3  10   3  123.99    8.70
   2 -10  -3  212.88   15.90
   2 -10  -3  204.38   16.10
   2 -10  -3  222.28   15.40
   2 -10  -3  205.98   16.30
   2 -10  -3  201.48   16.00
  -2  10   3  213.88   15.90
  -2  10   3  223.88   16.20
   1 -10  -3   72.89    5.80
   1 -10  -3   68.99    6.20
   1 -10  -3   66.59    5.60
   1 -10  -3   66.29    6.10
   1 -10  -3   69.09    6.10
  -1  10   3   71.69    6.10
  -1  10   3   61.69    5.60
   0 -10  -3  326.07   23.10
   0  10   3  291.37   23.10
   0  10   3  327.47   23.00
  -1 -10  -3   61.89    5.90
  -1 -10  -3   59.69    5.30
   1  10   3   61.79    5.30
   2  10   3  253.47   18.70
   3  10   3   23.50    2.10
   3  10   3   27.00    2.80
   2 -11  -3  184.68   12.50
   2 -11  -3  159.78   13.10
  -2  11   3  187.88   13.10
  -2  11   3  162.38   12.80
   1 -11  -3    4.80    2.00
   1 -11  -3    5.20    1.40
  -1  11   3    7.70    2.00
  -1  11   3    6.70    1.50
   0 -11  -3  191.68   14.80
   0  11   3  205.28   14.80
  -1 -11  -3   87.89    7.20
   1  11   3   88.99    7.10
   2  11   3   77.29    6.30
   3  11   3   48.60    4.00
  -2  12   3   70.59    5.60
   1 -12  -3   34.70    3.20
  -1  12   3   34.60    3.40
   0 -12  -3  170.98   13.30
   0  12   3  186.98   13.40
  -1 -12  -3   95.39    7.20
   1  12   3   89.19    7.20
   2  12   3    2.20    1.00
  -1  13   3  121.89    9.10
   0 -13  -3   -0.60    0.60
   0  13   3   -1.10    1.00
  -1 -13  -3  122.39    9.00
   1  13   3  116.99    8.90
   1  12  -4  137.29   10.00
   0  12  -4    2.70    0.80
  -1  12  -4  106.59    7.80
   2  11  -4    6.20    1.40
   1  11  -4  185.18   14.10
  -1 -11   4  204.18   14.10
   0  11  -4   69.79    5.40
   0 -11   4   66.99    5.30
  -1  11  -4  148.19   10.90
  -2  11  -4  132.09    9.60
   3  10  -4   23.50    2.90
   3  10  -4   24.60    2.80
   3  10  -4   29.20    2.50
   2  10  -4   88.59    6.80
   2  10  -4   96.09    7.10
   2  10  -4   86.29    8.40
   2  10  -4   92.69    6.70
  -2 -10   4   95.09    6.90
   1  10  -4   51.59    6.10
   1  10  -4   65.29    4.90
   1  10  -4   72.69    5.30
   1  10  -4   56.39    6.50
   1  10  -4   65.89    4.90
  -1 -10   4   70.99    5.20
   0  10  -4  387.96   26.70
   0 -10   4  356.76   26.60
  -1  10  -4    0.70    1.00
  -2  10  -4  191.38   14.00
   3   9  -4   11.40    1.30
   3   9  -4    8.60    1.30
   3   9  -4   10.40    1.30
   3   9  -4    6.00    2.10
   3   9  -4    6.10    2.20
   3   9  -4   11.10    1.00
   3   9  -4    9.90    1.40
   3   9  -4   10.30    1.20
   2   9  -4  160.48   12.10
   2   9  -4  159.08   11.60
   2   9  -4  162.28   11.50
   2   9  -4  152.08   11.80
   2   9  -4  164.88   12.00
   2   9  -4  160.28   11.60
   2   9  -4  140.69   13.40
  -2  -9   4  168.78   11.70
   1   9  -4  103.39    7.90
   1   9  -4  100.29    7.90
   1   9  -4   94.69    9.60
   1   9  -4  111.19   11.20
   1   9  -4   96.79    7.50
   1   9  -4   97.39    7.60
  -1  -9   4  108.29    7.80
  -1  -9   4   99.99    8.10
   0   9  -4  341.47   24.00
   0   9  -4  378.16   24.40
   0   9  -4  347.27   24.10
   0   9  -4  283.37   25.30
   0  -9   4  335.87   24.20
  -1   9  -4  278.67   20.20
  -1   9  -4  302.17   20.10
  -1   9  -4  256.57   20.00
   1  -9   4  267.37   20.10
   1  -9   4  274.27   20.20
  -2   9  -4   49.30    4.00
   2  -9   4   35.60    3.70
   2  -9   4   38.80    3.90
  -3   9  -4  136.29   10.10
   3  -9   4  138.29    9.90
   3   8  -4   34.70    3.30
   3   8  -4   38.30    3.20
   3   8  -4   36.40    3.40
   3   8  -4   35.80    2.90
   3   8  -4   34.70    3.50
   3   8  -4   37.40    3.10
   3   8  -4   26.90    4.40
   3   8  -4   35.30    4.70
   2   8  -4  464.85   34.60
   2   8  -4  465.45   31.00
   2   8  -4  401.26   29.60
   2   8  -4  423.56   29.80
   2   8  -4  407.96   30.20
   2   8  -4  360.06   31.60
   2   8  -4  413.06   30.30
   2   8  -4  386.86   30.00
   2   8  -4  426.46   29.90
   2   8  -4  350.66   31.50
  -2  -8   4  442.16   30.40
  -2  -8   4  462.55   29.90
   1   8  -4  215.28   16.80
   1   8  -4  227.58   16.20
   1   8  -4  214.38   15.90
   1   8  -4  207.28   16.10
   1   8  -4  233.38   18.20
   1   8  -4  223.28   16.20
   1   8  -4  203.98   17.80
  -1  -8   4  229.18   16.50
   0   8  -4    5.40    2.20
   0   8  -4    6.40    1.30
   0   8  -4    2.30    1.00
   0   8  -4    1.40    1.10
  -1   8  -4  405.56   29.80
  -1   8  -4  397.96   29.80
  -1   8  -4  468.75   30.20
   1  -8   4  412.06   30.30
   1  -8   4  410.76   30.20
  -2   8  -4    6.00    1.20
  -2   8  -4    2.30    1.70
  -2   8  -4    4.00    0.90
   2  -8   4    1.10    1.00
   2  -8   4    1.80    1.10
  -3   8  -4  149.19   11.70
  -3   8  -4  177.98   12.30
  -3   8  -4  154.38   11.80
   3  -8   4  164.18   11.60
   3  -8   4  157.78   12.20
   4   7  -4   22.70    2.10
   4   7  -4   20.40    1.80
   4   7  -4   20.20    2.00
   4   7  -4   22.60    1.90
   4   7  -4   26.00    3.40
   3   7  -4  229.38   17.50
   3   7  -4  217.68   18.30
   3   7  -4  203.08   16.90
   3   7  -4  231.78   16.80
   3   7  -4  226.98   17.10
   3   7  -4  237.98   16.60
   3   7  -4  225.78   16.20
   3   7  -4  235.78   16.70
   2   7  -4   85.29    7.30
   2   7  -4   75.29    7.20
   2   7  -4  100.29    8.20
   2   7  -4   76.09    7.40
   2   7  -4   79.99    6.50
   2   7  -4   88.39    6.90
   2   7  -4   89.69    6.80
   2   7  -4  104.59   11.50
   2   7  -4   80.69    7.00
  -2  -7   4   96.79    7.40
   1   7  -4  746.33   56.39
   1   7  -4  775.82   56.79
   1   7  -4  849.91   61.19
   1   7  -4  813.62   57.29
   1   7  -4  770.52   57.19
  -1  -7   4  817.12   56.79
   0   7  -4    4.20    1.10
   0   7  -4    4.90    1.40
   0   7  -4   11.70    4.20
  -1   7  -4  431.86   35.40
  -1   7  -4  440.56   32.30
   1  -7   4  449.36   31.80
  -2   7  -4  341.37   24.90
  -2   7  -4  328.27   24.40
  -2   7  -4  305.07   24.20
   2  -7   4  377.16   24.70
   2  -7   4  326.87   24.70
   2  -7   4  332.27   24.60
  -3   7  -4   40.70    3.90
  -3   7  -4   41.50    4.80
  -3   7  -4   39.80    3.80
   3  -7   4   41.50    3.40
   3  -7   4   50.19    4.20
   3  -7   4   36.80    4.20
   3  -7   4   38.30    4.10
   4   6  -4    4.80    1.30
   4   6  -4    6.60    1.40
   4   6  -4    8.30    1.20
   4   6  -4    8.50    1.40
   4   6  -4    7.50    2.60
   4   6  -4    5.90    1.00
   3   6  -4   83.59    8.20
   3   6  -4   67.79    7.00
   3   6  -4   81.79    7.00
   3   6  -4   70.79    6.70
   3   6  -4   86.59    7.00
   3   6  -4   80.09    6.00
   3   6  -4   83.39    6.90
   3   6  -4   80.69    7.10
   2   6  -4  373.46   26.30
   2   6  -4  386.36   30.00
   2   6  -4  291.67   25.90
   2   6  -4  311.17   25.40
   2   6  -4  302.37   25.20
   2   6  -4  341.27   25.20
  -2  -6   4  374.56   25.10
   1   6  -4  170.48   14.20
   1   6  -4  192.08   14.60
   1   6  -4  199.48   15.00
   1   6  -4  199.08   18.20
   1   6  -4  174.08   14.60
  -1  -6   4  192.28   14.20
   0   6  -4 1318.47   87.39
   0   6  -4 1277.37   91.49
   0   6  -4 1367.06   87.79
   0   6  -4 1138.99   87.79
   0  -6   4 1077.69   87.29
  -1   6  -4   21.90    3.10
  -1   6  -4   16.70    4.50
   1  -6   4   22.90    2.50
  -2   6  -4  568.04   46.80
   2  -6   4  603.34   46.40
   2  -6   4  682.33   46.40
   2  -6   4  668.93   46.40
   2  -6   4  688.23   46.40
  -3   6  -4   55.99    6.10
  -3   6  -4   58.29    7.20
  -3   6  -4   54.89    6.50
   3  -6   4   70.99    6.10
   3  -6   4   60.09    6.10
   3  -6   4   67.39    6.00
   3  -6   4   62.79    5.00
   3  -6   4   67.29    6.10
  -4   6  -4  114.59    8.60
  -4   6  -4  103.09    8.00
  -4   6  -4  105.49    8.10
   4   5  -4   63.69    5.30
   4   5  -4   53.79    5.20
   4   5  -4   53.39    5.60
   4   5  -4   68.09    5.80
   4   5  -4   60.89    4.80
   4   5  -4   55.59    4.80
   3   5  -4   10.00    2.10
   3   5  -4   10.20    2.60
   3   5  -4   14.90    3.00
   3   5  -4    8.20    2.40
   3   5  -4   10.50    2.60
   3   5  -4   11.20    2.00
   3   5  -4    7.70    1.30
   2   5  -4  259.47   22.60
   2   5  -4  239.68   18.50
   2   5  -4  200.88   18.60
   2   5  -4  215.08   18.10
   2   5  -4  250.97   19.30
   2   5  -4  222.58   18.40
  -2  -5   4  263.97   17.90
   1   5  -4   21.50    3.00
   1   5  -4   15.60    4.70
   1   5  -4   16.50    2.80
   1   5  -4   18.50    2.70
   1   5  -4   17.80    2.50
  -1  -5   4   18.20    2.20
   0   5  -4 1393.86   90.79
   0   5  -4 1420.66   91.19
   0   5  -4 1200.88   94.19
   0   5  -4 1117.09   91.19
  -1   5  -4  149.29   15.00
  -1   5  -4  159.98   12.90
   1  -5   4  169.58   12.20
   2  -5   4  140.19   11.20
  -3   5  -4  252.97   20.30
  -3   5  -4  252.07   20.00
   3  -5   4  300.57   20.50
   3  -5   4  313.47   20.70
   3  -5   4  227.88   19.90
   3  -5   4  248.78   21.00
   3  -5   4  267.27   19.80
   3  -5   4  261.67   20.10
   3  -5   4  275.87   20.30
   3  -5   4  258.27   19.20
  -4   5  -4    0.80    2.70
  -4   5  -4   -0.90    1.90
  -4   5  -4   -0.70    2.40
   4  -5   4    0.80    1.60
   4  -5   4    0.80    1.40
   4  -5   4    1.20    1.00
   4   4  -4   45.30    4.70
   4   4  -4   52.39    4.10
   4   4  -4   40.30    5.00
   4   4  -4   49.90    5.10
   4   4  -4   56.29    4.70
   4   4  -4   56.99    4.80
   3   4  -4   17.80    3.00
   3   4  -4   12.40    1.80
   3   4  -4   18.60    2.60
   3   4  -4   16.20    2.10
   3   4  -4   16.20    2.20
   3   4  -4   16.70    3.10
   3   4  -4   16.10    2.60
   3   4  -4   17.40    2.80
   3   4  -4   14.50    2.50
   2   4  -4  176.38   14.50
   2   4  -4  173.38   15.00
   2   4  -4  189.78   15.00
   2   4  -4  216.68   19.90
   2   4  -4  170.48   14.30
  -2  -4   4  206.18   14.50
   1   4  -4  542.35   41.60
   1   4  -4  563.04   41.20
   1   4  -4  580.64   41.90
   1   4  -4  601.64   41.70
   0   4  -4  101.09    7.80
   0   4  -4  109.69    8.10
   0   4  -4   89.59    8.20
   0   4  -4  107.09   11.10
  -1   4  -4  840.72   64.29
  -1   4  -4  818.52   65.89
   1  -4   4 1011.40   64.39
  -2   4  -4    4.20    2.10
   2  -4   4    8.70    2.00
  -3   4  -4  267.07   19.30
  -3   4  -4  255.57   19.00
   3  -4   4  235.58   20.80
   3  -4   4  294.67   21.10
   3  -4   4  260.47   19.20
   3  -4   4  238.98   18.60
   3  -4   4  265.17   19.40
   3  -4   4  252.17   18.80
   3  -4   4  235.58   18.90
  -4   4  -4    8.00    2.80
  -4   4  -4   10.40    3.30
  -4   4  -4    9.60    3.20
   4  -4   4   15.70    2.50
   4  -4   4   16.10    2.20
   4  -4   4   12.10    2.20
   4  -4   4   13.70    3.50
   4  -4   4   15.50    2.60
   4   3  -4   64.79    6.20
   4   3  -4   70.89    5.30
   4   3  -4   74.09    6.20
   4   3  -4   70.39    5.90
   4   3  -4   65.49    6.00
   3   3  -4  162.28   11.40
   3   3  -4  129.59   10.80
   3   3  -4  152.78   12.30
   3   3  -4  118.19   11.40
   3   3  -4  150.48   11.30
   3   3  -4  117.89   11.00
   3   3  -4  162.68   11.20
   3   3  -4  149.49   11.70
   3   3  -4  143.79   11.10
   2   3  -4  206.18   15.80
   2   3  -4  232.18   20.60
   2   3  -4  198.88   15.30
   2   3  -4  202.68   14.90
   2   3  -4  182.38   15.90
  -2  -3   4  198.98   15.40
   1   3  -4 1060.09   76.79
   1   3  -4 1065.29   77.09
   1   3  -4 1124.39   77.39
   0   3  -4  272.97   20.80
   0   3  -4  272.37   20.10
   0   3  -4  262.67   19.90
   0   3  -4  293.47   23.60
  -1   3  -4  414.96   30.50
  -2   3  -4  361.16   26.60
  -3   3  -4  169.48   12.00
  -3   3  -4  140.09   11.40
  -3   3  -4  168.28   12.10
   3  -3   4  155.18   13.70
   3  -3   4  153.08   11.80
   3  -3   4  148.29   11.60
   3  -3   4  142.09   11.40
   3  -3   4  131.79   11.20
   3  -3   4  143.19   14.10
   3  -3   4  157.58   11.70
   3  -3   4  141.99   11.50
  -4   3  -4  223.18   17.10
  -4   3  -4  221.48   16.90
   4  -3   4  205.08   18.60
   4  -3   4  239.38   16.00
   4  -3   4  208.88   16.70
   4  -3   4  221.78   16.60
   4  -3   4  229.38   17.10
   4  -3   4  228.08   16.90
   4   2  -4    1.50    1.50
   4   2  -4    0.90    1.10
   4   2  -4    1.20    1.10
   4   2  -4    2.10    0.70
   4   2  -4    1.10    1.30
   4   2  -4    0.70    1.30
   3   2  -4  276.17   21.90
   3   2  -4  296.87   22.80
   3   2  -4  295.27   21.90
   3   2  -4  288.87   22.30
   3   2  -4  327.67   21.90
   2   2  -4  509.65   34.60
   2   2  -4  513.95   34.20
  -2  -2   4  398.06   34.20
   1   2  -4 1575.14  112.89
   1   2  -4 1572.74  112.69
   1   2  -4 1624.74  117.89
   1   2  -4 1621.14  113.59
   0   2  -4  570.84   43.80
   0   2  -4  599.74   42.00
  -1   2  -4  140.19   12.00
  -1   2  -4  121.29    9.90
  -2   2  -4  929.71   73.89
   2  -2   4 1089.79   75.09
   2  -2   4 1112.69   74.89
   3  -2   4    4.20    3.60
   3  -2   4    2.80    1.10
   3  -2   4    4.80    2.80
   3  -2   4    2.90    1.40
  -4   2  -4  174.88   14.20
  -4   2  -4  192.88   14.30
  -4   2  -4  193.18   14.10
   4  -2   4  174.28   13.90
   4  -2   4  186.98   13.40
   4  -2   4  182.88   14.10
   4  -2   4  194.98   14.30
   4  -2   4  171.58   16.70
   4  -2   4  185.28   13.90
   4  -2   4  188.28   14.40
   4   1  -4   62.99    5.40
   4   1  -4   58.39    5.50
   4   1  -4   60.29    5.00
   4   1  -4   67.69    4.60
   4   1  -4   47.70    5.10
   3   1  -4   79.79    7.40
   3   1  -4   76.69    6.70
   3   1  -4   82.29    6.50
   3   1  -4   74.39    7.40
   3   1  -4   80.59    7.00
   2   1  -4  856.21   66.49
   2   1  -4  887.51   66.69
  -2  -1   4 1076.39   70.59
   1   1  -4  681.43   52.09
   1   1  -4  653.23   51.99
  -1  -1   4  875.81   53.49
   0   1  -4 2034.80  144.59
  -1   1  -4  248.08   19.50
  -1   1  -4  202.78   15.90
   1  -1   4  219.38   15.60
  -2   1  -4  451.85   32.80
  -2   1  -4  436.16   38.30
  -2   1  -4  442.66   32.80
   2  -1   4  460.25   32.60
   2  -1   4  459.45   32.20
   2  -1   4  515.85   34.40
   2  -1   4  444.06   32.70
   3  -1   4  469.65   38.80
   3  -1   4  472.15   34.20
   3  -1   4  480.75   37.00
  -4   1  -4   42.40    4.30
  -4   1  -4   38.20    4.10
   4  -1   4   34.50    7.50
   4  -1   4   32.00    6.40
   4  -1   4   32.10    3.50
   4  -1   4   38.90    4.00
   4  -1   4   37.90    3.60
   4  -1   4   34.70    3.80
   4  -1   4   33.20    3.40
   4  -1   4   34.90    3.90
   4   0  -4  186.08   14.30
   4   0  -4  193.88   13.90
   4   0  -4  204.68   14.80
   4   0  -4  192.68   14.90
   3   0  -4   27.10    2.90
   3   0  -4   22.20    3.00
   3   0  -4   24.10    3.50
   3   0  -4   19.30    6.50
   2   0  -4  266.07   20.20
   2   0  -4  264.17   20.00
  -2   0   4  302.07   23.50
   1   0  -4  169.28   12.00
   1   0  -4  164.98   11.80
   1   0  -4  158.38   13.60
   0   0  -4 1666.53  127.49
   0   0  -4 1972.30  130.39
  -1   0  -4  942.11   65.19
   1   0   4  796.02   60.79
  -2   0  -4  207.38   20.30
   2   0   4  210.08   15.00
   2   0   4  196.88   14.50
   2   0   4  213.48   14.90
   3   0   4  442.26   34.60
   3   0   4  470.95   32.00
   3   0   4  424.96   33.90
   3   0   4  405.76   36.50
   3   0   4  439.86   31.50
  -4   0  -4   37.10    4.20
   4   0   4   38.10    3.50
   4   0   4   38.90    3.40
   4   0   4   33.10    3.80
   4   0   4   38.10    4.10
   4   0   4   38.70    8.50
   4   0   4   30.80    6.80
   4   0   4   31.60    3.90
   4   0   4   38.10    4.50
   4   0   4   40.20    4.00
  -5   0  -4   54.39    5.00
  -5   0  -4   47.50    4.90
   5   0   4   59.79    4.80
   4  -1  -4   24.10    3.50
   4  -1  -4   28.80    2.40
   4  -1  -4   26.10    3.20
   3  -1  -4  204.78   16.30
   3  -1  -4  199.98   22.20
   3  -1  -4  209.48   16.10
   3  -1  -4  219.88   16.50
  -3   1   4  218.78   16.80
   2  -1  -4  192.78   19.10
   2  -1  -4  228.98   16.20
   2  -1  -4  239.88   16.50
  -2   1   4  216.48   19.80
   1  -1  -4 1222.88   82.79
   1  -1  -4 1047.40   85.19
   1  -1  -4 1255.07   82.89
   0  -1  -4  299.07   22.00
  -1  -1  -4 1153.58   81.39
  -1  -1  -4 1086.79   85.59
   1   1   4 1211.18   81.39
  -2  -1  -4   13.00    4.80
   2   1   4   15.70    1.60
   2   1   4   14.00    1.40
   2   1   4   16.60    3.30
  -3  -1  -4  215.78   16.50
   3   1   4  190.28   21.50
   3   1   4  195.58   16.40
   3   1   4  216.98   19.50
   3   1   4  242.38   16.80
   3   1   4  230.68   17.80
   3   1   4  235.38   16.10
  -4  -1  -4   95.79    8.00
   4   1   4  104.29    8.00
   4   1   4   94.59    8.00
   4   1   4   98.79    7.50
   4   1   4   90.69    8.50
   4   1   4   85.19   11.50
   4   1   4  101.29    8.20
   4   1   4   88.99    7.80
   4   1   4   84.39   14.10
  -5  -1  -4    2.80    1.50
  -5  -1  -4    1.60    1.60
   4  -2  -4    4.20    3.40
   4  -2  -4    1.00    1.30
   4  -2  -4    4.10    0.90
   4  -2  -4    5.30    2.10
   4  -2  -4    6.80    2.00
   3  -2  -4  263.37   19.30
   3  -2  -4  255.77   18.70
   3  -2  -4  217.08   21.90
   3  -2  -4  252.37   24.60
   3  -2  -4  231.18   18.30
   3  -2  -4  235.38   18.20
  -3   2   4  258.57   19.60
  -3   2   4  271.17   19.10
   2  -2  -4  248.88   18.20
   2  -2  -4  235.58   17.20
   2  -2  -4  249.97   17.90
   2  -2  -4  218.68   20.90
  -2   2   4  268.17   18.50
   1  -2  -4  862.21   62.79
   1  -2  -4  822.42   61.99
   1  -2  -4  861.61   62.09
  -1   2   4  961.50   62.89
  -1   2   4  895.81   62.19
  -1   2   4  866.11   62.09
   0  -2  -4 1567.34  115.49
   0   2   4 1701.53  115.59
  -1  -2  -4   11.70    5.10
   1   2   4   11.70    1.60
   1   2   4   12.10    1.20
  -2  -2  -4  808.82   63.09
   2   2   4  791.12   59.39
   2   2   4  801.32   57.09
   2   2   4  821.22   56.99
  -3  -2  -4    2.70    0.90
   3   2   4   -0.40    2.60
   3   2   4    4.20    2.20
   3   2   4    4.80    1.10
   3   2   4    2.60    1.70
   3   2   4    1.00    0.90
   3   2   4    1.10    0.80
   3   2   4    6.00    5.10
  -4  -2  -4  196.08   14.20
  -4  -2  -4  170.68   14.10
   4   2   4  199.18   13.70
   4   2   4  200.18   14.50
   4   2   4  189.78   14.10
   4   2   4  179.18   14.00
   4   2   4  171.58   13.60
   4   2   4  177.08   14.80
   4   2   4  202.38   14.30
   4   2   4  159.18   18.10
   4   2   4  172.88   19.60
   4  -3  -4    7.80    2.40
   4  -3  -4    6.20    1.10
   4  -3  -4    7.20    2.20
   4  -3  -4    6.30    4.40
   3  -3  -4  258.47   19.00
   3  -3  -4  262.97   20.10
   3  -3  -4  252.67   24.90
   3  -3  -4  260.67   19.60
   3  -3  -4  251.87   19.10
  -3   3   4  252.47   20.50
  -3   3   4  265.17   20.00
   2  -3  -4  187.08   13.30
   2  -3  -4  172.08   12.40
   2  -3  -4  185.18   13.60
   2  -3  -4  159.48   16.20
   2  -3  -4  156.08   13.00
   2  -3  -4  156.38   13.70
  -2   3   4  197.68   14.00
  -2   3   4  195.38   13.60
   1  -3  -4    6.60    1.10
  -1   3   4    8.30    1.40
  -1   3   4    5.20    1.30
  -1   3   4    5.80    1.70
   0  -3  -4 1183.88   92.69
   0   3   4 1202.98   87.39
   0   3   4 1297.47   87.29
  -1  -3  -4   17.90    1.90
  -1  -3  -4   18.50    6.80
   1   3   4   22.90    2.90
   1   3   4   22.10    1.90
   1   3   4   20.30    1.90
  -2  -3  -4  356.16   26.20
  -2  -3  -4  370.06   32.70
   2   3   4  370.06   26.10
   2   3   4  358.06   26.20
  -3  -3  -4  267.97   17.50
   3   3   4  196.18   20.80
   3   3   4  224.18   17.10
   3   3   4  217.78   17.30
   3   3   4  245.58   18.00
  -4  -3  -4   52.79    5.40
   4   3   4   55.99    4.90
   4   3   4   66.69    5.70
   4   3   4   62.19    5.50
   4   3   4   66.79    5.00
   4   3   4   65.59    5.50
   4   3   4   61.59    6.60
   4   3   4   50.89    5.50
   4   3   4   49.40    9.90
   4   3   4   62.19    5.80
   4  -4  -4  107.59    8.10
   4  -4  -4  104.79    8.90
   4  -4  -4  105.69    9.10
   3  -4  -4    1.10    1.20
   3  -4  -4   -0.90    2.50
   3  -4  -4    2.40    4.50
   3  -4  -4    3.80    1.50
   3  -4  -4    2.20    1.70
   3  -4  -4    4.10    0.80
   3  -4  -4    2.80    3.20
  -3   4   4    2.70    2.30
   2  -4  -4  505.65   41.00
   2  -4  -4  591.44   41.30
   2  -4  -4  623.84   42.30
   2  -4  -4  493.75   41.10
   2  -4  -4  565.84   44.90
  -2   4   4  616.84   41.70
  -2   4   4  616.24   42.20
   1  -4  -4    2.10    3.00
   1  -4  -4    7.10    2.60
  -1   4   4    5.40    1.90
  -1   4   4    5.00    1.60
  -1   4   4    6.40    1.70
   0  -4  -4  234.98   20.60
   0   4   4  189.28   14.90
   0   4   4  196.28   14.70
   0   4   4  179.58   15.40
  -1  -4  -4  232.48   18.40
  -1  -4  -4  231.08   26.90
   1   4   4  276.77   18.60
   1   4   4  267.47   18.70
  -2  -4  -4   49.70    4.50
  -2  -4  -4   55.69   10.50
   2   4   4   40.00    7.10
   2   4   4   55.69    4.40
   2   4   4   52.69    4.50
  -3  -4  -4  281.67   19.30
   3   4   4  268.37   18.80
   3   4   4  241.68   19.80
   3   4   4  245.08   19.20
   3   4   4  227.28   23.60
   3   4   4  252.57   18.90
  -4  -4  -4    0.60    1.20
   4   4   4    3.40    1.50
   4   4   4    1.90    2.10
   4   4   4    2.50    1.60
   4   4   4   -3.90    2.40
   4   4   4    3.50    1.80
   4   4   4    1.50    1.00
   4   4   4    2.10    1.60
   4   4   4    4.00    1.10
   4  -5  -4  160.48   12.70
   4  -5  -4  168.58   12.00
   4  -5  -4  158.28   12.70
   4  -5  -4  148.89   12.50
   3  -5  -4  150.48   10.90
   3  -5  -4  157.78   11.80
   3  -5  -4  157.38   16.00
   3  -5  -4  156.78   11.90
   3  -5  -4  138.49   12.20
   3  -5  -4  124.99   13.00
   2  -5  -4  385.66   31.10
   2  -5  -4  451.75   34.50
   2  -5  -4  382.46   31.10
  -2   5   4  474.15   32.20
  -2   5   4  449.36   32.70
   1  -5  -4  548.65   42.30
   1  -5  -4  524.75   37.60
   1  -5  -4  477.05   37.10
  -1   5   4  474.15   38.30
  -1   5   4  488.25   37.90
  -1   5   4  602.24   39.90
   0  -5  -4   41.70    4.30
   0  -5  -4   56.19    5.70
   0   5   4   54.59    4.60
   0   5   4   54.19    4.80
   0   5   4   56.99    6.10
   0   5   4   48.50    5.80
  -1  -5  -4  675.93   53.39
  -1  -5  -4  620.94   61.09
   1   5   4  706.23   55.69
   1   5   4  772.02   55.69
   1   5   4  872.11   54.09
   1   5   4  841.42   53.79
  -2  -5  -4  114.49   17.00
  -2  -5  -4  120.29    9.60
   2   5   4  112.09   12.40
   2   5   4  127.89    9.80
   2   5   4  126.09    9.60
  -3  -5  -4  172.58   12.50
   3   5   4  145.09   12.10
   3   5   4  138.39   12.20
   3   5   4  144.69   11.70
   3   5   4  151.88   12.00
   3   5   4  161.58   12.50
   3   5   4  178.68   13.60
   3   5   4  135.69   15.60
   3   5   4  179.48   12.00
   4   5   4   64.99    6.50
   4   5   4   64.49    6.30
   4   5   4   78.59    6.40
   4   5   4   80.29    5.70
   4   5   4   66.39    5.90
   4   5   4   72.39    6.70
   4   5   4   70.69    7.20
   4   5   4   71.99    6.30
   4  -6  -4   11.70    3.00
   4  -6  -4    4.90    2.80
   4  -6  -4    9.00    2.30
   4  -6  -4    7.90    2.20
   4  -6  -4    7.90    1.60
   4  -6  -4    7.30    2.20
  -4   6   4    5.50    2.30
   3  -6  -4  234.18   19.00
   3  -6  -4  246.28   19.50
   3  -6  -4  245.08   18.30
   3  -6  -4  246.88   19.70
   3  -6  -4  236.88   19.20
   3  -6  -4  281.57   20.40
   3  -6  -4  258.17   22.00
   2  -6  -4    0.10    1.00
   2  -6  -4   -0.90    2.70
   2  -6  -4    1.10    2.10
   2  -6  -4    1.90    0.70
   2  -6  -4   -0.60    1.10
   2  -6  -4    1.80    1.60
  -2   6   4    0.50    2.80
  -2   6   4    0.10    2.60
   1  -6  -4  932.41   63.19
   1  -6  -4  830.22   58.79
   1  -6  -4  770.12   58.19
  -1   6   4  784.02   59.39
  -1   6   4  759.42   61.19
   0  -6  -4  173.08   15.60
   0  -6  -4  153.88   11.80
   0   6   4  151.88   11.30
   0   6   4  150.58   11.60
   0   6   4  141.59   12.00
   0   6   4  116.39   13.20
  -1  -6  -4  554.24   52.79
  -1  -6  -4  596.24   45.70
   1   6   4  627.74   49.00
   1   6   4  635.44   46.90
   1   6   4  763.82   46.40
  -2  -6  -4  320.07   23.90
   2   6   4  312.27   23.80
   2   6   4  298.37   25.50
   2   6   4  346.37   24.00
   2   6   4  322.07   24.20
  -3  -6  -4    1.90    1.40
   3   6   4    1.40    1.40
   3   6   4    3.90    2.80
   3   6   4    8.80    3.90
   3   6   4    2.10    1.10
   3   6   4    2.40    1.30
   3   6   4    3.00    2.10
   3   6   4    1.80    1.70
   3   6   4    0.60    1.30
   3   6   4    1.00    1.30
   3   6   4    3.90    1.30
  -4  -6  -4  118.09   10.40
   4   6   4  126.49   10.40
   4   6   4  123.69   10.40
   4   6   4  133.29   10.70
   4   6   4  141.89   10.90
   4   6   4  148.79   11.10
   4   6   4  126.09   10.10
   4  -7  -4   21.50    3.40
   4  -7  -4   20.10    2.70
   4  -7  -4   18.20    2.70
   4  -7  -4   23.60    2.00
   3  -7  -4   42.00    5.50
   3  -7  -4   37.80    5.00
   3  -7  -4   32.60    4.60
   3  -7  -4   44.80    5.70
   3  -7  -4   46.20    5.40
   3  -7  -4   34.40    5.40
   3  -7  -4   44.50    6.50
   3  -7  -4   54.69    8.10
   3  -7  -4   46.70    6.10
   3  -7  -4   32.80    4.30
   2  -7  -4  317.87   25.70
   2  -7  -4  321.67   24.90
   2  -7  -4  351.26   25.10
   2  -7  -4  325.67   24.40
   2  -7  -4  295.37   22.90
   2  -7  -4  305.07   24.50
   1  -7  -4  142.19   10.90
   1  -7  -4  135.39   11.40
   1  -7  -4  136.39   10.90
   1  -7  -4  133.49   14.00
  -1   7   4  130.99   12.20
  -1   7   4  110.69   13.90
  -1   7   4  146.19   11.90
   0  -7  -4 1098.79   74.59
   0  -7  -4 1069.39   70.89
   0  -7  -4  921.41   70.79
   0   7   4 1015.90   71.19
   0   7   4  825.92   73.49
   0   7   4  996.70   70.29
   0   7   4  991.10   70.59
  -1  -7  -4  119.19   10.10
  -1  -7  -4  122.59   16.50
   1   7   4  133.49   10.40
   1   7   4  106.79   10.60
   1   7   4  115.29   13.70
   1   7   4  146.99   11.40
  -2  -7  -4  234.98   17.50
   2   7   4  226.18   17.50
   2   7   4  216.78   16.80
   2   7   4  213.48   17.70
  -3  -7  -4   28.10    3.90
   3   7   4   41.20    6.10
   3   7   4   28.30    3.50
   3   7   4   24.80    3.60
   3   7   4   24.60    3.60
   3   7   4   31.60    3.80
   3   7   4   37.20    4.40
  -4  -7  -4   43.10    4.30
   4   7   4   44.60    3.90
   4   7   4   35.60    3.80
   4   7   4   43.30    4.30
   4   7   4   43.40    4.00
   3  -8  -4  125.09   10.20
   3  -8  -4  109.79    9.10
   3  -8  -4  109.59    8.30
   3  -8  -4  119.69    9.80
   3  -8  -4  108.69    9.80
   3  -8  -4  104.69    9.70
  -3   8   4   93.29    9.40
   2  -8  -4  229.78   18.50
   2  -8  -4  269.27   19.10
   2  -8  -4  229.18   19.00
   2  -8  -4  229.68   18.50
   2  -8  -4  272.17   18.80
   2  -8  -4  206.68   16.70
   2  -8  -4  212.88   18.00
   2  -8  -4  250.07   16.90
   2  -8  -4  216.18   18.30
   2  -8  -4  229.78   18.40
  -2   8   4  186.18   21.10
   1  -8  -4  240.28   16.60
   1  -8  -4  232.88   15.40
   1  -8  -4  217.88   16.40
   1  -8  -4  188.88   15.60
  -1   8   4  175.88   20.40
  -1   8   4  200.98   16.90
  -1   8   4  199.18   16.20
  -1   8   4  186.68   16.50
   0  -8  -4  187.18   19.70
   0  -8  -4  161.18   12.90
   0   8   4  174.88   13.10
   0   8   4  171.38   13.00
   0   8   4  169.88   13.30
   0   8   4  154.88   17.40
  -1  -8  -4  172.08   14.00
  -1  -8  -4  219.68   15.40
   1   8   4  186.98   15.00
   1   8   4  198.38   19.70
   1   8   4  179.48   14.50
   1   8   4  179.28   14.00
  -2  -8  -4   71.59    6.60
   2   8   4   54.29    5.90
   2   8   4   57.79    6.30
   2   8   4   58.49    5.30
   2   8   4   52.59    6.40
   3   8   4  185.08   14.00
   3   8   4  199.28   14.30
   3   8   4  191.48   14.90
   3   8   4  170.38   14.60
  -4  -8  -4    0.90    0.90
   4   8   4    2.60    0.90
   4   8   4    1.20    1.10
   3  -9  -4   40.40    2.80
   3  -9  -4   32.50    4.10
   3  -9  -4   33.00    4.40
   3  -9  -4   29.50    3.60
   3  -9  -4   39.90    4.10
   3  -9  -4   31.60    3.70
  -3   9   4   30.20    3.50
   2  -9  -4  331.77   25.90
   2  -9  -4  329.17   25.80
   2  -9  -4  331.37   26.10
   2  -9  -4  383.36   24.90
   2  -9  -4  346.37   25.50
   2  -9  -4  342.87   25.80
   1  -9  -4   22.30    3.00
   1  -9  -4   24.30    3.40
   1  -9  -4   26.00    3.20
   1  -9  -4   28.10    3.70
   1  -9  -4   21.90    3.50
   1  -9  -4   30.90    3.50
  -1   9   4   28.80    3.50
  -1   9   4   19.50    3.60
   0  -9  -4   27.50    2.60
   0  -9  -4   22.80    3.10
   0   9   4   22.80    2.70
   0   9   4   17.70    2.90
   0   9   4   25.40    7.40
   0   9   4   20.60    2.80
  -1  -9  -4  338.87   23.30
  -1  -9  -4  348.17   24.10
   1   9   4  332.37   23.10
   1   9   4  283.67   23.10
   1   9   4  272.77   23.50
  -2  -9  -4    2.60    1.70
   2   9   4    2.40    1.50
  -3  -9  -4   94.09    7.50
   3   9   4   80.29    7.50
   3   9   4  102.39    7.80
   3   9   4   89.89    7.20
   3 -10  -4   87.29    7.10
   3 -10  -4   95.79    7.10
   2 -10  -4    1.40    1.10
   2 -10  -4    1.20    1.30
   2 -10  -4    1.10    1.20
   2 -10  -4    2.70    1.50
   2 -10  -4    2.40    1.50
  -2  10   4    1.70    2.10
   1 -10  -4  341.67   26.90
   1 -10  -4  369.86   26.60
   1 -10  -4  375.66   27.00
   1 -10  -4  365.76   26.40
   1 -10  -4  378.36   26.80
   1 -10  -4  361.66   27.10
  -1  10   4  364.86   26.80
   0 -10  -4    4.10    1.50
   0  10   4    4.10    1.50
   0  10   4    6.80    1.70
  -1 -10  -4  116.69    9.80
  -1 -10  -4  114.59    9.30
   1  10   4  116.69    9.20
   2  10   4  101.99    8.20
   3  10   4   24.00    2.60
   3  10   4   20.90    2.20
   2 -11  -4   13.50    2.20
   2 -11  -4   12.70    1.70
  -2  11   4   16.70    2.60
   1 -11  -4  268.17   20.50
   1 -11  -4  269.97   20.10
  -1  11   4  291.67   20.50
   0 -11  -4  139.89   11.20
   0  11   4  150.88   11.20
  -1 -11  -4    0.90    1.00
   1  11   4    2.90    1.50
   2  11   4  159.48   12.00
   3  11   4   13.60    1.70
  -2  12   4   83.19    6.50
   1 -12  -4    0.40    0.90
  -1  12   4    1.10    1.40
   0 -12  -4  180.78   14.00
   0  12   4  196.38   14.10
  -1 -12  -4    9.30    1.60
   1  12   4    7.60    1.70
   2  12   4   56.19    4.60
  -1  13   4   61.99    5.00
   0 -13  -4   14.30    1.80
   0 -13  -4   14.40    1.80
   0  13   4   14.30    2.10
  -1 -13  -4  153.38   11.30
   1  13   4  149.19   11.10
   1  12  -5   28.70    2.50
   0  12  -5   53.79    4.10
   2  11  -5   26.10    2.20
   2  11  -5   26.90    2.00
   2  11  -5   24.60    2.00
   1  11  -5  131.69    9.40
   1  11  -5  126.19    9.40
   1  11  -5  126.29    9.50
  -1 -11   5  134.99    9.50
   0  11  -5    2.20    0.90
   0 -11   5    1.50    0.60
  -1  11  -5  118.89    8.70
   2  10  -5    9.20    2.50
   2  10  -5   11.00    1.20
   2  10  -5   11.10    2.60
   2  10  -5   12.10    1.20
  -2 -10   5   10.20    1.30
   1  10  -5  206.48   14.60
   1  10  -5  181.08   15.80
   1  10  -5  191.68   14.30
   1  10  -5  193.18   14.20
  -1 -10   5  220.68   14.50
   0  10  -5  128.29    9.30
   0  10  -5  125.99    9.30
   0  10  -5  133.29    9.50
   0 -10   5  121.29    9.40
  -1  10  -5   44.50    3.70
  -1  10  -5   50.19    3.90
  -1  10  -5   44.10    3.60
  -2  10  -5   90.99    6.90
   3   9  -5   67.49    4.90
   3   9  -5   69.59    4.90
   3   9  -5   64.69    5.20
   3   9  -5   65.79    5.00
   3   9  -5   68.59    4.80
   3   9  -5   60.89    6.00
   3   9  -5   67.59    5.10
   3   9  -5   58.79    6.00
   2   9  -5  106.79    8.40
   2   9  -5  115.69    8.30
   2   9  -5  114.59    8.20
   2   9  -5  120.79    8.60
   2   9  -5  115.39    8.70
   2   9  -5   96.99    9.90
   2   9  -5  114.09    8.20
   2   9  -5   97.39    9.90
  -2  -9   5  119.29    8.30
   1   9  -5    3.80    1.00
   1   9  -5    4.70    1.30
   1   9  -5    3.00    2.50
   1   9  -5    2.30    2.20
   1   9  -5    3.70    1.00
   1   9  -5    5.80    3.10
   1   9  -5    2.80    0.80
  -1  -9   5    3.30    1.20
  -1  -9   5    4.70    1.00
   0   9  -5  399.26   27.00
   0   9  -5  364.96   26.70
   0   9  -5  370.66   26.70
   0  -9   5  366.96   26.80
  -1   9  -5    7.90    1.20
  -1   9  -5    8.40    1.20
  -1   9  -5   10.00    1.70
   1  -9   5    6.50    1.30
   1  -9   5    8.40    1.50
  -2   9  -5  295.67   20.60
  -2   9  -5  293.17   20.70
  -2   9  -5  305.27   20.90
   2  -9   5  270.07   21.00
   2  -9   5  280.97   21.10
  -3   9  -5   54.59    4.40
   3   8  -5    2.00    1.10
   3   8  -5    1.20    1.70
   3   8  -5    1.50    0.80
   3   8  -5    1.80    0.50
   3   8  -5    0.40    1.40
   3   8  -5    2.40    1.00
   3   8  -5    1.90    0.80
   3   8  -5    0.90    0.70
   2   8  -5  162.28   12.70
   2   8  -5  175.58   13.50
   2   8  -5  163.48   12.90
   2   8  -5  165.08   12.60
   2   8  -5  176.78   12.50
   2   8  -5  167.78   14.50
   2   8  -5  197.88   17.10
   2   8  -5  164.28   13.00
   2   8  -5  162.18   12.40
   2   8  -5  179.78   12.60
  -2  -8   5  174.78   12.50
   1   8  -5   10.50    3.20
   1   8  -5   11.10    1.40
   1   8  -5   11.80    1.80
   1   8  -5    8.80    1.50
   1   8  -5    8.60    1.50
   1   8  -5   10.60    1.30
   1   8  -5   13.50    4.40
   1   8  -5    9.80    3.10
  -1  -8   5   12.10    1.90
   0   8  -5  140.19    9.60
   0   8  -5  121.29    9.30
   0   8  -5  124.29    9.20
   0   8  -5  126.89    9.60
   0   8  -5  118.99   11.00
  -1   8  -5  292.97   19.70
  -1   8  -5  258.17   19.40
  -1   8  -5  258.07   19.30
   1  -8   5  266.97   19.80
   1  -8   5  274.17   19.90
  -2   8  -5   13.90    2.30
  -2   8  -5   10.90    1.50
  -2   8  -5   12.90    1.70
   2  -8   5   12.30    2.10
   2  -8   5    8.70    1.70
  -3   8  -5  226.48   17.10
  -3   8  -5  258.47   17.50
  -3   8  -5  231.78   17.20
   3  -8   5  240.58   17.10
   4   7  -5   54.59    4.20
   4   7  -5   55.79    4.00
   3   7  -5   59.49    4.50
   3   7  -5   51.99    4.00
   3   7  -5   48.60    4.70
   3   7  -5   44.30    4.50
   3   7  -5   55.59    4.40
   3   7  -5   57.09    4.70
   3   7  -5   45.30    5.70
   2   7  -5  182.28   12.70
   2   7  -5  160.78   12.70
   2   7  -5  145.49   12.80
   2   7  -5  176.58   12.50
   2   7  -5  187.78   17.40
   2   7  -5  158.18   12.20
   2   7  -5  187.18   13.60
   2   7  -5  165.48   13.00
   2   7  -5  158.98   12.60
  -2  -7   5  176.38   13.00
   1   7  -5  395.16   29.40
   1   7  -5  432.26   33.40
   1   7  -5  431.86   30.60
   1   7  -5  389.26   30.00
   1   7  -5  433.46   31.90
   1   7  -5  428.46   34.10
   1   7  -5  387.26   29.50
   1   7  -5  385.66   29.60
  -1  -7   5  402.16   29.70
   0   7  -5   20.00    2.40
   0   7  -5   30.70    6.00
   0   7  -5   25.40    4.90
  -1   7  -5  425.16   27.90
  -1   7  -5  360.06   31.50
   1  -7   5  368.56   28.00
  -2   7  -5   26.20    2.60
  -2   7  -5   26.70    3.20
  -2   7  -5   26.80    2.80
   2  -7   5   25.00    3.00
   2  -7   5   23.20    3.00
  -3   7  -5  116.79    9.20
  -3   7  -5  126.69    9.70
  -3   7  -5  113.19    9.30
   3  -7   5  116.09    9.60
   3  -7   5  117.89    9.00
   3  -7   5  143.19    9.50
   3  -7   5  120.09    9.60
   4   6  -5    6.50    2.00
   4   6  -5    7.20    1.20
   4   6  -5   11.50    1.60
   4   6  -5    6.90    2.20
   4   6  -5    8.20    1.20
   3   6  -5  170.48   12.70
   3   6  -5  184.48   13.50
   3   6  -5  188.38   13.60
   3   6  -5  176.58   13.60
   3   6  -5  184.28   13.80
   3   6  -5  178.98   14.00
   3   6  -5  154.48   13.60
   2   6  -5    9.10    2.10
   2   6  -5    6.50    1.70
   2   6  -5   13.60    2.30
   2   6  -5   13.30    5.40
   2   6  -5   13.90    2.10
   2   6  -5    7.10    2.30
   2   6  -5    9.90    2.40
   2   6  -5   10.30    2.30
   2   6  -5    8.40    1.20
  -2  -6   5   11.00    2.00
   1   6  -5  597.94   47.60
   1   6  -5  534.15   43.70
   1   6  -5  646.24   44.30
   1   6  -5  615.14   47.00
   1   6  -5  612.34   43.70
   1   6  -5  600.44   43.10
  -1  -6   5  619.24   43.40
   0   6  -5  296.67   24.00
   0   6  -5  276.07   20.50
   0   6  -5  268.87   22.70
   0  -6   5  251.17   19.80
  -1   6  -5  420.86   35.20
   1  -6   5  460.05   32.00
  -2   6  -5  443.16   34.50
  -2   6  -5  490.65   35.10
  -2   6  -5  439.06   34.70
   2  -6   5  491.55   34.80
   2  -6   5  528.05   34.80
  -3   6  -5    4.70    2.50
  -3   6  -5    1.50    1.90
  -3   6  -5    2.50    1.70
   3  -6   5    4.10    1.00
   3  -6   5    0.70    1.30
   3  -6   5    5.00    1.80
   3  -6   5    1.00    1.30
  -4   6  -5  173.48   12.50
  -4   6  -5  172.38   12.60
   4   5  -5    6.10    1.40
   4   5  -5    3.30    0.90
   4   5  -5    6.70    1.80
   4   5  -5    4.10    1.40
   4   5  -5    5.20    1.40
   3   5  -5   94.39    8.60
   3   5  -5   87.79    6.90
   3   5  -5   91.59    6.90
   3   5  -5   97.79    8.00
   3   5  -5  104.69    8.50
   3   5  -5   75.29    7.70
   3   5  -5   96.59    8.30
   3   5  -5   95.19    7.80
   2   5  -5  253.37   19.50
   2   5  -5  283.37   20.60
   2   5  -5  275.07   24.30
   2   5  -5  225.98   20.20
   2   5  -5  270.97   20.10
   2   5  -5  214.98   19.90
  -2  -5   5  279.37   19.40
   1   5  -5  184.38   14.00
   1   5  -5  155.58   13.60
   1   5  -5  198.48   17.80
   1   5  -5  168.48   13.40
  -1  -5   5  169.78   13.20
   0   5  -5  479.65   40.10
   0   5  -5  533.35   41.30
   0   5  -5  537.35   38.10
   0  -5   5  543.35   37.60
  -1   5  -5   22.30    5.20
   1  -5   5   25.10    2.70
   2  -5   5  599.14   43.20
  -3   5  -5   46.40    5.70
  -3   5  -5   46.40    6.10
  -3   5  -5   39.70    5.90
   3  -5   5   57.39    5.20
   3  -5   5   47.30    4.90
   3  -5   5   49.30    4.30
   3  -5   5   53.69    5.30
   3  -5   5   48.20    5.00
   3  -5   5   52.39    4.90
  -4   5  -5   21.10    3.50
  -4   5  -5   16.30    2.80
  -4   5  -5   14.70    2.50
   4  -5   5   16.40    2.70
   4  -5   5   14.60    2.10
   4   4  -5   38.60    3.70
   4   4  -5   36.60    3.80
   4   4  -5   40.60    3.30
   4   4  -5   40.70    4.60
   4   4  -5   29.90    4.20
   4   4  -5   44.10    3.70
   3   4  -5   20.90    2.70
   3   4  -5   18.70    3.10
   3   4  -5   15.90    2.60
   3   4  -5   18.90    2.70
   3   4  -5   23.00    3.70
   3   4  -5   21.00    3.10
   3   4  -5   20.30    2.00
   2   4  -5  491.85   33.60
   2   4  -5  429.56   32.90
   2   4  -5  412.66   32.90
   2   4  -5  400.86   33.30
  -2  -4   5  513.65   32.90
   1   4  -5  121.29   12.90
   1   4  -5   83.39    7.80
   1   4  -5  101.39   11.00
   1   4  -5   91.09    8.10
   1   4  -5   98.59    8.30
   0   4  -5  578.44   49.80
   0   4  -5  706.03   51.29
   0   4  -5  709.53   48.00
  -1   4  -5  630.84   49.50
   1  -4   5  662.23   46.40
   2  -4   5   79.89    6.90
  -3   4  -5  268.57   19.40
  -3   4  -5  268.07   19.20
  -3   4  -5  233.68   19.60
   3  -4   5  255.87   19.20
   3  -4   5  244.48   20.70
   3  -4   5  266.77   19.30
   3  -4   5  252.47   18.80
   3  -4   5  283.27   19.80
   3  -4   5  245.68   18.60
   3  -4   5  226.88   18.90
  -4   4  -5   15.10    5.70
  -4   4  -5    6.10    3.50
  -4   4  -5    7.50    2.80
   4  -4   5   16.30    1.60
   4  -4   5   18.30    2.40
   4  -4   5   12.60    2.50
   4  -4   5   11.00    3.00
   4   3  -5   96.79    8.40
   4   3  -5  103.19    8.30
   4   3  -5  112.79    7.90
   4   3  -5  109.89    8.90
   3   3  -5   17.10    2.50
   3   3  -5   19.10    3.00
   3   3  -5   20.60    2.70
   3   3  -5   17.60    2.40
   3   3  -5   15.50    3.10
   3   3  -5   13.80    2.10
   3   3  -5   16.60    2.80
   2   3  -5  351.96   26.30
   2   3  -5  343.67   26.50
   2   3  -5  331.37   25.50
   2   3  -5  357.36   25.90
  -2  -3   5  375.96   26.00
   1   3  -5  231.38   20.20
   1   3  -5  259.07   20.50
   1   3  -5  196.98   16.30
   1   3  -5  182.08   16.50
   1   3  -5  239.28   17.00
   0   3  -5   53.69    7.50
   0   3  -5   70.79    8.30
   0   3  -5   66.49    5.90
  -1   3  -5  839.82   62.69
   2  -3   5    2.60    1.30
  -3   3  -5  435.56   30.20
  -3   3  -5  399.36   30.20
  -3   3  -5  415.96   30.00
   3  -3   5  393.86   29.80
   3  -3   5  417.26   30.20
   3  -3   5  404.76   32.60
   3  -3   5  415.16   30.10
   3  -3   5  430.16   30.40
  -4   3  -5   65.19    6.00
  -4   3  -5   60.59    6.70
  -4   3  -5   68.79    6.60
   4  -3   5   63.99    7.70
   4  -3   5   66.39    5.80
   4  -3   5   71.19    5.20
   4  -3   5   68.79    6.10
   4   2  -5   64.39    5.00
   4   2  -5   61.19    5.80
   4   2  -5   61.69    5.40
   4   2  -5   75.69    5.90
   4   2  -5   64.39    5.70
   3   2  -5  284.17   20.30
   3   2  -5  257.87   20.30
   3   2  -5  283.37   20.50
   3   2  -5  275.17   20.70
   3   2  -5  279.67   21.00
   3   2  -5  284.87   21.50
   2   2  -5    3.10    0.70
   2   2  -5    0.70    1.20
   2   2  -5    2.90    3.80
   2   2  -5    2.10    1.20
   1   2  -5  597.14   48.50
   1   2  -5  574.64   45.70
   1   2  -5  734.63   48.80
   1   2  -5  661.93   46.50
   0   2  -5    6.80    2.50
   0   2  -5   11.60    2.00
  -1   2  -5  709.83   52.49
   2  -2   5  485.75   35.60
  -3   2  -5   71.89    6.30
   3  -2   5   70.19    9.60
   3  -2   5   74.89    6.40
   3  -2   5   82.69    8.60
   3  -2   5   71.79    6.30
   3  -2   5   75.99    6.20
  -4   2  -5  229.08   17.60
  -4   2  -5  227.48   17.60
  -4   2  -5  251.37   17.50
   4  -2   5  233.98   17.60
   4  -2   5  232.28   17.40
   4  -2   5  222.98   16.70
   4  -2   5  216.18   19.60
   4  -2   5  235.28   17.10
   4   1  -5   40.80    3.60
   4   1  -5   38.90    3.00
   4   1  -5   40.10    4.10
   4   1  -5   34.60    3.80
   3   1  -5  291.97   21.70
   3   1  -5  261.17   20.70
   3   1  -5  270.87   20.70
   3   1  -5  288.17   20.50
   3   1  -5  297.97   21.30
   2   1  -5   84.89    7.10
   2   1  -5   85.89    6.80
   1   1  -5 1173.38   78.29
   1   1  -5 1052.79   76.09
   1   1  -5  973.10   75.19
   0   1  -5 2847.22  201.98
  -1   1  -5    9.70    3.80
  -2   1  -5  830.42   74.19
   2  -1   5 1119.39   70.79
   3  -1   5   47.60    4.50
   3  -1   5   42.40    8.20
   3  -1   5   48.80    4.50
   3  -1   5   53.39    7.00
  -4   1  -5  137.99   11.20
  -4   1  -5  149.69   11.20
  -4   1  -5  148.69   11.00
   4  -1   5  139.89   10.70
   4  -1   5  143.59   11.20
   4  -1   5  129.39   10.50
   4  -1   5  143.49   11.00
   4  -1   5  134.29   11.00
   4  -1   5  132.59   14.10
   4   0  -5   10.70    2.20
   4   0  -5   12.10    2.70
   4   0  -5   12.80    1.30
   3   0  -5   22.60    3.00
   3   0  -5   22.80    2.50
   3   0  -5   18.50    3.30
   3   0  -5   19.20    2.40
   3   0  -5   22.40    2.50
   2   0  -5  597.04   45.90
   2   0  -5  607.14   46.10
  -2   0   5  735.13   49.60
   1   0  -5   32.80    4.30
   1   0  -5   25.60    2.50
   1   0  -5   27.90    2.50
   1   0  -5   38.00    4.10
   1   0  -5   29.40    3.30
  -1   0  -5  813.02   58.29
  -2   0  -5  694.83   62.89
   2   0   5  920.11   59.29
   3   0   5  319.37   29.90
   3   0   5  305.77   26.70
   3   0   5  363.66   28.60
   3   0   5  372.86   25.70
   3   0   5  404.16   26.10
  -4   0  -5    3.40    2.00
   4   0   5    1.00    1.30
   4   0   5    0.60    1.20
   4   0   5    1.90    3.10
   4   0   5    1.30    1.50
   4   0   5    3.70    1.70
   4   0   5    4.00    1.40
   4   0   5    0.80    3.70
   4   0   5    4.30    1.90
   4  -1  -5  192.48   13.90
   4  -1  -5  197.38   14.70
   4  -1  -5  191.98   14.90
   3  -1  -5    1.80    0.80
   3  -1  -5    4.30    4.80
   3  -1  -5    0.70    1.30
   3  -1  -5    1.90    1.20
   3  -1  -5   -0.20    1.40
   3  -1  -5    2.30    1.10
  -3   1   5    3.00    1.60
  -3   1   5    1.10    1.40
   2  -1  -5  513.55   37.00
   2  -1  -5  505.45   36.70
  -2   1   5  523.65   40.90
   1  -1  -5  500.25   40.00
   1  -1  -5  527.55   37.20
   1  -1  -5  548.65   37.30
   0  -1  -5  360.66   26.70
  -1  -1  -5  960.70   64.69
  -1  -1  -5  849.41   70.29
  -2  -1  -5   80.99   12.10
   2   1   5   98.39    8.90
  -3  -1  -5  366.76   26.00
   3   1   5  300.67   30.50
   3   1   5  309.37   25.90
   3   1   5  404.16   26.00
   3   1   5  359.96   29.20
   3   1   5  400.26   26.50
  -4  -1  -5   14.00    3.00
   4   1   5   17.70    2.10
   4   1   5   12.20    2.20
   4   1   5   12.20    2.50
   4   1   5   12.50    2.40
   4   1   5   10.90    2.70
   4   1   5   10.70    6.10
   4   1   5   12.20    2.40
   4   1   5   13.30    5.00
   4  -2  -5  202.68   15.40
   4  -2  -5  196.78   14.40
   4  -2  -5  199.48   15.20
   3  -2  -5  170.98   13.10
   3  -2  -5  178.18   14.20
   3  -2  -5  163.48   13.30
   3  -2  -5  200.28   21.50
   3  -2  -5  154.08   16.20
   3  -2  -5  177.98   13.70
  -3   2   5  192.88   14.10
  -3   2   5  181.58   14.50
   2  -2  -5   32.80    3.10
   2  -2  -5   32.10    3.40
   2  -2  -5   35.30    6.70
  -2   2   5   25.20    6.20
  -2   2   5   36.40    3.40
  -2   2   5   37.20    3.70
   1  -2  -5 1992.60  152.88
   1  -2  -5 2244.48  154.08
   1  -2  -5 1989.60  152.98
  -1   2   5 2430.26  154.18
  -1   2   5 2208.48  153.18
  -1   2   5 2184.08  152.98
   0  -2  -5    6.00    4.60
   0  -2  -5    7.20    1.70
   0   2   5    7.00    1.70
  -1  -2  -5  962.20   69.49
  -1  -2  -5 1006.70   68.99
  -1  -2  -5  877.01   76.19
   1   2   5 1051.89   69.59
  -2  -2  -5  323.57   31.60
   2   2   5  378.26   27.80
  -3  -2  -5  102.09    7.60
   3   2   5   84.79   10.60
   3   2   5  106.69    7.40
   3   2   5   83.69    7.50
   3   2   5   66.79   12.40
   3   2   5  100.59    8.20
  -4  -2  -5  191.58   13.00
  -4  -2  -5  151.08   12.70
   4   2   5  159.38   19.30
   4   2   5  136.29   16.20
   4   2   5  150.18   13.20
   4   2   5  176.38   13.10
   4   2   5  151.38   12.50
   4   2   5  165.58   12.80
   4   2   5  177.08   12.90
   4   2   5  176.48   12.40
   4  -3  -5    2.10    2.00
   4  -3  -5    2.30    0.90
   4  -3  -5    1.70    3.30
   4  -3  -5    2.20    1.50
   3  -3  -5  414.56   30.20
   3  -3  -5  508.85   38.80
   3  -3  -5  374.26   29.40
   3  -3  -5  405.46   30.00
   3  -3  -5  427.76   30.70
  -3   3   5  440.46   31.10
  -3   3   5  371.06   31.60
   2  -3  -5    5.70    1.50
   2  -3  -5    6.40    3.60
   2  -3  -5    6.60    1.50
   2  -3  -5    5.60    1.50
   2  -3  -5    5.10    0.50
   2  -3  -5    4.90    1.10
  -2   3   5    7.20    1.80
  -2   3   5    3.80    3.90
  -2   3   5    5.20    1.70
   1  -3  -5   79.19    9.30
   1  -3  -5   82.29    7.70
   1  -3  -5   79.69    6.60
  -1   3   5   96.89    7.90
  -1   3   5   89.79    7.10
  -1   3   5   87.89    6.80
   0  -3  -5 1136.89   84.09
   0  -3  -5 1118.29   88.99
   0   3   5 1282.07   84.29
  -1  -3  -5   40.50    3.60
  -1  -3  -5   38.40   10.80
   1   3   5   47.20    4.40
  -2  -3  -5  627.64   40.90
  -2  -3  -5  538.15   48.20
   2   3   5  539.35   43.50
  -3  -3  -5    2.80    1.20
   3   3   5    5.20    1.20
   3   3   5    5.20    2.30
   3   3   5    0.80    3.20
   3   3   5    3.30    1.20
   3   3   5    3.10    1.30
   3   3   5    4.40    5.20
  -4  -3  -5  113.89    9.20
  -4  -3  -5  103.69    9.10
   4   3   5  120.59    9.40
   4   3   5  111.49    9.00
   4   3   5  100.29   14.10
   4   3   5  120.29    9.20
   4   3   5  130.19    8.70
   4   3   5  117.09    9.20
   4   3   5  104.99    9.90
   4   3   5   82.69   13.70
   4   3   5  107.59    9.80
   4  -4  -5  112.39    8.40
   4  -4  -5  112.39    9.40
   4  -4  -5  107.19    9.00
   3  -4  -5  158.58   11.90
   3  -4  -5  174.28   13.10
   3  -4  -5  175.08   18.20
   3  -4  -5  159.28   12.80
  -3   4   5  160.38   13.70
   2  -4  -5  685.43   49.20
   2  -4  -5  705.43   53.19
   2  -4  -5  641.14   49.00
   2  -4  -5  665.53   49.70
   2  -4  -5  645.24   49.10
  -2   4   5  704.23   50.09
  -2   4   5  752.32   49.70
   1  -4  -5    1.80    0.80
   1  -4  -5    1.20    1.70
   1  -4  -5   -1.80    3.30
  -1   4   5    1.00    1.30
  -1   4   5    1.90    1.30
  -1   4   5    1.30    1.20
   0  -4  -5  701.73   56.89
   0   4   5  670.83   52.59
   0   4   5  780.52   52.19
   0   4   5  745.93   51.79
  -1  -4  -5   37.20    3.40
  -1  -4  -5   28.40   11.20
   1   4   5   39.20    3.30
   1   4   5   48.70    7.40
  -2  -4  -5  293.67   20.20
  -2  -4  -5  255.77   28.00
   2   4   5  262.37   23.40
  -3  -4  -5  172.98   12.40
   3   4   5  169.78   11.80
   3   4   5  151.58   12.20
   3   4   5  154.28   12.90
   3   4   5  144.39   12.20
   3   4   5  154.48   12.30
   3   4   5  137.69   16.40
   3   4   5  163.08   13.10
  -4  -4  -5   12.40    2.60
  -4  -4  -5    9.20    2.10
   4   4   5   14.60    2.60
   4   4   5   11.40    2.10
   4   4   5   15.90    1.70
   4   4   5    8.40    3.10
   4   4   5   11.30    3.20
   4   4   5   12.80    2.50
   4   4   5   12.30    2.30
   4  -5  -5   54.09    4.60
   4  -5  -5   49.40    5.00
   4  -5  -5   52.29    5.10
   4  -5  -5   47.40    5.40
   3  -5  -5    6.30    2.10
   3  -5  -5    3.80    2.60
   3  -5  -5    5.60    3.30
   3  -5  -5    3.70    3.90
   3  -5  -5    4.60    1.00
   2  -5  -5  436.66   29.30
   2  -5  -5  383.96   31.20
   2  -5  -5  360.76   28.00
   2  -5  -5  353.26   28.10
  -2   5   5  393.86   29.00
  -2   5   5  364.66   29.30
   1  -5  -5   54.89    4.80
   1  -5  -5   55.79    9.50
   1  -5  -5   59.69    5.20
  -1   5   5   50.49    6.10
  -1   5   5   50.19    5.70
  -1   5   5   65.99    7.10
   0  -5  -5 1237.78   84.09
   0  -5  -5 1101.69   78.79
   0   5   5 1074.49   78.09
   0   5   5 1092.99   78.39
   0   5   5 1088.49   78.99
   0   5   5 1018.60   79.59
  -1  -5  -5  936.91   70.79
   1   5   5 1056.19   70.89
   1   5   5 1015.20   71.39
   1   5   5  979.50   72.89
  -2  -5  -5   24.00    9.50
  -2  -5  -5   37.50    3.70
   2   5   5   35.30    7.50
   2   5   5   36.00    3.40
  -3  -5  -5  311.77   21.70
   3   5   5  282.97   21.20
   3   5   5  307.07   22.10
   3   5   5  280.37   21.10
   3   5   5  265.37   21.70
   3   5   5  303.87   21.90
   3   5   5  254.37   21.40
   3   5   5  314.07   22.70
   3   5   5  301.77   21.10
   3   5   5  277.77   26.30
  -4  -5  -5    0.90    1.30
  -4  -5  -5    2.00    1.80
   4   5   5    1.60    1.20
   4   5   5    0.60    1.40
   4   5   5    0.80    1.30
   4   5   5   -0.60    2.70
   4   5   5    1.00    1.60
   4   5   5    2.40    0.80
   4   5   5    0.40    1.70
   4   5   5    0.30    1.80
   4  -6  -5   73.59    7.10
   4  -6  -5   76.79    6.90
   3  -6  -5   64.79    7.20
   3  -6  -5   76.89    8.50
   3  -6  -5   61.09    6.40
   3  -6  -5   53.39    6.40
   3  -6  -5   55.29    5.20
   3  -6  -5   56.79    6.20
   3  -6  -5   67.79    9.00
   2  -6  -5  173.08   14.80
   2  -6  -5  149.59   12.00
   2  -6  -5  143.19   12.00
  -2   6   5  123.49   13.00
   1  -6  -5  585.44   45.00
   1  -6  -5  609.54   45.40
   1  -6  -5  720.73   51.09
   1  -6  -5  605.94   45.00
  -1   6   5  647.44   46.30
  -1   6   5  662.23   48.30
  -1   6   5  556.44   46.70
   0  -6  -5    4.90    1.80
   0  -6  -5    5.20    1.40
   0  -6  -5    2.40    1.00
   0  -6  -5    5.10    3.40
   0   6   5    5.10    2.00
   0   6   5    4.20    1.40
   0   6   5    3.30    1.20
   0   6   5    2.70    2.10
  -1  -6  -5  324.97   34.90
  -1  -6  -5  352.46   27.90
   1   6   5  354.06   30.60
   1   6   5  420.16   29.90
   1   6   5  412.96   28.40
   1   6   5  420.06   28.20
  -2  -6  -5  110.99    9.00
   2   6   5  109.19    9.40
   2   6   5  100.69   11.10
   2   6   5  106.59    8.70
  -3  -6  -5  115.59    8.80
   3   6   5  116.49    9.50
   3   6   5  109.79    8.20
   3   6   5   91.89   11.20
   3   6   5  102.29    8.30
   3   6   5  108.89    8.50
   3   6   5   88.69    8.40
   3   6   5   91.39    8.70
  -4  -6  -5  108.49    8.30
  -4  -6  -5   96.09    8.40
   4   6   5   90.89    7.80
   4   6   5   97.79    8.50
   4   6   5  110.09    8.00
   4   6   5  115.59    9.00
   4   6   5  106.79    8.50
   4   6   5   84.09    8.70
   4  -7  -5   20.00    1.70
   4  -7  -5   18.20    3.10
   4  -7  -5   13.90    2.20
   3  -7  -5  307.17   22.80
   3  -7  -5  303.27   22.60
   3  -7  -5  317.37   22.90
   3  -7  -5  268.57   21.30
   3  -7  -5  314.47   24.00
   3  -7  -5  241.98   22.30
   2  -7  -5  118.39   10.10
   2  -7  -5  111.79   10.10
   2  -7  -5  123.99   10.90
   2  -7  -5  107.09    9.00
   2  -7  -5   90.69    9.70
   2  -7  -5  100.09    8.30
   2  -7  -5  136.29   11.10
   2  -7  -5  129.19   11.90
   1  -7  -5  585.94   43.50
   1  -7  -5  593.14   43.00
   1  -7  -5  621.44   43.00
  -1   7   5  524.35   46.50
  -1   7   5  606.94   43.50
  -1   7   5  652.43   44.70
  -1   7   5  552.84   43.80
   0  -7  -5  560.64   40.20
   0  -7  -5  501.15   35.50
   0  -7  -5  452.55   35.40
   0   7   5  490.75   35.80
   0   7   5  480.45   34.90
   0   7   5  492.25   35.20
   0   7   5  408.76   38.00
  -1  -7  -5  192.58   22.40
  -1  -7  -5  200.88   16.50
   1   7   5  251.17   16.90
   1   7   5  209.38   17.40
   1   7   5  197.48   19.90
   1   7   5  229.48   17.10
  -2  -7  -5  332.67   23.70
   2   7   5  324.97   23.10
   2   7   5  308.67   23.30
   2   7   5  276.47   24.60
  -3  -7  -5    1.40    1.50
   3   7   5    1.40    1.70
   3   7   5    2.30    1.40
   3   7   5    2.10    1.90
   3   7   5    2.30    1.30
   3   7   5    4.70    3.20
   3   7   5    2.60    1.30
   3   7   5    3.30    1.90
   3   7   5    0.80    1.30
  -4  -7  -5   49.60    4.60
   4   7   5   43.50    4.30
   4   7   5   44.20    4.00
   4   7   5   49.60    4.40
   3  -8  -5  155.28   11.40
   3  -8  -5  172.08   13.30
   3  -8  -5  135.19   12.50
   3  -8  -5  147.29   12.60
   3  -8  -5  185.58   13.80
   3  -8  -5  174.88   13.50
   3  -8  -5  135.49   12.50
   2  -8  -5   38.70    5.10
   2  -8  -5   37.10    5.10
   2  -8  -5   36.50    4.80
   2  -8  -5   36.00    4.90
   2  -8  -5   33.80    5.10
   2  -8  -5   35.00    3.10
   2  -8  -5   30.70    4.50
   2  -8  -5   32.40    3.20
   2  -8  -5   37.10    5.20
   2  -8  -5   40.50    6.00
   1  -8  -5    2.50    1.40
   1  -8  -5    3.80    2.10
   1  -8  -5    3.30    1.20
   1  -8  -5    1.90    1.30
   1  -8  -5    5.80    2.00
   1  -8  -5    4.60    2.00
  -1   8   5    3.40    2.80
  -1   8   5    1.60    1.80
  -1   8   5    1.30    1.80
  -1   8   5    3.60    3.50
   0  -8  -5  792.82   58.09
   0   8   5  823.52   58.09
   0   8   5  804.72   58.49
   0   8   5  732.73   62.69
   0   8   5  848.92   57.89
   0   8   5  874.91   59.29
  -1  -8  -5   22.60    2.70
  -1  -8  -5   29.40    3.80
   1   8   5   25.80    3.30
   1   8   5   22.70    2.90
   1   8   5   31.80    4.40
   1   8   5   25.70    4.20
   1   8   5   25.60    7.20
  -2  -8  -5  249.97   18.10
   2   8   5  209.68   17.50
   2   8   5  220.08   16.90
   2   8   5  220.98   17.50
   3   8   5   46.20    4.40
   3   8   5   42.30    4.60
   3   8   5   40.30    4.50
   3   8   5   44.00    4.40
  -4  -8  -5   24.20    2.60
   4   8   5   27.60    2.50
   3  -9  -5    0.50    0.60
   3  -9  -5    1.30    1.30
   3  -9  -5    0.40    1.50
   3  -9  -5    1.50    1.30
   3  -9  -5    1.80    2.00
   2  -9  -5  437.86   29.80
   2  -9  -5  393.46   31.60
   2  -9  -5  401.16   30.10
   2  -9  -5  433.86   30.50
   2  -9  -5  362.16   28.80
   2  -9  -5  444.96   30.80
   2  -9  -5  407.86   30.10
   2  -9  -5  410.56   30.60
   2  -9  -5  370.86   30.50
   1  -9  -5    5.80    1.90
   1  -9  -5    7.90    2.10
   1  -9  -5   10.00    2.00
   1  -9  -5    9.10    2.10
   1  -9  -5    4.90    1.90
   1  -9  -5    7.90    2.60
   1  -9  -5    8.90    2.00
  -1   9   5    6.10    2.20
  -1   9   5    8.30    3.30
  -1   9   5    8.90    2.20
   0  -9  -5   75.49    6.30
   0   9   5   69.19    5.80
   0   9   5   72.19    5.80
   0   9   5   66.69    6.30
   0   9   5   64.39    6.00
  -1  -9  -5  136.79   10.40
  -1  -9  -5  153.38   11.60
   1   9   5  128.29   10.20
   1   9   5  127.79   10.00
   1   9   5  112.99   10.30
  -2  -9  -5   28.80    4.00
   2   9   5   20.50    2.80
   2   9   5   18.30    2.90
   3   9   5   92.99    8.20
   3   9   5  110.29    8.60
   3   9   5  114.79    8.30
   3 -10  -5   22.90    2.40
   3 -10  -5   22.70    2.50
  -3  10   5   28.90    2.80
   2 -10  -5  123.99   10.30
   2 -10  -5  122.39   10.10
   2 -10  -5  120.09    9.90
   2 -10  -5  125.39    9.90
  -2  10   5  125.09   10.00
   1 -10  -5  418.46   29.90
   1 -10  -5  417.16   29.60
   1 -10  -5  390.96   30.00
   1 -10  -5  440.26   29.90
   1 -10  -5  407.86   30.30
   1 -10  -5  449.56   30.40
  -1  10   5  358.06   29.50
  -1  10   5  398.76   29.80
   0 -10  -5    9.90    2.10
   0  10   5   14.10    2.30
  -1 -10  -5  359.76   24.90
  -1 -10  -5  338.17   25.50
   1  10   5  317.97   24.50
   2  10   5    9.80    2.10
   3  10   5   55.79    4.80
   3  10   5   58.39    4.50
   2 -11  -5    0.70    0.90
   2 -11  -5    1.10    1.00
  -2  11   5    1.90    1.60
   1 -11  -5   86.09    7.30
   1 -11  -5   93.79    7.80
   1 -11  -5   98.29    7.30
  -1  11   5   94.69    7.60
   0 -11  -5   30.90    3.60
   0  11   5   33.50    3.50
  -1 -11  -5  156.68   11.60
   1  11   5  142.99   11.30
   2  11   5   92.79    7.30
   3  11   5    1.90    0.70
  -2  12   5   66.99    5.40
   1 -12  -5   60.69    4.90
  -1  12   5   63.39    5.30
   0 -12  -5  211.18   15.30
   0 -12  -5  199.08   15.40
   0  12   5  210.38   15.30
  -1 -12  -5    0.20    0.90
   1  12   5    0.30    1.10
   2  12   5   49.10    4.10
  -1  13   5   14.70    2.00
   0 -13  -5  125.19    9.30
   0 -13  -5  118.19    9.40
   0  13   5  133.59    9.50
  -1 -13  -5   35.80    4.30
   1  13   5   48.30    3.80
   1  11  -6   58.49    4.70
   1  11  -6   59.89    4.50
   1  11  -6   61.69    4.50
  -1 -11   6   62.39    4.60
   0  11  -6   19.30    1.60
   0  11  -6   18.30    1.80
   0  11  -6   17.60    1.60
   0 -11   6   17.90    1.70
  -1  11  -6  110.09    8.10
   2  10  -6    9.70    2.30
   2  10  -6   13.90    1.20
   2  10  -6   13.20    1.30
   2  10  -6   14.40    1.50
   2  10  -6   12.40    2.60
   1  10  -6  173.18   12.80
   1  10  -6  172.98   12.90
   1  10  -6  161.48   14.20
   1  10  -6  186.38   13.10
  -1 -10   6  201.08   13.10
   0  10  -6    8.00    1.00
   0  10  -6    7.80    1.40
   0  10  -6    8.40    1.10
   0 -10   6    5.70    1.00
  -1  10  -6  159.28   11.60
  -1  10  -6  160.48   11.80
  -1  10  -6  163.68   11.60
  -2  10  -6   88.79    6.70
  -2  10  -6   86.89    6.70
  -2  10  -6   98.19    6.80
   3   9  -6   59.49    4.20
   3   9  -6   59.39    4.30
   3   9  -6   48.20    5.00
   3   9  -6   62.59    4.20
   3   9  -6   54.49    5.10
   3   9  -6   59.59    4.30
   3   9  -6   52.59    4.70
   2   9  -6   23.90    3.90
   2   9  -6   27.00    2.30
   2   9  -6   27.30    2.40
   2   9  -6   23.40    3.90
   2   9  -6   27.40    2.60
   2   9  -6   27.80    2.40
   2   9  -6   30.80    2.70
   2   9  -6   29.60    2.30
   2   9  -6   27.10    2.70
  -2  -9   6   29.10    2.40
   1   9  -6  131.89   12.30
   1   9  -6  132.29   10.30
   1   9  -6  148.39   10.90
   1   9  -6  133.79   10.40
   1   9  -6  151.68   10.70
   1   9  -6  147.69   10.70
  -1  -9   6  150.18   10.50
   0   9  -6  254.87   18.10
   0   9  -6  250.97   18.10
   0   9  -6  211.48   19.30
   0   9  -6  272.97   18.40
   0   9  -6  269.17   18.40
   0  -9   6  255.37   18.20
  -1   9  -6   12.70    1.50
  -1   9  -6   12.80    1.50
  -1   9  -6   13.10    1.70
   1  -9   6   13.60    1.90
  -2   9  -6  214.68   15.10
  -2   9  -6  215.18   15.20
  -2   9  -6  206.58   15.00
   2  -9   6  199.58   15.40
   3   8  -6   23.70    3.40
   3   8  -6   24.20    2.00
   3   8  -6   24.80    2.10
   3   8  -6   24.40    2.30
   3   8  -6   20.00    3.10
   3   8  -6   23.70    2.10
   3   8  -6   20.70    2.30
   3   8  -6   24.70    2.40
   2   8  -6  135.69    9.80
   2   8  -6  126.99   10.40
   2   8  -6  131.99    9.80
   2   8  -6  133.09    9.70
   2   8  -6  135.39    9.60
   2   8  -6  126.49   10.10
   2   8  -6  135.29   10.10
   2   8  -6  124.99   11.50
   2   8  -6  133.19   10.00
   2   8  -6  114.49   11.30
  -2  -8   6  141.99    9.70
   1   8  -6   39.20    6.60
   1   8  -6   32.50    2.80
   1   8  -6   25.80    4.60
   1   8  -6   33.40    2.80
   1   8  -6   39.20    3.40
   1   8  -6   31.60    4.90
   1   8  -6   33.80    2.90
   1   8  -6   36.30    3.20
   1   8  -6   31.00    3.10
  -1  -8   6   35.40    3.40
   0   8  -6  200.48   18.80
   0   8  -6  245.48   17.50
   0   8  -6  267.97   17.60
   0   8  -6  238.48   17.20
   0   8  -6  244.08   17.30
  -1   8  -6   37.70    3.40
  -1   8  -6   37.30    3.20
  -1   8  -6   37.30    3.10
   1  -8   6   38.00    3.60
  -2   8  -6   81.39    6.30
  -2   8  -6   86.99    6.50
  -2   8  -6   82.09    6.30
   2  -8   6   77.59    6.60
   2  -8   6   82.79    6.70
  -3   8  -6  139.29   10.30
  -3   8  -6  136.99   10.00
  -3   8  -6  134.99   10.00
   3  -8   6  142.09   10.00
   3   7  -6    6.30    2.30
   3   7  -6   10.40    1.50
   3   7  -6    7.30    1.30
   3   7  -6    9.40    1.80
   3   7  -6    8.80    1.20
   3   7  -6   10.30    1.80
   3   7  -6   11.00    1.90
   2   7  -6  110.79    8.70
   2   7  -6   92.49    9.70
   2   7  -6  108.39    8.10
   2   7  -6  114.99    8.90
   2   7  -6   97.59    8.60
   2   7  -6  110.99    8.40
   2   7  -6  108.29    8.40
   2   7  -6  130.19   13.40
   2   7  -6  110.59    8.30
   2   7  -6  117.49    9.20
  -2  -7   6  115.59    8.90
   1   7  -6   75.49    6.30
   1   7  -6   70.29    7.50
   1   7  -6   64.59    5.70
   1   7  -6   71.59    6.60
   1   7  -6   86.79    5.90
   1   7  -6   80.29    9.80
   1   7  -6   73.19    6.10
   1   7  -6   66.69    5.70
   1   7  -6   79.39    6.20
   1   7  -6   74.19    7.70
   1   7  -6   70.09    6.00
  -1  -7   6   78.69    6.30
   0   7  -6  152.58   10.70
   0   7  -6  138.39   10.70
   0   7  -6  125.09   12.00
   0   7  -6  148.59   14.00
  -1   7  -6  357.96   24.10
  -1   7  -6  317.07   23.70
  -1   7  -6  324.87   23.80
   1  -7   6  329.37   24.20
  -2   7  -6    4.60    1.40
  -2   7  -6    5.10    1.60
  -2   7  -6    3.30    1.10
   2  -7   6    3.50    1.30
   2  -7   6    3.20    1.20
  -3   7  -6  100.59    7.50
  -3   7  -6  107.19    7.90
  -3   7  -6   99.89    7.60
   3  -7   6   95.09    7.40
   3  -7   6   93.39    7.80
   4   6  -6   22.70    2.00
   4   6  -6   22.70    1.90
   4   6  -6   25.40    2.20
   4   6  -6   32.20    3.50
   3   6  -6   96.79    7.80
   3   6  -6   84.59    7.60
   3   6  -6   98.49    7.90
   3   6  -6   86.39    7.30
   3   6  -6   95.09    6.90
   3   6  -6   87.79    7.40
   3   6  -6  104.29    7.80
   2   6  -6   83.29    7.20
   2   6  -6   82.69    6.70
   2   6  -6   99.09   11.80
   2   6  -6   90.49    8.00
   2   6  -6   82.29    6.80
   2   6  -6   85.19    7.10
   2   6  -6   77.99    6.80
   2   6  -6   69.69    6.90
   2   6  -6   92.99    7.60
   2   6  -6   81.09    6.30
  -2  -6   6   91.79    7.20
   1   6  -6  211.88   15.80
   1   6  -6  228.98   17.00
   1   6  -6  208.38   20.20
   1   6  -6  200.68   16.20
   1   6  -6  208.18   16.00
   1   6  -6  215.88   19.70
  -1  -6   6  216.28   16.10
   0   6  -6   26.70    3.80
   0   6  -6   26.80    5.10
   0   6  -6   29.90    6.00
   0   6  -6   25.80    2.70
   0  -6   6   19.40    3.00
  -1   6  -6  409.56   34.10
   1  -6   6  427.26   30.40
  -2   6  -6   57.39    5.40
  -2   6  -6   57.39    5.20
   2  -6   6   70.89    5.50
   2  -6   6   58.49    5.40
  -3   6  -6   75.39    6.50
  -3   6  -6   71.79    6.70
   3  -6   6   79.39    6.10
   3  -6   6   74.29    6.60
   3  -6   6   89.69    6.50
   3  -6   6   75.39    6.60
  -4   6  -6   39.40    3.20
  -4   6  -6   39.90    3.10
   4   5  -6    5.20    1.20
   4   5  -6    3.60    1.40
   4   5  -6    2.80    0.60
   4   5  -6    3.50    0.90
   3   5  -6  157.78   12.20
   3   5  -6  132.39   11.70
   3   5  -6  158.78   12.10
   3   5  -6  135.99   11.60
   3   5  -6  164.58   12.20
   3   5  -6  133.89   11.70
   3   5  -6  156.28   10.90
   2   5  -6    7.20    2.00
   2   5  -6    7.00    2.20
   2   5  -6    6.60    2.00
   2   5  -6   11.80    5.40
   2   5  -6    6.40    1.60
   2   5  -6    5.20    1.60
  -2  -5   6    7.70    1.80
   1   5  -6  529.25   36.70
   1   5  -6  464.85   36.00
   1   5  -6  529.35   40.90
   1   5  -6  484.15   39.60
   1   5  -6  482.15   35.70
   0   5  -6  602.34   46.10
   0   5  -6  624.84   42.80
   0   5  -6  546.85   45.00
   0  -5   6  575.04   42.10
  -1   5  -6   72.39    9.20
   1  -5   6   73.59    6.20
   2  -5   6  205.58   15.60
  -3   5  -6    7.10    2.70
  -3   5  -6    4.70    3.20
   3  -5   6    9.80    1.60
   3  -5   6    9.00    2.00
   3  -5   6   10.50    2.10
  -4   5  -6  100.39    7.90
  -4   5  -6  103.39    7.80
   4   4  -6    4.10    0.80
   4   4  -6    6.00    1.80
   4   4  -6    4.70    1.30
   4   4  -6    8.20    1.60
   3   4  -6   92.39    8.00
   3   4  -6  116.29    9.20
   3   4  -6   99.79    8.00
   3   4  -6  100.39    7.30
   3   4  -6   94.09    8.80
   3   4  -6   79.99    7.90
   3   4  -6  101.69    8.70
   2   4  -6  317.07   24.40
   2   4  -6  303.47   23.90
   2   4  -6  378.86   30.90
   2   4  -6  305.77   24.30
  -2  -4   6  311.17   23.70
   1   4  -6   57.49    5.60
   1   4  -6   50.49    4.90
   1   4  -6   60.09    8.30
   0   4  -6 1024.70   74.19
   0   4  -6 1062.39   70.69
   0   4  -6  875.91   72.79
   0  -4   6  974.70   70.09
  -1   4  -6   43.70    7.20
   1  -4   6   49.60    4.50
   2  -4   6  398.66   29.20
  -3   4  -6  136.69   11.10
  -3   4  -6  128.39   10.70
  -3   4  -6  122.69   10.50
   3  -4   6  132.59   11.90
   3  -4   6  128.69    9.90
   3  -4   6  107.39   10.70
   3  -4   6  133.99   10.30
   3  -4   6  146.39   10.80
  -4   4  -6   25.70    3.90
  -4   4  -6   26.70    4.40
   4  -4   6   34.60    4.30
   4   3  -6   39.80    3.90
   4   3  -6   45.80    4.40
   4   3  -6   45.80    3.60
   4   3  -6   50.79    4.30
   3   3  -6   -0.20    1.10
   3   3  -6    0.70    1.30
   3   3  -6   -1.20    1.00
   3   3  -6    0.90    1.20
   3   3  -6    1.40    1.00
   3   3  -6    1.60    1.60
   2   3  -6  172.88   14.30
   2   3  -6  208.18   15.30
   1   3  -6  170.08   17.00
   1   3  -6  168.18   16.70
   1   3  -6  174.48   13.80
   0   3  -6  726.23   46.80
   0   3  -6  575.54   49.00
   0   3  -6  624.44   49.40
  -1   3  -6  643.84   51.19
   1  -3   6  705.73   48.60
   2  -3   6  408.06   30.00
  -3   3  -6  211.28   16.20
  -3   3  -6  202.38   15.90
  -3   3  -6  217.68   16.20
   3  -3   6  202.08   16.00
   3  -3   6  208.18   18.30
   3  -3   6  218.38   15.90
   3  -3   6  214.88   15.70
  -4   3  -6    2.60    1.60
  -4   3  -6    1.30    2.40
  -4   3  -6   -2.00    2.70
   4  -3   6    2.60    0.90
   4  -3   6    0.90    1.50
   4  -3   6    0.50    2.10
   4   2  -6  107.09    7.90
   4   2  -6  119.89    8.70
   4   2  -6  101.29    8.30
   3   2  -6   21.60    2.30
   3   2  -6   21.10    2.40
   3   2  -6   21.60    2.50
   3   2  -6   19.80    2.60
   3   2  -6   16.10    2.80
   2   2  -6  208.68   18.80
   2   2  -6  163.78   14.50
   1   2  -6  696.93   47.80
   1   2  -6  658.33   49.80
   1   2  -6  612.34   50.19
   0   2  -6   34.90    3.70
   0   2  -6   25.00    5.10
   0   2  -6   34.90    5.30
  -1   2  -6 1082.79   79.09
   2  -2   6  238.88   18.20
  -3   2  -6  281.47   19.90
  -3   2  -6  255.87   19.90
  -3   2  -6  266.87   19.70
   3  -2   6  257.47   19.50
   3  -2   6  280.67   23.10
   3  -2   6  268.97   19.80
   3  -2   6  271.57   20.00
   3  -2   6  275.67   19.90
   3  -2   6  253.37   19.80
  -4   2  -6   84.99    7.60
  -4   2  -6   91.19    7.70
   4  -2   6   84.59    7.10
   4  -2   6   72.59    9.10
   4  -2   6   82.69    6.50
   4  -2   6   88.49    7.00
   4   1  -6    0.70    1.10
   4   1  -6    2.00    1.50
   4   1  -6    1.70    0.50
   3   1  -6  341.37   24.90
   2   1  -6   19.00    3.40
   1   1  -6  633.64   47.40
   1   1  -6  631.24   49.50
   1   1  -6  697.13   48.80
   0   1  -6  109.79   10.00
   0   1  -6  107.69    8.60
   0   1  -6  101.19   11.60
  -1   1  -6  792.22   54.79
  -1   1  -6  728.23   55.39
   2  -1   6  462.65   40.20
   2  -1   6  645.24   42.10
  -3   1  -6   11.70    2.20
   3  -1   6    6.80    3.90
   3  -1   6    6.70    1.60
   3  -1   6    8.10    3.40
   3  -1   6    7.30    1.70
  -4   1  -6  162.28   12.00
  -4   1  -6  155.18   12.20
  -4   1  -6  157.08   12.30
   4  -1   6  154.38   11.70
   4  -1   6  155.58   12.10
   4  -1   6  144.29   11.50
   4  -1   6  144.79   14.70
   4  -1   6  154.68   12.00
   4   0  -6    1.40    0.40
   4   0  -6    0.00    1.00
   4   0  -6    0.20    1.30
   3   0  -6   38.90    5.60
   1   0  -6  190.58   16.40
   1   0  -6  220.48   16.00
   1   0  -6  169.48   14.90
   0   0  -6 1240.98   87.89
  -1   0  -6   -0.80    3.10
  -1   0  -6    0.10    1.00
  -2   0  -6   86.59   13.80
   2   0   6  113.89    9.60
  -3   0  -6   20.40    2.90
  -3   0  -6   22.10    2.50
   3   0   6   20.90    6.10
   3   0   6   19.30    2.60
   3   0   6   22.40    2.60
   3   0   6   25.40    2.70
   3   0   6   19.30    5.00
   3   0   6   22.30    3.00
  -4   0  -6   72.79    6.50
  -4   0  -6   74.89    6.10
  -4   0  -6   71.89    6.30
   4   0   6   73.39    6.20
   4   0   6   67.09    6.20
   4   0   6   67.69    5.70
   4   0   6   59.89    9.50
   4   0   6   63.79    5.90
   4   0   6   63.99    6.00
   4   0   6   66.09    5.80
   4  -1  -6   52.39    3.90
   4  -1  -6   48.20    4.60
   4  -1  -6   49.60    5.00
   3  -1  -6   60.49    5.70
   3  -1  -6   54.49    5.20
  -3   1   6   70.09    6.00
   2  -1  -6  585.84   41.30
   2  -1  -6  578.34   40.70
   2  -1  -6  481.45   43.70
  -2   1   6  623.84   44.90
   1  -1  -6    4.00    1.70
   1  -1  -6    5.00    2.20
   1  -1  -6    4.80    1.40
   0  -1  -6 1103.39   78.09
  -1  -1  -6  159.58   19.80
  -1  -1  -6  165.58   12.70
  -1  -1  -6  158.38   11.90
  -2  -1  -6  162.98   20.50
   2   1   6  220.18   16.40
  -3  -1  -6  106.09    8.30
   3   1   6   85.59   12.20
   3   1   6   98.49   11.00
   3   1   6  117.99    8.70
   3   1   6  101.09    8.30
   3   1   6  105.79    8.00
  -4  -1  -6    2.80    2.00
  -4  -1  -6    4.00    2.20
   4   1   6    0.50    3.80
   4   1   6    1.60    1.80
   4   1   6    1.10    1.00
   4   1   6    2.50    1.70
   4   1   6    1.70    1.50
   4   1   6    1.90    1.40
   4   1   6    2.70    1.20
   4  -2  -6   86.79    6.60
   4  -2  -6   90.69    7.70
   4  -2  -6   90.09    7.40
   3  -2  -6   13.20    2.60
   3  -2  -6   17.50    7.50
   3  -2  -6   14.80    5.70
   3  -2  -6   15.30    2.30
   3  -2  -6   19.00    2.90
  -3   2   6   19.00    3.00
   2  -2  -6  344.47   27.80
   2  -2  -6  359.56   27.50
   2  -2  -6  365.96   32.30
   2  -2  -6  416.06   28.00
  -2   2   6  413.86   28.10
  -2   2   6  423.66   27.80
  -2   2   6  337.67   32.20
   1  -2  -6  903.21   66.49
  -1   2   6  937.51   66.49
   0  -2  -6  280.57   23.20
   0  -2  -6  341.37   24.30
   0   2   6  348.67   24.40
  -1  -2  -6 1392.16   98.49
  -1  -2  -6 1280.97  108.29
  -1  -2  -6 1399.66   99.19
   1   2   6 1501.85   99.29
  -2  -2  -6  515.15   50.19
   2   2   6  683.53   45.70
  -3  -2  -6  275.57   18.80
   3   2   6  245.18   18.80
   3   2   6  206.18   23.40
   3   2   6  255.57   18.80
   3   2   6  266.97   18.40
   3   2   6  245.38   22.00
  -4  -2  -6   45.10    4.70
  -4  -2  -6   58.59    5.50
   4   2   6   51.79    5.10
   4   2   6   47.40    5.30
   4   2   6   57.29    4.60
   4   2   6   53.99    4.80
   4   2   6   32.90    8.90
   4   2   6   49.20    4.90
   4   2   6   57.79    5.10
   4  -3  -6  113.59    8.30
   4  -3  -6  109.69    9.30
   3  -3  -6  303.97   24.10
   3  -3  -6  254.77   20.20
   3  -3  -6  291.07   27.10
   3  -3  -6  251.87   20.60
  -3   3   6  275.57   21.10
   2  -3  -6   15.50    2.00
   2  -3  -6   19.90    5.70
   2  -3  -6   15.60    2.10
   2  -3  -6   15.00    2.20
   2  -3  -6   14.50    2.20
  -2   3   6   19.00    2.90
  -2   3   6   19.60    2.70
  -2   3   6   11.30    5.50
   1  -3  -6  538.25   44.80
   1  -3  -6  698.13   47.50
  -1   3   6  609.04   45.00
   0  -3  -6    4.80    3.90
   0  -3  -6    6.60    1.10
  -1  -3  -6  473.55   50.39
  -1  -3  -6  557.94   39.90
   1   3   6  631.14   42.40
  -2  -3  -6 1319.87   88.49
   2   3   6 1175.18   91.19
  -3  -3  -6  216.48   14.50
   3   3   6  185.98   13.90
   3   3   6  162.58   20.40
   3   3   6  172.38   17.90
   3   3   6  185.08   14.40
   3   3   6  217.78   15.20
   3   3   6  182.28   14.40
   3   3   6  186.28   14.40
   3   3   6  173.28   14.70
  -4  -3  -6   89.89    8.00
   4   3   6   82.59   12.80
   4   3   6   92.69    7.70
   4   3   6   95.09    8.70
   4   3   6  105.39    7.40
   4   3   6   96.19    8.00
   4   3   6   87.59    7.70
   4   3   6  103.89    8.00
   4   3   6   83.39    8.30
   4  -4  -6    8.20    1.50
   4  -4  -6   15.40    4.70
   4  -4  -6   11.90    3.00
   3  -4  -6  221.28   17.10
   3  -4  -6  272.57   23.70
   3  -4  -6  237.28   18.10
   2  -4  -6   89.49    8.60
   2  -4  -6  101.29    8.20
   2  -4  -6  102.89    8.30
   2  -4  -6  105.39   11.90
  -2   4   6  109.69    8.90
  -2   4   6  106.99    9.30
   1  -4  -6 1230.18   91.09
   1  -4  -6 1223.98   90.99
  -1   4   6 1410.56   93.09
   0  -4  -6 1198.98   89.89
   0  -4  -6 1118.29   84.09
   0  -4  -6 1153.38   85.39
   0   4   6 1282.57   85.59
  -1  -4  -6   36.00   12.00
  -1  -4  -6   62.49    4.80
   1   4   6   59.19    7.50
   1   4   6   52.09    5.80
  -2  -4  -6  325.77   23.00
   2   4   6  297.17   26.40
  -3  -4  -6  134.89    9.90
   3   4   6  123.69    9.80
   3   4   6  116.99   14.00
   3   4   6  118.19    9.50
   3   4   6  105.19   14.00
   3   4   6  117.59    9.30
   3   4   6  120.99   10.60
   3   4   6  120.69    9.90
   3   4   6  121.99    9.20
   3   4   6  113.39   10.20
  -4  -4  -6   95.09    8.10
  -4  -4  -6   77.49    7.80
   4   4   6  106.89    8.10
   4   4   6   99.09    7.80
   4   4   6   92.09    7.90
   4   4   6  101.39    8.10
   4   4   6   96.29    8.60
   4   4   6   95.19    8.90
   4  -5  -6   29.60    4.30
   4  -5  -6   26.80    3.20
   3  -5  -6   10.80    1.70
   3  -5  -6   21.40    5.70
   3  -5  -6   11.70    5.20
   3  -5  -6    8.20    3.50
   3  -5  -6   15.60    2.90
   2  -5  -6  418.26   31.20
   2  -5  -6  480.85   34.90
   2  -5  -6  430.96   31.20
   2  -5  -6  447.96   32.10
  -2   5   6  395.46   31.90
  -2   5   6  383.36   32.40
   1  -5  -6    6.40    1.40
   1  -5  -6    4.80    4.30
   1  -5  -6    5.80    1.50
   1  -5  -6   12.50    3.50
  -1   5   6   11.50    3.30
  -1   5   6    4.10    2.20
   0  -5  -6 1357.56   95.39
   0  -5  -6 1207.18   94.49
   0  -5  -6 1417.36  100.19
   0  -5  -6 1195.88   94.59
   0   5   6 1490.95   95.89
   0   5   6 1337.87   96.29
  -1  -5  -6   59.39    5.20
  -1  -5  -6   47.50   12.20
   1   5   6   63.99    6.90
  -2  -5  -6  169.38   13.60
   2   5   6  185.98   14.60
   2   5   6  182.28   18.00
  -3  -5  -6   86.89    7.20
   3   5   6   72.49    6.80
   3   5   6   80.19    6.60
   3   5   6   81.19   12.30
   3   5   6   84.19    7.40
   3   5   6  100.59    8.60
   3   5   6   96.59    8.30
   3   5   6   78.49    7.20
  -4  -5  -6    5.30    1.70
  -4  -5  -6    7.30    2.50
   4   5   6    8.40    1.90
   4   5   6    9.60    2.20
   4   5   6    8.50    2.00
   4   5   6    8.60    2.40
   4   5   6    5.50    2.90
   4  -6  -6   91.19    7.80
   4  -6  -6   91.09    8.10
   3  -6  -6    5.90    2.60
   3  -6  -6    5.70    2.00
   3  -6  -6    6.10    2.70
   3  -6  -6    5.50    3.10
   3  -6  -6    7.50    4.40
   3  -6  -6    3.50    1.40
   3  -6  -6    1.00    1.60
   2  -6  -6  239.08   20.20
   2  -6  -6  281.77   20.50
   2  -6  -6  277.97   20.30
   1  -6  -6  491.05   38.60
   1  -6  -6  601.34   46.20
   1  -6  -6  517.45   38.50
   1  -6  -6  498.45   39.00
  -1   6   6  549.74   41.90
  -1   6   6  555.84   39.80
   0  -6  -6  101.79    8.70
   0  -6  -6   97.89    9.10
   0  -6  -6  128.29   13.70
   0  -6  -6  117.49    9.60
   0  -6  -6  103.79    9.10
   0   6   6  121.99    9.00
   0   6   6  116.79    9.90
   0   6   6  111.79   11.30
  -1  -6  -6  481.05   33.70
  -1  -6  -6  419.86   41.30
   1   6   6  474.35   36.40
  -2  -6  -6    5.70    1.70
   2   6   6    6.90    3.90
   2   6   6    5.10    2.80
  -3  -6  -6   84.29    7.10
   3   6   6   71.49    6.40
   3   6   6   71.39    6.90
   3   6   6   76.49    7.10
   3   6   6   90.49    8.50
   3   6   6   95.19    7.50
   3   6   6   62.09    9.90
  -4  -6  -6   24.70    3.50
  -4  -6  -6   20.00    3.00
   4   6   6   23.10    3.60
   4   6   6   25.60    2.60
   4   6   6   26.30    3.00
   4  -7  -6   27.90    3.10
   4  -7  -6   37.70    2.70
   3  -7  -6  105.79    9.10
   3  -7  -6   71.79    8.40
   3  -7  -6  105.49    8.70
   3  -7  -6   98.39    7.20
   3  -7  -6   85.49    8.60
   3  -7  -6   77.19    8.30
   2  -7  -6   71.89    7.50
   2  -7  -6   73.59    7.60
   2  -7  -6   53.99    6.00
   2  -7  -6   66.99    8.20
   2  -7  -6   50.69    6.10
   2  -7  -6   53.19    5.00
   2  -7  -6   50.69    6.30
   1  -7  -6  573.34   44.50
   1  -7  -6  617.04   46.00
   1  -7  -6  637.34   45.60
   1  -7  -6  646.44   45.50
   1  -7  -6  586.74   45.00
  -1   7   6  574.24   49.30
  -1   7   6  744.83   47.60
  -1   7   6  645.44   45.90
   0  -7  -6    5.60    3.30
   0  -7  -6    8.00    2.10
   0  -7  -6    4.10    1.60
   0   7   6    3.60    2.70
   0   7   6    5.50    1.50
   0   7   6    8.30    2.60
  -1  -7  -6  408.16   32.40
   1   7   6  369.66   35.30
   1   7   6  482.55   34.00
   1   7   6  500.55   32.20
  -2  -7  -6   39.00    4.20
   2   7   6   26.80    5.40
   2   7   6   26.70    3.60
   2   7   6   33.70    4.10
  -3  -7  -6  112.79    8.50
   3   7   6   83.39    7.70
   3   7   6   95.19    8.20
   3   7   6   89.79    7.70
   3   7   6   97.29    7.90
   3   7   6  101.69    8.50
  -4  -7  -6   48.40    4.80
   4   7   6   54.19    4.80
   4   7   6   54.79    4.40
   3  -8  -6  100.49    9.60
   3  -8  -6  118.89    8.70
   3  -8  -6  133.39   10.80
   3  -8  -6  135.69   10.90
   3  -8  -6  116.79    9.80
   3  -8  -6  104.19    9.70
   2  -8  -6   66.79    7.40
   2  -8  -6   71.69    7.20
   2  -8  -6   69.69    7.90
   2  -8  -6   65.69    6.90
   2  -8  -6   59.59    5.20
   2  -8  -6   61.39    6.70
   2  -8  -6   81.69    7.80
   2  -8  -6   60.09    6.60
  -2   8   6   63.79    9.10
   1  -8  -6  171.48   13.70
   1  -8  -6  190.78   14.00
   1  -8  -6  166.68   13.40
   1  -8  -6  135.99   12.60
   1  -8  -6  168.08   12.70
   1  -8  -6  145.09   12.10
   1  -8  -6  188.28   13.20
   1  -8  -6  160.38   13.80
   1  -8  -6  178.48   13.30
  -1   8   6  150.08   14.20
  -1   8   6  150.48   13.00
  -1   8   6  144.69   17.50
   0  -8  -6   76.59    6.40
   0  -8  -6   75.59    6.70
   0   8   6   87.89    8.00
   0   8   6   84.79    6.50
   0   8   6   75.29   10.80
   0   8   6   77.19    6.70
  -1  -8  -6   54.39    5.20
  -1  -8  -6   63.29    6.30
   1   8   6   64.19   12.30
   1   8   6   61.09    7.00
   1   8   6   68.79    5.50
  -2  -8  -6  406.86   28.10
   2   8   6  322.57   28.40
   2   8   6  361.96   27.20
   2   8   6  350.06   26.90
   2   8   6  397.76   27.00
  -3  -8  -6   12.30    2.40
   3   8   6    5.00    1.70
   3   8   6   19.50    3.20
   3   8   6   10.40    2.20
   3   8   6    6.90    1.80
   3   8   6   11.50    2.70
   3  -9  -6   71.09    6.60
   3  -9  -6   87.59    6.80
   3  -9  -6   70.59    6.50
   3  -9  -6   86.09    7.40
   3  -9  -6   82.99    5.90
   2  -9  -6  287.27   21.60
   2  -9  -6  254.17   19.70
   2  -9  -6  306.57   21.50
   2  -9  -6  261.97   20.80
   2  -9  -6  307.27   21.90
   2  -9  -6  275.77   20.90
   2  -9  -6  261.27   21.50
   2  -9  -6  249.68   21.30
   2  -9  -6  282.77   20.60
   1  -9  -6   33.60    4.60
   1  -9  -6   43.20    4.90
   1  -9  -6   34.40    3.60
   1  -9  -6   38.60    4.60
   1  -9  -6   41.30    4.10
   1  -9  -6   42.50    4.60
   1  -9  -6   40.60    4.10
  -1   9   6   26.90    4.00
  -1   9   6   34.60    3.90
  -1   9   6   31.80    5.40
   0  -9  -6  495.85   34.30
   0  -9  -6  506.15   34.70
   0   9   6  461.45   35.40
   0   9   6  422.96   34.20
   0   9   6  485.45   34.20
   0   9   6  478.65   34.10
  -1  -9  -6    7.90    2.60
  -1  -9  -6    4.70    1.40
   1   9   6    5.20    1.50
   1   9   6    3.80    1.50
  -2  -9  -6  111.99    9.80
   2   9   6   96.49    8.30
   3   9   6  111.09    8.80
   3   9   6  110.19    8.50
   3   9   6  106.89    8.60
   3 -10  -6    0.70    0.70
   3 -10  -6    1.50    0.40
   3 -10  -6    0.30    0.70
  -3  10   6    0.30    0.90
   2 -10  -6  122.49   10.10
   2 -10  -6  122.69   10.00
   2 -10  -6  124.79   10.30
   2 -10  -6  131.99   10.60
  -2  10   6  129.49   10.10
   1 -10  -6   48.50    4.50
   1 -10  -6   53.69    5.50
   1 -10  -6   46.10    5.00
   1 -10  -6   46.40    4.70
   1 -10  -6   46.20    4.60
   1 -10  -6   48.10    4.50
  -1  10   6   38.60    4.30
  -1  10   6   45.00    4.60
   0 -10  -6  784.42   51.09
   0 -10  -6  735.53   50.59
   0 -10  -6  729.93   50.39
   0  10   6  634.34   50.19
   0  10   6  650.03   50.19
  -1 -10  -6  324.57   24.30
  -1 -10  -6  365.26   23.70
   1  10   6  287.27   23.00
   1  10   6  297.87   23.00
   2  10   6   17.80    2.50
   2  10   6   16.80    2.50
   3  10   6   73.09    6.00
   3  10   6   79.49    5.90
   2 -11  -6   44.50    4.20
   2 -11  -6   47.00    4.10
  -2  11   6   55.69    4.50
   1 -11  -6  351.26   27.40
   1 -11  -6  388.46   27.90
   1 -11  -6  400.26   27.30
  -1  11   6  386.46   27.60
  -1  11   6  373.96   27.50
   0 -11  -6   48.90    4.60
   0 -11  -6   44.90    4.30
   0  11   6   40.70    4.20
  -1 -11  -6  205.78   14.30
   1  11   6  171.78   13.90
   2  11   6   22.00    2.50
   3  11   6   39.90    3.40
  -2  12   6    9.70    1.70
   1 -12  -6  110.69    8.60
   1 -12  -6  136.49   10.10
  -1  12   6  112.99    9.00
   0 -12  -6   96.99    8.10
   0 -12  -6  103.09    7.90
   0  12   6  103.99    8.00
  -1 -12  -6   14.70    2.10
   1  12   6   13.60    2.10
   2  12   6   99.69    7.50
  -1  13   6   10.00    1.60
   0 -13  -6   74.79    5.50
   0 -13  -6   63.69    5.60
   0  13   6   73.19    5.70
   1  13   6    5.50    1.30
   1  11  -7   15.00    1.20
   1  11  -7   13.30    1.80
   1  11  -7   15.20    1.30
   0  11  -7  141.49    9.70
   0  11  -7  126.19    9.80
   0  11  -7  139.39    9.70
  -1  11  -7   37.10    3.00
  -1  11  -7   42.70    3.10
   2  10  -7   41.30    3.10
   2  10  -7   38.30    3.00
   2  10  -7   40.60    3.10
   2  10  -7   36.80    3.90
   2  10  -7   38.20    2.90
   1  10  -7  111.99   10.20
   1  10  -7  126.39    9.10
   1  10  -7  129.39    9.30
   1  10  -7  128.69    9.20
  -1 -10   7  133.39    9.30
   0  10  -7   25.50    2.20
   0  10  -7   26.20    2.30
   0  10  -7   26.30    2.20
   0 -10   7   24.40    2.30
  -1  10  -7  154.68   10.80
  -1  10  -7  151.98   10.90
  -1  10  -7  146.49   11.00
  -2  10  -7    0.20    0.40
  -2  10  -7    0.20    0.30
   2   9  -7    0.50    1.40
   2   9  -7    0.20    1.60
   2   9  -7    0.30    0.70
   2   9  -7    0.40    0.50
   2   9  -7    1.10    0.70
   2   9  -7    1.80    0.60
   2   9  -7    0.10    0.40
   2   9  -7    2.20    0.70
  -2  -9   7    0.20    0.40
   1   9  -7  173.68   11.90
   1   9  -7  156.48   11.80
   1   9  -7  153.38   11.60
   1   9  -7  155.68   11.60
   1   9  -7  163.98   11.90
   1   9  -7  146.09   13.30
  -1  -9   7  174.58   11.80
   0   9  -7   10.90    1.30
   0   9  -7    6.40    2.10
   0   9  -7    9.40    1.50
   0   9  -7   11.60    1.30
   0   9  -7   12.00    1.70
   0  -9   7    9.30    1.30
  -1   9  -7  186.78   13.80
  -1   9  -7  189.18   13.60
  -1   9  -7  190.78   13.70
   1  -9   7  191.28   14.00
  -2   9  -7   97.39    7.10
  -2   9  -7   93.79    7.00
   3   8  -7   63.59    4.50
   3   8  -7   65.49    4.50
   3   8  -7   47.70    5.20
   3   8  -7   62.09    4.60
   3   8  -7   59.99    4.60
   3   8  -7   63.09    4.40
   3   8  -7   54.59    5.40
   3   8  -7   53.89    4.70
   2   8  -7   54.29    4.30
   2   8  -7   57.09    4.80
   2   8  -7   55.99    4.40
   2   8  -7   57.29    4.30
   2   8  -7   57.89    4.70
   2   8  -7   53.19    4.50
   2   8  -7   44.10    5.80
   2   8  -7   57.29    4.60
   2   8  -7   59.59    6.10
  -2  -8   7   54.69    4.40
   1   8  -7  132.19    9.40
   1   8  -7  121.49    9.30
   1   8  -7  114.79    9.00
   1   8  -7  132.89   11.20
   1   8  -7  124.09    9.00
   1   8  -7  107.29   10.80
   1   8  -7  124.19    9.80
   1   8  -7  135.79   13.20
   1   8  -7  111.49    9.20
   1   8  -7  113.59    8.90
  -1  -8   7  127.09    9.60
   0   8  -7  391.86   27.90
   0   8  -7  403.66   27.90
   0   8  -7  410.56   28.00
   0   8  -7  358.76   29.30
   0   8  -7  382.56   27.70
   0   8  -7  381.86   27.60
  -1   8  -7   11.20    1.50
  -1   8  -7   10.60    2.20
  -1   8  -7   12.10    1.60
   1  -8   7   13.60    1.90
  -2   8  -7  245.08   16.80
  -2   8  -7  240.98   16.70
   2  -8   7  216.58   17.00
   2  -8   7  227.88   17.10
  -3   8  -7   15.30    1.50
  -3   8  -7   16.30    1.50
   3   7  -7   24.90    2.40
   3   7  -7   27.40    2.40
   3   7  -7   28.10    2.70
   3   7  -7   25.90    2.20
   3   7  -7   24.50    2.70
   3   7  -7   25.10    3.50
   3   7  -7   26.50    2.60
   2   7  -7  196.28   14.30
   2   7  -7  193.98   14.80
   2   7  -7  229.18   19.50
   2   7  -7  194.88   14.20
   2   7  -7  200.28   14.40
   2   7  -7  161.78   15.50
   2   7  -7  195.98   14.10
   2   7  -7  178.08   14.40
   2   7  -7  199.68   14.70
   2   7  -7  195.58   14.00
   1   7  -7   92.49    7.60
   1   7  -7   74.79    5.80
   1   7  -7   77.89    7.90
   1   7  -7   77.29    6.50
   1   7  -7   83.39   10.20
   1   7  -7   73.49    5.90
   1   7  -7   72.89    6.20
   1   7  -7   76.09    5.90
   1   7  -7   73.99    7.80
   1   7  -7   82.59    6.40
   1   7  -7   68.39    6.10
  -1  -7   7   78.49    6.50
   0   7  -7  320.57   23.30
   0   7  -7  313.97   23.60
   0   7  -7  315.47   23.30
   0   7  -7  320.27   25.10
   0   7  -7  330.47   25.30
   0   7  -7  335.47   23.70
   0   7  -7  358.26   29.40
  -1   7  -7  166.58   12.90
  -1   7  -7  175.78   12.60
  -1   7  -7  173.08   12.50
   1  -7   7  175.68   13.10
  -2   7  -7  128.09    9.30
  -2   7  -7  121.29    9.10
   2  -7   7  120.69    9.60
   2  -7   7  118.59    9.50
  -3   7  -7   80.29    6.00
  -3   7  -7   82.99    6.10
   3  -7   7   75.19    5.90
   3   6  -7   15.00    2.10
   3   6  -7   13.90    1.80
   3   6  -7   11.20    1.70
   3   6  -7   12.60    2.10
   3   6  -7   11.30    1.40
   3   6  -7   12.00    1.80
   2   6  -7  281.57   20.80
   2   6  -7  300.17   25.90
   2   6  -7  259.47   20.00
   2   6  -7  287.57   20.70
   2   6  -7  280.07   20.20
   2   6  -7  251.97   20.10
   2   6  -7  285.17   20.50
   2   6  -7  274.87   19.80
  -2  -6   7  279.87   20.60
   1   6  -7  789.12   59.99
   1   6  -7  776.22   55.89
   1   6  -7  825.62   56.79
   1   6  -7  784.32   55.59
   1   6  -7  756.32   55.79
  -1  -6   7  751.32   55.79
   0   6  -7  317.47   26.80
   0   6  -7  323.97   23.20
   0   6  -7  315.67   27.30
  -1   6  -7   90.99    9.00
   1  -6   7  123.79    8.60
  -2   6  -7    2.80    1.30
  -2   6  -7    3.90    1.20
  -2   6  -7    4.70    1.30
   2  -6   7    4.50    1.30
  -3   6  -7  223.58   15.90
  -3   6  -7  227.88   16.10
   3  -6   7  219.48   16.20
   3  -6   7  205.58   15.70
   3  -6   7  210.58   16.40
   4   5  -7   27.50    2.20
   4   5  -7   31.00    2.60
   4   5  -7   28.10    2.40
   3   5  -7  132.79    9.30
   3   5  -7  133.29   10.40
   3   5  -7  122.19   10.10
   3   5  -7  112.39    9.80
   3   5  -7  113.49    9.90
   3   5  -7  144.49   10.60
   3   5  -7  136.29   10.20
   2   5  -7    1.00    1.40
   2   5  -7    0.40    3.60
   2   5  -7    1.10    1.20
   2   5  -7    3.50    1.40
   2   5  -7    2.70    1.50
   2   5  -7    1.20    0.50
   2   5  -7    2.60    1.30
   2   5  -7    0.90    1.00
   2   5  -7    1.60    1.00
  -2  -5   7    1.50    1.00
   1   5  -7  728.63   52.59
   1   5  -7  703.23   55.99
   1   5  -7  713.93   51.89
   1   5  -7  744.63   51.59
   1   5  -7  724.23   56.89
   0   5  -7   89.89    7.60
   0   5  -7   85.39    6.80
   0   5  -7   88.49   10.70
   0   5  -7   74.99    9.80
   0  -5   7   80.79    6.90
  -1   5  -7  872.61   66.59
   1  -5   7  787.32   58.89
  -2   5  -7  252.07   20.00
  -2   5  -7  275.47   19.90
  -2   5  -7  257.17   19.70
   2  -5   7  286.37   20.00
  -3   5  -7   76.79    7.00
  -3   5  -7   78.49    6.90
  -3   5  -7   75.29    7.20
   3  -5   7   85.99    6.90
   3  -5   7   74.49    6.30
   3  -5   7   87.19    7.00
  -4   5  -7  106.19    8.20
  -4   5  -7  112.49    8.10
   4   4  -7    3.70    1.00
   4   4  -7    2.50    0.90
   4   4  -7    1.80    0.50
   4   4  -7    3.90    0.90
   3   4  -7   96.79    8.60
   3   4  -7  119.69    8.00
   3   4  -7   96.69    8.50
   3   4  -7  111.99    8.80
   3   4  -7  116.09   10.00
   2   4  -7   70.89    6.50
   2   4  -7   71.19    7.10
   2   4  -7   86.09   12.50
   2   4  -7   75.19    6.70
  -2  -4   7   72.19    6.40
   1   4  -7  167.38   16.90
   1   4  -7  136.69   12.40
   1   4  -7  184.18   18.20
   1   4  -7  181.08   13.50
   0   4  -7  531.95   42.70
   0   4  -7  597.04   39.30
   0   4  -7  467.55   41.70
   0  -4   7  528.05   38.50
  -1   4  -7  129.09   14.00
   1  -4   7  138.69   10.70
   2  -4   7  337.17   24.90
  -3   4  -7   21.10    4.10
  -3   4  -7   29.10    3.80
  -3   4  -7   27.40    4.80
   3  -4   7   33.80    3.70
   3  -4   7   35.60    3.80
  -4   4  -7   89.99    7.80
  -4   4  -7   95.09    7.70
   4  -4   7   99.39    7.00
   4   3  -7   20.10    1.80
   4   3  -7   24.50    2.70
   4   3  -7   23.60    2.20
   3   3  -7   14.20    3.40
   3   3  -7   14.10    2.10
   3   3  -7   14.70    3.30
   3   3  -7   17.10    2.60
   3   3  -7   15.00    3.10
   3   3  -7   21.80    3.80
   2   3  -7  342.47   25.70
   2   3  -7  291.47   25.10
   2   3  -7  394.16   32.10
   2   3  -7  343.37   25.60
   1   3  -7    4.50    4.00
   1   3  -7    1.90    1.50
   1   3  -7    2.50    2.80
   0   3  -7  970.20   67.09
   0   3  -7 1025.70   67.99
   0   3  -7  873.41   70.69
   0  -3   7  894.41   67.29
  -1   3  -7  150.38   15.00
   1  -3   7  160.18   12.30
   2  -3   7  330.77   24.60
  -3   3  -7   87.39    7.40
  -3   3  -7   80.69    7.50
  -3   3  -7   89.09    7.80
   3  -3   7   82.69    7.00
   3  -3   7   75.99    8.90
  -4   3  -7    8.00    3.30
  -4   3  -7   15.20    2.60
  -4   3  -7    6.30    2.80
   4  -3   7   17.20    1.80
   4  -3   7   12.50    2.90
   4   2  -7   42.50    3.20
   3   2  -7    0.40    1.60
   3   2  -7    1.90    0.80
   3   2  -7    0.00    1.00
   2   2  -7  285.27   23.50
   2   2  -7  337.57   28.20
   1   2  -7   56.09    7.40
   1   2  -7   56.29    5.70
   1   2  -7   49.70    7.80
   0   2  -7  910.31   56.89
   0   2  -7  682.73   58.69
   0   2  -7  762.22   58.79
  -1   2  -7  756.52   63.09
   1  -2   7  960.50   61.89
   2  -2   7    5.90    1.70
  -3   2  -7  382.06   26.90
  -3   2  -7  349.37   26.90
  -3   2  -7  371.06   26.70
   3  -2   7  361.36   26.50
   3  -2   7  352.56   26.80
   3  -2   7  373.56   29.60
  -4   2  -7    5.00    2.40
  -4   2  -7    0.40    2.30
  -4   2  -7    3.00    2.70
   4  -2   7    1.50    2.40
   4  -2   7    1.60    1.40
   4  -2   7    2.10    1.10
   2   1  -7  123.99   10.70
   1   1  -7 1688.73  118.79
   1   1  -7 1689.43  117.19
   1   1  -7 1558.54  119.49
   0   1  -7  107.79   11.80
   0   1  -7  141.79   11.90
   0   1  -7  129.99   10.20
  -1   1  -7  423.46   29.70
  -1   1  -7  389.66   31.00
   2  -1   7  111.19    9.40
  -3   1  -7  287.17   20.40
  -3   1  -7  291.27   20.60
  -3   1  -7  262.77   20.70
   3  -1   7  274.87   20.30
   3  -1   7  266.77   20.60
   3  -1   7  281.37   23.90
   3  -1   7  283.57   20.70
  -4   1  -7  116.09    9.40
  -4   1  -7  107.69    9.30
  -4   1  -7  110.39    9.10
   4  -1   7  101.39   11.20
   4  -1   7  109.99    8.60
   4  -1   7  105.99    8.40
   1   0  -7  653.03   51.29
   1   0  -7  775.92   52.79
   1   0  -7  705.33   53.39
   0   0  -7 2296.27  163.08
   0   0  -7 2494.95  164.68
   0   0  -7 2145.59  164.98
  -1   0  -7  363.06   26.20
  -1   0  -7  359.56   27.40
   2   0   7  472.95   35.30
  -3   0  -7    7.50    1.60
  -3   0  -7   10.20    2.10
  -3   0  -7    8.40    2.10
  -3   0  -7    5.90    1.40
   3   0   7    8.30    1.50
   3   0   7   11.80    1.90
   3   0   7    5.40    3.90
   3   0   7    5.10    2.90
  -4   0  -7  209.08   15.50
  -4   0  -7  216.48   15.90
  -4   0  -7  204.98   15.60
   4   0   7  202.68   15.30
   4   0   7  190.48   16.30
   4   0   7  200.98   15.20
   4   0   7  187.38   18.30
   4   0   7  217.98   15.20
   1  -1  -7    8.50    2.00
   1  -1  -7   10.60    2.60
   0  -1  -7  550.84   39.50
  -1  -1  -7   26.20    3.60
  -1  -1  -7   27.00    2.70
  -1  -1  -7   30.70    9.70
  -2  -1  -7  368.36   39.00
   2   1   7  460.85   32.10
  -3  -1  -7  369.46   26.00
  -3  -1  -7  346.87   25.90
   3   1   7  329.27   30.10
   3   1   7  385.36   26.10
   3   1   7  360.26   28.70
   3   1   7  360.66   26.00
   3   1   7  361.96   25.90
   3   1   7  320.47   25.70
  -4  -1  -7   48.60    4.50
  -4  -1  -7   49.10    4.70
  -4  -1  -7   40.60    4.50
  -4  -1  -7   46.60    4.90
   4   1   7   42.40    3.90
   4   1   7   37.10    3.90
   4   1   7   36.50    4.10
   4   1   7   35.30    7.70
   4   1   7   37.00    4.10
   4   1   7   40.50    4.50
   4  -2  -7   98.49    7.50
   4  -2  -7  108.89    8.80
   3  -2  -7  100.29   17.60
   2  -2  -7  325.57   28.00
  -2   2   7  333.37   28.50
   1  -2  -7   24.10    3.00
   1  -2  -7   26.50    4.50
   1  -2  -7   20.70    4.70
   1  -2  -7   31.90    4.30
  -1   2   7   35.10    4.40
   0  -2  -7  856.31   60.09
   0  -2  -7  735.13   58.69
   0   2   7  888.81   60.19
  -1  -2  -7 1090.39   75.19
  -1  -2  -7 1067.39   76.09
   1   2   7 1023.80   76.29
  -2  -2  -7  108.19   17.80
   2   2   7  143.49   12.30
  -3  -2  -7  101.99    7.80
  -3  -2  -7   92.69    7.50
   3   2   7   98.39    7.90
   3   2   7   87.59    7.60
   3   2   7   75.19   11.90
   3   2   7   95.99   10.90
   3   2   7   94.19    7.80
   3   2   7   88.49    7.40
  -4  -2  -7    1.90    1.60
  -4  -2  -7    2.50    2.10
  -4  -2  -7    2.10    1.10
  -4  -2  -7    2.40    1.90
   4   2   7    2.10    1.60
   4   2   7    2.50    1.70
   4   2   7    2.50    4.40
   4   2   7    1.80    1.10
   4   2   7    2.50    1.60
   4   2   7    2.60    1.20
   4  -3  -7   34.20    4.10
   4  -3  -7   36.50    3.20
   3  -3  -7  110.39   15.00
   3  -3  -7   94.69    8.70
   3  -3  -7   96.39   11.10
   2  -3  -7  116.79    9.10
   2  -3  -7  119.89   14.00
   2  -3  -7  115.89    9.20
   1  -3  -7 1203.68   86.09
   1  -3  -7 1241.68   86.09
   1  -3  -7 1144.99   87.79
  -1   3   7 1280.67   88.09
   0  -3  -7    5.40    2.20
   0  -3  -7    7.20    1.40
   0  -3  -7    7.10    4.60
   0   3   7    9.60    2.60
  -1  -3  -7  825.82   57.69
  -1  -3  -7  779.92   70.79
   1   3   7  821.82   59.39
  -2  -3  -7  303.37   22.00
   2   3   7  293.27   24.90
  -3  -3  -7  295.27   21.10
  -3  -3  -7  270.27   20.80
   3   3   7  292.37   21.40
   3   3   7  280.87   20.70
   3   3   7  238.18   26.30
   3   3   7  275.37   24.80
   3   3   7  288.07   20.80
   3   3   7  285.17   21.00
   3   3   7  306.17   21.40
  -4  -3  -7   44.00    4.90
  -4  -3  -7   59.89    5.60
   4   3   7   52.09    5.50
   4   3   7   56.39    5.20
   4   3   7   51.59    5.40
   4   3   7   61.79    5.40
   4   3   7   58.49    5.00
   4   3   7   47.60   10.40
   4  -4  -7    5.70    2.30
   4  -4  -7    9.10    3.40
   4  -4  -7    6.40    1.50
   3  -4  -7   56.89    4.60
   3  -4  -7   80.59   11.00
   3  -4  -7   56.69    5.70
   2  -4  -7    7.70    2.00
   2  -4  -7    8.90    1.70
   2  -4  -7   12.10    3.90
   2  -4  -7    5.70    4.00
   2  -4  -7    6.60    1.50
   1  -4  -7  204.38   15.40
   1  -4  -7  200.48   15.60
  -1   4   7  220.68   17.60
   0  -4  -7  393.56   30.60
   0  -4  -7  403.26   36.10
   0  -4  -7  396.46   30.50
   0   4   7  451.15   32.10
   0   4   7  461.95   32.10
  -1  -4  -7  169.28   12.90
   1   4   7  170.98   15.00
   1   4   7  172.38   14.30
  -2  -4  -7  295.07   22.00
   2   4   7  299.67   25.80
  -3  -4  -7    3.00    1.40
  -3  -4  -7    5.70    1.50
   3   4   7    1.00    2.10
   3   4   7    2.30    1.60
   3   4   7    2.10    1.90
   3   4   7    2.20    4.90
   3   4   7    3.80    4.20
   3   4   7    3.00    1.10
   3   4   7    5.80    1.30
  -4  -4  -7  166.18   13.10
  -4  -4  -7  145.39   13.00
   4   4   7  173.68   13.40
   4   4   7  175.48   13.50
   4   4   7  186.88   12.90
   4  -5  -7   -1.50    2.00
   4  -5  -7    4.00    1.00
   3  -5  -7  117.49    8.60
   3  -5  -7  105.89    9.50
   2  -5  -7  212.18   17.00
   2  -5  -7  216.58   16.40
   2  -5  -7  208.48   16.20
   1  -5  -7  148.79   12.10
   1  -5  -7  150.98   11.90
   1  -5  -7  153.78   11.80
  -1   5   7  165.48   14.50
   0  -5  -7  168.58   14.10
   0  -5  -7  166.48   17.60
   0  -5  -7  167.28   12.60
   0  -5  -7  164.38   12.90
   0  -5  -7  157.68   13.00
   0   5   7  180.98   14.90
  -1  -5  -7   37.80   11.70
  -1  -5  -7   42.60    4.20
   1   5   7   50.79    6.80
   1   5   7   42.80    5.70
  -2  -5  -7  165.38   13.70
   2   5   7  183.08   14.40
   2   5   7  193.68   18.70
  -3  -5  -7   58.19    5.30
   3   5   7   49.90    4.90
   3   5   7   54.99    6.20
   3   5   7   59.69    6.60
   3   5   7   46.80    4.50
   3   5   7   53.29    5.50
   3   5   7   54.99   10.10
  -4  -5  -7   42.00    4.90
  -4  -5  -7   52.49    5.30
   4   5   7   53.29    6.10
   4   5   7   58.99    5.90
   4   5   7   53.19    5.10
   4   5   7   64.19    5.10
   4  -6  -7   27.10    3.00
   3  -6  -7   62.69    7.00
   3  -6  -7   50.39    5.50
   3  -6  -7   38.00    5.60
   3  -6  -7   57.19    5.90
   3  -6  -7   62.59    8.30
   3  -6  -7   48.60    4.90
   2  -6  -7  504.05   35.00
   2  -6  -7  433.26   33.70
   2  -6  -7  439.46   33.90
   1  -6  -7    1.30    0.90
   1  -6  -7    3.50    1.20
   1  -6  -7    3.70    2.60
   1  -6  -7    2.40    1.20
  -1   6   7    2.10    2.90
  -1   6   7    1.50    2.40
   0  -6  -7  436.96   33.20
   0  -6  -7  439.06   32.80
   0  -6  -7  459.65   37.70
   0  -6  -7  426.16   32.30
   0  -6  -7  405.76   32.80
   0   6   7  462.75   35.40
   0   6   7  501.95   33.90
  -1  -6  -7  123.09   17.60
  -1  -6  -7  133.19   10.50
   1   6   7  126.09   12.80
  -2  -6  -7  116.89    9.70
  -2  -6  -7  107.49   10.00
   2   6   7  126.09   14.90
   2   6   7  130.49    9.90
   2   6   7  139.39   11.40
  -3  -6  -7  169.08   13.40
   3   6   7  166.88   13.70
   3   6   7  138.09   17.10
   3   6   7  158.78   12.80
   3   6   7  194.58   14.90
   3   6   7  195.58   14.00
  -4  -6  -7    0.00    1.20
   4   6   7   -0.90    1.40
   4   6   7   -1.40    2.50
   4   6   7    1.40    1.60
   3  -7  -7   58.59    7.10
   3  -7  -7   79.79    5.60
   3  -7  -7   69.89    7.00
   3  -7  -7   62.19    6.60
   3  -7  -7   62.19    8.80
   2  -7  -7  127.39   11.60
   2  -7  -7  119.49   11.70
   2  -7  -7  160.98   13.00
   2  -7  -7  134.79   11.50
   2  -7  -7  144.39   10.40
   1  -7  -7  177.08   15.50
   1  -7  -7  189.98   15.10
   1  -7  -7  187.28   14.70
   1  -7  -7  181.98   14.00
   1  -7  -7  209.68   15.10
  -1   7   7  181.48   18.90
  -1   7   7  224.98   17.10
   0  -7  -7  115.79    9.80
   0  -7  -7  105.29    9.70
   0  -7  -7  104.59    8.80
   0   7   7  120.09   10.30
   0   7   7  109.79   12.50
   0   7   7  117.49    8.80
  -1  -7  -7  375.36   31.20
  -1  -7  -7  418.56   32.30
   1   7   7  480.85   31.70
   1   7   7  480.85   33.80
   1   7   7  424.46   40.00
  -2  -7  -7    1.40    1.40
   2   7   7    1.90    2.20
   2   7   7    3.00    3.20
   2   7   7    2.10    1.40
  -3  -7  -7  123.19    9.50
   3   7   7   98.09    8.70
   3   7   7  109.29    9.10
   3   7   7  114.49    9.90
  -4  -7  -7   31.50    3.40
   4   7   7   33.10    3.10
   4   7   7   34.60    4.20
   4   7   7   30.10    2.70
   3  -8  -7  161.58   12.20
   3  -8  -7  120.19   10.90
   3  -8  -7  153.58   12.00
   3  -8  -7  143.99   10.00
   3  -8  -7  113.39   10.90
   3  -8  -7  138.69   11.00
   2  -8  -7   34.10    5.80
   2  -8  -7   37.80    4.90
   2  -8  -7   35.10    3.20
   2  -8  -7   41.60    4.80
   2  -8  -7   39.80    5.90
   2  -8  -7   31.50    4.60
   2  -8  -7   34.50    4.90
   2  -8  -7   37.80    5.80
  -2   8   7   35.80    7.40
   1  -8  -7  324.37   24.20
   1  -8  -7  333.97   24.10
   1  -8  -7  376.06   24.10
   1  -8  -7  277.57   23.60
   1  -8  -7  299.27   24.60
   1  -8  -7  295.17   22.90
   1  -8  -7  333.67   24.70
  -1   8   7  310.27   23.40
  -1   8   7  310.47   25.20
   0  -8  -7   89.29    7.40
   0  -8  -7   93.39    7.80
   0   8   7   85.39   12.00
   0   8   7   98.49    7.50
   0   8   7   98.19    9.00
  -1  -8  -7  176.88   15.20
  -1  -8  -7  209.78   16.50
   1   8   7  216.18   15.40
   1   8   7  215.88   17.40
  -2  -8  -7  298.87   22.50
   2   8   7  255.77   23.20
   2   8   7  278.67   21.10
   2   8   7  323.77   21.70
  -3  -8  -7   27.20    3.30
   3   8   7   21.90    2.90
   3  -9  -7   18.00    1.60
   3  -9  -7   13.10    2.10
   3  -9  -7   16.50    3.10
   3  -9  -7   14.10    2.10
  -3   9   7   13.90    2.40
   2  -9  -7    1.40    1.90
   2  -9  -7    2.80    1.70
   2  -9  -7    3.00    2.40
   2  -9  -7    2.70    2.00
   2  -9  -7    3.50    1.00
   2  -9  -7    1.80    2.40
   2  -9  -7    5.10    1.90
   2  -9  -7    2.00    1.90
   2  -9  -7    6.80    2.50
  -2   9   7    1.00    3.00
   1  -9  -7   77.79    6.30
   1  -9  -7   71.79    5.90
   1  -9  -7   71.69    7.60
   1  -9  -7   71.69    7.20
   1  -9  -7   84.09    7.60
   1  -9  -7   86.59    6.90
   1  -9  -7   83.39    7.70
   1  -9  -7   81.69    7.60
   1  -9  -7   82.99    7.00
  -1   9   7   68.79    8.10
  -1   9   7   73.59    6.60
   0  -9  -7  506.35   32.80
   0  -9  -7  452.85   33.00
   0  -9  -7  417.16   32.50
   0  -9  -7  509.85   32.90
   0   9   7  428.76   32.50
   0   9   7  411.96   33.80
   0   9   7  423.86   32.40
  -1  -9  -7   23.00    3.10
  -1  -9  -7   30.40    4.40
   1   9   7   26.40    3.20
   1   9   7   24.40    4.80
   1   9   7   24.10    2.70
   1   9   7   22.60    2.90
  -2  -9  -7  150.98   12.40
   2   9   7  134.99   11.10
   2   9   7  139.19   11.00
   2   9   7  136.59   10.90
   3   9   7   20.90    2.80
   3   9   7   21.10    2.80
   3 -10  -7   24.50    2.30
   2 -10  -7  166.18   12.30
   2 -10  -7  138.19   11.60
   2 -10  -7  157.98   12.40
   2 -10  -7  143.29   10.80
   2 -10  -7  140.39   11.50
  -2  10   7  153.58   11.50
   1 -10  -7   13.50    2.50
   1 -10  -7   11.10    2.30
   1 -10  -7   12.60    2.50
   1 -10  -7   15.20    2.30
   1 -10  -7   13.10    2.30
   1 -10  -7   12.40    2.80
  -1  10   7   14.30    2.30
  -1  10   7    9.30    3.30
  -1  10   7   14.10    2.50
   0 -10  -7   15.70    2.20
   0 -10  -7   15.00    2.60
   0 -10  -7   17.70    2.90
   0  10   7   15.50    2.40
   0  10   7   19.00    2.60
   0  10   7   10.70    3.80
  -1 -10  -7   50.49    5.80
  -1 -10  -7   53.49    5.10
   1  10   7   42.90    4.40
   1  10   7   56.59    4.70
   2  10   7   44.50    4.20
   2  10   7   48.00    4.40
   3  10   7   36.60    3.80
   3  10   7   48.00    3.70
   3  10   7   36.80    3.50
   2 -11  -7   56.89    5.20
   2 -11  -7   60.39    5.10
  -2  11   7   71.29    5.30
  -2  11   7   66.89    5.70
   1 -11  -7  119.79    9.00
   1 -11  -7  126.39    9.70
   1 -11  -7  113.69    9.10
   1 -11  -7  132.19    9.00
  -1  11   7  114.09    9.20
  -1  11   7  101.19    9.00
   0 -11  -7  103.99    8.00
   0 -11  -7  105.89    8.40
   0  11   7   95.09    7.80
   0  11   7   88.79    7.70
  -1 -11  -7   61.79    5.20
   1  11   7   48.80    4.50
   1  11   7   45.60    4.40
   2  11   7    2.20    1.40
   2  11   7    2.90    1.00
   1 -12  -7   44.80    3.40
   1 -12  -7   46.40    4.40
  -1  12   7   40.90    4.00
   0 -12  -7    1.80    1.20
   0 -12  -7    3.00    1.30
   0  12   7    3.30    1.40
  -1 -12  -7   84.79    6.40
   1  12   7   70.59    6.10
   2  12   7   36.00    3.10
   0 -13  -7   43.90    3.60
   0  13   7   42.60    3.70
   1  13   7   12.30    1.60
   0  11  -8   86.19    6.10
   0  11  -8   83.59    6.10
   2  10  -8   34.90    2.60
   2  10  -8   32.70    2.60
   1  10  -8    9.50    2.00
   1  10  -8   12.90    1.30
   1  10  -8   13.00    1.20
  -1 -10   8   12.20    1.30
   0  10  -8   88.49    6.30
   0  10  -8   89.39    6.30
   0 -10   8   78.59    6.30
  -1  10  -8   60.29    4.50
  -1  10  -8   60.89    4.50
   2   9  -8   51.69    5.40
   2   9  -8   63.69    4.30
   2   9  -8   58.99    4.30
   2   9  -8   55.99    4.50
   2   9  -8   47.70    5.30
   2   9  -8   59.09    4.40
   2   9  -8   59.69    4.30
   1   9  -8  113.49    8.40
   1   9  -8  114.29    8.40
   1   9  -8  122.59    8.70
   1   9  -8  114.79   10.00
   1   9  -8  113.59    8.60
  -1  -9   8  113.99    8.50
   0   9  -8    4.40    0.90
   0   9  -8    2.90    1.50
   0   9  -8    3.60    0.80
   0   9  -8    4.60    0.90
   0   9  -8    3.40    1.20
   0  -9   8    2.60    0.70
  -1   9  -8  169.08   12.20
  -1   9  -8  170.78   12.20
   1  -9   8  167.08   12.50
  -2   9  -8   10.50    1.20
  -2   9  -8   10.70    1.20
   3   8  -8   40.50    3.00
   3   8  -8   38.50    2.90
   3   8  -8   36.00    3.70
   3   8  -8   41.00    2.90
   3   8  -8   37.10    3.10
   2   8  -8    1.80    1.70
   2   8  -8    2.10    0.70
   2   8  -8    2.50    0.80
   2   8  -8    2.00    0.80
   2   8  -8    2.40    0.90
   2   8  -8    0.90    0.60
   2   8  -8    1.10    0.50
   2   8  -8    1.20    1.50
  -2  -8   8    1.40    0.60
   1   8  -8  147.39   11.00
   1   8  -8  159.68   13.00
   1   8  -8  153.88   11.10
   1   8  -8  146.19   11.50
   1   8  -8  144.19   11.20
   1   8  -8  158.38   11.00
   1   8  -8  170.38   11.40
   1   8  -8  130.49   12.60
   0   8  -8  186.28   13.30
   0   8  -8  191.68   13.40
   0   8  -8  155.08   14.60
   0   8  -8  187.28   13.10
   0   8  -8  181.08   13.00
  -1   8  -8  105.69    7.60
  -1   8  -8  101.99    7.60
   1  -8   8   98.39    7.90
  -2   8  -8  123.09    8.80
  -2   8  -8  124.19    8.80
   2  -8   8  111.89    9.10
  -3   8  -8   17.80    1.40
  -3   8  -8   16.60    1.50
   3   7  -8   49.70    3.70
   3   7  -8   45.70    4.10
   3   7  -8   52.99    3.90
   3   7  -8   50.49    4.10
   3   7  -8   47.30    4.80
   3   7  -8   52.99    3.90
   2   7  -8  117.59    8.90
   2   7  -8  116.19    9.10
   2   7  -8  103.09   10.00
   2   7  -8  122.59    8.60
   2   7  -8  118.59    8.50
   2   7  -8  103.89    9.10
   2   7  -8  122.99    8.70
   2   7  -8  120.69    8.80
   1   7  -8   41.20    3.50
   1   7  -8   44.40    4.00
   1   7  -8   39.30    3.80
   1   7  -8   48.00    5.60
   1   7  -8   41.00    3.50
   1   7  -8   42.90    5.40
   1   7  -8   41.80    4.00
   1   7  -8   40.10    3.40
   1   7  -8   43.70    7.60
   1   7  -8   46.50    5.00
  -1  -7   8   42.00    4.00
   0   7  -8   22.70    2.20
   0   7  -8   23.70    2.50
   0   7  -8   18.20    3.70
   0   7  -8   23.70    4.10
   0   7  -8   23.10    2.70
   0   7  -8   24.60    2.10
  -1   7  -8   13.20    1.60
  -1   7  -8   11.30    1.90
  -1   7  -8   13.60    1.70
   1  -7   8   14.40    2.10
  -2   7  -8  203.28   14.60
  -2   7  -8  201.68   14.60
   2  -7   8  200.58   15.00
   2  -7   8  198.88   15.00
  -3   7  -8   45.70    3.70
  -3   7  -8   46.60    3.70
   3  -7   8   48.80    3.90
   3   6  -8    9.50    1.20
   3   6  -8   12.20    1.60
   3   6  -8   11.30    1.50
   3   6  -8   11.10    1.70
   3   6  -8   13.10    1.80
   2   6  -8  159.98   13.30
   2   6  -8  171.28   13.10
   2   6  -8  183.68   13.40
   2   6  -8  181.78   14.20
   2   6  -8  172.78   12.60
   2   6  -8  200.08   18.50
   2   6  -8  157.08   12.80
   2   6  -8  171.48   12.90
   2   6  -8  167.28   12.70
  -2  -6   8  184.98   13.40
   1   6  -8    2.70    1.10
   1   6  -8    0.40    1.00
   1   6  -8    1.40    1.70
   1   6  -8    3.60    0.80
   1   6  -8    2.20    0.70
   1   6  -8    3.40    0.90
   1   6  -8    1.10    3.40
   1   6  -8    1.00    1.90
  -1  -6   8    1.00    0.90
   0   6  -8  423.96   29.90
   0   6  -8  431.56   31.40
   0   6  -8  423.16   30.20
   0   6  -8  411.56   33.70
   0   6  -8  381.66   29.70
  -1   6  -8   80.19    6.20
  -1   6  -8   83.49    6.10
  -1   6  -8   75.89    6.40
   1  -6   8   82.49    6.70
  -2   6  -8   36.90    3.90
  -2   6  -8   44.00    3.80
  -2   6  -8   42.30    3.60
   2  -6   8   42.80    4.00
  -3   6  -8   91.89    6.80
  -3   6  -8   90.39    6.80
   3  -6   8   82.09    7.00
   3   5  -8   23.60    2.80
   3   5  -8   24.30    2.80
   3   5  -8   19.50    2.40
   3   5  -8   16.90    2.40
   3   5  -8   24.50    2.00
   2   5  -8  119.19    9.80
   2   5  -8  120.39    9.70
   2   5  -8  134.89   10.70
   2   5  -8  118.39    8.90
   2   5  -8  102.19    9.20
   2   5  -8  135.59   10.00
   2   5  -8  121.19    9.40
   2   5  -8  131.79   15.10
  -2  -5   8  122.99    9.80
   1   5  -8  158.98   11.70
   1   5  -8  141.49   16.20
   1   5  -8  164.38   12.80
   1   5  -8  140.59   15.90
   1   5  -8  151.38   11.90
   0   5  -8  112.19    9.30
   0   5  -8  109.29    8.40
   0   5  -8  110.09    8.60
   0   5  -8   96.89   11.70
   0   5  -8   99.79   12.20
   0  -5   8  105.29    8.60
  -1   5  -8  427.06   33.60
   1  -5   8  479.95   33.00
  -2   5  -8    2.10    1.30
  -2   5  -8    4.80    1.50
   2  -5   8    1.50    1.10
  -3   5  -8  201.28   14.20
  -3   5  -8  177.18   14.40
  -3   5  -8  196.38   14.30
   3  -5   8  184.88   14.30
   3  -5   8  190.68   14.40
  -4   5  -8   30.70    2.60
  -4   5  -8   31.10    2.50
   4   4  -8   13.40    1.10
   3   4  -8   67.09    4.80
   3   4  -8   74.89    6.30
   3   4  -8   48.00    5.20
   3   4  -8   53.99    6.00
   3   4  -8   69.89    5.50
   2   4  -8    0.70    1.00
   2   4  -8    0.30    1.40
   2   4  -8    0.80    1.00
   2   4  -8    1.20    3.60
   2   4  -8    0.30    1.00
   2   4  -8   -2.50    1.00
   2   4  -8    0.10    1.30
   2   4  -8    0.40    0.50
   2   4  -8   -1.50    0.80
  -2  -4   8    0.30    0.90
   1   4  -8  398.56   34.80
   1   4  -8  408.56   29.90
   1   4  -8  377.86   33.80
   1   4  -8  439.76   29.00
   1   4  -8  363.36   29.30
   0   4  -8   97.99    8.10
   0   4  -8   88.19   11.30
   0   4  -8   75.69   10.40
   0  -4   8   81.89    7.30
   1  -4   8  207.48   15.80
  -2   4  -8  275.07   20.20
  -2   4  -8  252.77   20.30
  -2   4  -8  265.37   19.90
   2  -4   8  282.87   20.20
  -3   4  -8   38.60    5.20
  -3   4  -8   44.90    5.10
  -3   4  -8   43.70    5.10
   3  -4   8   45.20    4.40
  -4   4  -8   77.19    5.70
  -4   4  -8   68.49    5.60
  -4   4  -8   72.59    5.80
   3   3  -8   53.19    5.40
   3   3  -8   50.39    4.40
   3   3  -8   50.59    4.50
   2   3  -8   40.90    4.80
   2   3  -8   46.20    4.70
   2   3  -8   35.60    3.90
   2   3  -8   44.50    9.50
   1   3  -8  294.17   21.30
   1   3  -8  279.07   25.60
   1   3  -8  244.48   24.20
   0   3  -8  763.02   50.29
   0   3  -8  634.24   54.19
   0   3  -8  780.62   51.19
   0   3  -8  646.94   53.99
   0  -3   8  675.83   50.49
  -1   3  -8    1.30    3.20
   1  -3   8   10.70    2.10
   2  -3   8  420.36   30.80
  -3   3  -8   37.90    5.00
  -3   3  -8   35.90    4.60
  -3   3  -8   43.50    5.60
   3  -3   8   33.90    5.40
   3  -3   8   40.40    4.20
  -4   3  -8   69.89    5.80
  -4   3  -8   66.69    5.80
  -4   3  -8   61.39    5.80
   4  -3   8   66.29    4.90
   4  -3   8   58.39    6.00
   2   2  -8  146.39   12.90
   2   2  -8  170.88   14.50
   2   2  -8  196.48   19.00
   2   2  -8  192.08   14.30
   1   2  -8   23.20    3.50
   1   2  -8   23.60    5.20
   1   2  -8   16.40    5.30
   0   2  -8  194.28   18.20
   0   2  -8  230.58   15.40
   0   2  -8  217.48   16.10
   0   2  -8  169.68   18.30
   0  -2   8  205.08   15.50
  -1   2  -8  136.49   14.60
   1  -2   8  188.18   13.20
   2  -2   8  208.68   16.10
  -3   2  -8  135.89   11.10
  -3   2  -8  133.89   10.80
  -3   2  -8  141.99   11.10
   3  -2   8  129.89   10.40
   3  -2   8  120.79   12.60
  -4   2  -8    5.40    2.70
  -4   2  -8    5.60    2.30
  -4   2  -8    5.70    3.00
   4  -2   8    4.80    1.80
   4  -2   8    7.80    2.60
   4  -2   8   10.20    1.40
   2   1  -8  352.26   26.50
   2   1  -8  340.27   31.50
   1   1  -8  449.95   29.60
   1   1  -8  413.66   30.60
   1   1  -8  368.06   33.20
   1   1  -8  407.26   32.60
   0   1  -8  151.98   11.20
   0   1  -8  125.49   13.80
   0   1  -8  142.99   13.50
   0   1  -8  154.98   11.90
   0  -1   8  159.08   11.50
  -1   1  -8  203.18   15.20
  -1   1  -8  177.38   16.80
  -1   1  -8  216.78   15.50
   1  -1   8  204.58   15.60
   2  -1   8    2.20    1.40
  -3   1  -8  219.28   17.10
  -3   1  -8  221.68   17.00
  -3   1  -8  222.78   16.80
   3  -1   8  230.78   16.60
   3  -1   8  218.68   19.80
  -4   1  -8    9.60    2.70
  -4   1  -8   17.30    3.30
  -4   1  -8    9.80    3.10
   4  -1   8    9.80    2.00
   4  -1   8   10.00    3.40
   4  -1   8   17.50    2.20
   1   0  -8  342.57   27.80
   1   0  -8  390.16   29.60
   1   0  -8  363.06   30.30
   1   0  -8  399.46   27.00
   0   0  -8   13.20    4.00
   0   0  -8   12.10    2.10
   0   0  -8    8.60    2.60
  -1   0  -8 1194.58   83.49
  -1   0  -8 1200.98   83.49
  -1   0  -8 1132.99   84.79
   1   0   8 1171.78   83.79
  -3   0  -8  150.88   11.40
  -3   0  -8  144.69   11.70
  -3   0  -8  146.79   11.80
  -3   0  -8  144.49   11.60
   3   0   8  152.48   11.70
   3   0   8  144.89   13.70
   3   0   8  145.59   15.10
   3   0   8  156.48   11.30
  -4   0  -8   94.59    8.00
  -4   0  -8  103.99    8.50
  -4   0  -8   95.29    8.20
   4   0   8   87.59    7.40
   4   0   8   85.09   10.40
   4   0   8   84.79    7.10
   4   0   8  103.29    7.60
   1  -1  -8  363.86   29.60
   1  -1  -8  312.27   27.30
   1  -1  -8  386.86   29.00
   1  -1  -8  418.36   26.80
   0  -1  -8  386.86   28.60
   0  -1  -8  354.26   27.00
  -1  -1  -8    7.50    2.40
  -1  -1  -8   11.20    1.70
   1   1   8    7.10    2.60
   2   1   8  478.75   35.80
  -3  -1  -8    9.30    1.80
  -3  -1  -8    7.60    2.10
   3   1   8    3.90    3.70
   3   1   8   12.60    1.70
   3   1   8    5.70    2.90
   3   1   8   12.30    2.00
  -4  -1  -8  130.49   10.10
  -4  -1  -8  140.79   10.50
  -4  -1  -8  125.59    9.90
  -4  -1  -8  110.59    9.80
   4   1   8  113.99    9.50
   4   1   8  116.89   13.20
   4   1   8  112.89    9.60
   4   1   8  145.69    9.70
   2  -2  -8  120.89    9.50
   1  -2  -8    7.10    1.50
   1  -2  -8    9.70    3.00
   1  -2  -8    9.00    1.40
   1  -2  -8    5.60    1.70
  -1   2   8    8.40    2.80
   0  -2  -8  750.62   57.59
   0  -2  -8  790.52   57.89
   0  -2  -8  861.31   59.39
   0   2   8  833.22   59.29
  -1  -2  -8   48.60    4.30
  -1  -2  -8   49.20    5.60
  -1  -2  -8   46.30   12.40
   1   2   8   54.29    5.70
   1   2   8   42.80    5.10
  -2  -2  -8  158.98   24.10
   2   2   8  179.48   14.80
  -3  -2  -8  240.88   16.90
  -3  -2  -8  223.58   16.70
   3   2   8  213.08   19.20
   3   2   8  223.68   16.60
   3   2   8  208.28   21.20
   3   2   8  212.48   16.60
   3   2   8  223.08   16.60
  -4  -2  -8   24.40    3.00
  -4  -2  -8   33.30    4.10
   4   2   8   24.90    3.10
   4   2   8   27.80    3.60
   4   2   8   22.50    2.90
   4   2   8   16.60    5.80
   3  -3  -8   46.80   10.00
   3  -3  -8   34.40    7.40
   2  -3  -8  383.96   27.00
   2  -3  -8  308.27   28.50
   2  -3  -8  414.86   31.70
   2  -3  -8  373.56   26.90
   1  -3  -8  192.28   15.80
   1  -3  -8  160.18   12.70
   1  -3  -8  157.08   14.60
   1  -3  -8  166.88   12.60
  -1   3   8  168.78   14.80
   0  -3  -8  887.81   64.59
   0  -3  -8  912.41   66.19
   0  -3  -8  958.30   65.09
   0  -3  -8  912.11   64.79
   0   3   8  784.52   65.19
   0   3   8  984.30   66.39
  -1  -3  -8  418.26   29.80
  -1  -3  -8  378.76   30.90
  -1  -3  -8  406.46   42.10
   1   3   8  384.96   31.00
   1   3   8  463.35   31.60
  -2  -3  -8   44.10    4.20
   2   3   8   40.30    6.00
  -3  -3  -8  206.58   15.70
  -3  -3  -8  217.48   15.90
   3   3   8  202.98   15.90
   3   3   8  216.48   15.60
   3   3   8  203.08   15.80
   3   3   8  197.08   21.10
   3   3   8  195.18   18.80
  -4  -3  -8   12.90    2.30
  -4  -3  -8   17.20    3.30
   4   3   8   17.60    2.50
   4   3   8   16.40    2.80
   4   3   8   10.80    2.30
   4   3   8   12.10    6.00
   4  -4  -8   83.09    6.30
   3  -4  -8  125.29    9.50
   2  -4  -8  199.88   16.20
   2  -4  -8  142.99   13.40
   2  -4  -8  173.38   13.20
   2  -4  -8  176.48   13.30
   1  -4  -8  156.18   12.00
   1  -4  -8  148.79   12.20
   1  -4  -8  157.08   12.00
  -1   4   8  169.28   14.50
   0  -4  -8  180.78   16.50
   0  -4  -8  171.78   20.70
   0  -4  -8  191.98   15.30
   0  -4  -8  200.78   15.20
   0  -4  -8  217.48   15.00
   0   4   8  214.48   17.00
   0   4   8  210.28   16.50
  -1  -4  -8  665.43   45.70
  -1  -4  -8  564.14   56.39
   1   4   8  646.74   47.70
   1   4   8  653.93   47.50
  -2  -4  -8   79.09    6.60
   2   4   8   76.19   11.80
   2   4   8   72.29    9.10
   2   4   8   72.19    6.60
  -3  -4  -8   98.59    9.20
  -3  -4  -8  109.59    9.20
   3   4   8  110.29   13.10
   3   4   8  106.29   15.40
   3   4   8  119.09    8.90
   3   4   8  113.59    9.40
   3   4   8  118.49    9.70
  -4  -4  -8   34.10    4.00
  -4  -4  -8   41.50    4.50
   4   4   8   38.90    7.80
   4   4   8   35.80    4.10
   4   4   8   41.40    3.90
   4   4   8   43.40    4.40
   4  -5  -8   15.40    1.70
   3  -5  -8  212.08   15.80
   2  -5  -8    6.90    1.80
   2  -5  -8    5.60    3.20
   2  -5  -8    4.50    2.00
   2  -5  -8    9.30    5.00
   2  -5  -8    5.30    1.60
   1  -5  -8  535.65   38.70
   1  -5  -8  527.85   38.60
   1  -5  -8  519.15   39.00
  -1   5   8  555.94   41.80
   0  -5  -8  217.88   17.30
   0  -5  -8  234.78   17.30
   0  -5  -8  202.48   18.10
   0  -5  -8  237.48   16.80
   0  -5  -8  221.18   22.30
   0   5   8  233.98   19.30
  -1  -5  -8   43.20    4.30
  -1  -5  -8   39.40   11.10
   1   5   8   45.60    6.40
   1   5   8   39.00    7.10
  -2  -5  -8  220.78   16.70
  -2  -5  -8  228.58   17.00
   2   5   8  218.58   20.30
   2   5   8  216.28   17.00
   2   5   8  214.48   23.60
  -3  -5  -8    0.20    1.20
   3   5   8   -0.30    2.10
   3   5   8    1.60    4.80
   3   5   8   -0.10    1.90
   3   5   8    0.30    3.90
  -4  -5  -8   67.89    6.70
  -4  -5  -8   88.49    7.00
   4   5   8   89.29    7.40
   4   5   8   78.69    6.50
   4   5   8   77.29    7.00
   4  -6  -8    3.40    0.80
   3  -6  -8   51.09    3.80
   3  -6  -8   38.50    4.60
   3  -6  -8   40.50    5.00
   3  -6  -8   27.60    4.90
   3  -6  -8   38.40    5.90
   2  -6  -8  174.38   11.80
   2  -6  -8  144.49   12.70
   2  -6  -8  156.68   13.60
   2  -6  -8  147.69   12.60
   1  -6  -8   69.99    7.50
   1  -6  -8   52.29    5.80
   1  -6  -8   56.89    4.40
   1  -6  -8   55.49    5.40
   1  -6  -8   54.69    5.10
   1  -6  -8   56.19    5.50
  -1   6   8   60.89    8.60
  -1   6   8   69.39    8.30
   0  -6  -8  301.57   23.40
   0  -6  -8  311.37   23.40
   0  -6  -8  298.67   22.80
   0  -6  -8  292.17   27.80
   0  -6  -8  305.37   22.80
   0  -6  -8  287.37   23.80
   0   6   8  312.57   26.00
   0   6   8  358.26   24.70
  -1  -6  -8   15.60    2.70
   1   6   8   28.80    5.90
   1   6   8   22.90    3.30
  -2  -6  -8  290.67   21.60
  -2  -6  -8  286.57   21.20
   2   6   8  300.27   26.30
   2   6   8  249.97   24.60
   2   6   8  290.87   21.70
  -3  -6  -8   35.30    4.10
   3   6   8   40.70    5.20
   3   6   8   25.20    7.80
   3   6   8   44.30    5.80
  -4  -6  -8   33.90    3.80
   4   6   8   39.60    3.90
   4   6   8   39.90    4.30
   4   6   8   35.30    3.70
   3  -7  -8   21.50    2.10
   3  -7  -8   18.00    4.20
   3  -7  -8   16.50    3.60
   3  -7  -8   12.40    2.90
   2  -7  -8  105.29   10.00
   2  -7  -8  121.79    8.80
   2  -7  -8  129.69   11.40
   2  -7  -8  105.39   11.20
   2  -7  -8   98.49   10.00
   2  -7  -8  137.99   12.30
  -2   7   8  117.49   13.20
   1  -7  -8   20.50    3.20
   1  -7  -8   31.30    5.30
   1  -7  -8   22.00    3.00
   1  -7  -8   28.10    4.60
   1  -7  -8   21.40    2.20
   1  -7  -8   24.20    3.40
   1  -7  -8   21.40    3.70
  -1   7   8   24.10    5.30
  -1   7   8   18.90    5.80
   0  -7  -8  331.87   24.50
   0  -7  -8  345.17   25.50
   0  -7  -8  348.97   25.50
   0  -7  -8  309.17   23.70
   0  -7  -8  317.17   25.10
   0  -7  -8  304.47   25.00
   0  -7  -8  322.27   24.00
   0   7   8  353.46   25.70
   0   7   8  344.87   24.00
   0   7   8  313.67   28.20
  -1  -7  -8  165.08   13.50
  -1  -7  -8  181.98   15.30
  -1  -7  -8  163.18   14.40
   1   7   8  192.58   16.00
   1   7   8  192.88   16.30
   1   7   8  192.78   13.90
  -2  -7  -8   24.80    3.80
   2   7   8   30.00    4.40
   2   7   8   26.60    3.60
   2   7   8   28.00    6.50
  -3  -7  -8  136.39   10.60
   3   7   8  125.49   10.10
   3   7   8  119.39   11.10
   3   7   8  125.89   10.40
  -4  -7  -8   -0.40    0.90
   4   7   8    1.00    1.20
   3  -8  -8   18.20    1.80
   3  -8  -8   15.60    3.00
   3  -8  -8   19.50    4.30
   3  -8  -8   12.20    2.40
   2  -8  -8  243.18   19.20
   2  -8  -8  239.08   19.90
   2  -8  -8  258.07   20.70
   2  -8  -8  243.48   19.50
   2  -8  -8  295.17   21.30
   2  -8  -8  295.37   21.40
   2  -8  -8  254.57   18.30
   2  -8  -8  240.48   19.80
  -2   8   8  221.08   21.20
   1  -8  -8  425.86   31.60
   1  -8  -8  425.96   30.30
   1  -8  -8  412.56   31.70
   1  -8  -8  374.16   32.10
   1  -8  -8  430.96   32.20
   1  -8  -8  479.75   31.60
   1  -8  -8  405.66   30.40
   1  -8  -8  498.05   32.80
   1  -8  -8  386.36   31.20
  -1   8   8  411.06   32.70
   0  -8  -8   19.70    5.60
   0  -8  -8   17.70    2.30
   0  -8  -8   16.20    2.60
   0  -8  -8   19.00    3.60
   0   8   8   19.70    2.50
   0   8   8   14.70    7.10
   0   8   8   18.10    4.10
  -1  -8  -8  341.77   27.40
  -1  -8  -8  400.46   28.90
   1   8   8  370.86   27.30
   1   8   8  380.56   29.40
   1   8   8  396.26   27.60
  -2  -8  -8    4.00    2.00
   2   8   8    5.80    1.60
   2   8   8    4.70    3.50
   2   8   8    4.90    2.00
  -3  -8  -8   81.19    6.60
   3   8   8   76.79    6.70
   3   8   8   73.29    6.20
   3   8   8   61.39    6.00
   3  -9  -8   49.70    4.50
   3  -9  -8   50.39    4.50
  -3   9   8   58.69    4.40
   2  -9  -8    3.80    2.40
   2  -9  -8    5.20    2.30
   2  -9  -8    3.70    1.80
   2  -9  -8    5.50    1.10
   2  -9  -8    4.90    1.80
   2  -9  -8    5.20    2.30
   2  -9  -8    6.60    2.40
  -2   9   8    4.30    1.90
   1  -9  -8   25.80    4.50
   1  -9  -8   27.60    3.40
   1  -9  -8   28.60    4.00
   1  -9  -8   25.30    4.40
   1  -9  -8   34.70    4.30
   1  -9  -8   29.90    3.60
   1  -9  -8   31.30    4.30
   1  -9  -8   25.00    2.40
   1  -9  -8   27.50    4.50
   1  -9  -8   26.90    2.80
  -1   9   8   26.30    3.10
  -1   9   8   25.80    5.10
   0  -9  -8  177.88   14.00
   0  -9  -8  165.58   13.40
   0  -9  -8  196.08   13.90
   0  -9  -8  195.88   13.70
   0   9   8  162.58   14.90
   0   9   8  169.98   13.50
  -1  -9  -8  238.38   18.60
  -1  -9  -8  283.67   20.40
   1   9   8  259.97   18.50
   1   9   8  228.28   20.00
   1   9   8  239.28   18.20
   2   9   8  130.39   10.10
   2   9   8  123.69    9.80
   3   9   8    7.30    1.50
   3   9   8    6.00    1.60
   3   9   8    5.80    1.80
   2 -10  -8   71.89    5.50
   2 -10  -8   68.29    6.10
   2 -10  -8   84.29    7.00
   2 -10  -8   78.79    7.10
   2 -10  -8   65.09    6.20
  -2  10   8   75.39    6.20
   1 -10  -8  182.08   13.00
   1 -10  -8  159.28   12.00
   1 -10  -8  158.48   12.70
   1 -10  -8  151.68   12.10
   1 -10  -8  159.58   12.40
   1 -10  -8  178.58   11.60
  -1  10   8  149.88   11.80
  -1  10   8  135.69   11.70
  -1  10   8  125.99   13.00
   0 -10  -8   67.09    5.80
   0 -10  -8   58.89    4.90
   0 -10  -8   57.09    5.00
   0 -10  -8   55.39    4.80
   0  10   8   42.00    5.80
   0  10   8   50.19    4.70
   0  10   8   55.49    4.80
   0  10   8   45.80    4.50
  -1 -10  -8   41.80    6.30
  -1 -10  -8   48.20    4.50
   1  10   8   29.40    5.10
   1  10   8   38.70    3.80
   1  10   8   42.90    4.00
   1  10   8   35.40    3.60
   2  10   8   81.09    6.80
   3  10   8   10.30    1.40
   2 -11  -8   76.39    6.40
   2 -11  -8   79.19    6.30
  -2  11   8   90.19    6.40
   1 -11  -8    0.20    0.90
   1 -11  -8    1.50    1.50
   1 -11  -8    1.60    1.00
   1 -11  -8    1.10    0.90
  -1  11   8    0.20    1.30
  -1  11   8    0.70    1.30
   0 -11  -8  288.17   19.60
   0 -11  -8  283.37   19.10
   0  11   8  230.88   18.70
   0  11   8  235.88   18.80
  -1 -11  -8   30.10    3.60
   1  11   8   24.20    3.00
   1  11   8   23.20    2.70
   2  11   8   30.40    3.10
  -1  12   8   64.39    5.20
   0 -12  -8    5.90    1.50
   0 -12  -8    6.20    1.50
   0  12   8    7.20    1.50
   0  12   8    7.30    1.70
  -1 -12  -8   70.69    5.60
  -1 -12  -8   67.39    5.50
   1  12   8   58.69    5.10
   1  12   8   65.09    5.50
   0  13   8    5.50    1.20
   1  10  -9    0.10    0.40
   1  10  -9   -0.20    0.40
   0  10  -9  104.79    7.60
   0  10  -9  104.49    7.50
  -1  10  -9   14.90    1.30
  -1  10  -9   14.10    1.30
   2   9  -9  104.49    7.30
   2   9  -9  111.09    7.20
   2   9  -9  104.79    7.30
   2   9  -9   85.89    8.00
   2   9  -9   83.09    7.90
   2   9  -9  108.09    7.20
   1   9  -9   33.10    2.60
   1   9  -9   27.50    3.70
   1   9  -9   30.00    2.40
   1   9  -9   30.00    2.40
   1   9  -9   29.40    2.60
  -1  -9   9   26.40    2.50
   0   9  -9   84.49    6.20
   0   9  -9   84.29    6.10
   0   9  -9   81.89    6.00
   0  -9   9   76.59    6.10
  -1   9  -9   98.49    7.20
  -1   9  -9   97.99    7.20
  -2   9  -9    5.80    0.80
  -2   9  -9    5.30    0.70
   2   8  -9    8.90    2.20
   2   8  -9   10.40    2.20
   2   8  -9    9.50    1.40
   2   8  -9   10.40    1.20
   2   8  -9   10.20    1.10
   2   8  -9   10.60    1.20
   2   8  -9    8.80    1.30
  -2  -8   9    8.90    1.10
   1   8  -9  140.69    9.90
   1   8  -9  143.69   10.20
   1   8  -9  136.39   10.10
   1   8  -9  129.69   11.50
   1   8  -9  127.69   10.30
   1   8  -9  144.79    9.90
   1   8  -9  118.49   11.40
   1   8  -9  142.69   10.00
   0   8  -9   -0.10    0.60
   0   8  -9   -0.20    1.60
   0   8  -9    0.10    0.80
   0   8  -9    0.00    0.70
   0   8  -9    1.30    0.80
   0   8  -9   -0.30    1.40
  -1   8  -9  254.17   18.00
  -1   8  -9  252.87   17.80
  -1   8  -9  254.07   17.70
   1  -8   9  231.08   18.00
  -2   8  -9   42.00    3.40
  -2   8  -9   43.00    3.30
   3   7  -9   64.89    4.80
   3   7  -9   63.89    4.70
   3   7  -9   62.79    4.90
   3   7  -9   60.79    5.50
   3   7  -9   69.19    4.80
   2   7  -9   10.10    1.60
   2   7  -9    8.40    2.40
   2   7  -9   12.10    1.40
   2   7  -9   10.60    1.70
   2   7  -9   12.40    1.40
   2   7  -9    9.60    1.20
   2   7  -9    8.80    1.30
   1   7  -9  111.09    8.30
   1   7  -9  126.49   12.70
   1   7  -9  109.69    8.30
   1   7  -9  112.09   10.10
   1   7  -9  112.49    8.30
   1   7  -9  113.29    8.70
   1   7  -9  109.49    8.80
   1   7  -9  106.79    8.60
   1   7  -9  111.99   10.10
   0   7  -9  349.07   24.00
   0   7  -9  334.47   23.60
   0   7  -9  332.97   23.90
   0   7  -9  338.87   23.70
   0   7  -9  297.97   25.20
  -1   7  -9   22.00    2.20
  -1   7  -9   20.20    2.40
  -1   7  -9   22.20    2.10
   1  -7   9   20.00    2.40
  -2   7  -9  128.19    9.10
  -2   7  -9  130.59    9.40
  -2   7  -9  128.89    9.20
   2  -7   9  118.59    9.40
   2  -7   9  112.09    9.40
  -3   7  -9    3.40    0.80
  -3   7  -9    3.70    0.70
   3   6  -9   61.79    4.60
   3   6  -9   59.69    4.60
   3   6  -9   61.99    4.80
   3   6  -9   54.29    4.80
   3   6  -9   60.69    4.40
   2   6  -9   36.60    3.20
   2   6  -9   34.50    3.30
   2   6  -9   38.80    3.70
   2   6  -9   39.50    3.50
   2   6  -9   36.40    3.30
   2   6  -9   37.00    3.00
   1   6  -9    5.50    1.50
   1   6  -9    5.20    1.40
   1   6  -9    3.70    2.00
   1   6  -9    7.00    1.10
   1   6  -9    9.90    4.60
   1   6  -9    4.50    1.40
   1   6  -9    6.40    2.10
   1   6  -9    6.00    1.20
   1   6  -9    6.70    1.10
  -1  -6   9    4.50    1.30
   0   6  -9  203.48   14.50
   0   6  -9  190.38   16.20
   0   6  -9  200.08   16.30
   0   6  -9  193.68   14.80
   0   6  -9  206.88   15.20
   0   6  -9  198.08   14.60
   0   6  -9  208.68   15.00
   0   6  -9  204.98   18.90
  -1   6  -9   17.00    2.20
  -1   6  -9   18.80    2.00
  -1   6  -9   19.70    1.90
   1  -6   9   16.70    2.40
  -2   6  -9  156.88   11.20
  -2   6  -9  155.78   11.20
  -2   6  -9  149.09   11.50
   2  -6   9  145.49   11.50
  -3   6  -9   54.99    4.40
  -3   6  -9   57.09    4.40
  -3   6  -9   54.69    4.60
   3   5  -9    4.20    1.30
   3   5  -9    2.40    0.50
   3   5  -9    3.60    1.00
   3   5  -9    3.00    1.00
   3   5  -9    3.90    1.10
   2   5  -9  172.98   14.50
   2   5  -9  178.68   14.40
   2   5  -9  218.18   15.20
   2   5  -9  215.98   15.80
   2   5  -9  204.28   14.20
   2   5  -9  219.98   20.70
   2   5  -9  201.88   14.60
   2   5  -9  199.18   14.90
   2   5  -9  181.98   14.90
  -2  -5   9  196.68   14.90
   1   5  -9   10.70    1.90
   1   5  -9   12.70    5.30
   1   5  -9   10.70    1.40
   1   5  -9    9.30    1.40
   1   5  -9    8.00    1.20
   1   5  -9    9.80    1.80
   1   5  -9    8.90    1.80
   0   5  -9  107.89    8.80
   0   5  -9  101.69    8.70
   0   5  -9  118.49    9.80
   0   5  -9  102.39   12.40
   0   5  -9  116.89    8.70
   0   5  -9  110.19    9.50
   0  -5   9  110.39    8.80
  -1   5  -9  101.39    7.20
  -1   5  -9   95.79    7.10
  -1   5  -9   91.09    7.50
  -1   5  -9   86.49    8.50
   1  -5   9   95.59    7.80
  -2   5  -9   34.30    3.10
  -2   5  -9   37.70    3.30
  -2   5  -9   29.20    3.50
   2  -5   9   31.70    3.50
  -3   5  -9   96.29    7.20
  -3   5  -9   96.99    7.10
  -3   5  -9   89.79    7.40
   3  -5   9   84.29    7.20
   3   4  -9   19.20    2.70
   3   4  -9   21.00    1.80
   3   4  -9   16.50    2.30
   3   4  -9   18.70    2.30
   3   4  -9   23.50    2.70
   2   4  -9   60.19    5.80
   2   4  -9   79.09   11.90
   2   4  -9   60.09    5.60
   2   4  -9   67.59    5.50
   2   4  -9   51.89    5.30
   2   4  -9   68.59    6.60
   2   4  -9   65.59    4.90
   2   4  -9   77.29    6.10
  -2  -4   9   65.89    5.80
   1   4  -9  306.27   28.60
   1   4  -9  296.87   27.70
   1   4  -9  295.97   22.80
   1   4  -9  305.17   23.50
   1   4  -9  336.17   22.80
   0   4  -9   31.90    3.20
   0   4  -9   23.00    6.40
   0   4  -9   24.60    6.20
   0   4  -9   31.80    4.10
   0   4  -9   26.50    3.00
   0  -4   9   27.30    3.30
  -1   4  -9  491.15   35.20
  -1   4  -9  446.36   35.70
   1  -4   9  511.05   35.20
  -2   4  -9   38.50    3.60
  -2   4  -9   40.90    3.90
  -2   4  -9   35.90    4.20
   2  -4   9   35.80    3.90
  -3   4  -9   58.59    5.10
  -3   4  -9   59.99    5.20
  -3   4  -9   50.79    5.50
   3  -4   9   53.59    5.10
  -4   4  -9   23.80    2.20
  -4   4  -9   25.00    2.20
   3   3  -9   27.10    3.70
   3   3  -9   35.30    3.90
   2   3  -9    0.60    0.90
   2   3  -9    1.00    1.40
   2   3  -9    1.90    1.30
   2   3  -9    0.50    1.00
   2   3  -9    2.00    4.30
   2   3  -9   -1.60    1.40
   1   3  -9  401.16   35.80
   1   3  -9  374.06   34.60
   1   3  -9  402.06   30.20
   1   3  -9  418.16   31.00
   1   3  -9  461.95   30.10
   0   3  -9  188.98   14.40
   0   3  -9  151.18   17.40
   0   3  -9  154.58   17.10
   0   3  -9  183.28   13.50
   0   3  -9  206.78   14.00
   0  -3   9  168.18   13.70
  -1   3  -9  137.49   11.40
  -2   3  -9  120.89    9.20
  -2   3  -9   93.59    9.30
  -2   3  -9  124.09    9.50
   2  -3   9  111.49    9.20
  -3   3  -9   10.60    3.00
  -3   3  -9   13.80    3.30
  -3   3  -9   11.10    2.60
  -4   3  -9   91.89    6.90
  -4   3  -9   93.09    6.80
  -4   3  -9   81.29    7.00
   2   2  -9  155.28   13.00
   2   2  -9  155.68   12.90
   2   2  -9  154.08   17.50
   1   2  -9   11.30    4.80
   1   2  -9   10.80    1.80
   1   2  -9   12.00    2.60
   1   2  -9   12.50    4.30
   0   2  -9  464.85   41.10
   0   2  -9  568.34   38.90
   0   2  -9  442.46   41.60
   0   2  -9  606.34   38.20
   0  -2   9  547.65   38.30
   1  -2   9    0.40    1.00
  -2   2  -9  369.96   28.30
   2  -2   9  400.86   28.60
  -3   2  -9    5.40    2.50
  -3   2  -9    8.30    2.50
  -3   2  -9    7.40    3.00
   3  -2   9    4.40    1.70
   3  -2   9    4.90    2.60
  -4   2  -9   43.60    4.10
  -4   2  -9   37.10    4.40
  -4   2  -9   40.70    4.10
   4  -2   9   34.80    4.30
   4  -2   9   35.10    3.10
   2   1  -9  145.09   16.20
   2   1  -9  153.98   12.70
   1   1  -9    6.80    3.10
   1   1  -9    4.20    1.10
   1   1  -9    6.60    1.40
   1   1  -9    2.70    3.00
   1   1  -9    4.40    1.80
   0   1  -9  409.66   31.00
   0   1  -9  375.16   32.90
   0   1  -9  447.16   30.40
   0   1  -9  433.96   31.10
   0  -1   9  423.06   30.50
  -1   1  -9  503.45   35.10
  -1   1  -9  477.65   34.60
   1  -1   9  451.75   35.00
  -2   1  -9   91.39    7.80
   2  -1   9   91.89    9.20
   2  -1   9   96.99    8.30
  -3   1  -9  297.37   22.40
  -3   1  -9  299.17   22.10
  -3   1  -9  323.07   22.60
  -3   1  -9  276.57   22.00
   3  -1   9  277.97   24.00
  -4   1  -9    2.50    2.10
  -4   1  -9    1.50    2.40
  -4   1  -9    2.10    2.00
   4  -1   9    2.10    1.90
   4  -1   9    1.50    1.00
   1   0  -9  170.68   11.80
   1   0  -9  139.59   15.20
   1   0  -9  143.49   12.70
   1   0  -9  167.28   11.90
   1   0  -9  155.78   14.60
   0   0  -9   57.19    4.50
   0   0  -9   48.20    6.50
   0   0  -9   44.80    7.10
   0   0  -9   48.50    4.90
  -1   0  -9  316.97   22.40
  -1   0  -9  282.67   22.10
  -3   0  -9  126.29   10.50
  -3   0  -9  127.99   10.70
   3   0   9  139.19   10.50
   3   0   9  122.89   13.10
  -4   0  -9   96.39    7.90
  -4   0  -9   88.39    8.00
  -4   0  -9  102.69    8.20
   4   0   9   85.39    7.00
   4   0   9   80.29    9.00
   1  -1  -9  694.73   46.80
   1  -1  -9  642.94   49.40
   1  -1  -9  565.64   47.40
   1  -1  -9  710.33   46.80
   0  -1  -9   63.99    5.90
   0  -1  -9   66.09    7.50
   0  -1  -9   68.49    5.50
  -1  -1  -9  331.77   23.50
  -1  -1  -9  301.17   23.30
   1   1   9  320.67   23.70
  -2  -1  -9  218.08   16.10
   2   1   9  185.08   17.30
  -3  -1  -9    2.40    1.40
  -3  -1  -9    3.80    2.10
   3   1   9    2.30    2.10
   3   1   9    4.50    1.00
   3   1   9    6.00    1.80
   3   1   9    3.10    3.50
  -4  -1  -9   30.40    3.40
  -4  -1  -9   46.60    4.90
   4   1   9   38.30    3.20
   4   1   9   37.20    6.40
   4   1   9   31.70    3.50
   2  -2  -9    8.90    1.70
   1  -2  -9  244.08   16.60
   1  -2  -9  218.88   16.60
   1  -2  -9  210.18   18.80
   1  -2  -9  183.78   17.00
   1  -2  -9  249.78   16.50
  -1   2   9  217.28   18.80
   0  -2  -9  420.36   32.00
   0  -2  -9  449.26   31.70
   0  -2  -9  455.35   33.90
   0  -2  -9  431.86   32.30
   0   2   9  438.16   33.70
  -1  -2  -9    7.90    1.60
  -1  -2  -9   11.40    1.90
   1   2   9    8.80    2.40
   1   2   9    9.50    2.00
   2   2   9  185.78   16.70
   2   2   9  176.08   15.10
  -3  -2  -9    4.90    1.60
  -3  -2  -9    5.90    2.20
   3   2   9    7.50    1.80
   3   2   9    4.20    1.20
   3   2   9    2.40    2.50
   3   2   9    5.50    4.30
  -4  -2  -9   27.70    3.20
  -4  -2  -9   33.80    4.30
   4   2   9   26.30    2.90
   4   2   9   26.10    3.00
   4   2   9   27.60    6.20
   2  -3  -9  145.79   11.00
   2  -3  -9  161.28   18.80
   2  -3  -9  141.39   11.10
   2  -3  -9  124.19   12.70
   1  -3  -9    2.40    1.10
   1  -3  -9    2.20    0.90
   1  -3  -9    4.60    2.60
   1  -3  -9    0.90    2.00
   1  -3  -9    4.00    1.20
   1  -3  -9    1.80    1.40
  -1   3   9    6.00    2.70
  -1   3   9    3.30    2.70
   0  -3  -9  592.34   43.70
   0  -3  -9  627.74   43.40
   0  -3  -9  621.54   44.10
   0  -3  -9  619.54   45.70
   0   3   9  526.55   44.10
   0   3   9  643.24   45.80
  -1  -3  -9   21.80    2.80
  -1  -3  -9   30.90    3.20
  -1  -3  -9   47.70   13.20
   1   3   9   24.60    4.00
  -2  -3  -9  241.68   16.70
   2   3   9  218.08   16.40
   2   3   9  214.38   19.90
   2   3   9  203.28   18.20
  -3  -3  -9    6.70    1.80
  -3  -3  -9   13.80    2.70
   3   3   9    6.90    5.10
   3   3   9    5.70    3.20
   3   3   9    8.60    1.90
   3   3   9    9.80    2.00
  -4  -3  -9   10.80    2.20
  -4  -3  -9   15.00    3.10
   4   3   9    8.80    1.80
   4   3   9   10.00    1.90
   3  -4  -9    2.00    3.00
   3  -4  -9    4.60    5.70
   3  -4  -9    0.30    1.70
   2  -4  -9  319.87   25.70
   2  -4  -9  268.47   23.40
   2  -4  -9  330.07   23.30
   2  -4  -9  326.27   23.10
   1  -4  -9  367.26   29.60
   1  -4  -9  395.56   29.50
   1  -4  -9  413.66   31.80
   1  -4  -9  393.86   29.30
  -1   4   9  384.46   32.20
  -1   4   9  473.25   32.70
   0  -4  -9   74.59    6.80
   0  -4  -9   80.19    6.60
   0  -4  -9   78.89    6.50
   0  -4  -9   76.79    7.10
   0  -4  -9   68.99    8.40
   0   4   9   75.49    7.80
   0   4   9   82.89    8.70
  -1  -4  -9  172.28   23.50
  -1  -4  -9  178.58   13.50
   1   4   9  168.68   14.90
  -2  -4  -9    1.10    1.00
  -2  -4  -9    1.30    1.20
   2   4   9   -1.60    2.90
   2   4   9    0.50    2.50
   2   4   9   -0.30    1.20
  -3  -4  -9  401.76   27.80
   3   4   9  366.46   27.50
   3   4   9  335.87   30.10
   3   4   9  390.06   27.60
   3   4   9  375.46   33.90
  -4  -4  -9    1.10    2.00
  -4  -4  -9    2.20    1.40
   4   4   9    2.00    3.80
   4   4   9    1.50    1.30
   4   4   9    1.60    1.30
   4   4   9    1.80    1.20
   3  -5  -9  169.48   13.70
   3  -5  -9  215.58   18.30
   2  -5  -9   42.50    4.80
   2  -5  -9   42.20    3.90
   2  -5  -9   41.70    4.60
   2  -5  -9   55.19    7.80
   2  -5  -9   44.60    5.60
   1  -5  -9  321.87   23.70
   1  -5  -9  314.67   23.40
   1  -5  -9  308.67   24.20
   1  -5  -9  332.07   23.90
  -1   5   9  326.17   27.20
   0  -5  -9   88.39    8.40
   0  -5  -9   98.19    8.00
   0  -5  -9   93.19    8.40
   0  -5  -9   87.19   13.00
   0  -5  -9   97.79    8.00
   0   5   9   96.79   10.50
   0   5   9  107.69    9.90
  -1  -5  -9  478.45   35.70
   1   5   9  499.15   37.60
  -2  -5  -9   66.79    6.10
  -2  -5  -9   65.19    5.80
   2   5   9   57.69    5.80
   2   5   9   58.29    8.20
   2   5   9   63.09   10.80
  -3  -5  -9   14.40    2.60
   3   5   9    9.60    2.50
   3   5   9    9.60    5.70
   3   5   9   11.70    4.80
   3   5   9   13.70    2.90
  -4  -5  -9  115.79    9.90
   4   5   9  119.89    9.70
   4   5   9  132.09    9.50
   4   5   9  135.29    9.90
   3  -6  -9   50.09    4.20
   2  -6  -9   82.49    8.50
   2  -6  -9   86.79    8.50
   2  -6  -9  123.89   12.00
   2  -6  -9   97.79    9.70
   2  -6  -9  101.39    7.60
  -2   6   9  109.09   13.00
   1  -6  -9  211.68   16.40
   1  -6  -9  222.78   16.20
   1  -6  -9  210.88   16.50
   1  -6  -9  205.28   17.00
  -1   6   9  223.48   20.60
   0  -6  -9  279.97   22.00
   0  -6  -9  277.67   22.30
   0  -6  -9  308.97   22.90
   0  -6  -9  306.07   23.50
   0  -6  -9  305.57   24.70
   0  -6  -9  308.97   22.80
   0  -6  -9  298.37   23.50
   0   6   9  359.16   22.80
   0   6   9  322.07   26.50
  -1  -6  -9  116.99   10.10
  -1  -6  -9   97.89   11.70
  -1  -6  -9  120.99    9.20
   1   6   9  136.79   12.50
   1   6   9  123.99    9.80
  -2  -6  -9  157.68   12.30
  -2  -6  -9  158.08   12.60
   2   6   9  153.08   12.30
   2   6   9  143.19   15.20
   2   6   9  151.08   16.60
   2   6   9  150.48   12.30
  -3  -6  -9    2.70    1.40
   3   6   9   -0.10    1.80
   3   6   9    5.20    4.80
   3   6   9    6.00    4.00
   3   6   9    0.70    2.00
  -4  -6  -9   18.00    2.50
   4   6   9   19.60    2.40
   4   6   9   21.90    2.80
   3  -7  -9   77.39   10.20
   3  -7  -9  108.19   10.50
   3  -7  -9   93.29    7.10
   2  -7  -9  124.19    8.60
   2  -7  -9   97.89    9.70
   2  -7  -9  125.09   11.30
   2  -7  -9   97.19    9.80
   2  -7  -9  125.59   11.70
  -2   7   9  111.09   12.50
   1  -7  -9    3.00    1.80
   1  -7  -9    2.80    0.80
   1  -7  -9    2.10    1.30
   1  -7  -9    1.40    1.30
   1  -7  -9    2.90    2.80
   1  -7  -9    1.90    1.30
   1  -7  -9    3.30    2.60
  -1   7   9    2.10    3.00
   0  -7  -9  413.26   30.70
   0  -7  -9  410.76   30.30
   0  -7  -9  432.86   32.50
   0  -7  -9  422.86   32.10
   0  -7  -9  406.26   31.20
   0  -7  -9  423.56   31.10
   0  -7  -9  382.56   31.80
   0   7   9  485.65   32.90
   0   7   9  450.05   30.70
   0   7   9  401.76   35.40
  -1  -7  -9   51.19    6.10
  -1  -7  -9   56.19    7.10
  -1  -7  -9   53.59    5.20
  -1  -7  -9   66.59    5.90
   1   7   9   67.19    8.10
   1   7   9   63.09    8.20
   1   7   9   68.79    5.90
  -2  -7  -9  107.09    9.60
   2   7   9  121.09    9.60
   2   7   9  109.59    9.00
   2   7   9  103.49   12.00
   2   7   9   98.49   12.00
  -3  -7  -9   54.09    5.10
   3   7   9   46.20    5.10
   3   7   9   48.10    5.50
   4   7   9    2.80    1.10
   3  -8  -9    1.40    0.70
   3  -8  -9    0.20    1.10
   3  -8  -9    6.00    2.20
   2  -8  -9  108.19    9.50
   2  -8  -9  119.09    8.50
   2  -8  -9  107.69   10.10
   2  -8  -9  135.99   11.60
   2  -8  -9  112.59   10.00
   2  -8  -9  108.89   10.70
  -2   8   9   98.89   11.20
   1  -8  -9   24.60    3.70
   1  -8  -9   26.90    2.40
   1  -8  -9   20.50    3.30
   1  -8  -9   24.00    3.70
   1  -8  -9   22.30    4.00
   1  -8  -9   21.50    4.20
   1  -8  -9   23.40    2.30
   1  -8  -9   23.40    4.40
   1  -8  -9   24.30    3.30
   1  -8  -9   25.30    4.90
  -1   8   9   19.60    4.70
   0  -8  -9  248.78   16.90
   0  -8  -9  219.38   17.90
   0  -8  -9  199.18   16.20
   0  -8  -9  191.58   20.00
   0  -8  -9  238.88   17.00
   0  -8  -9  207.58   16.70
   0   8   9  221.58   16.50
   0   8   9  222.68   18.20
  -1  -8  -9   95.99    8.70
  -1  -8  -9  104.49   10.10
  -1  -8  -9  127.19    9.10
  -1  -8  -9  117.29   10.50
   1   8   9  115.39   12.10
   1   8   9  107.99    8.70
   1   8   9  108.99    8.90
   1   8   9  100.79   10.70
  -2  -8  -9    3.70    1.90
   2   8   9    5.30    2.00
   2   8   9    4.10    3.30
   2   8   9    5.70    1.70
  -3  -8  -9   52.39    5.30
   3   8   9   47.80    5.00
   3   8   9   51.89    4.80
   3  -9  -9   17.40    2.00
   2  -9  -9   25.70    2.40
   2  -9  -9   24.50    3.20
   2  -9  -9   23.60    3.20
   2  -9  -9   26.60    4.60
   2  -9  -9   27.90    4.20
   2  -9  -9   26.80    4.10
  -2   9   9   17.20    3.50
   1  -9  -9  165.28   12.70
   1  -9  -9  172.58   12.70
   1  -9  -9  187.58   13.80
   1  -9  -9  190.88   14.50
   1  -9  -9  160.38   14.30
   1  -9  -9  187.98   13.70
   1  -9  -9  158.78   14.80
   1  -9  -9  190.98   14.40
   1  -9  -9  183.28   14.80
   1  -9  -9  165.38   14.00
  -1   9   9  171.68   13.30
  -1   9   9  163.68   15.00
   0  -9  -9    5.50    1.60
   0  -9  -9    3.70    2.20
   0  -9  -9    4.80    1.40
   0  -9  -9    3.70    1.60
   0  -9  -9    3.00    1.40
   0   9   9    5.60    2.80
   0   9   9    6.40    1.70
  -1  -9  -9   54.59    6.30
  -1  -9  -9   44.10    4.70
   1   9   9   47.30    4.40
   1   9   9   46.40    6.20
   1   9   9   49.99    4.70
   2   9   9   10.00    2.20
   2   9   9   13.40    2.10
   2   9   9   10.00    3.50
   3   9   9   56.89    5.10
   3   9   9   56.39    4.80
   3   9   9   59.99    4.90
   2 -10  -9    0.90    1.10
   2 -10  -9    0.20    1.60
   2 -10  -9    0.20    1.10
   2 -10  -9    0.30    1.70
   2 -10  -9    1.30    0.70
  -2  10   9   -0.40    1.30
  -2  10   9   -0.10    1.00
   1 -10  -9  196.58   13.90
   1 -10  -9  159.08   12.90
   1 -10  -9  169.88   12.80
   1 -10  -9  176.28   13.60
   1 -10  -9  164.68   13.20
   1 -10  -9  159.58   13.60
  -1  10   9  151.98   12.60
   0 -10  -9   25.20    2.90
   0 -10  -9   27.10    3.70
   0 -10  -9   24.20    3.00
   0 -10  -9   28.00    2.70
   0  10   9   20.30    4.00
   0  10   9   23.00    3.00
   0  10   9   23.40    2.80
  -1 -10  -9  102.59    7.90
  -1 -10  -9   97.99    7.70
   1  10   9   72.19    8.50
   1  10   9   91.59    7.30
   1  10   9   91.49    7.10
   2  10   9   19.20    2.90
   2  10   9   23.70    2.70
   2 -11  -9   21.20    2.20
   2 -11  -9   23.30    2.20
   1 -11  -9   10.70    1.90
   1 -11  -9   12.30    1.70
   1 -11  -9   14.20    2.60
  -1  11   9   10.50    1.90
  -1  11   9   12.00    1.90
   0 -11  -9  121.59    8.50
   0 -11  -9  125.89    9.20
   0  11   9   97.69    8.20
   0  11   9   88.19    8.00
  -1 -11  -9   56.89    5.10
  -1 -11  -9   57.39    5.00
   1  11   9   44.50    4.30
   1  11   9   48.40    4.50
   2  11   9   99.99    7.70
  -1  12   9    0.30    0.70
   0 -12  -9  120.59    9.30
   0 -12  -9  124.19    8.90
   0  12   9  104.69    8.90
   0  12   9  124.19    9.30
  -1 -12  -9  109.59    8.20
  -1 -12  -9  112.79    8.40
   1  12   9   98.29    8.10
   0  10 -10   94.49    6.90
   0  10 -10   96.19    6.80
   1   9 -10   -0.30    1.00
   1   9 -10    0.40    0.50
   1   9 -10    0.10    0.40
   1   9 -10   -0.20    1.10
   1   9 -10   -0.20    0.50
   0   9 -10  118.99    8.30
   0   9 -10  121.19    8.30
   0   9 -10  120.19    8.50
   0  -9  10   99.09    8.30
  -1   9 -10   21.90    1.90
  -1   9 -10   21.90    1.80
   2   8 -10   57.69    4.30
   2   8 -10   58.59    4.10
   2   8 -10   58.19    4.00
   2   8 -10   48.40    4.30
   2   8 -10   46.40    4.90
   2   8 -10   60.59    4.10
   2   8 -10   51.49    5.00
   1   8 -10   72.39    5.60
   1   8 -10   68.89    6.80
   1   8 -10   60.89    6.60
   1   8 -10   76.89    5.40
   1   8 -10   76.69    5.50
   1   8 -10   69.39    5.70
   1   8 -10   75.39    5.60
   1   8 -10   77.99    5.40
   0   8 -10   27.00    2.60
   0   8 -10   29.10    2.60
   0   8 -10   30.00    2.40
   0   8 -10   28.10    2.40
  -1   8 -10   53.29    4.10
  -1   8 -10   53.99    4.20
  -1   8 -10   54.59    4.00
   1  -8  10   47.90    4.20
  -2   8 -10    3.70    0.70
  -2   8 -10    3.40    0.80
   2   7 -10    9.50    1.20
   2   7 -10    7.10    2.00
   2   7 -10    7.70    1.30
   2   7 -10    7.10    1.10
   2   7 -10    9.60    1.20
   2   7 -10    8.90    1.40
   2   7 -10    6.60    1.90
   2   7 -10    7.70    0.90
   1   7 -10  155.08   12.60
   1   7 -10  154.28   11.20
   1   7 -10  148.99   11.20
   1   7 -10  156.38   10.90
   1   7 -10  131.79   12.30
   1   7 -10  144.29   11.40
   1   7 -10  152.68   10.90
   1   7 -10  155.28   11.00
   0   7 -10    1.00    0.70
   0   7 -10    0.70    1.00
   0   7 -10    0.20    0.80
   0   7 -10    0.90    1.80
   0   7 -10    0.30    1.70
   0   7 -10    0.00    0.70
  -1   7 -10  200.98   14.20
  -1   7 -10  203.28   14.30
  -1   7 -10  204.88   14.60
   1  -7  10  181.28   14.50
  -2   7 -10   44.90    3.50
  -2   7 -10   46.90    3.50
  -2   7 -10   45.40    3.70
   2  -7  10   39.80    3.70
   3   6 -10   68.49    5.10
   3   6 -10   64.79    4.90
   3   6 -10   67.89    5.20
   3   6 -10   71.79    5.00
   2   6 -10    5.80    0.80
   2   6 -10    5.50    2.50
   2   6 -10    6.50    1.10
   2   6 -10    8.00    1.50
   2   6 -10    7.20    1.50
   2   6 -10    6.10    1.20
   2   6 -10    6.90    1.20
   1   6 -10  110.59    9.10
   1   6 -10  114.69   10.10
   1   6 -10  115.89    8.90
   1   6 -10  112.29    8.80
   1   6 -10  118.29   13.10
   1   6 -10  118.59    8.50
   1   6 -10  117.59    8.50
   1   6 -10  112.19    8.60
   0   6 -10   29.00    3.10
   0   6 -10   29.60    2.60
   0   6 -10   27.50    3.10
   0   6 -10   27.00    4.10
   0   6 -10   27.70    2.90
   0   6 -10   30.60    2.50
   0   6 -10   26.30    4.10
  -1   6 -10   32.40    3.30
  -1   6 -10   24.90    3.80
  -1   6 -10   38.50    2.90
  -1   6 -10   36.70    3.00
   1  -6  10   32.60    3.30
  -2   6 -10  172.58   12.20
  -2   6 -10  166.78   12.40
  -2   6 -10  177.88   12.10
   2  -6  10  148.99   12.40
  -3   6 -10    0.90    0.70
  -3   6 -10    0.10    0.50
  -3   6 -10    1.00    0.60
   3   5 -10   24.90    2.50
   3   5 -10   26.20    2.60
   3   5 -10   26.80    2.00
   3   5 -10   25.70    2.30
   3   5 -10   25.20    2.30
   2   5 -10  118.49    8.60
   2   5 -10  126.29    9.40
   2   5 -10  110.89    8.80
   2   5 -10  120.19    9.20
   2   5 -10  112.89    8.80
   2   5 -10  116.49    8.90
   1   5 -10   31.30    3.20
   1   5 -10   32.30    3.40
   1   5 -10   31.30    3.30
   1   5 -10   30.40    2.80
   1   5 -10   33.40    4.20
   1   5 -10   31.70    7.40
   1   5 -10   27.50    2.80
   1   5 -10   31.80    2.80
   0   5 -10  753.62   54.29
   0   5 -10  804.72   55.89
   0   5 -10  793.82   54.69
   0   5 -10  736.73   54.59
   0   5 -10  784.22   54.29
   0   5 -10  764.32   54.29
   0   5 -10  762.82   54.99
   0   5 -10  805.42   55.99
   0   5 -10  728.33   58.99
   0   5 -10  792.92   55.69
   0  -5  10  717.83   54.79
  -1   5 -10    1.50    0.70
  -1   5 -10    1.80    0.90
  -1   5 -10    2.30    1.30
  -1   5 -10    1.90    1.30
  -1   5 -10    4.40    2.00
  -1   5 -10    2.40    1.00
   1  -5  10    2.80    1.20
  -2   5 -10   31.20    3.00
  -2   5 -10   32.00    3.50
  -2   5 -10   33.80    2.90
   2  -5  10   28.30    3.20
  -3   5 -10   52.49    4.20
  -3   5 -10   49.10    4.40
  -3   5 -10   52.99    4.10
   3   4 -10    0.10    0.30
   3   4 -10    0.90    0.90
   3   4 -10    0.90    1.10
   3   4 -10    1.10    0.70
   3   4 -10    1.90    1.10
   2   4 -10  160.88   14.30
   2   4 -10  190.38   14.80
   2   4 -10  211.48   15.10
   2   4 -10  195.78   15.50
   2   4 -10  198.58   14.50
   2   4 -10  228.88   21.50
   2   4 -10  197.48   14.00
  -2  -4  10  195.28   14.80
   1   4 -10  158.88   10.90
   1   4 -10  145.49   10.90
   1   4 -10  144.79   16.10
   1   4 -10  118.09   10.20
   1   4 -10  133.39   10.50
   1   4 -10  117.69   10.10
   1   4 -10  153.18   10.20
   1   4 -10  138.39   11.60
   0   4 -10  219.78   15.40
   0   4 -10  185.18   19.60
   0   4 -10  209.18   16.30
   0   4 -10  201.38   15.60
   0   4 -10  207.38   15.30
   0  -4  10  203.38   15.70
  -1   4 -10  329.27   25.90
  -1   4 -10  341.37   25.00
  -1   4 -10  361.86   24.70
  -1   4 -10  370.76   24.60
  -1   4 -10  288.27   25.70
  -1   4 -10  348.17   25.40
   1  -4  10  363.76   25.40
  -2   4 -10   76.79    6.90
  -2   4 -10   83.59    6.30
  -2   4 -10   82.99    6.40
   2  -4  10   75.19    6.70
  -3   4 -10  157.48   11.50
  -3   4 -10  144.29   11.90
  -3   4 -10  160.88   11.40
   3   3 -10   56.09    5.40
   2   3 -10   33.10    3.30
   2   3 -10   31.60    2.70
   2   3 -10   31.90    4.10
   2   3 -10   33.60    3.70
   2   3 -10   40.20    9.60
   1   3 -10  251.37   28.30
   1   3 -10  244.98   19.00
   1   3 -10  242.78   19.70
   1   3 -10  278.57   19.00
   1   3 -10  250.27   24.90
   0   3 -10    3.30    1.20
   0   3 -10    6.20    4.80
   0   3 -10    4.70    2.00
   0   3 -10    5.20    1.50
   0   3 -10    4.90    1.40
   0   3 -10    4.60    3.70
   0  -3  10    4.00    1.50
  -1   3 -10  273.37   18.80
  -1   3 -10  249.18   19.60
  -1   3 -10  255.67   19.30
   1  -3  10  240.18   19.20
  -2   3 -10   42.50    3.80
  -2   3 -10   44.60    4.00
  -2   3 -10   37.50    4.10
  -2   3 -10   34.60    4.50
   2  -3  10   40.80    4.20
  -3   3 -10   61.69    5.40
  -3   3 -10   59.09    6.20
  -3   3 -10   64.69    5.60
  -4   3 -10   66.19    5.00
  -4   3 -10   64.99    5.00
   2   2 -10   32.90    4.30
   2   2 -10   40.20    8.70
   2   2 -10   36.70    3.90
   2   2 -10   34.90    4.10
   1   2 -10  322.87   23.20
   1   2 -10  341.67   23.00
   1   2 -10  258.17   26.70
   1   2 -10  329.77   24.00
   1   2 -10  294.37   28.20
   0   2 -10  234.38   16.10
   0   2 -10  226.18   15.90
   0   2 -10  226.88   16.90
   0   2 -10  192.78   20.30
   0   2 -10  173.28   19.10
   0  -2  10  211.78   16.30
  -1   2 -10   88.89    7.70
  -1   2 -10   93.09    8.20
   1  -2  10  114.89    8.70
  -2   2 -10  208.18   17.80
  -2   2 -10  214.88   17.60
  -2   2 -10  258.97   17.50
  -2   2 -10  251.27   17.20
   2  -2  10  225.48   17.60
  -3   2 -10    6.40    2.40
  -3   2 -10    5.00    2.00
  -3   2 -10    4.80    2.70
   3  -2  10    3.70    2.30
  -4   2 -10   34.90    3.60
  -4   2 -10   33.60    3.10
  -4   2 -10   34.20    3.00
   2   1 -10   61.89    6.10
   2   1 -10   51.49    9.40
   1   1 -10   34.10    3.20
   1   1 -10   25.50    7.10
   1   1 -10   32.20    3.30
   1   1 -10   28.00    3.30
   1   1 -10   22.20    5.70
   1   1 -10   30.70    4.20
  -1  -1  10   34.30    3.50
   0   1 -10  201.08   21.40
   0   1 -10  264.77   19.10
   0   1 -10  277.07   19.00
   0   1 -10  255.57   19.70
   0  -1  10  266.67   19.20
  -1   1 -10   15.30    2.30
  -1   1 -10   11.60    2.60
   1  -1  10   17.50    2.80
  -2   1 -10  223.98   18.50
  -2   1 -10  247.88   18.60
   2  -1  10  259.27   18.80
  -3   1 -10   97.19    8.50
  -3   1 -10   90.09    8.20
  -3   1 -10   78.19    7.40
  -3   1 -10   96.69    8.10
   3  -1  10   81.39    9.00
  -4   1 -10   50.79    4.40
  -4   1 -10   58.59    4.40
  -4   1 -10   50.69    5.20
   4  -1  10   46.50    5.80
   4  -1  10   43.70    3.90
   1   0 -10    3.10    2.50
   1   0 -10    3.80    1.10
   1   0 -10    2.60    1.60
   1   0 -10    4.40    3.40
   1   0 -10    3.00    1.10
   1   0 -10    3.20    1.10
   0   0 -10  669.63   46.80
   0   0 -10  652.13   47.40
   0   0 -10  679.73   46.90
   0   0 -10  605.54   49.50
  -1   0 -10  113.29    9.20
  -1   0 -10  103.29    8.70
   1   0  10  105.39    9.00
  -2   0 -10   13.40    2.30
   2   0  10   10.00    3.00
   2   0  10   10.50    2.40
  -3   0 -10  126.99   10.50
  -3   0 -10  141.89   11.10
   3   0  10  116.89   12.30
  -4   0 -10    2.40    2.10
   4   0  10    2.20    1.90
   4   0  10    2.10    1.00
   1  -1 -10  392.06   31.40
   1  -1 -10  422.06   30.30
   1  -1 -10  463.05   30.50
   1  -1 -10  408.86   33.50
   1  -1 -10  463.15   30.60
  -1   1  10  365.56   32.90
   0  -1 -10    7.50    2.90
   0  -1 -10   12.70    2.50
   0  -1 -10    7.60    2.20
   0  -1 -10    9.30    1.60
   0  -1 -10   12.60    1.80
  -1  -1 -10  916.11   67.79
  -1  -1 -10  909.61   67.89
  -1  -1 -10 1015.40   68.19
   1   1  10  963.10   68.19
  -2  -1 -10    4.80    1.50
   2   1  10    1.20    2.40
  -3  -1 -10  107.49    8.80
  -3  -1 -10  100.09    8.50
   3   1  10   83.89   10.40
  -4  -1 -10   55.29    5.20
  -4  -1 -10   69.59    6.20
   4   1  10   68.29    5.20
   4   1  10   56.09    6.80
   4   1  10   58.09    5.00
   2  -2 -10   19.40    3.00
   1  -2 -10  510.25   37.10
   1  -2 -10  504.55   40.30
   1  -2 -10  520.55   37.70
   1  -2 -10  571.24   37.40
   1  -2 -10  572.84   37.50
   1  -2 -10  458.85   38.20
  -1   2  10  483.35   40.00
   0  -2 -10  134.79   11.60
   0  -2 -10  139.69   13.30
   0  -2 -10  142.19   10.90
   0  -2 -10  140.69   10.80
   0  -2 -10  140.19   11.30
   0   2  10  138.29   13.00
  -1  -2 -10   88.69    7.50
  -1  -2 -10   83.19    7.60
  -1  -2 -10  103.69    7.90
   1   2  10   89.29    7.90
   2   2  10  124.69   11.00
   2   2  10  121.69   12.20
  -3  -2 -10   21.90    3.00
  -3  -2 -10   23.40    3.50
   3   2  10   14.60    4.60
   3   2  10   12.00    3.30
   3   2  10   17.00    2.00
  -4  -2 -10   91.39    8.20
  -4  -2 -10  119.09    8.90
   4   2  10  102.29    7.70
   4   2  10  103.69   10.20
   4   2  10   98.99    7.80
   2  -3 -10  596.24   42.60
   2  -3 -10  588.74   42.50
   2  -3 -10  583.34   43.00
   1  -3 -10   78.49    9.30
   1  -3 -10   63.69    7.20
   1  -3 -10   73.19    6.20
   1  -3 -10   76.29    6.80
   1  -3 -10   85.49    6.70
   1  -3 -10   83.99    6.60
  -1   3  10   71.99    9.00
   0  -3 -10  228.58   19.80
   0  -3 -10  230.68   17.70
   0  -3 -10  238.48   17.20
   0  -3 -10  235.08   18.10
   0  -3 -10  237.58   17.30
   0   3  10  206.08   18.00
   0   3  10  233.48   19.70
  -1  -3 -10    3.50    1.40
  -1  -3 -10    4.00    1.20
  -1  -3 -10    3.10    1.20
   1   3  10    4.70    2.20
  -2  -3 -10  495.45   31.60
   2   3  10  398.06   33.90
   2   3  10  387.56   32.50
  -3  -3 -10    8.90    2.60
  -3  -3 -10   10.30    2.40
   3   3  10    8.70    4.50
   3   3  10    8.70    1.90
   3   3  10    4.10    2.70
   3   3  10   15.90    2.30
  -4  -3 -10   11.90    2.10
  -4  -3 -10   17.50    3.10
   4   3  10   11.70    1.70
   4   3  10    9.70    1.70
   4   3  10    9.70    3.70
   2  -4 -10  198.98   15.10
   2  -4 -10  200.28   15.30
   2  -4 -10  173.88   15.70
   2  -4 -10  212.98   18.80
   2  -4 -10  179.38   17.40
  -2   4  10  216.88   19.30
   1  -4 -10   23.50    4.80
   1  -4 -10   32.00    3.60
   1  -4 -10   30.00    3.40
   1  -4 -10   26.00    3.00
   1  -4 -10   26.80    5.90
   1  -4 -10   27.70    3.70
   1  -4 -10   28.10    5.60
  -1   4  10   31.10    6.00
  -1   4  10   37.30    5.80
   0  -4 -10  638.54   45.60
   0  -4 -10  651.63   46.40
   0  -4 -10  637.44   46.00
   0  -4 -10  637.64   45.50
   0  -4 -10  585.24   48.10
   0   4  10  670.13   48.70
   0   4  10  602.74   46.70
  -1  -4 -10  230.98   24.10
  -1  -4 -10  303.17   21.30
   1   4  10  303.97   25.50
   1   4  10  279.17   22.40
  -2  -4 -10   64.39    5.80
  -2  -4 -10   60.79    5.50
   2   4  10   53.89    5.20
   2   4  10   49.50    5.00
   2   4  10   47.30    8.10
   2   4  10   55.69    7.10
  -3  -4 -10  271.77   18.50
   3   4  10  254.27   23.00
   3   4  10  238.98   17.90
   3   4  10  196.08   19.70
   3   4  10  235.78   17.80
  -4  -4 -10   15.30    2.40
  -4  -4 -10   20.10    3.20
   4   4  10   17.00    2.20
   4   4  10   15.60    2.10
   4   4  10   10.90    4.10
   3  -5 -10   29.20    3.00
   3  -5 -10   30.60    6.80
   2  -5 -10   37.60    8.00
   2  -5 -10   32.70    5.10
   2  -5 -10   30.40    3.90
   2  -5 -10   38.00    7.00
   2  -5 -10   29.90    4.10
   2  -5 -10   31.20    3.30
  -2   5  10   41.50    9.20
   1  -5 -10   93.39   10.00
   1  -5 -10   89.79    7.70
   1  -5 -10   83.89    8.20
   1  -5 -10   93.09    7.90
   1  -5 -10   92.19   10.10
   1  -5 -10   86.39    7.40
  -1   5  10  103.99   10.70
  -1   5  10   82.29   11.00
   0  -5 -10    2.70    1.60
   0  -5 -10    3.50    1.10
   0  -5 -10    1.80    2.20
   0  -5 -10    4.60    1.90
   0  -5 -10    2.90    0.90
   0  -5 -10    2.60    1.20
   0  -5 -10    3.40    1.40
   0   5  10    1.90    1.30
   0   5  10    1.70    2.40
   0   5  10    4.30    2.80
  -1  -5 -10  315.57   23.20
  -1  -5 -10  328.27   23.30
  -1  -5 -10  325.07   24.20
   1   5  10  338.97   26.80
   1   5  10  300.37   23.50
   1   5  10  315.97   25.70
  -2  -5 -10   18.60    3.10
  -2  -5 -10   17.90    2.70
   2   5  10   15.60    2.70
   2   5  10   16.40    2.60
   2   5  10   10.40    3.90
   2   5  10   15.40    5.40
  -3  -5 -10   76.29    6.70
   3   5  10   71.49    6.40
   3   5  10   72.39   12.50
   3   5  10   64.39    6.20
  -4  -5 -10   31.70    3.60
   4   5  10   37.10    3.40
   4   5  10   40.00    3.50
   3  -6 -10   75.49    6.10
   3  -6 -10   86.59   10.10
   2  -6 -10    8.10    2.30
   2  -6 -10    9.50    2.40
   2  -6 -10   10.80    4.80
   2  -6 -10   12.20    3.50
   2  -6 -10   13.40    5.00
   2  -6 -10   10.10    1.70
  -2   6  10    8.10    5.20
   1  -6 -10  288.27   23.40
   1  -6 -10  363.96   26.40
   1  -6 -10  292.67   23.30
   1  -6 -10  274.57   23.90
   1  -6 -10  304.57   23.10
   1  -6 -10  355.76   26.00
   0  -6 -10   19.80    2.70
   0  -6 -10   22.30    5.10
   0  -6 -10   21.30    3.80
   0  -6 -10   18.90    2.90
   0  -6 -10   22.20    3.10
   0  -6 -10   16.50    3.50
   0  -6 -10   17.40    2.00
   0   6  10   22.70    3.10
   0   6  10   25.50    5.40
   0   6  10   17.50    5.10
  -1  -6 -10   39.60    4.70
  -1  -6 -10   38.20    3.50
  -1  -6 -10   40.50    3.70
  -1  -6 -10   27.10    6.10
  -1  -6 -10   33.00    4.30
   1   6  10   48.60    7.70
   1   6  10   48.10    6.90
   1   6  10   38.60    4.20
  -2  -6 -10  133.19   11.90
  -2  -6 -10  129.49   10.80
   2   6  10  113.29   10.10
   2   6  10  126.59   14.60
   2   6  10  110.29   12.60
   2   6  10  139.19   10.20
  -3  -6 -10    7.00    1.90
   3   6  10    6.80    2.20
   3   6  10    2.80    4.40
   3   6  10    3.10    3.80
   3   6  10    4.80    2.10
   4   6  10   45.60    4.00
   3  -7 -10   66.69    7.80
   3  -7 -10   58.79    4.80
   2  -7 -10    9.50    1.50
   2  -7 -10    4.20    1.90
   2  -7 -10   11.30    4.00
   2  -7 -10    9.30    3.80
   2  -7 -10   11.70    3.60
   2  -7 -10    8.90    2.50
  -2   7  10    8.40    4.30
   1  -7 -10  199.08   17.00
   1  -7 -10  238.98   16.20
   1  -7 -10  222.68   18.50
   1  -7 -10  262.47   19.80
   1  -7 -10  202.98   17.20
   1  -7 -10  184.18   17.70
   1  -7 -10  219.58   17.00
  -1   7  10  241.28   19.40
   0  -7 -10  174.48   14.90
   0  -7 -10  189.88   14.70
   0  -7 -10  177.98   15.10
   0  -7 -10  195.88   16.20
   0  -7 -10  181.08   15.90
   0  -7 -10  187.08   16.70
   0  -7 -10  195.98   15.40
   0  -7 -10  185.38   14.10
   0   7  10  221.88   17.20
   0   7  10  216.98   14.80
  -1  -7 -10   19.90    2.70
  -1  -7 -10   18.20    2.60
  -1  -7 -10   16.90    3.00
  -1  -7 -10   21.80    4.10
  -1  -7 -10   18.70    2.50
  -1  -7 -10   21.60    5.00
   1   7  10   24.20    5.70
   1   7  10   27.90    3.70
   1   7  10   24.80    3.10
   1   7  10   25.50    5.80
  -2  -7 -10  107.19   10.10
   2   7  10  113.69    9.60
   2   7  10  127.09    9.60
   2   7  10  116.09   12.70
   2   7  10  107.09   12.00
  -3  -7 -10    1.00    1.20
   3   7  10    0.00    1.70
   3   7  10    2.20    1.80
   3  -8 -10    9.20    1.70
   2  -8 -10  219.88   15.30
   2  -8 -10  231.18   18.00
   2  -8 -10  205.68   16.90
   2  -8 -10  197.18   16.20
   2  -8 -10  203.38   16.70
   1  -8 -10    6.40    3.00
   1  -8 -10    2.80    2.10
   1  -8 -10    4.00    2.80
   1  -8 -10    4.00    1.80
   1  -8 -10    3.70    2.30
   1  -8 -10    4.90    1.10
   1  -8 -10    3.10    1.70
   1  -8 -10    4.70    1.90
   1  -8 -10    2.80    1.70
  -1   8  10    1.60    3.20
   0  -8 -10  133.09   12.30
   0  -8 -10  143.19   14.90
   0  -8 -10  125.09   11.00
   0  -8 -10  129.19   10.40
   0  -8 -10  146.59   11.10
   0  -8 -10  145.99   11.30
   0   8  10  142.09   10.80
   0   8  10  137.89   12.80
  -1  -8 -10   21.60    3.10
  -1  -8 -10   20.00    2.90
  -1  -8 -10   28.50    3.20
  -1  -8 -10   23.50    4.30
  -1  -8 -10   24.40    4.60
   1   8  10   28.40    3.60
   1   8  10   29.60    5.80
   1   8  10   26.50    5.50
   1   8  10   24.10    3.00
   2   8  10  131.89   10.40
   2   8  10  133.49   10.80
   3   8  10   40.80    4.40
   3   8  10   40.30    3.90
   3  -9 -10    1.00    0.70
   2  -9 -10   95.39    8.80
   2  -9 -10   94.09    6.70
   2  -9 -10   79.09    7.30
   2  -9 -10   80.79    7.40
   2  -9 -10  101.89    8.50
   1  -9 -10  214.58   15.60
   1  -9 -10  227.08   16.50
   1  -9 -10  209.08   16.80
   1  -9 -10  208.08   15.70
   1  -9 -10  194.88   14.70
   1  -9 -10  178.08   16.70
   1  -9 -10  216.08   16.20
   1  -9 -10  204.78   16.00
  -1   9  10  190.18   15.20
  -1   9  10  187.48   17.00
   0  -9 -10   48.10    4.40
   0  -9 -10   47.50    4.60
   0  -9 -10   41.40    4.10
   0  -9 -10   41.00    5.50
   0  -9 -10   39.10    4.60
   0   9  10   40.10    5.90
   0   9  10   44.40    4.30
  -1  -9 -10  202.98   15.90
  -1  -9 -10  182.28   14.20
  -1  -9 -10  180.98   13.90
   1   9  10  181.68   13.70
   1   9  10  165.08   15.50
   1   9  10  192.38   14.00
   2   9  10    4.10    1.70
   2   9  10    5.60    1.70
   3   9  10  105.99    8.40
   3   9  10  112.29    8.30
   2 -10 -10    3.50    1.20
   2 -10 -10    5.30    0.80
   2 -10 -10    3.70    1.20
   2 -10 -10    4.00    1.90
  -2  10  10    1.60    1.30
   1 -10 -10   19.40    3.10
   1 -10 -10   19.90    2.70
   1 -10 -10   20.80    3.40
   1 -10 -10   24.50    3.50
   1 -10 -10   19.50    4.00
   1 -10 -10   21.60    2.60
   1 -10 -10   19.00    2.80
  -1  10  10   19.50    2.80
   0 -10 -10    7.50    2.10
   0 -10 -10    7.20    1.70
   0 -10 -10    9.00    1.90
   0 -10 -10    6.60    1.50
   0  10  10    6.80    1.70
   0  10  10    6.40    1.60
   0  10  10    5.10    3.10
  -1 -10 -10  129.39   10.00
  -1 -10 -10  136.29   10.40
   1  10  10  118.99    9.70
   1  10  10  126.89    9.90
   2  10  10   93.99    7.60
   2  10  10   95.59    7.40
   2 -11 -10    0.60    0.50
   1 -11 -10   66.89    5.80
   1 -11 -10   62.59    5.00
   1 -11 -10   58.09    5.10
  -1  11  10   60.49    5.00
  -1  11  10   57.89    5.10
   0 -11 -10   39.40    3.40
   0 -11 -10   42.70    4.30
   0 -11 -10   21.20    3.20
   0  11  10   31.60    3.30
   0  11  10   30.60    3.00
  -1 -11 -10   31.90    3.60
  -1 -11 -10   37.30    3.90
   1  11  10   26.20    2.90
   1  11  10   31.40    3.20
   2  11  10   38.50    3.30
   2  11  10   35.80    3.40
  -1  12  10   -0.60    0.80
   0 -12 -10  114.09    7.80
   0  12  10  103.69    7.90
   0  12  10   97.69    8.10
  -1 -12 -10    0.00    1.00
   1   9 -11    2.00    0.50
   1   9 -11    1.90    0.40
   0   9 -11   64.19    4.70
   0   9 -11   60.99    4.70
   0   9 -11   64.09    4.60
  -1   9 -11    0.20    0.30
  -1   9 -11    0.30    0.40
   2   8 -11   66.19    5.20
   2   8 -11   74.69    5.30
   2   8 -11   74.29    5.30
   1   8 -11    0.90    0.30
   1   8 -11    1.20    0.60
   1   8 -11    0.30    0.40
   1   8 -11    1.10    0.70
   1   8 -11    0.60    1.30
   1   8 -11    0.60    1.40
   1   8 -11    0.70    0.50
   1   8 -11    0.00    0.50
   0   8 -11   75.89    5.10
   0   8 -11   56.29    5.90
   0   8 -11   67.89    5.30
   0   8 -11   73.99    5.20
   0   8 -11   70.39    5.40
  -1   8 -11   68.79    5.00
  -1   8 -11   67.89    5.20
  -1   8 -11   68.69    5.10
  -2   8 -11   21.10    1.70
  -2   8 -11   21.60    1.80
   2   7 -11   19.00    1.60
   2   7 -11   20.70    1.90
   2   7 -11   16.80    2.50
   2   7 -11   17.70    1.80
   2   7 -11   15.00    2.40
   2   7 -11   21.00    1.70
   2   7 -11   21.00    1.70
   1   7 -11   53.79    4.00
   1   7 -11   50.39    4.20
   1   7 -11   52.29    3.90
   1   7 -11   52.39    3.90
   1   7 -11   46.60    5.20
   1   7 -11   51.79    4.20
   1   7 -11   44.60    5.20
   1   7 -11   48.70    4.30
   0   7 -11   13.60    1.80
   0   7 -11   16.30    1.50
   0   7 -11   16.20    1.60
   0   7 -11   12.70    1.80
   0   7 -11    9.80    2.60
   0   7 -11   12.60    2.80
   0   7 -11   11.90    1.80
  -1   7 -11  184.18   13.20
  -1   7 -11  182.18   13.10
  -1   7 -11  181.28   13.40
  -2   7 -11    3.70    0.80
  -2   7 -11    2.30    0.90
  -2   7 -11    3.10    0.70
   2   6 -11    2.80    1.00
   2   6 -11    1.50    0.80
   2   6 -11    1.50    0.70
   2   6 -11    1.10    1.20
   2   6 -11    1.10    0.60
   2   6 -11    1.10    0.60
   2   6 -11    0.80    0.40
   1   6 -11  177.38   13.30
   1   6 -11  179.98   13.00
   1   6 -11  183.08   13.30
   1   6 -11  178.68   14.40
   1   6 -11  159.98   13.40
   1   6 -11  185.68   14.40
   1   6 -11  182.18   12.90
   1   6 -11  185.58   13.00
   0   6 -11   22.10    2.50
   0   6 -11   23.90    2.10
   0   6 -11   21.90    3.60
   0   6 -11   21.60    2.50
   0   6 -11   22.40    2.50
   0   6 -11   22.70    2.10
   0   6 -11   17.00    3.50
  -1   6 -11    6.20    1.00
  -1   6 -11    7.20    1.20
  -1   6 -11    7.10    1.60
   1  -6  11    5.50    1.30
  -2   6 -11  105.19    7.70
  -2   6 -11  105.29    8.00
  -2   6 -11  103.39    7.70
  -3   6 -11   13.20    1.30
  -3   6 -11   15.00    1.30
   3   5 -11   55.49    4.10
   3   5 -11   56.99    4.40
   2   5 -11   24.20    2.40
   2   5 -11   24.60    2.50
   2   5 -11   25.20    2.40
   2   5 -11   27.30    2.80
   2   5 -11   29.60    2.80
   2   5 -11   24.20    2.10
   1   5 -11   54.39    4.70
   1   5 -11   56.09    5.60
   1   5 -11   49.40    4.20
   1   5 -11   58.39    6.40
   1   5 -11   51.09    4.80
   1   5 -11   50.59    4.20
   1   5 -11   50.99    4.60
   1   5 -11   51.89    8.80
   1   5 -11   50.29    4.30
  -1  -5  11   57.99    5.70
   0   5 -11  122.29    9.00
   0   5 -11  121.19    9.40
   0   5 -11  122.09    9.40
   0   5 -11  117.89   13.40
   0   5 -11  129.79    9.10
   0   5 -11  121.99    9.10
   0   5 -11  110.09   10.50
   0   5 -11  130.09   10.70
   0   5 -11  122.69    9.70
  -1   5 -11   46.20    4.30
  -1   5 -11   35.50    4.80
  -1   5 -11   49.60    3.70
  -1   5 -11   48.20    3.80
  -1   5 -11   47.70    4.20
   1  -5  11   44.00    4.30
  -2   5 -11   63.29    4.90
  -2   5 -11   66.59    5.00
  -2   5 -11   64.19    5.40
   2  -5  11   57.19    5.20
  -3   5 -11   16.60    1.60
  -3   5 -11   15.00    1.60
  -3   5 -11   15.80    1.80
   3   4 -11    5.30    1.20
   3   4 -11    4.00    0.90
   2   4 -11   78.69    6.40
   2   4 -11   79.59    6.00
   2   4 -11   88.09    6.90
   2   4 -11   78.39    6.70
   1   4 -11   -0.20    1.00
   1   4 -11    0.00    0.60
   1   4 -11   -1.50    3.20
   1   4 -11    0.40    1.00
   1   4 -11    0.80    1.10
   1   4 -11    2.00    1.20
   1   4 -11    0.80    1.00
   1   4 -11    0.20    1.30
   0   4 -11  176.78   13.80
   0   4 -11  175.58   12.40
   0   4 -11  176.58   12.90
   0   4 -11  169.98   12.70
   0   4 -11  169.48   13.10
   0   4 -11  185.28   14.00
   0   4 -11  164.98   12.30
   0   4 -11  167.78   13.70
   0   4 -11  160.68   12.40
   0   4 -11  157.68   17.30
   0  -4  11  153.38   13.00
  -1   4 -11   39.20    3.30
  -1   4 -11   34.80    4.50
  -1   4 -11   39.90    4.00
  -1   4 -11   38.20    3.20
  -1   4 -11   35.90    3.80
   1  -4  11   38.70    4.00
  -2   4 -11  144.79   10.50
  -2   4 -11  142.89   11.00
  -2   4 -11  146.19   10.40
   2  -4  11  128.89   10.80
  -3   4 -11   39.50    3.40
  -3   4 -11   36.40    3.80
  -3   4 -11   41.50    3.30
   2   3 -11   62.49   11.00
   2   3 -11   65.09    5.60
   2   3 -11   58.39    4.50
   2   3 -11   57.69    5.10
   1   3 -11  123.09    9.90
   1   3 -11  111.89    9.50
   1   3 -11  137.59    9.10
   1   3 -11  112.79   10.40
   1   3 -11  113.59   15.20
   1   3 -11  129.49    9.80
   0   3 -11   42.30    5.00
   0   3 -11   42.30    4.10
   0   3 -11   38.70    3.70
   0   3 -11   33.90    8.90
   0   3 -11   38.40    4.00
   0  -3  11   37.80    4.30
  -1   3 -11  206.38   17.50
  -1   3 -11  226.88   17.60
  -1   3 -11  224.98   17.30
  -1   3 -11  229.48   16.80
   1  -3  11  238.38   17.30
  -2   3 -11    3.90    1.00
  -2   3 -11    4.80    1.30
  -2   3 -11    4.00    1.90
  -2   3 -11    3.50    1.30
   2  -3  11    3.50    1.30
  -3   3 -11  138.09   10.00
  -3   3 -11  137.79   10.10
  -3   3 -11  129.39   10.70
   2   2 -11   12.90    2.10
   2   2 -11   14.00    2.30
   2   2 -11   10.80    2.40
   2   2 -11   11.90    6.00
   1   2 -11  127.09   11.10
   1   2 -11  117.89   15.30
   1   2 -11  129.69   11.00
   1   2 -11  129.59   10.30
   1   2 -11  126.99   10.00
   0   2 -11    0.80    1.40
   0   2 -11    0.50    1.00
   0   2 -11    0.20    2.60
   0   2 -11    2.00    1.10
   0   2 -11    0.50    3.30
   0   2 -11    1.00    1.10
   0  -2  11    1.00    1.30
  -1   2 -11  225.68   17.50
  -1   2 -11  227.98   16.80
   1  -2  11  227.38   17.50
  -2   2 -11  126.09   10.50
  -2   2 -11  128.79   10.60
   2  -2  11  127.09   10.30
  -3   2 -11   38.40    5.10
  -3   2 -11   41.10    3.80
  -3   2 -11   40.40    3.90
   2   1 -11    0.70    1.20
   2   1 -11    2.00    1.60
   1   1 -11  110.79    9.10
   1   1 -11  113.89    8.80
   1   1 -11   90.99   13.10
   1   1 -11  124.59    9.00
   1   1 -11   87.39   12.10
   1   1 -11  109.19    9.80
   1   1 -11  104.39    8.70
  -1  -1  11  122.29    9.10
   0   1 -11  108.99    8.80
   0   1 -11  111.69    9.00
   0   1 -11  115.49    9.30
   0   1 -11  104.89    9.60
   0  -1  11  111.19    9.20
  -1   1 -11    2.30    1.90
  -1   1 -11    0.70    1.00
  -1   1 -11    2.40    1.40
  -1   1 -11    1.90    1.20
   1  -1  11    2.20    1.50
  -2   1 -11  129.29   10.70
  -2   1 -11  131.99   11.00
   2  -1  11  131.99   10.70
  -3   1 -11   -0.30    2.20
  -3   1 -11    0.20    0.90
   3  -1  11    1.50    1.80
  -4   1 -11   36.80    3.70
   1   0 -11   14.60    2.30
   1   0 -11   16.20    3.20
   1   0 -11   19.80    2.80
   1   0 -11   12.30    4.40
   1   0 -11   16.10    2.20
   1   0 -11   12.80    2.10
   0   0 -11  411.66   33.50
   0   0 -11  485.75   32.20
   0   0 -11  453.35   33.00
   0   0 -11  441.26   32.60
   0   0 -11  455.85   32.90
   0   0  11  466.25   33.20
  -1   0 -11   13.10    2.70
  -1   0 -11   12.50    2.30
  -1   0 -11    9.60    2.00
  -1   0 -11   11.50    1.70
   1   0  11   10.80    2.40
  -2   0 -11   48.40    4.80
  -2   0 -11   45.70    4.90
   2   0  11   44.00    5.80
   2   0  11   40.70    4.80
  -3   0 -11   59.79    5.80
  -3   0 -11   61.59    6.40
   3   0  11   61.39    7.30
  -4   0 -11   12.90    2.70
   1  -1 -11   76.09    7.70
   1  -1 -11   73.29    7.30
   1  -1 -11   95.69    6.90
   1  -1 -11   88.89    6.70
   1  -1 -11   66.39    9.50
   1  -1 -11   82.59    6.60
  -1   1  11   60.89    8.90
   0  -1 -11   70.29    5.40
   0  -1 -11   68.49    5.70
   0  -1 -11   50.09    4.90
   0  -1 -11   58.69    8.20
   0  -1 -11   65.19    6.30
   0  -1 -11   67.49    5.60
   0  -1 -11   59.89    6.60
  -1  -1 -11  158.98   13.20
  -1  -1 -11  162.08   12.20
  -1  -1 -11  170.88   13.20
  -1  -1 -11  148.99   12.70
   1   1  11  192.88   15.00
   1   1  11  156.48   13.10
  -2  -1 -11   81.29    7.00
  -2  -1 -11   79.59    7.00
   2   1  11   65.39    8.00
  -3  -1 -11  128.39   10.30
  -3  -1 -11  127.39   10.50
   3   1  11  111.39   11.70
  -4  -1 -11    2.00    1.90
   1  -2 -11   96.19    7.70
   1  -2 -11  110.29    8.00
   1  -2 -11   95.19    8.40
   1  -2 -11  107.29    7.90
   1  -2 -11   84.89    8.80
   1  -2 -11   86.49   10.70
  -1   2  11   80.19   10.30
   0  -2 -11    0.20    0.80
   0  -2 -11    0.30    1.30
   0  -2 -11   -0.40    2.00
   0  -2 -11   -0.40    1.20
   0  -2 -11   -0.10    0.80
   0  -2 -11   -0.90    0.70
   0  -2 -11    0.00    0.80
   0   2  11   -0.30    1.70
  -1  -2 -11  185.98   16.30
  -1  -2 -11  190.48   15.00
  -1  -2 -11  182.78   15.10
  -1  -2 -11  208.38   14.50
  -1  -2 -11  209.98   15.50
   1   2  11  200.88   16.70
   1   2  11  199.18   15.40
  -2  -2 -11  100.69    8.20
   2   2  11   82.09    9.60
  -3  -2 -11   71.39    6.60
  -3  -2 -11   65.09    6.20
   3   2  11   55.39    8.10
   3   2  11   62.99    5.80
  -4  -2 -11   20.30    2.60
  -4  -2 -11   25.50    3.60
   4   2  11   28.40    2.20
   4   2  11   24.00    4.30
   2  -3 -11   54.09    5.00
   2  -3 -11   49.00    4.80
   2  -3 -11   49.90    5.50
   1  -3 -11   54.69    6.50
   1  -3 -11   68.89    5.70
   1  -3 -11   62.69    5.30
   1  -3 -11   65.49    6.10
   1  -3 -11   68.79    5.70
   1  -3 -11   56.79    6.80
   1  -3 -11   54.09    8.30
  -1   3  11   54.99    8.20
   0  -3 -11  173.28   12.50
   0  -3 -11  164.18   16.20
   0  -3 -11  179.28   13.00
   0  -3 -11  171.78   13.40
   0  -3 -11  173.18   14.30
   0  -3 -11  173.28   13.30
   0  -3 -11  176.18   14.00
   0   3  11  167.68   16.00
  -1  -3 -11   63.19    6.10
  -1  -3 -11   75.59    5.60
  -1  -3 -11   62.99    6.20
  -1  -3 -11   64.79    7.70
  -1  -3 -11   77.09    6.60
   1   3  11   68.89    8.20
   1   3  11   73.09    6.70
   2   3  11   88.89    9.20
   2   3  11  100.89    7.70
   2   3  11   96.09   10.50
  -3  -3 -11    2.10    1.60
   3   3  11   -0.20    2.60
   3   3  11    0.60    1.90
   3   3  11    1.20    0.90
  -4  -3 -11   50.89    5.00
  -4  -3 -11   61.99    5.40
   4   3  11   58.79    4.50
   4   3  11   66.49    9.40
   2  -4 -11   17.60    4.70
   2  -4 -11   21.90    3.00
   2  -4 -11   22.00    4.10
   2  -4 -11   24.10    3.30
   1  -4 -11   92.39    7.30
   1  -4 -11   75.79    8.60
   1  -4 -11   94.89    7.40
   1  -4 -11   85.79    7.80
   1  -4 -11   83.19    6.90
   1  -4 -11   73.29    8.80
  -1   4  11   73.99   10.70
  -1   4  11   76.69    9.00
   0  -4 -11  206.28   15.90
   0  -4 -11  186.38   18.80
   0  -4 -11  214.68   17.10
   0  -4 -11  214.18   16.70
   0  -4 -11  213.38   16.10
   0  -4 -11  211.48   15.60
   0  -4 -11  212.78   15.20
   0   4  11  218.78   19.40
   0   4  11  209.88   17.20
  -1  -4 -11   12.90    2.50
  -1  -4 -11   11.60    3.70
  -1  -4 -11   13.30    1.90
   1   4  11   13.70    3.50
   1   4  11   11.10    3.90
  -2  -4 -11  167.28   12.60
  -2  -4 -11  180.68   12.80
   2   4  11  133.29   11.40
   2   4  11  143.99   14.80
   2   4  11  133.59   13.40
  -3  -4 -11   24.00    3.50
   3   4  11   22.10    5.80
   3   4  11   21.60    3.40
   3   4  11   20.50    2.70
  -4  -4 -11   12.60    2.10
   4   4  11   18.90    1.80
   3  -5 -11    4.90    0.90
   3  -5 -11    5.30    3.00
   2  -5 -11  178.18   14.50
   2  -5 -11  179.28   17.00
   2  -5 -11  185.18   16.80
   2  -5 -11  186.08   14.70
   2  -5 -11  173.08   15.60
  -2   5  11  216.48   17.90
   1  -5 -11    5.50    3.60
   1  -5 -11    5.00    2.10
   1  -5 -11    4.60    1.70
   1  -5 -11    8.20    1.80
   1  -5 -11    6.30    1.80
   1  -5 -11    4.70    1.30
   1  -5 -11    5.50    3.10
  -1   5  11    4.20    3.30
   0  -5 -11   36.40    4.70
   0  -5 -11   32.00    3.90
   0  -5 -11   36.60    5.00
   0  -5 -11   36.10    3.70
   0  -5 -11   33.10    3.90
   0  -5 -11   39.70    3.10
   0   5  11   37.50    5.70
   0   5  11   35.10    4.40
   0   5  11   38.80    7.10
  -1  -5 -11  344.27   25.70
  -1  -5 -11  342.87   24.40
  -1  -5 -11  350.96   24.70
   1   5  11  308.47   24.60
   1   5  11  328.17   26.80
   1   5  11  352.46   28.00
  -2  -5 -11   56.69    5.50
  -2  -5 -11   57.09    5.60
   2   5  11   43.70    6.80
   2   5  11   41.80    4.60
   2   5  11   44.70    7.90
   2   5  11   46.90    4.50
  -3  -5 -11   82.69    7.10
   3   5  11   72.69    6.40
   3   5  11   74.19    6.40
   3   5  11   71.79   10.50
   4   5  11    1.50    0.80
   3  -6 -11    2.00    0.80
   3  -6 -11    2.20    2.80
   2  -6 -11  119.49   11.10
   2  -6 -11  146.09   13.90
   2  -6 -11  139.99   14.00
   2  -6 -11  140.79   10.10
   2  -6 -11  129.89   11.40
   2  -6 -11  127.49   12.40
  -2   6  11  148.29   14.50
   1  -6 -11  139.69   12.60
   1  -6 -11  148.49   11.80
   1  -6 -11  144.49   13.90
   1  -6 -11  150.08   11.40
   1  -6 -11  139.19   13.70
   1  -6 -11  140.39   10.70
   1  -6 -11  143.69   11.90
   0  -6 -11   39.90    5.20
   0  -6 -11   34.10    4.10
   0  -6 -11   39.20    3.90
   0  -6 -11   29.50    5.70
   0  -6 -11   37.90    5.30
   0  -6 -11   33.50    4.10
   0  -6 -11   40.90    3.40
   0   6  11   41.10    4.20
   0   6  11   42.10    6.50
  -1  -6 -11  106.59    8.30
  -1  -6 -11  108.19    9.70
  -1  -6 -11   86.39    9.10
  -1  -6 -11  110.69    8.60
  -1  -6 -11   99.49    9.10
   1   6  11  108.39    8.70
   1   6  11  128.59   12.70
   1   6  11  113.79   11.40
   1   6  11  106.39    8.50
  -2  -6 -11   44.00    5.10
   2   6  11   34.60    4.20
   2   6  11   41.30    8.00
   2   6  11   37.60    6.60
   2   6  11   39.10    4.10
  -3  -6 -11   43.30    4.70
   3   6  11   43.40    7.40
   3   6  11   44.00    4.30
   3   6  11   42.90    4.40
   3  -7 -11   50.89    4.10
   2  -7 -11    0.80    1.50
   2  -7 -11    2.80    3.00
   2  -7 -11    2.30    2.30
   2  -7 -11    1.00    1.60
   2  -7 -11    2.00    1.10
   1  -7 -11   91.99    8.70
   1  -7 -11   98.99    7.40
   1  -7 -11   82.49    9.20
   1  -7 -11   94.59   10.00
   1  -7 -11  109.99   11.20
   1  -7 -11   92.39    8.20
   1  -7 -11   86.59    8.40
  -1   7  11  106.89   11.00
   0  -7 -11   25.50    5.70
   0  -7 -11   19.30    3.40
   0  -7 -11   22.00    3.30
   0  -7 -11   17.90    2.20
   0  -7 -11   19.30    3.10
   0  -7 -11   19.20    4.00
   0  -7 -11   16.90    2.70
   0  -7 -11   21.80    4.30
   0  -7 -11   21.70    2.40
   0  -7 -11   20.30    3.20
   0   7  11   29.00    6.10
   0   7  11   28.40    3.60
  -1  -7 -11   87.29    7.70
  -1  -7 -11   71.39    9.50
  -1  -7 -11   80.19    7.00
  -1  -7 -11   87.79    8.10
  -1  -7 -11   82.89    8.60
  -1  -7 -11   86.09    7.30
   1   7  11  106.49   11.50
   1   7  11   94.99   10.50
   1   7  11   96.79    7.60
   1   7  11   92.79    7.70
  -2  -7 -11   22.50    4.10
   2   7  11   29.70    3.60
   2   7  11   26.10    5.60
   2   7  11   26.70    3.60
   2   7  11   15.90    4.80
  -3  -7 -11    7.30    2.00
   3   7  11    4.50    2.90
   3   7  11    5.10    1.80
   3   7  11    3.30    1.70
   3  -8 -11   83.19    6.10
   2  -8 -11   16.40    3.20
   2  -8 -11   20.40    2.10
   2  -8 -11   18.50    3.70
   2  -8 -11   16.10    3.80
   2  -8 -11   14.90    2.70
   1  -8 -11    9.40    2.60
   1  -8 -11   10.30    3.50
   1  -8 -11    4.70    2.00
   1  -8 -11    8.70    2.50
   1  -8 -11    8.50    2.20
   1  -8 -11    7.90    1.50
   1  -8 -11   11.50    2.70
   1  -8 -11    6.50    2.80
  -1   8  11    4.80    1.90
  -1   8  11    6.00    3.50
   0  -8 -11  119.09    8.90
   0  -8 -11  111.29    9.50
   0  -8 -11  118.49    9.80
   0  -8 -11  104.19   10.90
   0  -8 -11  118.59    9.60
   0   8  11  117.09    9.40
   0   8  11  114.29   11.40
  -1  -8 -11    7.20    3.20
  -1  -8 -11    6.30    1.70
  -1  -8 -11    3.50    2.20
  -1  -8 -11    4.40    1.60
  -1  -8 -11    7.70    1.80
   1   8  11    7.70    3.80
   1   8  11    9.40    2.00
   1   8  11    7.50    2.20
   1   8  11    6.90    3.90
   2   8  11   66.59    5.80
   2   8  11   60.09    8.10
   2   8  11   74.09    6.40
   3   8  11    7.50    2.00
   3   8  11    5.60    1.50
   2  -9 -11   46.40    5.30
   2  -9 -11   34.10    3.80
   2  -9 -11   44.80    3.30
   2  -9 -11   37.10    3.90
  -2   9  11   37.50    3.90
   1  -9 -11   31.00    3.60
   1  -9 -11   35.20    4.50
   1  -9 -11   27.30    4.70
   1  -9 -11   30.80    3.70
   1  -9 -11   28.60    2.80
   1  -9 -11   29.60    5.10
   1  -9 -11   29.90    4.10
   1  -9 -11   29.80    4.20
  -1   9  11   27.70    3.50
   0  -9 -11  172.98   15.20
   0  -9 -11  195.78   14.30
   0  -9 -11  195.28   14.10
   0  -9 -11  174.78   14.30
   0  -9 -11  187.38   13.60
   0   9  11  205.28   16.80
   0   9  11  168.48   13.80
   0   9  11  183.58   13.70
   0   9  11  162.58   15.50
  -1  -9 -11   47.30    4.80
  -1  -9 -11   44.80    5.90
  -1  -9 -11   47.30    4.50
   1   9  11   50.09    7.10
   1   9  11   49.60    4.40
   1   9  11   45.70    6.50
   1   9  11   50.49    4.70
   2   9  11   60.09    5.10
   2   9  11   56.69    5.40
   3   9  11   18.30    2.10
   2 -10 -11   20.70    2.40
   2 -10 -11   24.20    2.00
   2 -10 -11   20.50    2.30
   1 -10 -11   29.60    3.20
   1 -10 -11   35.50    4.30
   1 -10 -11   29.00    4.50
   1 -10 -11   29.70    2.60
   1 -10 -11   31.50    3.80
   1 -10 -11   30.40    3.40
  -1  10  11   32.90    3.50
   0 -10 -11   10.10    2.30
   0 -10 -11   11.70    2.10
   0 -10 -11   14.40    2.00
   0 -10 -11   11.80    1.80
   0 -10 -11    9.60    2.80
   0  10  11   11.00    1.90
   0  10  11   11.80    3.80
   0  10  11   10.40    2.10
  -1 -10 -11  118.89    9.40
  -1 -10 -11  126.39    9.20
   1  10  11  109.89    8.80
   1  10  11  108.49    9.00
   2  10  11    6.10    1.60
   2  10  11    9.30    1.60
   1 -11 -11   66.69    5.60
   1 -11 -11   70.49    5.50
  -1  11  11   68.79    5.50
  -1  11  11   73.29    5.70
   0 -11 -11   16.50    1.80
   0 -11 -11   10.30    2.30
   0  11  11   10.50    2.00
   0  11  11   12.60    1.90
  -1 -11 -11    3.70    1.60
  -1 -11 -11    3.20    1.50
   1  11  11    3.50    1.30
   1  11  11    2.00    1.20
   2  11  11   73.89    5.70
   0  12  11   32.80    2.90
   1  12  11   35.10    3.00
   1   8 -12   30.90    2.30
   1   8 -12   31.60    2.30
   1   8 -12   25.50    3.00
   1   8 -12   30.50    2.50
   0   8 -12   69.19    5.00
   0   8 -12   69.79    5.00
   0   8 -12   64.99    5.10
  -1   8 -12    1.20    0.50
  -1   8 -12    0.40    0.40
  -1   8 -12    0.20    0.50
   2   7 -12   60.39    4.20
   2   7 -12   59.89    4.50
   2   7 -12   54.39    5.00
   1   7 -12   18.20    3.00
   1   7 -12   25.90    2.10
   1   7 -12   25.20    2.00
   1   7 -12   21.40    3.10
   1   7 -12   25.80    2.30
   1   7 -12   26.00    2.00
   1   7 -12   22.60    2.10
   1   7 -12   20.80    2.20
   0   7 -12   61.99    4.70
   0   7 -12   63.99    4.40
   0   7 -12   49.40    5.40
   0   7 -12   63.69    4.50
   0   7 -12   56.29    4.70
   0   7 -12   52.69    4.50
  -1   7 -12   51.19    4.10
  -1   7 -12   51.79    3.90
  -1   7 -12   49.70    3.90
  -2   7 -12   36.50    3.30
  -2   7 -12   37.80    2.90
  -2   7 -12   38.10    2.80
   2   6 -12   29.00    2.40
   2   6 -12   25.10    2.00
   2   6 -12   22.40    2.90
   2   6 -12   26.10    2.10
   2   6 -12   27.00    2.20
   2   6 -12   23.80    2.40
   1   6 -12   77.39    5.90
   1   6 -12   74.89    5.60
   1   6 -12   71.69    6.00
   1   6 -12   77.09    6.90
   1   6 -12   70.49    5.80
   1   6 -12   76.19    5.70
   1   6 -12   66.49    6.70
   1   6 -12   79.49    5.60
   0   6 -12    0.60    1.00
   0   6 -12    1.50    0.70
   0   6 -12    0.60    0.80
   0   6 -12    1.00    1.60
   0   6 -12    0.80    1.50
   0   6 -12    0.80    0.80
   0   6 -12    1.60    0.60
  -1   6 -12  233.98   16.70
  -1   6 -12  232.48   17.00
  -1   6 -12  234.58   16.70
  -2   6 -12   27.70    2.20
  -2   6 -12   26.10    2.30
  -2   6 -12   27.40    2.60
   2   5 -12    3.80    1.10
   2   5 -12    1.90    0.50
   2   5 -12    1.90    0.80
   2   5 -12    1.70    0.70
   1   5 -12   56.09    4.40
   1   5 -12   58.69    4.80
   1   5 -12   62.89    5.90
   1   5 -12   55.49    4.50
   1   5 -12   56.79    5.00
   1   5 -12   55.29    4.50
   1   5 -12   50.49    4.70
   0   5 -12   53.99    4.10
   0   5 -12   52.69    5.60
   0   5 -12   50.29    4.50
   0   5 -12   52.49    4.80
   0   5 -12   55.59    4.60
   0   5 -12   55.89    4.20
   0   5 -12   41.20    5.30
   0   5 -12   54.29    4.20
  -1   5 -12   29.60    3.00
  -1   5 -12   30.00    2.60
  -1   5 -12   28.00    3.00
  -1   5 -12   29.10    2.50
   1  -5  12   26.70    3.00
  -2   5 -12   79.39    6.10
  -2   5 -12   81.69    6.10
  -2   5 -12   84.29    6.50
  -3   5 -12    2.00    0.60
  -3   5 -12    2.00    0.50
   3   4 -12   18.00    1.50
   2   4 -12   83.99    6.60
   2   4 -12   85.29    6.80
   2   4 -12   80.19    6.00
   2   4 -12   79.79    6.40
   1   4 -12   62.59    5.30
   1   4 -12   62.09    9.80
   1   4 -12   60.19    5.30
   1   4 -12   61.19    5.40
   1   4 -12   61.39    4.80
   0   4 -12   82.29    7.40
   0   4 -12   82.99    6.10
   0   4 -12   82.29    6.50
   0   4 -12   81.59    7.50
   0   4 -12   71.09   10.40
   0   4 -12   85.39    6.60
   0   4 -12   80.89    6.80
   0   4 -12   73.19    7.20
   0  -4  12   70.49    6.70
  -1   4 -12    1.50    1.60
  -1   4 -12    2.90    1.40
  -1   4 -12    1.80    1.10
  -1   4 -12    2.30    0.70
  -1   4 -12    1.30    1.70
  -1   4 -12    2.20    0.90
   1  -4  12    1.60    1.10
  -2   4 -12   60.39    5.00
  -2   4 -12   59.79    4.50
   2  -4  12   48.00    4.70
  -3   4 -12   11.00    1.30
  -3   4 -12   10.60    1.70
  -3   4 -12    9.70    1.20
   2   3 -12   52.59    4.10
   2   3 -12   51.99    4.50
   2   3 -12   56.29    5.00
   2   3 -12   56.39    6.00
   1   3 -12   12.80    2.10
   1   3 -12   14.00    2.20
   1   3 -12   10.70    2.60
   1   3 -12   12.30    1.60
   1   3 -12   15.50    6.50
   1   3 -12   13.30    2.10
   0   3 -12  252.07   18.80
   0   3 -12  298.77   20.10
   0   3 -12  240.18   19.80
   0   3 -12  215.58   23.50
   0   3 -12  239.68   19.20
   0   3 -12  279.47   18.50
   0   3 -12  269.67   19.10
   0  -3  12  242.88   19.30
  -1   3 -12   52.79    5.10
  -1   3 -12   51.19    4.80
  -1   3 -12   57.79    5.70
  -1   3 -12   47.80    5.40
   1  -3  12   54.59    5.20
  -2   3 -12   65.59    5.20
  -2   3 -12   60.39    5.70
  -2   3 -12   66.79    5.10
  -2   3 -12   72.39    5.80
   2  -3  12   55.09    5.50
  -3   3 -12   56.29    4.30
  -3   3 -12   54.29    4.30
  -3   3 -12   55.49    4.90
   2   2 -12   23.10    2.70
   2   2 -12   25.40    2.10
   2   2 -12   23.00    2.90
   1   2 -12   64.09   11.50
   1   2 -12   69.89    7.30
   1   2 -12   77.19    5.70
   1   2 -12   77.99    6.70
   1   2 -12   77.69    6.40
   0   2 -12   41.40    4.20
   0   2 -12   34.50    3.10
   0   2 -12   33.10    3.50
   0   2 -12   36.80    3.80
   0   2 -12   36.70    3.90
   0   2 -12   33.70    3.80
   0   2 -12   31.10    4.50
   0  -2  12   33.70    4.10
  -1   2 -12  210.08   16.40
  -1   2 -12  218.68   16.60
  -1   2 -12  198.58   16.60
  -1   2 -12  228.68   15.70
  -1   2 -12  211.38   15.80
   1  -2  12  194.08   16.20
  -2   2 -12    2.70    1.50
  -2   2 -12    1.50    1.70
  -2   2 -12   -0.30    1.50
   2  -2  12    1.00    1.20
  -3   2 -12   58.79    5.60
   2   1 -12    9.20    1.80
   1   1 -12  193.48   14.60
   1   1 -12  178.38   15.50
   1   1 -12  205.08   14.90
   1   1 -12  188.18   14.60
   1   1 -12  195.58   13.90
   1   1 -12  192.88   15.00
  -1  -1  12  194.78   14.90
   0   1 -12   85.69    8.30
   0   1 -12   94.79    7.50
   0   1 -12   89.49    7.70
   0   1 -12   85.89    7.30
   0  -1  12   85.89    7.70
  -1   1 -12  141.69   10.70
  -1   1 -12  128.99   10.30
  -1   1 -12  131.19   11.20
  -1   1 -12  144.59   11.40
   1  -1  12  128.99   11.20
  -2   1 -12   96.99    8.20
  -2   1 -12   90.29    8.00
   2  -1  12   87.39    7.80
  -3   1 -12   26.40    3.20
  -3   1 -12   32.10    4.30
   2   0 -12   10.00    2.00
   1   0 -12   81.39    7.20
   1   0 -12   69.29    6.10
   1   0 -12   64.49    6.10
   1   0 -12   72.79    6.30
   1   0 -12   72.09    5.40
   1   0 -12   66.29    7.10
  -1   0  12   74.89    6.50
   0   0 -12  118.59    9.70
   0   0 -12  106.69   10.20
   0   0 -12  107.09    9.20
   0   0 -12  123.39    9.60
   0   0 -12  133.99   10.10
   0   0  12  115.69    9.80
  -1   0 -12    5.00    1.30
  -1   0 -12    6.80    1.80
  -1   0 -12    6.10    1.60
  -1   0 -12    9.60    2.30
  -1   0 -12    8.90    2.50
   1   0  12    7.40    2.00
  -2   0 -12  212.98   16.60
  -2   0 -12  237.28   17.00
   2   0  12  191.48   16.30
  -3   0 -12   12.20    2.30
  -3   0 -12   17.10    3.50
   3   0  12    9.90    2.90
   1  -1 -12   35.60    3.60
   1  -1 -12   32.00    4.40
   1  -1 -12   33.20    4.80
   1  -1 -12   30.40    3.60
   1  -1 -12   36.10    3.70
   0  -1 -12  198.48   14.70
   0  -1 -12  162.28   15.70
   0  -1 -12  170.08   17.70
   0  -1 -12  198.28   14.60
   0  -1 -12  184.48   15.30
   0  -1 -12  201.88   14.30
   0   1  12  210.48   15.00
  -1  -1 -12   39.70    4.60
  -1  -1 -12   47.30    4.60
  -1  -1 -12   42.70    4.40
  -1  -1 -12   41.10    4.80
  -1  -1 -12   39.30    3.70
   1   1  12   40.80    4.80
  -2  -1 -12   43.10    4.80
  -2  -1 -12   53.89    6.10
   2   1  12   35.60    5.60
  -3  -1 -12   44.60    4.70
  -3  -1 -12   45.90    5.20
   3   1  12   41.00    6.00
   1  -2 -12  577.04   39.90
   1  -2 -12  579.54   40.10
   1  -2 -12  516.15   41.10
   1  -2 -12  528.55   40.60
   1  -2 -12  560.64   39.80
   0  -2 -12  127.89   11.10
   0  -2 -12  135.89   10.10
   0  -2 -12  140.79    9.60
   0  -2 -12  118.39   11.50
   0  -2 -12  111.89   13.20
   0  -2 -12  135.39   10.40
   0  -2 -12  132.29   10.50
  -1  -2 -12  151.18   11.60
  -1  -2 -12  142.49   10.60
  -1  -2 -12  128.19   11.10
  -1  -2 -12  142.39   11.80
  -1  -2 -12  149.39   11.80
  -1  -2 -12  130.89   11.30
   1   2  12  138.99   12.70
   1   2  12  141.29   11.60
  -2  -2 -12    1.30    1.40
   2   2  12    1.20    2.40
  -3  -2 -12   79.39    7.00
  -3  -2 -12   76.49    6.80
   3   2  12   62.79    8.10
   2  -3 -12   12.00    2.20
   2  -3 -12   12.00    2.70
   2  -3 -12   14.00    2.30
   1  -3 -12   23.60    2.80
   1  -3 -12   22.20    3.00
   1  -3 -12   23.80    2.00
   1  -3 -12   25.60    4.70
   1  -3 -12   19.90    3.50
   1  -3 -12   22.00    2.90
   0  -3 -12   17.10    2.40
   0  -3 -12   18.80    2.70
   0  -3 -12   16.50    2.60
   0  -3 -12   23.10    4.60
   0  -3 -12   15.70    1.90
   0  -3 -12   22.70    3.60
   0  -3 -12   15.00    4.60
   0  -3 -12   18.90    3.70
   0   3  12   18.10    5.00
   0   3  12   19.20    4.30
  -1  -3 -12  144.39   12.50
  -1  -3 -12  162.28   11.80
  -1  -3 -12  167.78   13.00
  -1  -3 -12  160.18   13.10
  -1  -3 -12  165.48   12.90
  -1  -3 -12  146.39   13.90
  -1  -3 -12  149.29   12.30
   1   3  12  157.18   12.80
   1   3  12  168.28   14.50
  -2  -3 -12   76.99    6.90
   2   3  12   62.39    8.30
  -3  -3 -12   14.90    2.80
   3   3  12    9.90    3.70
   3   3  12   12.70    1.50
   2  -4 -12    4.20    1.50
   2  -4 -12    5.00    2.20
   2  -4 -12    3.50    1.40
   2  -4 -12    4.20    0.80
   1  -4 -12   51.79    5.00
   1  -4 -12   48.90    4.80
   1  -4 -12   48.70    3.80
   1  -4 -12   45.90    7.00
   1  -4 -12   41.00    6.10
   1  -4 -12   51.29    4.60
   1  -4 -12   49.00    5.60
   0  -4 -12   67.89    6.30
   0  -4 -12   68.09    7.40
   0  -4 -12   57.79    7.80
   0  -4 -12   67.59    7.10
   0  -4 -12   71.79    6.00
   0  -4 -12   67.69    6.30
   0  -4 -12   76.09    5.40
   0   4  12   80.49    8.90
   0   4  12   81.89   13.20
  -1  -4 -12   35.40    4.30
  -1  -4 -12   36.20    3.10
  -1  -4 -12   31.30    5.00
  -1  -4 -12   30.00    5.50
  -1  -4 -12   33.00    4.00
  -1  -4 -12   25.40    3.50
   1   4  12   33.00    4.90
   1   4  12   33.90    6.10
   1   4  12   28.20    4.40
  -2  -4 -12   55.49    5.40
  -2  -4 -12   50.89    5.30
   2   4  12   41.50    7.30
   2   4  12   40.10    5.80
   2   4  12   41.20    4.00
  -3  -4 -12    0.50    1.40
   3   4  12    0.60    0.90
   3   4  12    0.20    2.60
   3  -5 -12   17.60    1.70
   2  -5 -12   52.79    7.20
   2  -5 -12   59.29    5.50
   2  -5 -12   50.69    4.20
   2  -5 -12   50.79    6.20
   2  -5 -12   55.79    5.30
   1  -5 -12   35.30    4.90
   1  -5 -12   33.30    5.60
   1  -5 -12   37.00    4.00
   1  -5 -12   27.00    6.30
   1  -5 -12   33.90    4.10
   1  -5 -12   36.70    3.90
   1  -5 -12   33.50    3.00
  -1   5  12   38.30    5.90
   0  -5 -12  236.68   18.70
   0  -5 -12  254.47   20.10
   0  -5 -12  224.98   17.80
   0  -5 -12  265.87   17.70
   0  -5 -12  248.58   19.70
   0  -5 -12  232.98   18.60
   0  -5 -12  259.77   18.30
   0  -5 -12  238.28   20.70
   0   5  12  250.17   20.20
  -1  -5 -12   23.60    2.50
  -1  -5 -12   24.00    2.80
  -1  -5 -12   17.20    3.10
  -1  -5 -12   18.50    4.90
  -1  -5 -12   21.20    3.10
  -1  -5 -12   22.80    3.70
   1   5  12   32.00    6.50
   1   5  12   18.50    2.40
   1   5  12   22.00    4.80
  -2  -5 -12   45.00    5.10
  -2  -5 -12   51.99    5.30
   2   5  12   40.30    4.10
   2   5  12   41.90    7.40
   2   5  12   42.50    6.20
  -3  -5 -12   37.50    4.30
   3   5  12   39.20    6.80
   3   5  12   36.40    3.60
   3  -6 -12    0.90    0.50
   2  -6 -12  125.49   10.80
   2  -6 -12  142.19   13.10
   2  -6 -12  126.59   11.00
   2  -6 -12  135.59   11.90
   2  -6 -12  136.29    9.90
   1  -6 -12   23.30    3.50
   1  -6 -12   22.60    4.40
   1  -6 -12   22.00    3.20
   1  -6 -12   22.30    2.40
   1  -6 -12   22.60    3.40
   1  -6 -12   19.40    4.60
  -1   6  12   25.80    5.70
  -1   6  12   27.50    3.50
   0  -6 -12   99.99    9.70
   0  -6 -12  110.39    8.20
   0  -6 -12   88.19   10.10
   0  -6 -12   84.99    8.40
   0  -6 -12   79.99    7.30
   0  -6 -12   87.29    8.30
   0  -6 -12  104.99    7.30
   0  -6 -12  100.29    9.50
   0  -6 -12   97.29    8.50
   0  -6 -12   88.79    8.10
   0   6  12  107.49    8.10
   0   6  12  113.99   10.60
  -1  -6 -12   22.00    3.90
  -1  -6 -12   19.50    3.10
  -1  -6 -12   22.10    2.80
  -1  -6 -12   16.60    4.80
  -1  -6 -12   24.20    2.60
  -1  -6 -12   16.50    3.10
   1   6  12   20.90    2.90
   1   6  12   20.70    2.70
   1   6  12   24.60    5.50
   1   6  12   26.20    6.00
   2   6  12   20.90    2.80
   2   6  12   17.30    2.60
   2   6  12   12.50    3.90
   2   6  12   18.90    5.10
  -3  -6 -12   41.50    4.40
   3   6  12   40.10    3.80
   3   6  12   38.00    3.80
   3   6  12   39.50    6.40
   3  -7 -12   36.40    2.90
   2  -7 -12    0.90    1.40
   2  -7 -12    2.20    1.50
   2  -7 -12    3.30    1.10
   2  -7 -12    1.50    2.80
   1  -7 -12  176.68   14.40
   1  -7 -12  172.58   15.60
   1  -7 -12  163.28   14.40
   1  -7 -12  201.78   15.00
   1  -7 -12  216.08   17.30
   1  -7 -12  165.68   14.60
   1  -7 -12  192.88   13.60
   0  -7 -12    1.40    1.30
   0  -7 -12    2.20    1.00
   0  -7 -12    0.30    2.70
   0  -7 -12    1.10    1.40
   0  -7 -12    1.90    2.10
   0  -7 -12   -0.10    2.00
   0  -7 -12    0.60    0.70
   0  -7 -12    1.40    1.30
   0  -7 -12    0.30    1.20
   0  -7 -12    1.70    1.50
   0   7  12    3.10    3.70
   0   7  12    0.20    1.60
   0   7  12    2.00    1.60
   0   7  12    3.50    3.90
  -1  -7 -12  133.29   12.30
  -1  -7 -12  133.79   10.80
  -1  -7 -12  143.49   10.60
  -1  -7 -12  116.29   13.20
  -1  -7 -12  143.69   11.70
  -1  -7 -12  146.09   11.50
   1   7  12  130.79   13.40
   1   7  12  138.09   11.00
   1   7  12  148.69   10.90
   2   7  12    8.00    4.00
   2   7  12   10.80    2.20
   2   7  12    3.70    2.80
   2   7  12    9.30    2.20
  -3  -7 -12   26.80    3.10
   3   7  12   26.30    2.90
   3   7  12   23.00    4.60
   3   7  12   23.30    2.90
   2  -8 -12   10.30    1.40
   2  -8 -12    6.50    1.90
   2  -8 -12    9.10    3.20
   2  -8 -12    5.70    1.70
  -2   8  12    8.50    2.00
   1  -8 -12   43.20    5.20
   1  -8 -12   51.19    4.20
   1  -8 -12   44.60    5.10
   1  -8 -12   47.00    4.90
   1  -8 -12   51.59    7.10
   1  -8 -12   41.10    5.00
   1  -8 -12   42.90    6.10
   1  -8 -12   47.80    5.10
  -1   8  12   48.60    4.80
  -1   8  12   49.30    7.10
   0  -8 -12  121.39    8.90
   0  -8 -12  104.39    8.30
   0  -8 -12  105.89    9.20
   0  -8 -12   96.39   10.80
   0  -8 -12  102.99    9.40
   0  -8 -12   98.39    9.10
   0   8  12  113.09   11.40
   0   8  12  114.49    8.80
   0   8  12  132.99   12.80
  -1  -8 -12   43.10    4.50
  -1  -8 -12   42.40    4.20
  -1  -8 -12   39.50    6.30
  -1  -8 -12   41.70    4.60
   1   8  12   50.79    5.00
   1   8  12   51.19    4.60
   1   8  12   46.40    7.60
   1   8  12   46.50    7.20
   2   8  12   83.79    7.20
   2   8  12   81.39    7.00
   3   8  12    1.60    1.20
   2  -9 -12   30.50    3.30
   2  -9 -12   40.10    4.70
   2  -9 -12   37.20    2.90
   2  -9 -12   30.70    3.30
   1  -9 -12   10.70    2.10
   1  -9 -12   12.40    3.00
   1  -9 -12    8.00    2.10
   1  -9 -12    8.80    1.40
   1  -9 -12   13.50    3.60
   1  -9 -12    9.90    2.20
   1  -9 -12    9.00    2.30
  -1   9  12    9.10    2.10
   0  -9 -12   34.40    5.40
   0  -9 -12   37.50    3.90
   0  -9 -12   38.00    3.40
   0  -9 -12   33.70    4.40
   0  -9 -12   37.00    4.10
   0   9  12   33.40    6.10
   0   9  12   39.80    6.70
   0   9  12   37.30    4.00
   0   9  12   37.80    3.70
  -1  -9 -12    3.00    1.60
  -1  -9 -12    2.30    2.30
  -1  -9 -12    2.00    1.30
   1   9  12    2.60    1.30
   1   9  12    0.90    2.80
   1   9  12    3.90    1.70
  -2  -9 -12   21.00    3.00
   2   9  12   28.50    2.90
   2   9  12   27.40    3.30
   3   9  12   18.60    1.90
   2 -10 -12   29.90    3.00
   2 -10 -12   39.50    2.70
   1 -10 -12    7.40    1.70
   1 -10 -12    5.90    1.90
   1 -10 -12    9.30    2.70
   1 -10 -12    8.40    1.60
   1 -10 -12    8.20    1.10
  -1  10  12    8.90    3.50
  -1  10  12    5.40    1.70
  -1  10  12    8.20    1.60
   0 -10 -12   48.90    4.90
   0 -10 -12   47.00    4.10
   0 -10 -12   45.50    4.30
   0 -10 -12   45.10    5.60
   0  10  12   44.30    4.40
   0  10  12   51.19    6.70
   0  10  12   44.50    4.10
  -1 -10 -12   54.79    4.70
  -1 -10 -12   50.99    5.00
   1  10  12   51.19    4.50
   1  10  12   52.09    4.80
  -2 -10 -12    0.00    1.10
   2  10  12    1.40    1.10
   2  10  12    1.70    1.20
   1 -11 -12   19.90    1.90
   1 -11 -12   17.20    2.00
  -1  11  12   19.90    2.20
   0 -11 -12   10.90    2.10
   0  11  12    8.50    1.70
   0  11  12   12.00    1.70
  -1 -11 -12   18.70    2.30
   1  11  12   16.60    2.10
   1  11  12   17.20    2.20
   2  11  12    1.20    1.00
   1   7 -13    2.50    0.60
   1   7 -13    3.00    0.40
   1   7 -13    3.20    0.50
   1   7 -13    3.30    0.80
   1   7 -13    2.20    1.20
   0   7 -13   81.39    5.60
   0   7 -13   79.39    5.70
   0   7 -13   82.09    5.90
   0   7 -13   64.79    6.30
  -1   7 -13    8.60    0.90
  -1   7 -13    8.50    0.90
  -1   7 -13    6.50    1.10
   2   6 -13   42.40    3.00
   2   6 -13   36.90    3.60
   1   6 -13   16.50    1.50
   1   6 -13   16.70    1.50
   1   6 -13   14.60    1.70
   1   6 -13   14.60    1.70
   1   6 -13   16.00    1.50
   1   6 -13   18.00    1.90
   1   6 -13   13.20    2.50
   1   6 -13   14.60    2.60
   0   6 -13   35.90    3.30
   0   6 -13   39.80    3.00
   0   6 -13   29.30    4.00
   0   6 -13   41.10    3.00
   0   6 -13   36.60    3.10
   0   6 -13   39.20    3.30
  -1   6 -13   27.30    2.60
  -1   6 -13   27.80    2.20
  -1   6 -13   26.70    2.30
  -2   6 -13   11.10    1.10
  -2   6 -13   10.10    1.10
  -2   6 -13   10.90    1.30
   2   5 -13   14.60    1.30
   2   5 -13   13.50    1.60
   2   5 -13   13.50    2.00
   2   5 -13   15.50    1.70
   1   5 -13   30.60    2.60
   1   5 -13   33.40    3.90
   1   5 -13   35.80    3.10
   1   5 -13   33.00    3.20
   1   5 -13   29.30    2.90
   1   5 -13   31.20    3.80
   0   5 -13   -0.10    0.40
   0   5 -13   -0.80    1.40
   0   5 -13    0.40    0.60
   0   5 -13    1.10    1.10
   0   5 -13    0.30    1.50
   0   5 -13    0.20    0.60
   0   5 -13   -0.20    0.70
   0   5 -13    0.10    0.80
  -1   5 -13   34.40    2.80
  -1   5 -13   35.60    3.20
  -1   5 -13   33.30    3.20
  -1   5 -13   33.30    2.80
  -2   5 -13    8.90    1.50
  -2   5 -13    9.00    1.10
  -2   5 -13    8.20    1.10
   2   4 -13    2.10    0.50
   2   4 -13    2.50    0.90
   2   4 -13    2.50    1.00
   2   4 -13    1.60    0.70
   1   4 -13   98.49    8.10
   1   4 -13  108.49    8.30
   1   4 -13  112.39    9.00
   1   4 -13  100.49    7.80
   1   4 -13  108.79    8.50
   0   4 -13   19.40    2.40
   0   4 -13   18.00    3.10
   0   4 -13   18.80    2.30
   0   4 -13   16.60    2.30
   0   4 -13   16.80    1.80
   0   4 -13   18.50    3.20
   0  -4  13   13.90    2.30
  -1   4 -13  134.69    9.20
  -1   4 -13  104.09    9.80
  -1   4 -13  118.89    9.40
   1  -4  13  118.09    9.30
  -2   4 -13   22.60    2.00
  -2   4 -13   23.20    2.10
  -2   4 -13   24.40    2.60
  -3   4 -13    4.20    1.30
   2   3 -13   23.50    2.50
   2   3 -13   21.40    2.30
   2   3 -13   21.90    1.90
   1   3 -13   42.10    4.10
   1   3 -13   50.69    4.50
   1   3 -13   46.20    3.60
   1   3 -13   39.10    4.10
   0   3 -13  168.78   15.10
   0   3 -13  187.08   14.80
   0   3 -13  194.68   14.40
   0   3 -13  216.28   15.60
   0   3 -13  208.28   15.40
   0   3 -13  201.28   14.50
   0   3 -13  195.98   14.00
   0  -3  13  170.48   14.70
  -1   3 -13   -0.20    1.50
  -1   3 -13    0.50    1.10
  -1   3 -13    1.40    1.20
  -1   3 -13    0.30    1.50
   1  -3  13    0.70    1.10
  -2   3 -13  148.19   10.30
  -2   3 -13  132.89   10.50
   2  -3  13  120.09   10.20
  -3   3 -13    3.10    1.20
   2   2 -13  100.49    8.40
   2   2 -13  107.49    7.60
   2   2 -13  104.69    8.00
   1   2 -13   19.20    2.70
   1   2 -13   17.30    3.30
   1   2 -13   19.40    2.00
   1   2 -13   22.90    2.90
   0   2 -13   83.79    9.50
   0   2 -13   89.69    7.20
   0   2 -13   85.99    7.00
   0   2 -13   82.19    8.00
   0   2 -13   90.59    6.60
   0   2 -13   85.69    7.40
   0  -2  13   79.09    7.60
  -1   2 -13   79.49    7.20
  -1   2 -13   82.99    6.50
  -1   2 -13   80.59    7.00
  -1   2 -13   68.59    7.10
   1  -2  13   72.19    6.80
  -2   2 -13    6.70    2.00
  -2   2 -13    5.90    1.80
  -2   2 -13    6.70    1.70
   2  -2  13    4.50    1.40
  -3   2 -13   58.29    5.10
   2   1 -13   45.80    3.60
   2   1 -13   56.59    6.00
   2   1 -13   41.00    4.20
   1   1 -13  139.49   11.00
   1   1 -13  136.59   10.90
   1   1 -13  141.79   11.30
   1   1 -13  146.99   10.30
   1   1 -13  135.29   12.00
  -1  -1  13  142.59   11.20
   0   1 -13   17.10    2.80
   0   1 -13   17.90    2.00
   0   1 -13   17.60    2.70
   0   1 -13   14.50    2.50
   0   1 -13   23.10    3.00
   0   1 -13   15.00    3.10
   0  -1  13   19.70    3.20
  -1   1 -13  151.58   11.80
  -1   1 -13  158.28   12.70
  -1   1 -13  151.18   12.50
  -1   1 -13  157.38   12.80
  -1   1 -13  160.48   11.60
   1  -1  13  139.99   12.30
  -2   1 -13    5.90    1.70
  -2   1 -13    8.80    2.20
  -2   1 -13    7.40    2.10
   2  -1  13    7.10    1.80
  -3   1 -13   39.60    4.00
  -3   1 -13   45.90    4.40
   2   0 -13    0.40    1.10
   1   0 -13   49.30    5.90
   1   0 -13   64.59    7.00
   1   0 -13   47.00    6.20
   1   0 -13   51.69    4.90
   1   0 -13   53.39    4.20
   1   0 -13   53.29    4.90
   1   0 -13   57.89    5.20
  -1   0  13   54.59    5.30
   0   0 -13   42.80    3.50
   0   0 -13   42.90    4.30
   0   0 -13   48.70    4.70
   0   0 -13   36.00    4.00
   0   0 -13   38.40    5.00
   0   0 -13   30.30    5.50
   0   0  13   40.80    4.60
  -1   0 -13   42.60    4.80
  -1   0 -13   47.90    4.50
  -1   0 -13   36.40    3.80
  -1   0 -13   39.60    4.80
  -1   0 -13   38.60    4.90
  -1   0 -13   48.10    5.00
   1   0  13   39.80    4.80
  -2   0 -13   28.00    3.30
  -2   0 -13   33.10    3.90
  -2   0 -13   30.00    3.90
   2   0  13   29.00    3.60
  -3   0 -13    4.80    1.50
  -3   0 -13    9.50    2.40
   3   0  13    4.70    2.00
   2  -1 -13   73.89    6.50
   1  -1 -13   72.59    5.00
   1  -1 -13   56.99    6.80
   1  -1 -13   64.99    5.80
   1  -1 -13   62.49    6.90
   1  -1 -13   68.39    6.00
   1  -1 -13   65.09    5.80
   0  -1 -13   24.80    2.40
   0  -1 -13   33.40    3.80
   0  -1 -13   23.20    3.00
   0  -1 -13   28.00    3.50
   0  -1 -13   25.50    3.20
   0  -1 -13   23.80    4.10
   0  -1 -13   17.70    4.10
   0   1  13   26.40    3.70
  -1  -1 -13   21.70    2.60
  -1  -1 -13   28.40    3.90
  -1  -1 -13   21.00    3.10
  -1  -1 -13   24.00    3.60
  -1  -1 -13   26.00    3.40
   1   1  13   16.30    3.10
  -2  -1 -13   63.79    5.40
  -2  -1 -13   63.59    6.20
   2   1  13   59.49    7.00
  -3  -1 -13   17.30    2.80
  -3  -1 -13   24.30    3.50
   3   1  13   16.90    3.80
   1  -2 -13   10.50    3.10
   1  -2 -13   17.40    1.60
   1  -2 -13   15.00    2.40
   1  -2 -13   17.20    2.50
   1  -2 -13   12.20    3.00
   1  -2 -13   19.80    2.70
   0  -2 -13  228.08   20.20
   0  -2 -13  251.77   18.80
   0  -2 -13  234.18   19.70
   0  -2 -13  260.67   19.10
   0  -2 -13  262.77   18.10
   0  -2 -13  259.87   18.60
  -1  -2 -13   67.29    6.20
  -1  -2 -13   61.99    5.20
  -1  -2 -13   58.89    5.80
  -1  -2 -13   62.49    6.40
  -1  -2 -13   59.99    6.40
   1   2  13   60.09    7.10
   1   2  13   65.49    6.40
  -2  -2 -13  123.69   10.10
  -2  -2 -13  114.69    9.00
   2   2  13  107.09   10.90
  -3  -2 -13   16.90    2.70
   3   2  13   15.10    3.50
   2  -3 -13   55.29    6.20
   2  -3 -13   64.49    5.60
   2  -3 -13   62.89    5.40
   1  -3 -13   28.90    4.60
   1  -3 -13   32.30    3.80
   1  -3 -13   35.10    2.80
   1  -3 -13   31.10    5.10
   1  -3 -13   30.70    3.60
   1  -3 -13   34.20    3.80
   0  -3 -13   76.39    8.40
   0  -3 -13   80.69    6.80
   0  -3 -13   72.99    7.00
   0  -3 -13   84.19    7.20
   0  -3 -13   77.39    8.60
   0  -3 -13   80.09    8.00
   0  -3 -13   82.69    6.20
   0   3  13   93.49    9.20
  -1  -3 -13  107.99    9.80
  -1  -3 -13  116.29    8.50
  -1  -3 -13  118.19    9.60
  -1  -3 -13  105.79   10.60
  -1  -3 -13  111.59    9.80
  -1  -3 -13  132.19    9.80
  -1  -3 -13   95.79    9.00
  -1  -3 -13   96.89    9.20
   1   3  13  108.19   10.90
   1   3  13  106.19    9.70
  -2  -3 -13    2.50    1.70
  -2  -3 -13    3.60    1.30
   2   3  13    2.80    2.60
  -3  -3 -13   49.40    5.00
   3   3  13   50.39    6.70
   2  -4 -13    5.30    2.30
   2  -4 -13    5.50    1.60
   2  -4 -13    5.50    1.60
   1  -4 -13  446.66   31.70
   1  -4 -13  445.36   30.60
   1  -4 -13  394.36   32.90
   1  -4 -13  440.46   31.50
   1  -4 -13  437.06   31.40
   1  -4 -13  418.16   32.50
   0  -4 -13   20.60    3.90
   0  -4 -13   23.30    2.90
   0  -4 -13   17.70    4.00
   0  -4 -13   24.60    5.10
   0  -4 -13   19.60    3.00
   0  -4 -13   21.40    2.80
   0  -4 -13   18.80    2.10
   0  -4 -13   17.40    3.00
   0   4  13   24.50    5.30
  -1  -4 -13   56.59    4.70
  -1  -4 -13   51.69    7.20
  -1  -4 -13   61.09    5.80
  -1  -4 -13   60.19    6.20
  -1  -4 -13   53.99    7.00
  -1  -4 -13   46.50    5.20
  -1  -4 -13   56.89    5.70
   1   4  13   57.79    7.70
   1   4  13   52.09    5.90
  -2  -4 -13   41.50    4.00
  -2  -4 -13   43.30    5.00
   2   4  13   42.40    6.90
  -3  -4 -13   38.30    4.20
   3   4  13   38.00    3.20
   3   4  13   31.90    5.80
   2  -5 -13   26.30    2.30
   2  -5 -13   23.80    3.10
   2  -5 -13   22.30    4.60
   2  -5 -13   23.60    3.30
   1  -5 -13   28.70    3.50
   1  -5 -13   24.50    2.50
   1  -5 -13   28.30    3.60
   1  -5 -13   25.80    3.50
   1  -5 -13   25.30    5.10
   1  -5 -13   27.00    4.60
   0  -5 -13   99.79   11.20
   0  -5 -13  120.89   10.80
   0  -5 -13  110.19    9.50
   0  -5 -13  120.49   11.00
   0  -5 -13  106.99    9.40
   0  -5 -13  124.79    9.20
   0  -5 -13  113.49    8.60
   0  -5 -13  113.29    9.60
  -1  -5 -13   27.30    5.80
  -1  -5 -13   37.80    4.00
  -1  -5 -13   33.60    4.20
  -1  -5 -13   31.70    4.10
  -1  -5 -13   38.60    3.30
  -1  -5 -13   35.00    4.70
   1   5  13   40.40    7.10
   1   5  13   33.00    5.30
   1   5  13   32.20    3.20
  -2  -5 -13  134.29    9.50
  -2  -5 -13  130.79   10.60
   2   5  13   98.19   10.90
   2   5  13  119.89    9.40
   2   5  13  128.39   12.70
  -3  -5 -13   10.70    2.30
   3   5  13    7.10    3.00
   3   5  13   10.20    1.50
   2  -6 -13   60.19    4.80
   2  -6 -13   63.19    7.50
   2  -6 -13   60.39    5.80
   1  -6 -13    2.70    1.40
   1  -6 -13    4.10    2.90
   1  -6 -13    2.50    1.50
   1  -6 -13    4.60    1.80
   1  -6 -13    2.90    2.20
   1  -6 -13    3.50    1.00
  -1   6  13    2.70    3.10
   0  -6 -13   38.40    4.50
   0  -6 -13   33.40    4.20
   0  -6 -13   40.10    4.50
   0  -6 -13   36.60    3.50
   0  -6 -13   42.00    4.30
   0  -6 -13   39.10    5.80
   0  -6 -13   37.30    4.50
   0  -6 -13   40.70    6.50
   0  -6 -13   41.70    5.70
   0   6  13   41.10    6.40
   0   6  13   46.30    4.00
   0   6  13   57.39    8.10
  -1  -6 -13   32.70    6.50
  -1  -6 -13   44.80    5.10
  -1  -6 -13   46.80    5.70
  -1  -6 -13   47.90    4.60
  -1  -6 -13   46.30    5.00
  -1  -6 -13   53.79    4.30
   1   6  13   48.30    4.40
   1   6  13   47.00    6.60
   1   6  13   58.09    8.30
  -2  -6 -13   37.80    3.70
   2   6  13   41.40    3.80
   2   6  13   30.50    6.00
   2   6  13   39.00    7.10
  -3  -6 -13   26.40    3.30
   3   6  13   30.70    5.20
   3   6  13   34.50    3.00
   2  -7 -13   53.79    6.80
   2  -7 -13   39.00    4.70
   2  -7 -13   48.80    3.80
   1  -7 -13   22.60    3.40
   1  -7 -13   21.60    4.40
   1  -7 -13   22.30    3.50
   1  -7 -13   26.30    2.70
   1  -7 -13   23.20    3.30
   1  -7 -13   29.70    5.90
   1  -7 -13   24.90    3.50
  -1   7  13   36.70    3.80
  -1   7  13   29.40    7.70
   0  -7 -13   48.40    5.30
   0  -7 -13   42.50    6.00
   0  -7 -13   41.70    4.00
   0  -7 -13   45.40    7.20
   0  -7 -13   36.50    4.70
   0  -7 -13   35.40    4.50
   0  -7 -13   48.80    4.80
   0  -7 -13   51.39    5.20
   0   7  13   54.39    4.80
   0   7  13   51.89    7.40
   0   7  13   60.59    4.70
  -1  -7 -13   46.10    4.30
  -1  -7 -13   49.40    5.20
  -1  -7 -13   49.99    4.70
  -1  -7 -13   38.20    7.10
  -1  -7 -13   57.09    5.20
   1   7  13   44.60    6.90
   1   7  13   41.80    4.60
   1   7  13   50.29    4.70
   1   7  13   58.59    8.80
  -2  -7 -13    5.10    1.50
   2   7  13    4.40    3.50
   2   7  13    6.20    1.70
   2   7  13    6.70    1.80
   3   7  13   31.10    3.00
   2  -8 -13    2.60    1.20
   2  -8 -13    3.30    2.60
   2  -8 -13    3.40    1.00
   1  -8 -13   27.80    3.80
   1  -8 -13   30.40    3.90
   1  -8 -13   23.50    3.50
   1  -8 -13   29.10    2.90
   1  -8 -13   28.30    3.60
   1  -8 -13   35.40    5.80
   1  -8 -13   22.70    3.50
  -1   8  13   35.40    3.70
   0  -8 -13   16.80    2.40
   0  -8 -13   14.50    3.00
   0  -8 -13   12.70    2.70
   0  -8 -13   12.30    2.40
   0  -8 -13   10.60    3.80
   0   8  13   19.00    5.40
   0   8  13   15.10    2.70
   0   8  13   20.80    5.50
   0   8  13   17.50    2.60
  -1  -8 -13   71.79    6.60
  -1  -8 -13   78.99    6.70
  -1  -8 -13   63.49    8.10
  -1  -8 -13   72.39    6.20
   1   8  13   80.49    9.50
   1   8  13   85.99    6.90
   1   8  13   89.89    6.80
  -2  -8 -13    9.00    1.90
   2   8  13   13.90    2.30
   2   8  13   13.60    2.20
   2   8  13    7.00    2.90
   3   8  13   10.70    1.60
   2  -9 -13    2.20    0.90
   2  -9 -13    2.30    0.80
   1  -9 -13   67.69    7.60
   1  -9 -13   85.79    6.40
   1  -9 -13   84.79    7.20
   1  -9 -13   90.59    7.10
   1  -9 -13   73.29    7.20
   1  -9 -13   86.69    8.60
  -1   9  13   83.99    6.90
  -1   9  13   88.59    6.80
   0  -9 -13   59.09    5.60
   0  -9 -13   53.29    5.70
   0  -9 -13   63.59    5.50
   0  -9 -13   54.69    7.10
   0   9  13   61.29    5.30
   0   9  13   65.49    5.70
   0   9  13   71.99    8.40
  -1  -9 -13    3.80    1.40
  -1  -9 -13    6.70    2.70
  -1  -9 -13    6.30    1.60
   1   9  13    7.90    1.70
   1   9  13    5.50    3.20
   1   9  13    8.40    2.10
  -2  -9 -13   28.80    3.30
   2   9  13   35.10    3.20
   2   9  13   34.50    3.60
   1 -10 -13    5.00    0.80
   1 -10 -13    3.40    1.20
   1 -10 -13    3.50    2.00
   1 -10 -13    3.60    1.10
  -1  10  13    2.90    2.80
  -1  10  13    3.10    1.30
   0 -10 -13  126.69    9.50
   0 -10 -13  129.19    9.40
   0 -10 -13  126.19    9.90
   0 -10 -13  107.69   10.30
   0  10  13  118.09    9.40
   0  10  13  121.79   11.30
   0  10  13  123.69    9.30
  -1 -10 -13    2.40    1.20
  -1 -10 -13    1.90    1.10
   1  10  13    4.10    1.30
   1  10  13    0.80    2.90
   1  10  13    1.70    1.40
   2  10  13   42.90    3.60
   0  11  13    2.50    1.10
   1  11  13   26.70    2.50
   0   7 -14   16.10    1.80
   1   6 -14    1.90    0.70
   1   6 -14    2.10    0.40
   1   6 -14    1.30    1.00
   1   6 -14    1.10    1.10
   0   6 -14   47.40    3.80
   0   6 -14   47.60    3.80
   0   6 -14   42.20    3.70
   0   6 -14   46.60    4.30
  -1   6 -14    8.40    1.30
  -1   6 -14    8.50    0.90
  -1   6 -14    9.00    0.90
   2   5 -14   15.70    1.30
   1   5 -14   22.20    2.30
   1   5 -14   28.30    2.40
   1   5 -14   26.00    2.00
   1   5 -14   21.60    2.20
   1   5 -14   22.10    2.90
   1   5 -14   20.50    2.90
   0   5 -14   29.20    2.70
   0   5 -14   35.80    2.90
   0   5 -14   32.00    3.70
   0   5 -14   29.20    2.90
   0   5 -14   24.80    3.50
  -1   5 -14   49.90    3.80
  -1   5 -14   41.20    3.80
  -2   5 -14   25.30    2.30
   2   4 -14   13.50    1.20
   2   4 -14   13.30    2.00
   1   4 -14   57.49    4.30
   1   4 -14   55.79    4.80
   1   4 -14   58.09    5.40
   1   4 -14   60.59    4.70
   1   4 -14   52.69    4.60
   0   4 -14    7.00    1.50
   0   4 -14    8.40    1.60
   0   4 -14    6.50    1.90
   0   4 -14    6.40    2.10
   0   4 -14    7.30    1.10
   0   4 -14    6.80    1.30
  -1   4 -14   53.59    5.40
  -1   4 -14   64.19    4.90
  -1   4 -14   60.29    5.10
  -2   4 -14    1.20    1.00
   2   3 -14   13.30    1.20
   2   3 -14   13.60    1.70
   2   3 -14   12.90    1.90
   1   3 -14   27.70    3.00
   1   3 -14   29.00    3.00
   1   3 -14   25.30    2.80
   1   3 -14   26.60    2.40
   1   3 -14   27.90    3.50
   0   3 -14   56.19    5.70
   0   3 -14   59.59    4.90
   0   3 -14   64.09    5.70
   0   3 -14   56.29    4.80
   0   3 -14   53.99    4.40
   0   3 -14   56.19    5.10
   0   3 -14   53.99    6.50
   0  -3  14   44.10    4.90
  -1   3 -14    5.50    1.90
  -1   3 -14    9.20    1.80
  -1   3 -14    2.70    1.60
  -1   3 -14    5.40    1.50
   1  -3  14    5.00    1.40
  -2   3 -14   73.89    5.50
  -2   3 -14   60.59    5.50
   2   2 -14   23.00    2.30
   2   2 -14   24.40    2.00
   1   2 -14    0.80    1.70
   1   2 -14    0.40    0.60
   1   2 -14    1.20    1.10
   1   2 -14   -0.80    1.00
   0   2 -14  114.89    9.10
   0   2 -14  116.99    8.60
   0   2 -14  110.79    9.00
   0   2 -14  107.19    9.30
   0   2 -14  133.79   10.10
   0   2 -14  123.19    9.90
   0  -2  14  100.09    9.40
  -1   2 -14   14.00    3.00
  -1   2 -14   21.80    3.30
  -1   2 -14   22.60    3.00
  -1   2 -14   22.50    2.60
   1  -2  14   21.00    2.90
  -2   2 -14   48.10    4.80
  -2   2 -14   57.59    4.70
  -3   2 -14   42.60    3.60
   2   1 -14   38.60    2.90
   2   1 -14   36.30    3.40
   1   1 -14   15.90    2.30
   1   1 -14   15.10    1.70
   1   1 -14   13.70    2.30
   1   1 -14   11.20    3.20
   0   1 -14   23.20    2.30
   0   1 -14   27.20    3.10
   0   1 -14   18.40    4.60
   0   1 -14   23.00    2.90
   0   1 -14   27.50    3.50
   0   1 -14   22.10    3.20
   0   1 -14   19.80    3.50
   0  -1  14   21.30    3.30
  -1   1 -14   56.19    5.50
  -1   1 -14   48.20    5.10
  -1   1 -14   47.20    5.40
  -1   1 -14   50.79    4.60
   1  -1  14   47.40    5.10
  -2   1 -14    5.30    1.70
  -2   1 -14    5.40    1.50
  -2   1 -14    3.80    1.60
  -3   1 -14   70.59    5.60
  -3   1 -14   67.49    6.30
   2   0 -14    7.20    0.90
   2   0 -14    4.80    1.30
   1   0 -14   23.90    4.40
   1   0 -14   26.30    2.30
   1   0 -14   23.40    3.10
   1   0 -14   23.70    3.00
  -1   0  14   26.70    3.50
   0   0 -14    0.50    1.20
   0   0 -14   -0.30    1.90
   0   0 -14   -1.80    1.00
   0   0 -14   -0.10    1.00
   0   0 -14    0.00    1.10
   0   0 -14   -0.60    1.30
   0   0 -14   -0.20    0.60
   0   0  14    0.40    1.50
  -1   0 -14   81.59    6.40
  -1   0 -14   77.39    7.50
  -1   0 -14   76.99    7.30
  -1   0 -14   83.89    7.40
   1   0  14   71.19    7.30
  -2   0 -14   47.80    4.20
  -2   0 -14   42.90    4.60
  -2   0 -14   40.50    4.00
   2   0  14   32.70    4.00
  -3   0 -14   15.20    2.30
  -3   0 -14   10.40    1.80
   2  -1 -14    3.60    1.30
   1  -1 -14   60.49    7.00
   1  -1 -14   73.29    5.20
   1  -1 -14   62.89    5.90
   1  -1 -14   67.39    5.90
   1  -1 -14   65.39    6.10
   1  -1 -14   64.99    7.50
  -1   1  14   73.89    6.40
   0  -1 -14   84.99    6.60
   0  -1 -14   63.69    7.10
   0  -1 -14   57.29    7.80
   0  -1 -14   65.99    6.10
   0  -1 -14   72.29    6.60
   0  -1 -14   79.09    6.80
   0  -1 -14   71.99    5.60
   0  -1 -14   67.79    6.40
   0   1  14   73.89    6.90
  -1  -1 -14   61.19    6.00
  -1  -1 -14   44.00    5.60
  -1  -1 -14   60.39    5.80
  -1  -1 -14   50.09    5.10
  -1  -1 -14   50.59    4.60
  -1  -1 -14   61.99    5.70
   1   1  14   46.90    5.50
  -2  -1 -14   30.70    4.10
  -2  -1 -14   34.40    3.40
  -3  -1 -14    0.60    1.10
  -3  -1 -14    4.20    1.50
   3   1  14    1.30    1.50
   2  -2 -14   17.90    2.00
   1  -2 -14   25.60    4.60
   1  -2 -14   29.10    2.40
   1  -2 -14   25.10    3.20
   1  -2 -14   27.70    3.40
   1  -2 -14   21.80    4.10
   1  -2 -14   26.80    3.20
   0  -2 -14  103.59    7.50
   0  -2 -14   83.19    9.70
   0  -2 -14  102.99    8.60
   0  -2 -14   96.49    9.30
   0  -2 -14   97.59    8.10
   0  -2 -14   98.29    8.30
   0   2  14  110.29    8.90
  -1  -2 -14   19.20    3.10
  -1  -2 -14   18.90    3.40
  -1  -2 -14   15.30    2.70
  -1  -2 -14   18.50    2.90
  -1  -2 -14   16.30    2.20
  -1  -2 -14   10.60    2.70
   1   2  14   14.00    3.00
  -2  -2 -14   69.59    6.70
  -2  -2 -14   74.79    5.90
   2   2  14   63.39    7.40
  -3  -2 -14    2.40    1.40
   3   2  14    1.00    1.70
   2  -3 -14   73.19    6.70
   2  -3 -14   84.79    5.90
   1  -3 -14   91.69    7.60
   1  -3 -14   79.69    7.20
   1  -3 -14   75.19    8.20
   1  -3 -14   82.49    7.30
   1  -3 -14   96.89    6.50
   0  -3 -14    9.20    1.40
   0  -3 -14    9.20    2.10
   0  -3 -14    6.70    2.50
   0  -3 -14    9.60    3.20
   0  -3 -14   10.10    1.90
   0  -3 -14   10.90    2.20
   0  -3 -14   11.40    2.10
  -1  -3 -14   56.99    5.40
  -1  -3 -14   51.19    5.60
  -1  -3 -14   56.39    5.40
  -1  -3 -14   39.70    4.80
  -1  -3 -14   46.50    5.60
  -1  -3 -14   50.59    4.30
   1   3  14   43.60    6.30
   1   3  14   49.20    5.60
  -2  -3 -14    7.70    1.60
  -2  -3 -14    8.20    2.30
   2   3  14    6.80    3.00
  -3  -3 -14   45.60    4.60
   3   3  14   44.70    5.60
   2  -4 -14   11.50    1.30
   2  -4 -14    7.70    1.80
   1  -4 -14    2.40    1.40
   1  -4 -14    2.60    1.40
   1  -4 -14    2.80    1.30
   1  -4 -14    2.70    1.90
   1  -4 -14    3.20    0.80
  -1   4  14    4.50    4.40
   0  -4 -14    1.30    1.20
   0  -4 -14    0.50    1.30
   0  -4 -14    1.40    2.00
   0  -4 -14    2.90    2.80
   0  -4 -14    0.60    0.80
   0  -4 -14    0.20    1.20
   0  -4 -14    1.60    1.10
   0  -4 -14   -0.10    1.70
   0   4  14    0.50    2.50
  -1  -4 -14  102.89    8.90
  -1  -4 -14   80.89    8.30
  -1  -4 -14  102.59    9.40
  -1  -4 -14  108.09    7.90
  -1  -4 -14  114.09    9.00
   1   4  14   89.89    9.00
   1   4  14  107.09   10.60
  -2  -4 -14    5.60    1.50
  -2  -4 -14    6.50    2.10
   2   4  14    6.10    3.00
  -3  -4 -14   11.80    2.20
   3   4  14    9.40    2.90
   2  -5 -14    2.10    0.70
   2  -5 -14   -0.40    1.00
   1  -5 -14   26.30    3.40
   1  -5 -14   25.30    5.40
   1  -5 -14   26.70    2.40
   1  -5 -14   23.00    3.40
   1  -5 -14   24.00    4.30
   1  -5 -14   25.50    3.40
   0  -5 -14    1.00    1.20
   0  -5 -14    1.00    1.20
   0  -5 -14    1.30    1.40
   0  -5 -14    0.50    1.80
   0  -5 -14    1.90    2.80
   0  -5 -14   -0.30    1.80
   0  -5 -14    2.50    1.40
   0  -5 -14    0.50    0.80
   0  -5 -14    2.60    1.30
   0   5  14    1.30    3.10
  -1  -5 -14   22.80    3.50
  -1  -5 -14   25.10    3.50
  -1  -5 -14   27.50    6.60
  -1  -5 -14   23.20    5.10
  -1  -5 -14   25.40    2.70
   1   5  14   29.90    5.90
  -2  -5 -14   19.60    3.10
  -2  -5 -14   20.70    2.60
   2   5  14   19.10    2.10
   2   5  14   16.80    4.30
  -3  -5 -14    3.60    1.40
   3   5  14    4.80    0.80
   3   5  14    2.60    2.20
   2  -6 -14    8.60    1.20
   2  -6 -14    6.30    2.90
   1  -6 -14   18.90    2.10
   1  -6 -14   18.00    3.80
   1  -6 -14   17.80    4.40
   1  -6 -14   16.00    3.30
   1  -6 -14   23.70    3.20
   1  -6 -14   16.90    2.90
   1  -6 -14   22.00    3.20
   0  -6 -14   50.99    4.70
   0  -6 -14   45.70    5.00
   0  -6 -14   45.00    7.00
   0  -6 -14   40.40    4.60
   0  -6 -14   43.80    3.90
   0  -6 -14   45.50    4.90
   0  -6 -14   46.50    6.20
   0  -6 -14   41.50    4.80
   0   6  14   53.99    4.20
  -1  -6 -14   13.60    2.70
  -1  -6 -14    7.10    3.30
  -1  -6 -14    9.90    2.40
  -1  -6 -14    7.40    2.10
  -1  -6 -14   11.50    1.80
   1   6  14   14.40    2.00
   1   6  14   14.90    4.90
   1   6  14    8.00    3.20
  -2  -6 -14   93.99    7.30
   2   6  14   87.89    7.10
   3   6  14    2.10    0.70
   2  -7 -14    8.10    3.00
   2  -7 -14    4.30    1.70
   2  -7 -14    7.70    1.10
   1  -7 -14    3.40    1.50
   1  -7 -14    5.40    1.80
   1  -7 -14    3.60    1.50
   1  -7 -14    4.70    3.10
   1  -7 -14    4.00    1.70
   1  -7 -14    5.10    1.20
  -1   7  14    4.70    1.50
   0  -7 -14   57.79    5.50
   0  -7 -14   40.30    4.60
   0  -7 -14   46.50    4.10
   0  -7 -14   46.40    6.00
   0  -7 -14   57.29    5.00
   0  -7 -14   55.39    7.30
   0  -7 -14   39.80    4.80
  -1  -7 -14   11.10    2.20
  -1  -7 -14   10.90    2.10
  -1  -7 -14    7.70    3.60
  -1  -7 -14   12.00    2.50
  -1  -7 -14   10.80    1.80
   1   7  14   11.30    2.00
   1   7  14   10.00    4.20
  -2  -7 -14    0.90    1.10
   2   7  14    1.70    1.20
   2   7  14    1.80    2.70
   3   7  14   37.60    3.10
   2  -8 -14   17.30    2.20
   2  -8 -14   21.10    2.00
  -2   8  14   19.50    2.30
   1  -8 -14   31.90    3.10
   1  -8 -14   33.80    3.80
   1  -8 -14   34.30    5.80
   1  -8 -14   32.50    3.90
   1  -8 -14   25.90    3.60
   1  -8 -14   26.20    3.70
  -1   8  14   46.50    7.70
  -1   8  14   43.20    3.70
  -1   8  14   31.20    4.30
   0  -8 -14   -0.40    0.70
   0  -8 -14    0.20    3.00
   0  -8 -14    0.60    1.40
   0  -8 -14    0.90    1.30
   0  -8 -14    0.20    1.40
   0   8  14    0.70    1.50
   0   8  14    2.20    3.70
   0   8  14    1.40    1.30
  -1  -8 -14   23.10    2.60
  -1  -8 -14   25.00    2.80
  -1  -8 -14   21.70    2.90
   1   8  14   27.60    3.20
   1   8  14   28.10    6.30
   1   8  14   26.10    3.20
  -2  -8 -14    0.20    1.00
   2   8  14    1.00    1.20
   2   8  14   -0.10    2.20
   1  -9 -14   19.40    3.40
   1  -9 -14   24.10    4.20
   1  -9 -14   20.70    2.40
   1  -9 -14   23.90    2.70
   1  -9 -14   23.10    2.80
  -1   9  14   23.50    2.60
  -1   9  14   28.70    5.50
   0  -9 -14   14.50    2.40
   0  -9 -14   14.20    2.20
   0  -9 -14   10.60    2.20
   0  -9 -14   14.80    3.60
   0   9  14   18.00    2.30
   0   9  14   15.50    2.50
   0   9  14   13.40    4.10
  -1  -9 -14   22.70    2.40
  -1  -9 -14   18.50    2.60
   1   9  14   26.30    2.90
   1   9  14   26.20    4.80
   1   9  14   24.90    3.10
   2   9  14   12.20    1.70
   1 -10 -14    6.50    1.20
   1 -10 -14    5.80    0.80
   1 -10 -14    6.20    1.30
  -1  10  14    6.70    1.20
   0 -10 -14    1.80    2.00
   0 -10 -14    2.00    0.80
   0 -10 -14    1.70    1.40
   0  10  14    0.00    2.40
   0  10  14    1.90    1.20
   1  10  14    9.00    1.50
   0  11  14   17.80    2.20
   1   5 -15    1.60    1.60
   1   5 -15    1.70    1.00
   1   5 -15    1.00    0.70
   1   5 -15    0.70    0.30
   0   5 -15   33.80    3.40
   0   5 -15   35.10    2.80
   0   5 -15   29.50    2.80
  -1   5 -15   22.20    2.10
   1   4 -15   12.40    2.10
   1   4 -15   12.00    1.40
   1   4 -15   12.80    1.60
   1   4 -15   12.00    1.50
   1   4 -15   12.00    1.20
   1   4 -15   11.10    2.00
   0   4 -15    2.20    0.80
   0   4 -15    3.50    1.60
   0   4 -15    3.90    0.60
   0   4 -15    4.60    1.60
   0   4 -15    3.60    1.00
   0   4 -15    6.10    1.20
  -1   4 -15   40.00    3.70
  -1   4 -15   46.50    3.70
  -2   4 -15    3.00    0.90
   2   3 -15    0.30    0.30
   1   3 -15   79.89    6.50
   1   3 -15   85.29    6.80
   1   3 -15   83.69    6.20
   1   3 -15   88.89    7.10
   0   3 -15    1.20    1.00
   0   3 -15    0.80    1.30
   0   3 -15    0.10    0.70
   0   3 -15    0.10    1.30
   0   3 -15    0.10    0.50
   0   3 -15    0.80    1.00
  -1   3 -15   16.70    2.10
  -1   3 -15   20.10    2.20
  -1   3 -15   13.70    2.50
  -2   3 -15   22.90    2.20
  -2   3 -15   19.30    2.40
   2   2 -15    2.60    0.40
   1   2 -15    8.50    2.10
   1   2 -15    5.00    1.20
   1   2 -15    8.10    1.60
   1   2 -15    5.70    0.90
   0   2 -15   86.99    7.50
   0   2 -15   81.99    6.70
   0   2 -15   86.39    6.40
   0   2 -15   97.09    7.50
   0   2 -15   80.99    7.00
   0  -2  15   69.59    6.90
  -1   2 -15   14.50    2.60
  -1   2 -15   17.30    2.50
  -1   2 -15   21.90    2.40
  -1   2 -15   19.90    2.90
   1  -2  15   18.70    2.40
  -2   2 -15   40.60    3.40
  -2   2 -15   34.50    3.40
   2   1 -15    7.90    0.90
   1   1 -15    0.20    0.90
   1   1 -15    0.90    0.90
   1   1 -15    0.40    0.60
   0   1 -15   46.80    3.90
   0   1 -15   44.40    4.30
   0   1 -15   56.09    5.30
   0   1 -15   48.20    4.70
   0   1 -15   42.70    6.30
   0   1 -15   49.20    4.90
   0  -1  15   38.10    4.70
  -1   1 -15   22.60    3.20
  -1   1 -15   16.90    3.00
  -1   1 -15   20.00    2.80
   1  -1  15   17.30    2.80
  -2   1 -15   32.40    3.00
  -2   1 -15   26.00    3.10
   2   0 -15   30.20    3.10
   2   0 -15   35.70    2.60
   1   0 -15   11.30    2.10
   1   0 -15   13.10    2.10
   1   0 -15   14.80    1.60
   1   0 -15   11.90    3.10
  -1   0  15   15.70    2.40
   0   0 -15   16.80    4.30
   0   0 -15   25.30    3.10
   0   0 -15   33.10    3.50
   0   0 -15   28.30    3.40
   0   0 -15   24.30    2.50
   0   0 -15   26.10    3.20
   0   0 -15   30.20    3.60
   0   0  15   22.90    3.60
  -1   0 -15   63.09    6.30
  -1   0 -15   68.59    6.20
  -1   0 -15   60.99    6.00
   1   0  15   59.49    6.00
  -2   0 -15   -0.20    1.20
  -2   0 -15    1.20    1.20
   2  -1 -15   19.50    1.70
   2  -1 -15   18.80    2.70
   1  -1 -15   44.20    4.30
   1  -1 -15   50.29    3.70
   1  -1 -15   41.50    5.40
   1  -1 -15   44.00    4.30
  -1   1  15   45.60    4.70
   0  -1 -15    1.60    1.20
   0  -1 -15    0.10    2.00
   0  -1 -15    1.40    1.30
   0  -1 -15    1.60    1.30
   0  -1 -15    0.60    0.70
   0  -1 -15    1.30    1.20
   0   1  15    0.70    1.60
  -1  -1 -15   48.90    5.00
  -1  -1 -15   43.60    4.90
  -1  -1 -15   49.40    5.20
   1   1  15   35.70    4.90
  -2  -1 -15   10.40    1.80
  -2  -1 -15    9.80    2.10
   2  -2 -15   21.60    1.90
   1  -2 -15   70.29    6.30
   1  -2 -15   70.59    6.30
   1  -2 -15   80.39    5.70
   1  -2 -15   62.79    7.30
   1  -2 -15   75.59    6.60
  -1   2  15   83.39    6.80
   0  -2 -15   15.30    2.50
   0  -2 -15   11.20    1.60
   0  -2 -15    4.80    2.60
   0  -2 -15   10.40    1.90
   0  -2 -15    7.30    1.90
   0  -2 -15    9.40    2.10
   0   2  15    8.40    2.30
  -1  -2 -15   31.00    4.20
  -1  -2 -15   37.30    4.10
  -1  -2 -15   33.90    3.10
  -1  -2 -15   26.00    3.50
  -1  -2 -15   33.20    4.10
   1   2  15   26.40    4.20
  -2  -2 -15   37.40    4.30
  -2  -2 -15   37.40    3.60
   2   2  15   33.90    4.80
  -3  -2 -15    1.20    1.00
   2  -3 -15   10.30    1.20
   1  -3 -15   15.40    2.50
   1  -3 -15   16.40    1.60
   1  -3 -15   10.40    2.80
   1  -3 -15   12.20    2.20
   1  -3 -15   12.70    2.20
   0  -3 -15  383.16   28.90
   0  -3 -15  383.46   29.00
   0  -3 -15  381.06   28.60
   0  -3 -15  394.96   28.10
   0   3  15  425.46   29.40
  -1  -3 -15    1.80    1.40
  -1  -3 -15    0.70    1.50
  -1  -3 -15   -0.10    1.10
  -1  -3 -15    0.00    1.40
  -1  -3 -15    2.10    1.00
   1   3  15    2.10    1.80
   1   3  15    0.00    2.10
  -2  -3 -15   26.90    3.00
  -2  -3 -15   27.00    3.70
   2   3  15   26.40    4.60
  -3  -3 -15   13.80    2.30
   2  -4 -15   17.50    1.60
   1  -4 -15    0.80    1.70
   1  -4 -15    0.70    1.20
   1  -4 -15    1.50    0.70
   1  -4 -15    0.50    1.10
   1  -4 -15    0.80    1.20
   0  -4 -15    8.90    2.00
   0  -4 -15    9.90    3.20
   0  -4 -15    9.80    2.00
   0  -4 -15    4.20    2.30
   0  -4 -15   10.40    2.20
   0  -4 -15    6.80    1.80
   0  -4 -15    4.90    1.70
   0  -4 -15    8.90    1.40
   0   4  15    9.50    2.60
   0   4  15   10.60    3.60
  -1  -4 -15   74.69    7.60
  -1  -4 -15  102.29    8.20
  -1  -4 -15   93.79    8.00
  -1  -4 -15   88.89    6.90
   1   4  15   86.39    9.30
  -2  -4 -15    3.10    1.60
  -2  -4 -15    4.90    1.30
   2   4  15    5.50    2.70
   2  -5 -15   19.20    1.80
   1  -5 -15   21.50    3.10
   1  -5 -15   19.30    2.90
   1  -5 -15   22.00    3.10
   1  -5 -15   23.60    2.20
   1  -5 -15   21.00    4.50
  -1   5  15   28.80    5.30
   0  -5 -15   -0.60    1.70
   0  -5 -15    0.60    2.40
   0  -5 -15    0.20    0.70
   0  -5 -15    0.70    1.20
   0  -5 -15    0.50    1.10
   0  -5 -15   -0.30    1.10
   0  -5 -15    1.10    1.20
   0  -5 -15    1.00    1.30
   0   5  15   -1.30    2.70
  -1  -5 -15   14.40    2.00
  -1  -5 -15   15.00    2.80
  -1  -5 -15   15.10    2.80
   1   5  15   17.00    4.40
  -2  -5 -15    4.40    1.30
   2   5  15    3.90    2.70
   2  -6 -15    1.10    0.60
   1  -6 -15   46.00    6.30
   1  -6 -15   51.99    4.00
   1  -6 -15   45.30    4.70
   1  -6 -15   47.40    4.70
   1  -6 -15   52.79    4.80
   0  -6 -15    4.50    1.70
   0  -6 -15    1.40    1.20
   0  -6 -15    2.40    1.00
   0  -6 -15    3.30    1.60
   0  -6 -15    2.00    2.70
   0  -6 -15    3.40    1.40
   0  -6 -15    2.70    1.30
   0   6  15    5.00    3.70
  -1  -6 -15   26.40    3.50
  -1  -6 -15   27.40    2.80
  -1  -6 -15   30.10    3.60
   1   6  15   31.10    3.00
   1   6  15   35.50    6.30
  -2  -6 -15   26.00    2.80
   2   6  15   26.10    2.40
   2   6  15   25.80    5.10
   2  -7 -15   17.60    1.60
   2  -7 -15   14.00    2.10
   1  -7 -15   12.80    2.20
   1  -7 -15   13.50    2.30
   1  -7 -15   12.10    1.80
   1  -7 -15   14.90    2.30
   1  -7 -15   16.30    3.90
  -1   7  15    9.80    2.50
  -1   7  15   21.00    5.00
   0  -7 -15   39.50    4.40
   0  -7 -15   48.20    4.80
   0  -7 -15   42.70    4.80
   0  -7 -15   52.39    6.70
   0   7  15   45.80    4.00
   0   7  15   50.99    7.50
  -1  -7 -15    4.20    1.50
  -1  -7 -15    2.70    1.10
   1   7  15    4.90    1.30
   1   7  15    4.80    3.30
  -2  -7 -15    8.90    1.50
   2   7  15    6.60    2.90
   2   7  15   10.80    1.50
   1  -8 -15   29.30    3.50
   1  -8 -15   29.60    5.00
   1  -8 -15   34.60    3.50
   1  -8 -15   30.40    2.90
   1  -8 -15   25.60    3.90
  -1   8  15   35.10    3.00
  -1   8  15   43.10    6.30
   0  -8 -15   68.29    6.40
   0  -8 -15   53.39    5.90
   0  -8 -15   61.99    7.90
   0  -8 -15   76.49    6.40
   0   8  15   84.49    9.60
   0   8  15   74.09    5.80
   1   8  15   24.10    2.80
   1   8  15   31.10    5.80
   2   8  15    9.20    1.40
   1  -9 -15    0.40    0.70
   1  -9 -15    1.30    0.90
   1  -9 -15    0.90    0.90
  -1   9  15    1.80    0.90
   0  -9 -15    0.20    0.80
   0  -9 -15    1.00    1.00
   0  -9 -15   -0.30    1.10
   0  -9 -15    0.10    2.00
   0   9  15    0.80    2.70
   0   9  15    0.20    1.10
   1   9  15   53.49    6.80
   1   9  15   76.39    5.40
   0  10  15    2.00    0.90
   1  10  15    1.30    0.90
   1   4 -16    3.60    1.10
   1   4 -16    3.90    0.60
   0   4 -16    3.80    1.10
   0   4 -16    4.20    1.20
   0   4 -16    5.60    1.30
  -1   4 -16   13.20    1.50
   1   3 -16   20.50    2.40
   1   3 -16   17.80    2.30
   1   3 -16   21.10    1.70
   1   3 -16   21.10    2.50
   0   3 -16   13.30    2.20
   0   3 -16   12.60    1.60
   0   3 -16   10.20    2.10
   0   3 -16   11.20    1.20
  -1   3 -16   12.60    2.10
  -1   3 -16   11.50    1.60
  -1   3 -16   13.80    1.60
   1   2 -16   21.50    2.50
   1   2 -16   19.90    2.10
   1   2 -16   19.90    1.70
   1   2 -16   16.50    1.90
   0   2 -16    1.50    0.70
   0   2 -16    1.20    0.90
   0   2 -16    1.30    1.30
   0   2 -16    1.50    1.20
   0   2 -16    1.00    0.60
  -1   2 -16   32.70    3.30
  -1   2 -16   29.50    2.90
  -1   2 -16   30.50    3.10
  -2   2 -16   16.90    1.80
   1   1 -16   24.70    2.00
   1   1 -16   23.10    2.80
   1   1 -16   20.70    2.40
   1   1 -16   23.10    2.50
   0   1 -16   49.99    4.00
   0   1 -16   48.20    4.60
   0   1 -16   54.59    5.10
   0   1 -16   42.40    4.20
   0   1 -16   53.79    4.90
  -1   1 -16    0.10    0.90
  -1   1 -16   -0.30    1.10
  -1   1 -16    0.00    1.10
  -2   1 -16   24.60    2.50
   2   0 -16   46.90    3.40
   1   0 -16   -0.50    0.80
   1   0 -16    0.30    0.50
   0   0 -16   56.89    5.00
   0   0 -16   58.19    4.50
   0   0 -16   63.19    5.50
   0   0 -16   52.29    4.80
   0   0 -16   57.59    5.20
   0   0  16   46.30    5.30
  -1   0 -16   17.00    2.50
  -1   0 -16   13.80    2.60
  -1   0 -16   19.00    2.80
  -2   0 -16   10.20    1.90
   2  -1 -16    0.60    0.40
   1  -1 -16   18.00    1.80
   0  -1 -16    0.00    1.00
   0  -1 -16    0.30    1.00
   0  -1 -16   -0.10    1.00
   0  -1 -16    0.30    1.00
   0  -1 -16    1.60    1.40
   0  -1 -16    0.60    0.70
   0   1  16    1.00    1.40
  -1  -1 -16   38.20    4.10
  -1  -1 -16   33.50    4.00
  -1  -1 -16   32.60    3.80
   1   1  16   31.30    4.10
  -2  -1 -16    2.60    1.30
   2  -2 -16    6.00    0.80
   1  -2 -16   64.69    5.80
   1  -2 -16   73.39    5.30
   0  -2 -16    1.40    1.30
   0  -2 -16    1.20    1.20
   0  -2 -16    0.60    1.00
   0  -2 -16   -0.50    1.00
   0  -2 -16    0.80    0.70
   0   2  16    0.40    1.50
  -1  -2 -16    2.80    1.70
  -1  -2 -16    0.80    1.20
  -1  -2 -16    2.40    1.50
   1   2  16    0.20    1.60
  -2  -2 -16    4.60    1.60
  -2  -2 -16    3.20    1.10
   2  -3 -16    3.10    0.60
   1  -3 -16   10.20    1.30
   1  -3 -16    8.60    1.90
   1  -3 -16   10.60    1.90
   0  -3 -16    7.10    1.20
   0  -3 -16    7.10    1.80
   0  -3 -16   11.70    2.20
   0  -3 -16    7.10    1.80
   0  -3 -16    7.60    1.70
   0   3  16    7.50    2.20
  -1  -3 -16   35.70    4.80
  -1  -3 -16   44.10    4.60
  -1  -3 -16   45.00    4.60
   1   3  16   36.90    5.00
  -2  -3 -16   27.50    2.60
  -2  -3 -16   21.80    3.10
   2   3  16   24.10    3.80
   2  -4 -16   22.70    1.90
   1  -4 -16    0.40    1.00
   1  -4 -16    1.70    0.70
   1  -4 -16    2.00    1.20
   0  -4 -16   17.50    3.10
   0  -4 -16   21.40    2.90
   0  -4 -16   29.50    3.30
   0  -4 -16   19.60    3.00
   0  -4 -16   22.30    2.30
   0  -4 -16   28.30    3.20
   0   4  16   21.90    3.50
  -1  -4 -16    0.90    1.30
  -1  -4 -16    0.60    1.30
   1   4  16   -0.40    2.00
  -2  -4 -16   12.20    2.20
  -2  -4 -16    8.50    1.50
   2   4  16   10.20    2.70
   2  -5 -16    8.10    0.90
   1  -5 -16    6.10    1.70
   1  -5 -16    6.50    1.60
   1  -5 -16    7.40    1.10
   1  -5 -16    7.00    1.50
   0  -5 -16  102.69    7.70
   0  -5 -16   77.19    8.40
   0  -5 -16   95.59    7.60
   0  -5 -16   79.69    6.50
   0  -5 -16   69.49    7.20
   0  -5 -16   78.69    7.00
   0   5  16   97.19    9.10
  -1  -5 -16   37.10    4.00
  -1  -5 -16   38.00    4.00
   1   5  16   33.60    5.50
  -2  -5 -16   -0.50    0.90
   2   5  16   -1.10    1.80
   1  -6 -16   18.50    3.80
   1  -6 -16   19.00    2.40
   1  -6 -16   16.10    1.90
   1  -6 -16   22.30    2.80
  -1   6  16   22.10    4.30
   0  -6 -16    1.10    1.20
   0  -6 -16    0.70    1.10
   0  -6 -16    3.20    1.40
   0  -6 -16    0.60    0.80
   0  -6 -16    3.10    1.40
   0  -6 -16    1.20    2.30
   0   6  16    1.90    2.70
  -1  -6 -16   41.00    4.00
  -1  -6 -16   40.60    4.10
   1   6  16   34.20    5.70
  -2  -6 -16    3.20    1.10
   2   6  16    2.20    2.10
   1  -7 -16   19.90    2.20
   1  -7 -16   23.40    2.70
   1  -7 -16   25.00    2.70
   0  -7 -16   19.40    2.70
   0  -7 -16   15.40    1.90
   0  -7 -16   13.20    3.60
   0  -7 -16   20.80    2.70
   0  -7 -16   15.60    2.30
   0   7  16   23.60    4.80
  -1  -7 -16   -0.30    0.80
   1   7  16    0.00    0.70
   1   7  16   -0.20    2.40
   2   7  16   23.70    2.40
   1  -8 -16    5.10    2.10
   1  -8 -16    3.10    1.10
   1  -8 -16    2.40    0.80
   0  -8 -16   23.20    4.40
   0  -8 -16   31.10    3.40
   0  -8 -16   35.90    3.40
   0   8  16   29.90    5.30
   0   8  16   27.80    2.70
   1   8  16    0.80    2.40
   1   8  16   -0.60    0.70
   0  -9 -16    2.20    1.00
   0   9  16    3.00    1.10
   0   3 -17    7.50    1.30
   1   2 -17   27.70    2.70
   1   2 -17   24.60    2.00
   0   2 -17    0.50    0.90
   0   2 -17    0.50    0.30
   0   2 -17    0.60    1.00
   0   2 -17    0.60    0.70
   1   1 -17   12.50    1.80
   1   1 -17   12.20    1.20
   0   1 -17   17.40    1.70
   0   1 -17   20.80    2.60
   0   1 -17   19.00    2.50
   0   1 -17   18.40    2.10
  -1   1 -17    7.60    1.40
  -1   1 -17    5.10    1.20
   1   0 -17    5.10    1.30
   1   0 -17    7.00    1.00
   0   0 -17   21.30    2.70
   0   0 -17   19.20    2.20
   0   0 -17   18.50    2.30
   0   0 -17   20.20    1.90
   0   0 -17   23.20    2.90
  -1   0 -17    1.30    1.00
  -1   0 -17    0.90    0.90
  -1   0 -17   -0.50    0.70
   1  -1 -17   10.00    1.30
   1  -1 -17   10.10    1.70
   1  -1 -17    8.40    1.50
   0  -1 -17    4.30    1.20
   0  -1 -17    6.90    1.80
   0  -1 -17    5.00    1.40
   0  -1 -17    4.50    0.90
  -1  -1 -17   12.70    1.90
  -1  -1 -17   11.00    2.00
   1  -2 -17    2.60    1.00
   1  -2 -17    3.40    0.70
   1  -2 -17    2.80    1.00
   0  -2 -17    4.70    1.40
   0  -2 -17    4.80    1.50
   0  -2 -17    4.60    1.20
   0  -2 -17    4.30    0.90
  -1  -2 -17   47.90    4.70
  -1  -2 -17   57.99    4.90
  -1  -2 -17   46.10    4.50
   1  -3 -17   21.00    2.40
   1  -3 -17   20.60    1.90
   1  -3 -17   18.40    2.30
   0  -3 -17    3.20    1.30
   0  -3 -17    3.10    1.20
   0  -3 -17    3.60    1.40
   0  -3 -17    2.80    0.80
  -1  -3 -17    5.80    1.60
  -1  -3 -17    8.60    1.90
   1  -4 -17   13.70    2.30
   1  -4 -17   17.30    2.10
   1  -4 -17   16.60    1.70
   0  -4 -17   60.69    5.90
   0  -4 -17   85.69    6.40
   0  -4 -17   68.39    5.50
  -1  -4 -17    5.80    1.50
  -1  -4 -17    8.30    1.80
   1   4  17   14.30    4.10
   1  -5 -17    8.50    1.20
   1  -5 -17    7.50    1.50
   0  -5 -17    1.20    1.00
   0  -5 -17    1.80    0.80
   0  -5 -17    1.60    1.20
   0  -5 -17    0.90    1.00
   0   5  17    1.50    2.50
  -1  -5 -17    7.00    1.80
   1   5  17   10.30    2.60
   1  -6 -17    9.30    1.60
   1  -6 -17   10.00    1.30
   0  -6 -17    0.60    1.10
   0  -6 -17    0.60    1.00
   0  -6 -17   -0.90    0.50
   0  -6 -17   -0.30    1.10
   0   6  17    0.00    2.00
  -1  -6 -17    4.70    1.10
   1   6  17    2.40    2.20
   1  -7 -17    6.60    1.00
   1  -7 -17    8.80    1.40
   0  -7 -17    3.30    1.20
   0  -7 -17    3.30    1.20
   0   1 -18    3.30    1.00
   0   0 -18    7.00    0.90
   0   0 -18    8.20    1.50
   0   0 -18    8.80    1.60
   1  -1 -18    4.60    0.60
   0  -1 -18   14.80    1.50
   0  -1 -18   15.60    2.10
   0  -1 -18   17.40    2.30
   1  -2 -18   -0.30    0.90
   1  -2 -18    0.40    0.40
   0  -2 -18   13.40    2.10
   0  -2 -18   12.50    1.40
   0  -2 -18   15.30    2.30
  -1  -2 -18    1.20    0.80
   1  -3 -18   28.50    2.50
   1  -3 -18   34.60    3.20
   0  -3 -18    3.30    1.30
   0  -3 -18    2.00    1.10
   0  -3 -18    2.00    0.60
  -1  -3 -18   11.10    1.50
   1  -4 -18    4.30    0.70
   0  -4 -18   38.00    3.50
   0  -4 -18   30.80    2.80
   0  -5 -18    0.40    0.40
   0  -5 -18    1.10    0.90
   0  -5 -18    0.70    1.00
   0  -6 -18   12.80    1.80

_computing_structure_solution     'SHELXT 2014/4 (Sheldrick, 2014)'
;
_shelx_hkl_checksum              52103
loop_
_space_group_symop_operation_xyz
'x, y, z'
'-x, -y, -z'
loop_
_atom_site_type_symbol
_atom_site_label
_atom_site_fract_x
_atom_site_fract_y
_atom_site_fract_z
_atom_site_U_iso_or_equiv
_atom_site_adp_type
_atom_site_calc_flag
_atom_site_refinement_flags_adp
_atom_site_refinement_flags_occupancy
_atom_site_refinement_flags_posn
_atom_site_occupancy
_atom_site_disorder_assembly
_atom_site_disorder_group
C C1 1.0134(11) 0.4679(4) 0.1725(3) 0.0328(9) Uani d . . . 1 . .
N N2 0.8083(11) 0.5200(4) 0.2248(3) 0.0372(9) Uani d . . . 1 . .
C C3 0.7303(12) 0.6349(4) 0.2005(3) 0.0371(10) Uani d . . . 1 . .
H H3 0.5821 0.6711 0.2374 0.044 Uiso calc U . R 1 . .
C C4 0.8542(11) 0.7036(4) 0.1245(3) 0.0352(9) Uani d . . . 1 . .
C C5 1.0693(12) 0.6510(4) 0.0701(3) 0.0378(10) Uani d . . . 1 . .
H H5 1.1587 0.6967 0.017 0.045 Uiso calc U . R 1 . .
C C6 1.1511(13) 0.5324(5) 0.0941(3) 0.0388(10) Uani d . . . 1 . .
H H6 1.2989 0.4946 0.0581 0.047 Uiso calc U . R 1 . .
I I7 0.70926(7) 0.88290(2) 0.09023(2) 0.04707(18) Uani d . . . 1 . .
H H8 0.956(13) 0.313(5) 0.250(3) 0.032(13) Uiso d . . D 1 . .
N N8 1.0643(10) 0.3466(4) 0.2032(3) 0.0356(8) Uani d . . D 1 . .
C C9 1.2606(12) 0.2679(5) 0.1656(4) 0.0403(11) Uani d . . . 1 . .
O O10 1.4416(11) 0.2984(4) 0.1018(3) 0.0589(11) Uani d . . . 1 . .
C C11 1.2290(16) 0.1406(5) 0.2113(5) 0.0543(14) Uani d . . . 1 . .
H H11A 1.2998 0.0884 0.1703 0.081 Uiso calc U . R 1 . .
H H11B 1.0041 0.1273 0.2308 0.081 Uiso calc U . R 1 . .
H H11C 1.3626 0.1231 0.2626 0.081 Uiso calc U . R 1 . .
C C12 1.3211(12) 0.2652(4) 0.4814(3) 0.0336(9) Uani d . . . 1 . .
C C13 1.1778(13) 0.3409(4) 0.5348(3) 0.0391(10) Uani d . . . 1 . .
H H13 1.199 0.4242 0.5183 0.047 Uiso calc U . R 1 . .
C C14 1.0061(14) 0.2936(5) 0.6114(4) 0.0482(13) Uani d . . . 1 . .
H H14 0.9065 0.345 0.6473 0.058 Uiso calc U . R 1 . .
C C15 0.9769(17) 0.1723(6) 0.6368(4) 0.0551(14) Uani d . . . 1 . .
H H15 0.86 0.1404 0.6901 0.066 Uiso calc U . R 1 . .
C C16 1.1201(17) 0.0971(5) 0.5837(4) 0.0549(14) Uani d . . . 1 . .
H H16 1.1022 0.0137 0.6008 0.066 Uiso calc U . R 1 . .
C C17 1.2869(15) 0.1440(5) 0.5065(3) 0.0458(12) Uani d . . . 1 . .
H H17 1.3802 0.0927 0.4698 0.055 Uiso calc U . R 1 . .
C C18 1.5061(13) 0.3123(4) 0.3986(3) 0.0359(10) Uani d . . . 1 . .
O O19 1.6505(10) 0.2486(3) 0.3535(2) 0.0452(9) Uani d . . . 1 . .
H H20 1.619(15) 0.453(6) 0.336(3) 0.06(2) Uiso d . . D 1 . .
O O20 1.5010(11) 0.4293(3) 0.3773(2) 0.0496(10) Uani d . . D 1 . .
loop_
_atom_site_aniso_label
_atom_site_aniso_U_11
_atom_site_aniso_U_22
_atom_site_aniso_U_33
_atom_site_aniso_U_12
_atom_site_aniso_U_13
_atom_site_aniso_U_23
C1 0.036(2) 0.028(2) 0.037(2) 0.0051(18) -0.0048(19) -0.0154(17)
N2 0.047(2) 0.029(2) 0.0361(18) 0.0115(16) -0.0006(17) -0.0111(14)
C3 0.040(3) 0.029(2) 0.042(2) 0.0066(18) -0.001(2) -0.0106(17)
C4 0.030(2) 0.030(2) 0.046(2) -0.0010(17) -0.0053(19) -0.0089(18)
C5 0.036(2) 0.037(3) 0.040(2) -0.0018(19) 0.001(2) -0.0103(18)
C6 0.041(3) 0.040(3) 0.040(2) 0.001(2) 0.001(2) -0.0188(19)
I7 0.0399(2) 0.0291(2) 0.0680(3) 0.00458(14) -0.00436(17) -0.00113(15)
N8 0.038(2) 0.030(2) 0.0398(19) 0.0092(16) 0.0037(18) -0.0154(16)
C9 0.038(3) 0.037(3) 0.052(3) 0.009(2) -0.003(2) -0.026(2)
O10 0.063(3) 0.047(2) 0.069(3) 0.0074(19) 0.019(2) -0.0255(19)
C11 0.057(3) 0.034(3) 0.077(4) 0.009(2) 0.002(3) -0.029(3)
C12 0.040(2) 0.027(2) 0.038(2) 0.0099(18) -0.0071(19) -0.0155(17)
C13 0.044(3) 0.032(2) 0.044(2) 0.0101(19) -0.005(2) -0.0194(19)
C14 0.049(3) 0.055(3) 0.045(3) 0.012(2) -0.002(2) -0.024(2)
C15 0.064(4) 0.057(4) 0.044(3) -0.004(3) 0.002(3) -0.011(2)
C16 0.068(4) 0.038(3) 0.058(3) -0.003(3) 0.005(3) -0.011(2)
C17 0.066(4) 0.028(2) 0.045(2) 0.011(2) -0.004(2) -0.0139(19)
C18 0.048(3) 0.024(2) 0.037(2) 0.0095(19) -0.007(2) -0.0118(16)
O19 0.065(2) 0.0281(17) 0.0429(17) 0.0127(16) 0.0061(17) -0.0157(13)
O20 0.077(3) 0.0237(17) 0.0461(19) 0.0088(17) 0.013(2) -0.0105(14)
loop_
_atom_type_symbol
_atom_type_description
_atom_type_scat_dispersion_real
_atom_type_scat_dispersion_imag
_atom_type_scat_source
C C 0.0181 0.0091 'International Tables Vol C Tables 4.2.6.8 and 6.1.1.4'
H H 0.0000 0.0000 'International Tables Vol C Tables 4.2.6.8 and 6.1.1.4'
I I -0.3257 6.8362 'International Tables Vol C Tables 4.2.6.8 and 6.1.1.4'
N N 0.0311 0.0180 'International Tables Vol C Tables 4.2.6.8 and 6.1.1.4'
O O 0.0492 0.0322 'International Tables Vol C Tables 4.2.6.8 and 6.1.1.4'
loop_
_geom_angle_atom_site_label_1
_geom_angle_atom_site_label_2
_geom_angle_atom_site_label_3
_geom_angle_site_symmetry_1
_geom_angle_site_symmetry_3
_geom_angle
_geom_angle_publ_flag
N2 C1 N8 . . 113.4(4) ?
N2 C1 C6 . . 121.5(4) ?
N8 C1 C6 . . 125.1(4) ?
C3 N2 C1 . . 118.9(4) ?
N2 C3 C4 . . 122.9(4) ?
N2 C3 H3 . . 118.6 ?
C4 C3 H3 . . 118.6 ?
C3 C4 C5 . . 118.8(4) ?
C3 C4 I7 . . 120.1(3) ?
C5 C4 I7 . . 121.1(4) ?
C6 C5 C4 . . 119.1(4) ?
C6 C5 H5 . . 120.5 ?
C4 C5 H5 . . 120.5 ?
C5 C6 C1 . . 118.9(4) ?
C5 C6 H6 . . 120.6 ?
C1 C6 H6 . . 120.6 ?
C4 I7 I7 . 2_675 143.23(13) ?
C9 N8 C1 . . 127.9(4) ?
C9 N8 H8 . . 113.(4) ?
C1 N8 H8 . . 119.(4) ?
O10 C9 N8 . . 123.2(5) ?
O10 C9 C11 . . 123.3(4) ?
N8 C9 C11 . . 113.5(5) ?
C9 C11 H11A . . 109.5 ?
C9 C11 H11B . . 109.5 ?
H11A C11 H11B . . 109.5 ?
C9 C11 H11C . . 109.5 ?
H11A C11 H11C . . 109.5 ?
H11B C11 H11C . . 109.5 ?
C17 C12 C13 . . 119.4(5) ?
C17 C12 C18 . . 119.3(4) ?
C13 C12 C18 . . 121.3(4) ?
C14 C13 C12 . . 119.6(5) ?
C14 C13 H13 . . 120.2 ?
C12 C13 H13 . . 120.2 ?
C13 C14 C15 . . 120.8(5) ?
C13 C14 H14 . . 119.6 ?
C15 C14 H14 . . 119.6 ?
C14 C15 C16 . . 119.5(5) ?
C14 C15 H15 . . 120.2 ?
C16 C15 H15 . . 120.2 ?
C17 C16 C15 . . 119.8(5) ?
C17 C16 H16 . . 120.1 ?
C15 C16 H16 . . 120.1 ?
C16 C17 C12 . . 120.9(5) ?
C16 C17 H17 . . 119.6 ?
C12 C17 H17 . . 119.6 ?
O19 C18 O20 . . 122.8(5) ?
O19 C18 C12 . . 122.9(4) ?
O20 C18 C12 . . 114.2(4) ?
C18 O20 H20 . . 113.(5) ?
loop_
_geom_bond_atom_site_label_1
_geom_bond_atom_site_label_2
_geom_bond_site_symmetry_2
_geom_bond_distance
_geom_bond_publ_flag
C1 N2 . 1.340(6) ?
C1 N8 . 1.390(6) ?
C1 C6 . 1.398(7) ?
N2 C3 . 1.327(6) ?
C3 C4 . 1.369(7) ?
C3 H3 . 0.95 ?
C4 C5 . 1.387(7) ?
C4 I7 . 2.088(5) ?
C5 C6 . 1.370(7) ?
C5 H5 . 0.95 ?
C6 H6 . 0.95 ?
I7 I7 2_675 3.8924(15) ?
N8 C9 . 1.376(6) ?
N8 H8 . 0.86(4) ?
C9 O10 . 1.211(7) ?
C9 C11 . 1.504(9) ?
C11 H11A . 0.98 ?
C11 H11B . 0.98 ?
C11 H11C . 0.98 ?
C12 C17 . 1.385(7) ?
C12 C13 . 1.401(6) ?
C12 C18 . 1.477(7) ?
C13 C14 . 1.377(8) ?
C13 H13 . 0.95 ?
C14 C15 . 1.384(9) ?
C14 H14 . 0.95 ?
C15 C16 . 1.395(8) ?
C15 H15 . 0.95 ?
C16 C17 . 1.373(8) ?
C16 H16 . 0.95 ?
C17 H17 . 0.95 ?
C18 O19 . 1.219(6) ?
C18 O20 . 1.320(6) ?
O20 H20 . 0.80(3) ?
loop_
_geom_hbond_atom_site_label_D
_geom_hbond_atom_site_label_H
_geom_hbond_atom_site_label_A
_geom_hbond_site_symmetry_A
_geom_hbond_distance_DH
_geom_hbond_distance_HA
_geom_hbond_distance_DA
_geom_hbond_angle_DHA
_geom_hbond_publ_flag
N8 H8 O19 1_455 0.86(4) 2.04(4) 2.889(6) 173.(6) ?
O20 H20 N2 1_655 0.80(3) 1.88(3) 2.664(6) 167.(8) ?
