#------------------------------------------------------------------------------
#$Date: 2022-04-28 00:56:54 +0300 (Thu, 28 Apr 2022) $
#$Revision: 274721 $
#$URL: file:///home/coder/svn-repositories/cod/cif/7/13/00/7130029.cif $
#------------------------------------------------------------------------------
#
# This file is available in the Crystallography Open Database (COD),
# http://www.crystallography.net/
#
# All data on this site have been placed in the public domain by the
# contributors.
#
data_7130029
loop_
_publ_author_name
'Siqin, Wu'
'Zhou, Bo'
'Fang, Xiaoyu'
'Yan, Dongpeng'
_publ_section_title
;
 Chelation-activated ultralong room-temperature phosphorescence and
 thermo-/excitation-dependent persistent luminescence
;
_journal_name_full               'Chemical Communications'
_journal_paper_doi               10.1039/D2CC01485H
_journal_year                    2022
_chemical_formula_moiety         '0.125(C18 H18 Cd2 Cl4 N2 O10), 0.25(H2 O)'
_chemical_formula_sum            'C2.25 H2.75 Cd0.25 Cl0.5 N0.25 O1.5'
_chemical_formula_weight         103.12
_space_group_crystal_system      triclinic
_space_group_IT_number           2
_space_group_name_Hall           '-P 1'
_space_group_name_H-M_alt        'P -1'
_atom_sites_solution_hydrogens   mixed
_atom_sites_solution_primary     direct
_audit_creation_date             2020-11-24
_audit_creation_method
;
Olex2 1.3
(compiled 2020.07.31 svn.rc2a77460 for OlexSys, GUI svn.r6145)
;
_audit_update_record
;
2021-11-22 deposited with the CCDC.	2022-04-26 downloaded from the CCDC.
;
_cell_angle_alpha                97.5378(13)
_cell_angle_beta                 107.1123(13)
_cell_angle_gamma                114.8620(17)
_cell_formula_units_Z            8
_cell_length_a                   8.13035(13)
_cell_length_b                   9.45773(18)
_cell_length_c                   10.76925(13)
_cell_measurement_reflns_used    6233
_cell_measurement_temperature    300
_cell_measurement_theta_max      76.1710
_cell_measurement_theta_min      4.4620
_cell_volume                     686.37(2)
_computing_cell_refinement       'CrysAlisPro 1.171.40.84a (Rigaku OD, 2020)'
_computing_data_collection       'CrysAlisPro 1.171.40.84a (Rigaku OD, 2020)'
_computing_data_reduction        'CrysAlisPro 1.171.40.84a (Rigaku OD, 2020)'
_computing_molecular_graphics    'Olex2 1.3 (Dolomanov et al., 2009)'
_computing_publication_material  'Olex2 1.3 (Dolomanov et al., 2009)'
_computing_structure_refinement  'XL  (Sheldrick, 2008)'
_computing_structure_solution    'SHELXS  (Sheldrick, 2008)'
_diffrn_ambient_temperature      300
_diffrn_detector                 'Hybrid Pixel Array Detector'
_diffrn_detector_area_resol_mean 10.0000
_diffrn_detector_type            HyPix
_diffrn_measured_fraction_theta_full 0.990
_diffrn_measured_fraction_theta_max 0.948
_diffrn_measurement_details
;
List of Runs (angles in degrees, time in seconds):

  # Type    Start    End  Width  t~exp~   \w     \q     \k     \f   Frames
#--------------------------------------------------------------------------
  1  \w     35.00 119.00   0.50    0.05    --   46.95  38.00  64.00  168
  2  \w    129.00 178.00   0.50    0.05    --  104.75  30.00 150.00   98
  3  \w     93.00 123.00   0.50    0.05    --  104.75  30.00 150.00   60
  4  \w    118.00 157.00   0.50    0.05    --  104.75  38.00  64.00   78
  5  \w    127.00 165.00   0.50    0.05    --  104.75  45.00 -90.00   76
  6  \w     92.00 132.00   0.50    0.05    --  104.75  30.00-180.00   80
  7  \w    138.00 163.00   0.50    0.05    --  104.75  30.00-180.00   50
  8  \w     60.00  86.00   0.50    0.05    --  104.75 -94.00-150.00   52
  9  \w     38.00  68.00   0.50    0.05    --  104.75-125.00 -90.00   60
 10  \w     69.00  95.00   0.50    0.05    --   46.95-125.00 -90.00   52
 11  \w     77.00 106.00   0.50    0.05    --  104.75-125.00 -90.00   58
 12  \w     77.00 107.00   0.50    0.05    --  104.75-125.00  30.00   60
 13  \w     82.00 116.00   0.50    0.05    --  104.75-125.00  60.00   68
 14  \w     37.00  79.00   0.50    0.05    --  104.75-125.00  60.00   84
 15  \w     35.00  60.00   0.50    0.05    --  104.75-125.00  30.00   50
 16  \w     32.00  58.00   0.50    0.05    --  104.75 -94.00  60.00   52
 17  \w     70.00 102.00   0.50    0.05    --  104.75 -94.00  60.00   64
 18  \w     38.00  64.00   0.50    0.05    --  104.75 -94.00 -90.00   52
 19  \w     46.00  73.00   0.50    0.05    --  104.75 -61.00 -30.00   54
 20  \w     33.00  71.00   0.50    0.05    --  104.75 -61.00 -60.00   76
 21  \w     36.00  63.00   0.50    0.05    --  104.75 -61.00  30.00   54
 22  \w     38.00  73.00   0.50    0.05    --  104.75 -61.00  60.00   70
 23  \w     38.00  64.00   0.50    0.05    --  104.75 -61.00 150.00   52
 24  \w    131.00 178.00   0.50    0.05    --  104.75 125.00-120.00   94
 25  \w    -26.00  41.00   0.50    0.05    --   46.95 -38.00 -90.00  134
 26  \w    -23.00  28.00   0.50    0.05    --   46.95 -19.00 120.00  102
 27  \w    103.00 129.00   0.50    0.05    --  104.75 125.00-120.00   52
 28  \w    -78.00 -12.00   0.50    0.05    --  -46.95 125.00-180.00  132
 29  \w   -117.00 -32.00   0.50    0.05    -- -102.00 125.00 -90.00  170
 30  \w    -71.00 -46.00   0.50    0.05    -- -102.00 125.00-180.00   50
 31  \w   -117.00 -77.00   0.50    0.05    -- -102.00 125.00-180.00   80
 32  \w   -103.00 -38.00   0.50    0.05    -- -102.00  77.00-150.00  130
 33  \w    -57.00 -32.00   0.50    0.05    -- -102.00  61.00 -90.00   50
 34  \w    -95.00 -70.00   0.50    0.05    -- -102.00  77.00 -30.00   50
 35  \w    -34.00  25.00   0.50    0.05    --  -46.95  38.00  64.00  118
 36  \w   -120.00 -40.00   0.50    0.05    --  -46.95 -38.00 -90.00  160
 37  \w   -175.00 -96.00   0.50    0.05    -- -102.00 -38.00 -90.00  158
 38  \w   -163.00 -96.00   0.50    0.05    -- -102.00 -45.00  60.00  134
;
_diffrn_measurement_device       'four-circle diffractometer'
_diffrn_measurement_device_type  'CCD Area Detector'
_diffrn_measurement_method       '\w scans'
_diffrn_orient_matrix_type
'CrysAlisPro convention (1999,Acta A55,543-557)'
_diffrn_orient_matrix_UB_11      0.1357034000
_diffrn_orient_matrix_UB_12      0.0072446000
_diffrn_orient_matrix_UB_13      -0.0759549000
_diffrn_orient_matrix_UB_21      0.0653278000
_diffrn_orient_matrix_UB_22      0.1820216000
_diffrn_orient_matrix_UB_23      0.0163413000
_diffrn_orient_matrix_UB_31      0.1693517000
_diffrn_orient_matrix_UB_32      0.0457571000
_diffrn_orient_matrix_UB_33      0.1359637000
_diffrn_radiation_monochromator  mirror
_diffrn_radiation_probe          x-ray
_diffrn_radiation_type           'Cu K\a'
_diffrn_radiation_wavelength     1.54184
_diffrn_reflns_av_R_equivalents  0.0350
_diffrn_reflns_av_unetI/netI     0.0308
_diffrn_reflns_Laue_measured_fraction_full 0.990
_diffrn_reflns_Laue_measured_fraction_max 0.948
_diffrn_reflns_limit_h_max       10
_diffrn_reflns_limit_h_min       -8
_diffrn_reflns_limit_k_max       11
_diffrn_reflns_limit_k_min       -11
_diffrn_reflns_limit_l_max       13
_diffrn_reflns_limit_l_min       -12
_diffrn_reflns_number            7604
_diffrn_reflns_point_group_measured_fraction_full 0.990
_diffrn_reflns_point_group_measured_fraction_max 0.948
_diffrn_reflns_theta_full        67.684
_diffrn_reflns_theta_max         76.375
_diffrn_reflns_theta_min         4.494
_diffrn_source                   'Rotating-anode X-ray tube'
_diffrn_source_type              'Rigaku (Cu) X-ray Source'
_exptl_absorpt_coefficient_mu    16.549
_exptl_absorpt_correction_T_max  1.00000
_exptl_absorpt_correction_T_min  0.64091
_exptl_absorpt_correction_type   gaussian
_exptl_absorpt_process_details
;
CrysAlisPro 1.171.40.84a (Rigaku Oxford Diffraction, 2020)
Empirical absorption correction using spherical harmonics,
implemented in SCALE3 ABSPACK scaling algorithm.
;
_exptl_crystal_colour            'clear light colourless'
_exptl_crystal_colour_lustre     clear
_exptl_crystal_colour_modifier   light
_exptl_crystal_colour_primary    colourless
_exptl_crystal_density_diffrn    1.996
_exptl_crystal_description       block
_exptl_crystal_F_000             404
_exptl_crystal_size_max          0.1
_exptl_crystal_size_mid          0.1
_exptl_crystal_size_min          0.1
_refine_diff_density_max         0.389
_refine_diff_density_min         -0.862
_refine_diff_density_rms         0.090
_refine_ls_extinction_method     none
_refine_ls_goodness_of_fit_ref   1.099
_refine_ls_hydrogen_treatment    constr
_refine_ls_matrix_type           full
_refine_ls_number_parameters     178
_refine_ls_number_reflns         2725
_refine_ls_number_restraints     0
_refine_ls_restrained_S_all      1.099
_refine_ls_R_factor_all          0.0279
_refine_ls_R_factor_gt           0.0270
_refine_ls_shift/su_max          0.037
_refine_ls_shift/su_mean         0.001
_refine_ls_structure_factor_coef Fsqd
_refine_ls_weighting_details
'w=1/[\s^2^(Fo^2^)+(0.0398P)^2^+0.2294P] where P=(Fo^2^+2Fc^2^)/3'
_refine_ls_weighting_scheme      calc
_refine_ls_wR_factor_gt          0.0714
_refine_ls_wR_factor_ref         0.0723
_reflns_Friedel_coverage         0.000
_reflns_number_gt                2618
_reflns_number_total             2725
_reflns_threshold_expression     'I > 2\s(I)'
_iucr_refine_instructions_details
;
TITL exp_2495 in P-1 #2
    exp_2495.res
    created by SHELXL-2016/6 at 21:47:18 on 31-Oct-2020
REM reset to P-1 #2
CELL 1.54184 8.13035 9.457732 10.769248 97.5378 107.1123 114.862
ZERR 8 0.00013 0.000181 0.00013 0.0013 0.0013 0.0017
LATT 1
SFAC C H Cd Cl N O
UNIT 18 22 2 4 2 12

L.S. 4
PLAN  1
CONF
BOND
ACTA
MORE -1
fmap 2
BOND $H
REM <olex2.extras>
REM <HklSrc "%.\\exp_2495.hkl">
REM </olex2.extras>

WGHT    0.039800    0.229400
FVAR       8.09575
CD1   3    0.189206    0.660294    0.668617    11.00000    0.02633    0.02928 =
         0.04512    0.01138    0.00648    0.00748
CL1   4    0.207146    0.757935    0.904510    11.00000    0.03854    0.05257 =
         0.05095    0.01689    0.01581    0.02067
CL2   4    0.177343    0.524142    0.433804    11.00000    0.02926    0.04377 =
         0.05050    0.00853    0.01227    0.00689
O4    6    0.419434    1.158635    0.606551    11.00000    0.04297    0.03214 =
         0.05465    0.02112    0.01677    0.01796
O1    6    0.749470    0.653110    0.872166    11.00000    0.03739    0.04115 =
         0.06590    0.02600    0.01630    0.02242
O2    6    0.426925    0.568533    0.774713    11.00000    0.03416    0.03124 =
         0.06081    0.01835    0.01299    0.01272
O5    6    1.076601    1.204645    0.806416    11.00000    0.03058    0.04275 =
         0.06813    0.02277    0.01585    0.00850
AFIX 147
H5    2    1.156481    1.178182    0.846769    11.00000   -1.50000
AFIX   0
O3    6    0.206420    0.908330    0.601122    11.00000    0.03036    0.03565 =
         0.05471    0.01574    0.00639    0.01281
C6    1    0.740038    1.118527    0.722033    11.00000    0.03517    0.02934 =
         0.04010    0.01247    0.01392    0.01057
AFIX  43
H6    2    0.763097    1.215910    0.701506    11.00000   -1.20000
AFIX   0
N1    5    0.509509    0.856659    0.720837    11.00000    0.02640    0.02587 =
         0.03472    0.00833    0.00691    0.00843
C2    1    0.597758    0.669451    0.807666    11.00000    0.03362    0.03290 =
         0.03840    0.01124    0.01252    0.01750
C4    1    0.854162    0.942912    0.813079    11.00000    0.02789    0.03863 =
         0.04101    0.01337    0.01129    0.01332
AFIX  43
H4    2    0.954544    0.920559    0.854412    11.00000   -1.20000
AFIX   0
C8    1    0.372251    1.015610    0.628923    11.00000    0.03928    0.03141 =
         0.03301    0.01289    0.01136    0.01622
C5    1    0.895908    1.090200    0.782742    11.00000    0.03141    0.03270 =
         0.04001    0.01063    0.01389    0.00960
C7    1    0.551128    0.998889    0.693187    11.00000    0.03324    0.02610 =
         0.03219    0.00899    0.00947    0.01282
C3    1    0.658696    0.830761    0.779846    11.00000    0.03164    0.03087 =
         0.03251    0.01083    0.01066    0.01378

AFIX   6
O6    6    1.352074    1.125047    0.910594    11.00000    0.03952    0.04909 =
         0.07664    0.01600    0.01100    0.01796
H6A   2    1.474193    1.178394    0.960357    11.00000   -1.50000
H6B   2    1.317756    1.028238    0.914982    11.00000   -1.50000
AFIX   0

C9    1    0.260914    1.194897    0.549519    11.00000    0.06309    0.04889 =
         0.05519    0.02329    0.01956    0.03697
AFIX 137
H9A   2    0.160372    1.107449    0.469792    11.00000   -1.50000
H9B   2    0.311507    1.294423    0.525635    11.00000   -1.50000
H9C   2    0.206271    1.206745    0.615502    11.00000   -1.50000
AFIX   0
C1    1    0.713358    0.501471    0.905255    11.00000    0.05763    0.04292 =
         0.07802    0.03099    0.02064    0.02919
AFIX 137
H1A   2    0.624292    0.411131    0.824782    11.00000   -1.50000
H1B   2    0.656616    0.493404    0.972340    11.00000   -1.50000
H1C   2    0.835308    0.499699    0.940502    11.00000   -1.50000
AFIX   0
HKLF 4




REM  exp_2495 in P-1 #2
REM R1 =  0.0270 for    2618 Fo > 4sig(Fo)  and  0.0279 for all    2725 data
REM    178 parameters refined using      0 restraints

END  
     
WGHT      0.0383      0.2577 

REM Highest difference peak  0.389,  deepest hole -0.862,  1-sigma level  0.090
Q1    1   0.2295  0.7648  0.5976  11.00000  0.05    0.39

  REM The information below was added by Olex2.
  REM
  REM R1 = 0.0270 for 2618 Fo > 4sig(Fo) and 0.0279 for all 7604 data
  REM 178 parameters refined using n/a restraints
  REM Highest difference peak 0.39, deepest hole -0.86
  REM Mean Shift 0.001, Max Shift 0.037.

  REM +++ Tabular Listing of Refinement Information +++
  REM R1_all = 0.0279
  REM R1_gt = 0.0270
  REM wR_ref = 0.0723
  REM GOOF = 1.099
  REM Shift_max = 0.037
  REM Shift_mean = 0.001
  REM Reflections_all = 7604
  REM Reflections_gt = 2618
  REM Parameters = 178
  REM Hole = -0.86
  REM Peak = 0.39
  REM Flack = n/a

  
;
_cod_data_source_file            d2cc01485h2.cif
_cod_data_source_block           exp_2495
_cod_original_formula_sum        'C2.25 H2.75 Cd0.25 Cl0.50 N0.25 O1.50'
_cod_database_code               7130029
_shelx_shelxl_version_number     2016/6
_chemical_oxdiff_formula         CNHOCdCl
_shelx_space_group_comment
;
The symmetry employed for this shelxl refinement is uniquely defined
by the following loop, which should always be used as a source of
symmetry information in preference to the above space-group names.
They are only intended as comments.
;
_reflns_odcompleteness_completeness 99.06
_reflns_odcompleteness_iscentric 1
_reflns_odcompleteness_theta     66.97
_olex2_refinement_description
;
1. Fixed Uiso
 At 1.2 times of:
  All C(H) groups
 At 1.5 times of:
  All C(H,H,H) groups, All O(H) groups, All O(H,H) groups
2.a Free rotating group:
 O6(H6a,H6b)
2.b Aromatic/amide H refined with riding coordinates:
 C6(H6), C4(H4)
2.c Idealised Me refined as rotating group:
 C9(H9a,H9b,H9c), C1(H1a,H1b,H1c)
2.d Idealised tetrahedral OH refined as rotating group:
 O5(H5)
;
_olex2_submission_special_instructions 'No special instructions were received'
_oxdiff_exptl_absorpt_empirical_details
;
Empirical correction (ABSPACK) includes:
- Absorption correction using spherical harmonics
- Frame scaling
;
_oxdiff_exptl_absorpt_empirical_full_max 1.445
_oxdiff_exptl_absorpt_empirical_full_min 0.762
loop_
_space_group_symop_operation_xyz
'x, y, z'
'-x, -y, -z'
loop_
_atom_site_label
_atom_site_type_symbol
_atom_site_fract_x
_atom_site_fract_y
_atom_site_fract_z
_atom_site_U_iso_or_equiv
_atom_site_adp_type
_atom_site_occupancy
_atom_site_site_symmetry_order
_atom_site_calc_flag
_atom_site_refinement_flags_posn
_atom_site_refinement_flags_adp
_atom_site_refinement_flags_occupancy
_atom_site_disorder_assembly
_atom_site_disorder_group
Cd1 Cd 0.18921(3) 0.66029(2) 0.66862(2) 0.03774(9) Uani 1 1 d . . . . .
Cl1 Cl 0.20715(11) 0.75794(10) 0.90451(8) 0.04811(18) Uani 1 1 d . . . . .
Cl2 Cl 0.17734(11) 0.52414(10) 0.43380(8) 0.04677(18) Uani 1 1 d . . . . .
O4 O 0.4194(3) 1.1586(3) 0.6066(2) 0.0430(5) Uani 1 1 d . . . . .
O1 O 0.7495(3) 0.6531(3) 0.8722(2) 0.0467(5) Uani 1 1 d . . . . .
O2 O 0.4269(3) 0.5685(3) 0.7747(2) 0.0441(5) Uani 1 1 d . . . . .
O5 O 1.0766(3) 1.2046(3) 0.8064(3) 0.0509(6) Uani 1 1 d . . . . .
H5 H 1.156481 1.178182 0.846769 0.076 Uiso 1 1 calc R U . . .
O3 O 0.2064(3) 0.9083(3) 0.6011(2) 0.0438(5) Uani 1 1 d . . . . .
C6 C 0.7400(4) 1.1185(3) 0.7220(3) 0.0368(6) Uani 1 1 d . . . . .
H6 H 0.763097 1.215910 0.701506 0.044 Uiso 1 1 calc R U . . .
N1 N 0.5095(3) 0.8567(3) 0.7208(2) 0.0320(5) Uani 1 1 d . . . . .
C2 C 0.5978(4) 0.6695(3) 0.8077(3) 0.0347(6) Uani 1 1 d . . . . .
C4 C 0.8542(4) 0.9429(4) 0.8131(3) 0.0373(6) Uani 1 1 d . . . . .
H4 H 0.954544 0.920559 0.854412 0.045 Uiso 1 1 calc R U . . .
C8 C 0.3723(4) 1.0156(3) 0.6289(3) 0.0352(6) Uani 1 1 d . . . . .
C5 C 0.8959(4) 1.0902(4) 0.7827(3) 0.0370(6) Uani 1 1 d . . . . .
C7 C 0.5511(4) 0.9989(3) 0.6932(3) 0.0319(5) Uani 1 1 d . . . . .
C3 C 0.6587(4) 0.8308(3) 0.7798(3) 0.0325(5) Uani 1 1 d . . . . .
O6 O 1.3521(4) 1.1250(3) 0.9106(3) 0.0597(6) Uani 1 1 d G . . . .
H6A H 1.474193 1.178394 0.960357 0.090 Uiso 1 1 d G U . . .
H6B H 1.317756 1.028238 0.914982 0.090 Uiso 1 1 d G U . . .
C9 C 0.2609(6) 1.1949(5) 0.5495(4) 0.0519(8) Uani 1 1 d . . . . .
H9A H 0.160372 1.107449 0.469792 0.078 Uiso 1 1 calc R U . . .
H9B H 0.311507 1.294423 0.525635 0.078 Uiso 1 1 calc R U . . .
H9C H 0.206271 1.206745 0.615502 0.078 Uiso 1 1 calc R U . . .
C1 C 0.7134(6) 0.5015(4) 0.9053(4) 0.0577(9) Uani 1 1 d . . . . .
H1A H 0.624292 0.411131 0.824782 0.086 Uiso 1 1 calc R U . . .
H1B H 0.656616 0.493404 0.972340 0.086 Uiso 1 1 calc R U . . .
H1C H 0.835308 0.499699 0.940502 0.086 Uiso 1 1 calc R U . . .
loop_
_atom_site_aniso_label
_atom_site_aniso_U_11
_atom_site_aniso_U_22
_atom_site_aniso_U_33
_atom_site_aniso_U_23
_atom_site_aniso_U_13
_atom_site_aniso_U_12
Cd1 0.02633(13) 0.02928(13) 0.04512(14) 0.01138(9) 0.00648(9) 0.00748(9)
Cl1 0.0385(4) 0.0526(4) 0.0509(4) 0.0169(3) 0.0158(3) 0.0207(3)
Cl2 0.0293(3) 0.0438(4) 0.0505(4) 0.0085(3) 0.0123(3) 0.0069(3)
O4 0.0430(12) 0.0321(10) 0.0547(12) 0.0211(9) 0.0168(10) 0.0180(9)
O1 0.0374(11) 0.0412(12) 0.0659(14) 0.0260(10) 0.0163(10) 0.0224(10)
O2 0.0342(11) 0.0312(10) 0.0608(13) 0.0184(9) 0.0130(9) 0.0127(9)
O5 0.0306(11) 0.0427(13) 0.0681(15) 0.0228(11) 0.0158(10) 0.0085(10)
O3 0.0304(10) 0.0357(11) 0.0547(12) 0.0157(9) 0.0064(9) 0.0128(9)
C6 0.0352(14) 0.0293(13) 0.0401(14) 0.0125(11) 0.0139(12) 0.0106(12)
N1 0.0264(11) 0.0259(11) 0.0347(11) 0.0083(9) 0.0069(9) 0.0084(9)
C2 0.0336(14) 0.0329(14) 0.0384(14) 0.0112(11) 0.0125(11) 0.0175(12)
C4 0.0279(13) 0.0386(15) 0.0410(14) 0.0134(12) 0.0113(11) 0.0133(12)
C8 0.0393(15) 0.0314(14) 0.0330(13) 0.0129(11) 0.0114(11) 0.0162(12)
C5 0.0314(13) 0.0327(14) 0.0400(14) 0.0106(11) 0.0139(11) 0.0096(12)
C7 0.0332(13) 0.0261(12) 0.0322(12) 0.0090(10) 0.0095(10) 0.0128(11)
C3 0.0316(13) 0.0309(13) 0.0325(12) 0.0108(10) 0.0107(10) 0.0138(11)
O6 0.0395(13) 0.0491(14) 0.0766(17) 0.0160(13) 0.0110(12) 0.0180(11)
C9 0.063(2) 0.0489(19) 0.0552(19) 0.0233(15) 0.0196(16) 0.0370(18)
C1 0.058(2) 0.0429(19) 0.078(2) 0.0310(18) 0.0206(19) 0.0292(17)
loop_
_atom_type_symbol
_atom_type_description
_atom_type_scat_dispersion_real
_atom_type_scat_dispersion_imag
_atom_type_scat_source
C C 0.0181 0.0091 'International Tables Vol C Tables 4.2.6.8 and 6.1.1.4'
H H 0.0000 0.0000 'International Tables Vol C Tables 4.2.6.8 and 6.1.1.4'
Cd Cd 0.1185 4.6533 'International Tables Vol C Tables 4.2.6.8 and 6.1.1.4'
Cl Cl 0.3639 0.7018 'International Tables Vol C Tables 4.2.6.8 and 6.1.1.4'
N N 0.0311 0.0180 'International Tables Vol C Tables 4.2.6.8 and 6.1.1.4'
O O 0.0492 0.0322 'International Tables Vol C Tables 4.2.6.8 and 6.1.1.4'
loop_
_diffrn_refln_index_h
_diffrn_refln_index_k
_diffrn_refln_index_l
_diffrn_refln_intensity_net
_diffrn_refln_intensity_u
_diffrn_refln_scale_group_code
-8 10 -1 10473 637.268 37
-7 -3 6 661.599 192.475 38
-7 -3 7 14724.3 863.913 38
-7 -3 8 1185.1 236.179 38
-7 -3 9 291.069 123.607 38
-7 -2 6 40282.4 1773.96 38
-7 -2 7 27442.5 1406.76 38
-7 -2 8 5784.08 597.154 38
-7 -2 9 12420.5 826.67 38
-7 -1 6 92284.7 3221.53 38
-7 -1 7 2682.33 469.82 38
-7 -1 8 17664.1 1161.98 38
-7 0 3 2116.73 512.26 1
-7 0 4 23353.8 1659.72 1
-7 0 5 114384 4235.17 1
-7 0 6 1923.28 406.251 38
-7 0 7 1145.68 338.292 38
-7 0 8 23793.4 1423.23 38
-7 1 1 77210.9 3273.64 1
-7 1 2 12914.2 1218.43 1
-7 1 3 5797.87 814.809 1
-7 1 5 31640 1905.9 1
-7 1 6 6940.4 851.897 1
-7 2 0 220611 6710.72 1
-7 2 1 8243.17 976.153 1
-7 2 2 94717.6 3782.6 1
-7 2 3 59608 2796.3 1
-7 2 5 16172.9 1305.98 1
-7 2 6 8697.12 932.011 1
-7 3 0 8416.7 970.659 1
-7 3 1 15679.6 1327.47 1
-7 3 5 10387.6 973.07 26
-7 3 5 8825.22 954.887 1
-7 3 6 1855.07 443.765 1
-7 3 6 2202.35 468.046 26
-7 3 11 8259.44 541.367 23
-7 4 5 2577.02 491.613 26
-7 4 6 16134 1313.66 36
-7 4 6 14456.5 1199.82 26
-7 4 11 3451.53 339.544 23
-7 5 -1 9246.18 925.506 36
-7 5 0 41322.3 2133.4 36
-7 5 1 19760.4 1440.45 36
-7 5 2 824.982 326.809 36
-7 5 4 2413.52 528.14 36
-7 5 4 1557.91 379.806 26
-7 5 5 7071.8 818.992 26
-7 5 5 8521.46 976.217 36
-7 6 0 8681.55 951.489 36
-7 6 1 5113.73 752.744 36
-7 6 2 87879.5 3577.13 36
-7 6 3 4006.18 680.666 36
-7 6 4 22035.8 1626.18 36
-7 6 4 21052.2 1411.13 26
-7 9 4 6202.12 574.412 5
-7 10 -2 15878.8 932.255 37
-7 11 -1 1271.72 218.8 37
-7 11 0 8510.82 610.702 37
-7 11 1 2042.54 297.558 37
-6 -5 4 132.397 116.607 38
-6 -5 5 2436 326.556 38
-6 -5 6 19457.6 982.414 38
-6 -5 7 666.517 185.011 38
-6 -5 8 13087.5 726.742 38
-6 -4 3 99.4648 127.085 38
-6 -4 4 6962.32 670.521 38
-6 -4 5 4834.07 576.121 38
-6 -4 6 278.521 192.985 38
-6 -4 7 42764.2 1848.46 38
-6 -4 8 11685.7 840.412 38
-6 -4 9 445.313 187.214 38
-6 -4 10 16364.7 845.781 38
-6 -3 3 31441.7 1613.4 38
-6 -3 4 19291 1267.52 38
-6 -3 5 11857.9 989.31 38
-6 -3 6 73234.7 2868.62 38
-6 -3 7 48799.2 2192.78 38
-6 -3 8 1770.94 394.949 38
-6 -3 9 1244.71 312.797 38
-6 -3 10 31491.5 1445.76 38
-6 -2 2 95287.3 3829.69 1
-6 -2 3 72349.3 3251.93 1
-6 -2 3 74226.1 2838.98 38
-6 -2 4 5466.18 701.364 38
-6 -2 4 6425.09 877.938 1
-6 -2 5 134714 4381.28 38
-6 -2 5 123370 4593.08 1
-6 -2 6 73031 3203.47 1
-6 -2 6 81528.8 3138.01 38
-6 -2 7 2347.38 479.89 38
-6 -2 8 2158.08 458.046 38
-6 -2 9 40754.7 1960.01 38
-6 -2 10 1511.06 351.568 38
-6 -1 1 90855.3 3689.21 1
-6 -1 2 88112.6 3634.59 1
-6 -1 3 136.435 233.861 1
-6 -1 4 28542.6 1616.07 38
-6 -1 4 29779 1871.62 1
-6 -1 5 131028 4416.9 38
-6 -1 5 137914 4752.31 1
-6 -1 6 1973.96 490.409 1
-6 -1 6 2350.1 481.888 38
-6 -1 7 7728.17 891.499 1
-6 -1 7 8079.8 882.031 38
-6 -1 8 12556.1 1097.79 38
-6 -1 9 1335.73 361.733 38
-6 0 0 43161.8 2258.08 1
-6 0 1 243954 7287.54 1
-6 0 2 13487.4 1199.19 1
-6 0 3 22450 1565.8 1
-6 0 5 8427.33 840.765 38
-6 0 5 6647.85 822.602 1
-6 0 6 15290 1231.14 1
-6 0 6 14549.7 1161.83 38
-6 0 7 4589.8 665.532 1
-6 0 7 4644.03 691.884 38
-6 0 8 1695.93 426.891 38
-6 0 9 39414 2056.8 38
-6 0 11 50.437 96.6564 23
-6 1 -1 197819 6023.52 1
-6 1 0 189036 5905.61 1
-6 1 1 2930.82 555.838 1
-6 1 2 35768.2 1975.98 1
-6 1 3 95171.6 3595.65 1
-6 1 5 30253.2 1612.39 38
-6 1 5 33007.2 1834.89 1
-6 1 6 31065.8 1720.17 38
-6 1 6 31028.9 1772.05 1
-6 1 6 32915.9 1835.9 26
-6 1 7 1340.94 349.049 1
-6 1 7 1112.3 390.071 26
-6 1 7 1169.75 364.533 38
-6 1 10 1406.55 328.191 23
-6 1 11 192.811 160.635 23
-6 1 12 9722.62 596.882 23
-6 2 -1 44775.4 2198.89 1
-6 2 0 53640.7 2476.56 1
-6 2 4 84771.9 3045.31 26
-6 2 5 48680.4 2206.29 26
-6 2 5 48355.5 2259.12 1
-6 2 6 805.934 263.794 38
-6 2 6 778.78 286.485 26
-6 2 6 614.534 278.036 1
-6 2 7 22646.4 1393.92 1
-6 2 7 22628.7 1533.23 26
-6 2 8 97161.4 3752.29 26
-6 2 11 14563.8 953.257 23
-6 2 12 1341.16 237.185 23
-6 3 3 72124.2 2611.83 26
-6 3 4 102129 3456.69 26
-6 3 5 2132.24 435.908 26
-6 3 6 11979.8 1050.1 26
-6 3 7 122643 4292.59 26
-6 3 8 5741.98 778.052 26
-6 3 12 3185.24 335.87 23
-6 4 -2 76403.1 2846.57 36
-6 4 3 146452 4414.4 26
-6 4 4 637.794 259.35 26
-6 4 5 27251.9 1573.33 26
-6 4 6 64166.3 2729.48 26
-6 4 6 65112.3 2750.79 36
-6 4 7 23272.8 1547.91 26
-6 5 -2 23570.3 1460.87 36
-6 5 -1 127611 4268.15 36
-6 5 0 2942.03 522.675 36
-6 5 1 40554 2050.74 36
-6 5 2 259354 7211.64 36
-6 5 2 244568 6708.54 26
-6 5 3 31877.5 1641.9 26
-6 5 3 35758.5 1932.12 36
-6 5 4 30006.8 1786.18 36
-6 5 4 26512.3 1529.71 26
-6 5 5 7286.11 800.632 26
-6 5 5 6895.41 846.142 36
-6 5 5 6469.98 692.611 5
-6 5 6 30185.6 1767.3 26
-6 5 6 31346.9 1803.08 36
-6 5 7 823.772 311.372 26
-6 6 -2 107211 3838.21 36
-6 6 -1 2834.45 542.113 36
-6 6 0 15066.9 1233.76 36
-6 6 1 124320 4374.09 36
-6 6 2 26066.3 1454.77 26
-6 6 3 28597.4 1599.67 26
-6 6 3 30026.5 1851.65 36
-6 6 4 8404.78 793.352 5
-6 6 4 9197.98 892.797 26
-6 6 4 9514.13 1028.1 36
-6 6 5 20776.6 1512.17 36
-6 6 5 17943.7 1219.96 5
-6 6 5 17646.5 1299.2 26
-6 6 6 2402.59 487.61 26
-6 6 6 1950.57 426.944 5
-6 7 -2 7354.08 873.404 36
-6 7 -1 28152.2 1780.18 36
-6 7 0 32987.6 1981.22 36
-6 7 1 69715 3094.1 36
-6 7 2 18214.9 1259.58 26
-6 7 2 18263.5 1464.92 36
-6 7 3 38744.2 1849.96 5
-6 7 3 38875 1983.26 26
-6 7 3 41567.4 2305.77 36
-6 7 4 278.417 202.518 26
-6 7 4 347.499 252.74 36
-6 7 4 143.386 163.915 5
-6 7 5 1830 408.546 5
-6 7 6 24153.7 1457.64 5
-6 8 0 53981.5 2691.43 36
-6 8 2 22534.3 1355.37 5
-6 8 3 143.152 182.905 5
-6 8 4 193.306 194.299 5
-6 8 5 20965.6 1325.16 5
-6 8 6 3263.33 499.793 5
-6 8 6 3214.49 395.69 27
-6 9 1 53570 2208.18 5
-6 9 2 32947.7 1663.55 5
-6 9 3 20872.2 1280.77 5
-6 9 4 53410.7 2212.72 5
-6 9 5 7692.01 717.526 5
-6 9 5 7311.82 618.144 27
-6 10 -3 21098.3 1164.71 37
-6 10 0 17418.2 1013.29 5
-6 10 1 5987.98 606.084 5
-6 10 2 19429.2 1133.56 5
-6 10 2 21034.1 1319.59 37
-6 10 3 12568.5 867.133 5
-6 10 4 942.504 239.361 5
-6 10 4 624.252 187.216 27
-6 11 -3 1987.43 261.991 37
-6 11 -2 597.948 192.524 37
-6 11 -1 7784.91 652.736 37
-6 11 0 4985.33 392.352 5
-6 11 1 2370.55 359.503 37
-6 11 1 2051.74 269.816 5
-6 11 2 6966.13 486.744 5
-5 -6 2 14877.7 791.045 4
-5 -6 2 15749.6 801.954 38
-5 -6 3 32798.4 1377.82 38
-5 -6 4 1396.54 281.904 38
-5 -6 5 6509.32 597.046 38
-5 -6 6 17939.4 1012.15 38
-5 -6 7 2948.11 388.135 38
-5 -6 8 35847.5 1422.31 38
-5 -5 1 9551.2 736.943 38
-5 -5 2 18814.2 1151.38 38
-5 -5 3 3966.1 552.444 38
-5 -5 4 30674 1609.09 38
-5 -5 5 13149.3 1010.49 38
-5 -5 6 716.973 287.807 38
-5 -5 7 86813.8 3064.36 38
-5 -5 8 44476.1 1900.47 38
-5 -5 9 233.306 156.528 38
-5 -5 11 8649.78 471.058 9
-5 -4 0 9342.52 782.073 38
-5 -4 1 30988.6 1625.84 38
-5 -4 2 1300.55 364.867 38
-5 -4 3 72907 2915.7 38
-5 -4 4 32704.6 1796.34 38
-5 -4 5 1569.86 405.905 38
-5 -4 6 52101 2365.59 38
-5 -4 7 59209.7 2550.32 38
-5 -4 8 642.81 287.749 38
-5 -4 9 17161.9 1146.95 38
-5 -4 11 11284.7 665.48 9
-5 -3 1 14557.7 1301.31 1
-5 -3 1 15690.4 1158.76 38
-5 -3 2 272483 7527.84 38
-5 -3 2 259910 7971.02 1
-5 -3 3 46988.3 2226.47 38
-5 -3 3 43946.6 2442.13 1
-5 -3 4 4828.23 762.461 1
-5 -3 4 4759.93 669.045 38
-5 -3 5 57617.9 2538.87 38
-5 -3 5 49679.5 2584.14 1
-5 -3 6 145119 4788.87 38
-5 -3 6 140079 4897.23 1
-5 -3 7 4365.47 654.026 38
-5 -3 7 2897.79 497.061 28
-5 -3 7 3901.65 640.38 1
-5 -3 8 22811.8 1490.99 38
-5 -3 9 16432 1210.74 38
-5 -3 10 15955.4 1121.3 38
-5 -3 11 3697.43 421.606 32
-5 -3 12 695.804 145.596 32
-5 -2 0 2879.72 570.006 1
-5 -2 1 152755 5211.65 1
-5 -2 1 153426 4744.63 38
-5 -2 2 109202 4224.43 1
-5 -2 2 119947 3927.4 38
-5 -2 3 607.075 281.497 38
-5 -2 3 1113.42 381.07 1
-5 -2 4 37722.3 1931.96 38
-5 -2 5 102730 3973.45 1
-5 -2 5 117456 3974.42 38
-5 -2 6 61.4716 149.006 1
-5 -2 6 56.6655 153.568 38
-5 -2 7 14723.2 1208.28 1
-5 -2 7 13392 1027.18 28
-5 -2 7 15709.1 1244.82 38
-5 -2 8 8358.83 901.923 38
-5 -2 9 113.905 218.284 38
-5 -2 10 38991.2 1951.44 38
-5 -2 11 12155.2 827.952 32
-5 -2 12 1234.52 216.893 32
-5 -1 -1 10648.2 1021.27 1
-5 -1 0 142208 4781.9 1
-5 -1 1 315700 8789.18 1
-5 -1 2 3525.27 582.776 1
-5 -1 3 9536.49 850.351 38
-5 -1 3 10075.4 974.256 1
-5 -1 4 65050.2 2611.22 38
-5 -1 5 252.401 202.992 38
-5 -1 5 274.997 188.622 1
-5 -1 6 83691.9 3257.71 38
-5 -1 6 85547.2 3259.26 1
-5 -1 7 10868.4 1023.89 38
-5 -1 7 11511.3 1015.34 1
-5 -1 8 -60.3369 219.379 38
-5 -1 9 84101.3 3336.93 38
-5 -1 9 81921.7 2953.29 23
-5 -1 10 33073.3 1635.38 23
-5 -1 11 35.7942 130.144 23
-5 -1 11 34.4894 118.229 32
-5 -1 12 996.292 222.375 23
-5 -1 12 1158.35 223.196 32
-5 0 -1 91719.1 3396.34 1
-5 0 0 319897 8709.77 1
-5 0 1 42078.8 2058 1
-5 0 2 10952.5 965.439 1
-5 0 3 110683 3781.9 1
-5 0 4 724.339 262.143 1
-5 0 4 624.846 242.569 38
-5 0 5 114525 3847.23 38
-5 0 5 118765 3934.77 1
-5 0 6 2214.88 446.907 1
-5 0 6 2062.6 435.527 38
-5 0 7 3450.29 582.783 38
-5 0 7 3560.74 537.295 1
-5 0 8 17725.4 1360.41 38
-5 0 9 62803.3 2816.74 38
-5 0 10 344.655 223.507 23
-5 0 10 588.179 227.939 32
-5 0 11 3681.26 519.906 23
-5 0 11 2759.94 408.991 32
-5 0 12 8461.5 672.131 23
-5 0 13 -31.4511 63.2137 23
-5 1 -1 155485 4814.23 1
-5 1 0 33975.9 1742.17 1
-5 1 3 2673.97 401.407 26
-5 1 4 158489 4737.53 38
-5 1 4 178939 4902.19 26
-5 1 5 153778 4697.6 26
-5 1 5 148630 4611.52 38
-5 1 5 158807 4709.16 1
-5 1 6 3235.62 528.101 26
-5 1 6 3012.74 511.349 38
-5 1 6 3204.21 483.118 1
-5 1 7 26163.2 1613.63 38
-5 1 7 25239.9 1599.41 26
-5 1 7 28154.5 1462.88 1
-5 1 8 161323 5294.71 26
-5 1 10 8719.67 771.909 32
-5 1 11 2876.15 483.347 23
-5 1 12 487.524 193.271 23
-5 1 13 5180.7 384.044 23
-5 2 -2 103641 3509.92 1
-5 2 2 10316.3 702.21 26
-5 2 3 112507 3409.8 26
-5 2 4 409891 10192.2 26
-5 2 5 7164.69 690.522 38
-5 2 5 7089.82 711.376 26
-5 2 6 17712.1 1218.4 26
-5 2 6 16963 1177.25 38
-5 2 7 81580.9 3148.03 26
-5 2 7 76940.7 2735.88 1
-5 2 9 20088.1 1473.88 26
-5 2 12 9689.92 719.223 23
-5 3 1 17854.7 890.03 26
-5 3 2 101542 3043.98 26
-5 3 3 344375 8634.03 26
-5 3 4 17512.6 1061.53 26
-5 3 5 66318.8 2532.1 26
-5 3 6 46172 2109.04 26
-5 3 7 5845.25 728.194 26
-5 3 9 8049.53 898.415 26
-5 3 12 8958.17 636.089 23
-5 4 -2 78474.9 2792.31 36
-5 4 1 50273.6 1800.42 26
-5 4 2 101392 3117.92 26
-5 4 3 60928.8 2237.7 26
-5 4 4 12140.1 852.83 5
-5 4 4 14669 983.391 26
-5 4 5 3028.83 486.515 26
-5 4 5 2818.65 453.394 5
-5 4 6 6015.14 689.683 36
-5 4 6 6510.25 713.92 5
-5 4 6 7496.31 782.519 26
-5 4 8 25385 1614.46 26
-5 5 -3 17590.8 1166.65 36
-5 5 -2 260459 7163.47 36
-5 5 -1 2922.42 480.405 36
-5 5 0 91615.9 3253.5 36
-5 5 1 65347 2605.93 36
-5 5 3 19729.1 1118.12 5
-5 5 3 20204.6 1324.52 36
-5 5 4 58488 2352.73 26
-5 5 4 60010 2311.79 5
-5 5 4 57491.1 2509.93 36
-5 5 5 36027.5 1888.61 36
-5 5 5 34760.3 1736.59 5
-5 5 5 35599.2 1811.12 26
-5 5 6 34803.3 1846.83 26
-5 5 6 33420.3 1778.22 5
-5 5 7 61264.3 2675.59 26
-5 5 7 63567.2 2687.38 5
-5 6 -3 119764 4053.02 36
-5 6 -2 61671.1 2618.25 36
-5 6 -1 69198.8 2820.88 36
-5 6 0 93772.5 3462.21 36
-5 6 1 26954.8 1621.38 36
-5 6 2 21792.1 1250.65 5
-5 6 2 26115.7 1591.32 36
-5 6 3 32199.5 1855.66 36
-5 6 3 32655.9 1623.25 5
-5 6 4 1521.7 367.924 5
-5 6 4 1438.12 412.114 36
-5 6 5 28855.9 1722 36
-5 6 5 26408.7 1556.23 5
-5 6 5 27363.5 1605.16 26
-5 6 6 74610.9 2961.65 5
-5 6 6 71709.3 2604.3 27
-5 6 7 2967.11 543.107 5
-5 7 -3 88118.7 3398.39 36
-5 7 -2 2610.07 518.158 36
-5 7 -1 32075.1 1895.74 36
-5 7 0 2028.62 487.975 36
-5 7 2 49060.4 2500.88 36
-5 7 2 51901.6 2234.68 5
-5 7 3 296.103 246.681 5
-5 7 3 269.028 230.634 36
-5 7 4 20029.3 1505.63 36
-5 7 4 20239.3 1353.23 5
-5 7 5 57826.6 2490.58 5
-5 7 5 51791.5 2416.66 26
-5 7 6 15124.1 1155.69 5
-5 7 6 11756.4 913.829 27
-5 7 7 10219.6 918.298 5
-5 7 7 8646.27 713.084 27
-5 8 -3 2001.67 467.027 36
-5 8 -2 78654.5 3308.94 36
-5 8 -1 83781 3493.23 36
-5 8 0 25682.3 1764.26 36
-5 8 1 182699 6012.04 36
-5 8 2 844.866 307.743 5
-5 8 2 1359.4 425.399 36
-5 8 3 13584.3 1115.53 5
-5 8 3 14838 1329.98 36
-5 8 4 23001.6 1473.01 5
-5 8 5 13873.9 1107.58 5
-5 8 6 2870.72 491.337 5
-5 8 6 2827.33 426.815 27
-5 8 7 4381.33 454.339 27
-5 9 -4 403.213 230.534 37
-5 9 1 949.074 338.782 5
-5 9 2 34027.9 1825.02 5
-5 9 3 18415.4 1273.46 5
-5 9 4 17394 1203.57 5
-5 9 5 1573.99 355.041 5
-5 9 5 1480.74 311.314 27
-5 9 6 8626.29 630.414 27
-5 9 6 7807.17 685.801 5
-5 10 -4 19379.9 1112.88 37
-5 10 -3 1911.16 401.696 37
-5 10 -2 5265.55 671.01 37
-5 10 -1 27079 1628.48 37
-5 10 0 35460.8 1750.2 5
-5 10 1 11328.4 997.453 37
-5 10 1 9221.31 842.48 5
-5 10 2 7705.71 759.813 5
-5 10 2 9337.49 862.847 37
-5 10 3 5824.25 634.181 5
-5 10 4 216.768 163.622 27
-5 10 4 103.365 132.09 5
-5 10 5 6723.91 508.3 27
-5 10 5 6930.01 567.707 5
-5 11 -4 3134.77 325.989 37
-5 11 -3 7702.9 610.9 37
-5 11 -3 5081.94 413.002 5
-5 11 -2 14671.9 935.449 37
-5 11 -2 13420.8 784.965 5
-5 11 -1 17606.3 969.973 5
-5 11 -1 17928.6 1079.95 37
-5 11 0 1587.06 332.83 37
-5 11 0 1508.67 292.241 5
-5 11 1 13506 857.253 37
-5 11 1 11783.1 790.414 5
-5 11 2 1777.45 292.452 5
-5 11 2 2093.73 320.004 27
-5 11 3 597.718 164.108 5
-5 11 3 544.254 156.932 27
-4 -8 5 3702.57 312.94 4
-4 -7 1 108.396 94.7625 38
-4 -7 2 8456.28 636.84 38
-4 -7 2 8078.95 598.608 4
-4 -7 3 18267.6 1023.66 38
-4 -7 3 17942 1034.99 4
-4 -7 4 14577.1 920.115 38
-4 -7 5 28254.5 1349.79 38
-4 -7 6 8520.31 676.232 38
-4 -7 7 2655.88 366.473 4
-4 -7 8 34850.6 1382.43 38
-4 -7 9 10470.2 555.732 9
-4 -7 9 9517.29 563.693 38
-4 -6 -1 14786.3 807.126 38
-4 -6 0 1145.12 268.853 38
-4 -6 1 14586.7 1011.82 38
-4 -6 2 22120.1 1323.08 38
-4 -6 3 18299.2 1214.61 38
-4 -6 4 84683.6 3107.98 38
-4 -6 5 56369.9 2373.12 38
-4 -6 6 1154.81 327.425 38
-4 -6 9 3601.26 452.409 38
-4 -6 10 4460.93 431.246 38
-4 -6 10 4235.85 417.502 9
-4 -6 11 5941.1 397.033 9
-4 -5 -2 29481 1338.64 38
-4 -5 -1 166.049 142.346 38
-4 -5 0 16070.6 1156.15 38
-4 -5 1 30731.4 1711.81 38
-4 -5 2 5618.37 709.959 38
-4 -5 3 103970 4050.9 1
-4 -5 3 104933 3745.64 38
-4 -5 4 35783.4 2120.63 1
-4 -5 4 38180.1 1975.16 38
-4 -5 5 553.054 268.217 38
-4 -5 5 200.565 229.3 1
-4 -5 6 112559 3940.41 38
-4 -5 7 39890 2009.28 38
-4 -5 9 26712 1476.17 38
-4 -5 10 9730.6 772.564 38
-4 -5 11 10703.8 625.938 30
-4 -5 11 9935.08 654.37 9
-4 -5 12 9140.01 476.595 9
-4 -4 0 19543.7 1459.42 1
-4 -4 1 488.502 293.18 1
-4 -4 2 195302 5959.16 38
-4 -4 2 203491 6442.12 1
-4 -4 3 134963 4840.52 1
-4 -4 3 133663 4472.94 38
-4 -4 4 21144.8 1420.71 38
-4 -4 4 19942.3 1534.65 1
-4 -4 5 73220.1 3220.51 1
-4 -4 5 78818 3087.3 38
-4 -4 6 78341.7 3138.12 38
-4 -4 6 79523.1 3279.85 1
-4 -4 7 66190.2 2860.72 1
-4 -4 7 68635.2 2799.27 28
-4 -4 7 69784.8 2885.41 38
-4 -4 10 267.922 195.213 38
-4 -4 11 20277.4 1061.39 9
-4 -4 11 19607.1 980.864 30
-4 -4 12 3210.46 353.201 32
-4 -3 0 64.9537 176.03 1
-4 -3 1 193018 6161.54 1
-4 -3 2 156821 4892.22 38
-4 -3 2 159791 5307.08 1
-4 -3 3 504.459 275.66 1
-4 -3 3 296.493 189.554 38
-4 -3 4 18537.9 1273.13 38
-4 -3 5 60752.2 2738.79 1
-4 -3 5 65294.6 2683.77 38
-4 -3 6 8927.94 935.126 1
-4 -3 6 9028.5 911.05 38
-4 -3 7 57183.1 2565.34 38
-4 -3 7 57515.7 2427.39 28
-4 -3 7 56606.8 2525.09 1
-4 -3 8 20224.3 1408.99 38
-4 -3 8 18587.5 1251.72 28
-4 -3 9 1411.29 329.296 23
-4 -3 10 65922.7 2706.43 38
-4 -3 11 27352.9 1257.15 30
-4 -3 11 31316.9 1410.35 9
-4 -3 12 138.775 130.314 32
-4 -2 -1 1453.9 390.633 1
-4 -2 0 72460.2 2974.7 1
-4 -2 1 166053 5263.58 1
-4 -2 2 2395.36 480.137 1
-4 -2 2 1553.64 343.762 38
-4 -2 3 39187.9 1840.26 38
-4 -2 3 41078.1 2024.55 1
-4 -2 4 57215 2350.55 38
-4 -2 5 1659.5 382.845 1
-4 -2 5 2138.42 429.109 38
-4 -2 6 274991 7543.16 1
-4 -2 6 268763 7568.56 38
-4 -2 7 38758.4 1989.03 38
-4 -2 7 33899.2 1771.41 1
-4 -2 7 36182.8 1746.81 28
-4 -2 8 694.459 297.904 38
-4 -2 8 537.353 224.21 23
-4 -2 8 740.474 253.564 28
-4 -2 9 38402.9 1895.49 23
-4 -2 10 37721.5 1859.76 23
-4 -2 10 36792 1652.84 30
-4 -2 11 1092.18 301.874 32
-4 -2 11 1176.29 306.162 23
-4 -2 11 694.514 224.089 9
-4 -2 12 4005.99 461.4 32
-4 -2 12 3672.47 450.512 23
-4 -2 13 2756.99 288.009 32
-4 -1 -1 15076.1 1109.5 1
-4 -1 0 344993 9104.66 1
-4 -1 1 15062.4 1084.22 1
-4 -1 2 83197.6 2988.24 1
-4 -1 3 10444.9 860.565 1
-4 -1 4 866.851 266.898 38
-4 -1 4 1329.91 315.41 1
-4 -1 5 157615 4857.17 38
-4 -1 5 169612 4871.64 1
-4 -1 6 69686.9 2781.71 38
-4 -1 6 72611.5 2666.75 1
-4 -1 7 106.334 182.318 38
-4 -1 7 257.76 148.095 28
-4 -1 7 282.123 169.278 1
-4 -1 8 59712 2636.2 38
-4 -1 8 57241.4 2221.42 28
-4 -1 9 93061.1 3397.47 23
-4 -1 9 84890.9 3439.94 38
-4 -1 10 1137.03 354.272 23
-4 -1 10 1145.79 290.164 9
-4 -1 11 7241.66 759.007 23
-4 -1 11 7079.74 720.497 32
-4 -1 12 4804.8 523.172 32
-4 -1 12 4294.45 524.639 23
-4 -1 13 915.474 173.203 32
-4 0 -2 83035.4 2915.19 1
-4 0 -1 167142 4922.52 1
-4 0 0 229.511 153.839 1
-4 0 1 235129 6348.84 1
-4 0 2 68616.5 2455.08 1
-4 0 3 19864.3 1067.98 26
-4 0 4 234017 6299.85 1
-4 0 4 237436 6314.01 26
-4 0 5 410765 10450.7 38
-4 0 5 413144 10357.7 1
-4 0 5 426021 10526 26
-4 0 6 1749.27 388.286 26
-4 0 6 1275.96 299.89 1
-4 0 6 1817.77 391.196 38
-4 0 6 1951.09 302.978 28
-4 0 7 33080.6 1506.28 1
-4 0 7 37794.5 1897.9 26
-4 0 7 32445.3 1777.69 38
-4 0 8 53945.3 2492.65 38
-4 0 10 17964.6 1252.76 32
-4 0 11 702.666 250.221 32
-4 0 11 879.422 320.132 23
-4 0 12 1747.45 320.448 32
-4 0 12 2289.48 398.621 23
-4 0 13 12309.8 709.134 23
-4 1 -2 17666 1070.29 1
-4 1 1 291862 7068.27 26
-4 1 2 74227.2 2293.98 26
-4 1 3 167470 4524.79 26
-4 1 4 344619 8607.1 26
-4 1 5 834.497 260.472 26
-4 1 5 529.12 136.121 28
-4 1 6 36410.4 1748.9 26
-4 1 6 37343.9 1559.53 1
-4 1 6 35015.5 1756.5 38
-4 1 7 16451 1205.51 38
-4 1 8 229.531 208.648 26
-4 1 8 44.3642 152.094 32
-4 1 9 54923.3 2372.15 32
-4 1 9 54431.7 2584.56 26
-4 1 10 4372.81 605.348 32
-4 1 11 539.657 230.858 32
-4 1 12 17781.6 1082.41 23
-4 1 12 16399 925.665 32
-4 1 13 8260.02 539.884 23
-4 2 0 382323 8861.37 26
-4 2 1 931.485 176.113 26
-4 2 2 202613 5143.05 26
-4 2 3 419437 10085.1 26
-4 2 4 1081.57 246.604 26
-4 2 5 52290.8 2044.06 26
-4 2 6 25463.6 1406.83 26
-4 2 8 42590 2148.62 26
-4 2 8 43350.2 1945.08 32
-4 2 9 7940.42 900.106 26
-4 2 9 9054.32 858.396 32
-4 2 10 -45.2465 134.325 32
-4 2 11 5744.61 589.707 32
-4 2 12 6818.16 515.838 32
-4 3 -3 1302.74 253.02 36
-4 3 3 4480.42 444.665 26
-4 3 4 52530.5 1946.92 26
-4 3 5 16268.9 1023.91 26
-4 3 6 9196.77 718.281 36
-4 3 6 10194.8 857.391 5
-4 3 7 98766.8 3498.32 26
-4 3 8 33305.4 1841.51 26
-4 3 8 32056 1601.35 32
-4 3 9 798.664 301.871 26
-4 3 9 783.962 264.497 32
-4 3 10 3799.42 502.65 32
-4 3 11 42877.4 1650.26 32
-4 3 12 3230.87 377.681 23
-4 4 -3 150165 4312.94 36
-4 4 -2 285443 7371.51 36
-4 4 -1 57215 2098.48 36
-4 4 3 177913 5004.15 36
-4 4 4 70125 2549.77 36
-4 4 5 10664.8 836.743 26
-4 4 5 10980.2 856.5 5
-4 4 5 9926.25 816.343 36
-4 4 6 30422 1627.93 26
-4 4 6 34168.1 1712.96 5
-4 4 7 86353.6 3239.99 26
-4 4 7 85751.8 3250.63 5
-4 4 8 439.818 231.015 26
-4 5 -3 236362 6454.73 36
-4 5 -2 37093.9 1711.02 36
-4 5 -1 73401.7 2653.32 36
-4 5 0 23128.4 1286.47 36
-4 5 2 179378 5206.29 36
-4 5 3 138752 4152.5 5
-4 5 3 147076 4391.48 36
-4 5 4 730.758 282.862 36
-4 5 4 952.389 268.425 5
-4 5 5 45692.6 2119 36
-4 5 5 58368.8 2307.06 5
-4 5 6 124410 3908.28 27
-4 5 6 125493 4154.51 26
-4 5 6 130796 4253.3 5
-4 5 7 2251.3 403.866 27
-4 5 7 1537.53 382.35 26
-4 5 7 1825.12 431.15 5
-4 5 8 5911.93 617.247 27
-4 6 -4 60108.1 2448.76 36
-4 6 -3 12169 991.721 36
-4 6 -2 42087.6 2018.8 36
-4 6 -1 20044.3 1309.34 36
-4 6 0 1912.02 422.253 36
-4 6 2 197982 5919.33 36
-4 6 3 707.409 288.165 36
-4 6 3 1120.41 296.114 5
-4 6 4 51621 2249.52 5
-4 6 4 52146.8 2395.64 36
-4 6 5 89346.5 3314.94 5
-4 6 6 15966.2 1193.39 26
-4 6 6 16392 1137.09 27
-4 6 6 17183.8 1261.78 5
-4 6 7 20294.6 1397 5
-4 6 7 20071.9 1240.84 27
-4 6 8 6829.39 644.606 27
-4 7 -4 207980 6167.27 36
-4 7 -3 46664.8 2264.07 36
-4 7 -2 200175 6118.14 36
-4 7 -1 4917.46 697.205 36
-4 7 0 17497.4 1332.11 36
-4 7 1 107147 3962.99 36
-4 7 2 2527.69 527.997 36
-4 7 3 17366.4 1371.02 36
-4 7 3 17900.7 1260.82 5
-4 7 4 33976 1852.16 5
-4 7 4 35515.6 1960.16 36
-4 7 5 22349.1 1435.76 26
-4 7 5 22429.8 1473.06 5
-4 7 6 38725.3 1989.31 5
-4 7 6 39501.4 1891.81 27
-4 7 7 2417.38 419.343 27
-4 7 8 3148.47 400.065 24
-4 8 -5 5592.3 657.784 37
-4 8 -4 63383.3 2720.87 36
-4 8 -3 150842 5040.72 36
-4 8 -2 44255.6 2331.09 36
-4 8 -1 81722.5 3417.82 36
-4 8 1 46684.4 2453.88 36
-4 8 2 21116.6 1573.11 36
-4 8 3 27293.2 1745.07 36
-4 8 3 25032.7 1585.97 5
-4 8 4 15111.2 1193.55 5
-4 8 5 6269.39 703.044 27
-4 8 5 4576.75 631.832 5
-4 8 6 9779.41 823.278 27
-4 8 7 733.276 219.662 27
-4 9 -5 1721.88 360.3 37
-4 9 -4 54053.7 2404.87 37
-4 9 -3 17069.4 1317.03 37
-4 9 2 19155.9 1417.46 37
-4 9 2 19589.6 1369.52 5
-4 9 3 317.091 221.984 5
-4 9 4 2899.98 492.583 27
-4 9 4 3114.25 503.882 5
-4 9 5 21748.7 1231.66 27
-4 9 6 126.391 138.12 5
-4 9 6 197.784 137.02 27
-4 10 -5 24959.3 1226.95 37
-4 10 -4 15266.5 1061.43 37
-4 10 -3 22227 1401.28 37
-4 10 -2 29653.6 1698.69 37
-4 10 -1 16997.4 1271.53 37
-4 10 0 8088.38 873.681 37
-4 10 1 28707.1 1612.16 5
-4 10 1 32126 1716.87 37
-4 10 2 1442.69 351.307 5
-4 10 3 2953.63 452.116 27
-4 10 3 3010.3 467.582 5
-4 10 4 21248.4 1109.62 27
-4 10 5 1306.25 228.233 27
-4 10 5 1427.23 247.404 5
-4 11 -4 2777.46 357.925 37
-4 11 -3 28900.6 1365.16 37
-4 11 -2 14433 954.966 37
-4 11 -1 412.463 199.986 5
-4 11 0 16958.8 1017.97 5
-4 11 0 17766.3 1040.69 37
-4 11 1 154.33 144.92 5
-4 11 2 9634.16 663.716 5
-4 11 3 13596 686.261 27
-3 -8 1 5407.65 467.636 38
-3 -8 2 19246 990.473 38
-3 -8 2 17604.2 923.121 4
-3 -8 3 4812.9 504.783 38
-3 -8 3 5071.26 518.027 4
-3 -8 4 19104.4 1089.04 4
-3 -8 5 34356.2 1486.25 38
-3 -8 6 25153.6 1185.28 38
-3 -8 6 22683.7 1153.11 4
-3 -8 7 799.864 206.366 4
-3 -8 7 780.483 209.912 38
-3 -8 8 33368 1117.1 9
-3 -7 -1 11848.6 785.715 38
-3 -7 0 11795 748.439 4
-3 -7 0 13999.5 937.653 38
-3 -7 1 33629.7 1618.37 4
-3 -7 1 31514.6 1605.78 38
-3 -7 2 47738.5 2098.97 38
-3 -7 3 27078.9 1525.44 38
-3 -7 4 86007.9 3140.8 38
-3 -7 6 4343.53 571.463 38
-3 -7 7 35318.4 1677.83 38
-3 -7 8 9292.02 748.737 38
-3 -7 10 6989.46 501.108 9
-3 -7 10 8084.56 545.85 30
-3 -6 -3 5715.7 515.702 38
-3 -6 2 14576 1164.71 38
-3 -6 3 221309 6556.14 38
-3 -6 3 226048 6901.83 1
-3 -6 4 37436.4 2146.63 1
-3 -6 4 40514 2045.12 38
-3 -6 5 5105.23 742.312 1
-3 -6 6 81750 3153.5 38
-3 -6 7 27895.9 1608.93 38
-3 -6 8 25527 1463.92 38
-3 -6 9 20002.5 1200.12 38
-3 -6 10 7797.28 646.583 9
-3 -6 11 6041.08 488.858 9
-3 -6 11 5482.76 457.194 30
-3 -5 0 68411.8 2973.03 1
-3 -5 1 13945.5 1261.71 1
-3 -5 2 232782 7167.28 1
-3 -5 3 85607.6 3244.85 38
-3 -5 3 79433.2 3419.44 1
-3 -5 4 78102.2 3076.17 38
-3 -5 5 2179.88 493.476 1
-3 -5 5 1904.37 454.295 38
-3 -5 6 6543.11 813.177 1
-3 -5 7 19553.5 1363.4 1
-3 -5 7 20136.6 1371.83 28
-3 -5 7 20085.7 1366.98 38
-3 -5 8 28169.3 1464.92 33
-3 -5 8 27766.4 1622.38 38
-3 -5 9 9413.61 872.902 38
-3 -5 10 3984.47 528.165 38
-3 -5 11 48861.2 1822.84 30
-3 -5 12 2666.97 285.32 30
-3 -5 12 3319.65 339.336 9
-3 -5 12 3435.63 363.498 32
-3 -4 -1 60503.1 2645.28 1
-3 -4 0 315.455 229.494 1
-3 -4 1 131816 4637.11 1
-3 -4 2 104078 3928.25 1
-3 -4 3 20827.8 1323.06 38
-3 -4 3 20592 1475.98 1
-3 -4 4 22740.3 1398.98 38
-3 -4 5 56787.8 2425.14 38
-3 -4 5 55301.3 2514.06 1
-3 -4 6 4600.35 644.67 1
-3 -4 7 121249 4130.31 28
-3 -4 7 122317 3957.08 33
-3 -4 7 124822 4122.92 1
-3 -4 7 128940 4258.72 38
-3 -4 8 50270.9 2214.24 33
-3 -4 8 52395.1 2396.81 38
-3 -4 8 52104.8 2309.36 28
-3 -4 9 -52.859 212.473 38
-3 -4 10 43955.2 2030.69 38
-3 -4 11 9537.15 731.651 30
-3 -4 11 8486.8 716.819 9
-3 -4 12 58.2933 106.029 32
-3 -4 12 171.264 125.85 9
-3 -4 12 295.215 117.163 30
-3 -4 13 2217.95 247.53 32
-3 -3 -1 -53.3744 182.966 1
-3 -3 0 59975.3 2617.64 1
-3 -3 1 165351 5185.1 1
-3 -3 2 16629.7 1204.08 1
-3 -3 3 209832 5797.97 38
-3 -3 3 201110 6022.97 1
-3 -3 4 54958.7 2265.89 38
-3 -3 4 58587 2434.4 1
-3 -3 5 44921.9 2015.72 38
-3 -3 5 43183.6 2020.21 1
-3 -3 6 190085 5584.51 1
-3 -3 7 45219.2 1998.29 1
-3 -3 7 42370.8 1973.22 33
-3 -3 7 46156.9 1986.81 23
-3 -3 7 47182.6 2066.62 28
-3 -3 8 239.216 183.484 23
-3 -3 8 328.809 180.149 28
-3 -3 8 379.448 236.965 38
-3 -3 9 60668.8 2561.44 23
-3 -3 9 58932 2438.69 28
-3 -3 9 62453.8 2647.01 38
-3 -3 10 20122.6 1333.44 38
-3 -3 10 18766.4 1291.8 23
-3 -3 10 19522.5 1210.02 30
-3 -3 11 5543.14 643.114 23
-3 -3 11 5548.07 594.071 9
-3 -3 11 5273.69 560.859 30
-3 -3 12 5433.68 557.219 32
-3 -3 13 2396.65 292.241 32
-3 -2 -2 14872.7 1039.02 1
-3 -2 -1 21711.1 1325.37 1
-3 -2 0 4716.63 586.182 1
-3 -2 1 29558.7 1525.85 1
-3 -2 2 163740 4782.41 1
-3 -2 4 787.991 228.045 1
-3 -2 5 477477 11963.9 38
-3 -2 5 490650 11942.8 1
-3 -2 6 191343 5262.72 1
-3 -2 6 179987 5179.36 33
-3 -2 6 185947 5419.13 38
-3 -2 7 1709.87 365.606 23
-3 -2 7 1343.48 295.4 1
-3 -2 7 1218.9 322.428 33
-3 -2 7 1460.72 326.004 28
-3 -2 8 26359.4 1425.75 28
-3 -2 8 27587.4 1624.47 38
-3 -2 8 24464 1493.02 23
-3 -2 9 45867.7 2220.36 38
-3 -2 9 45704.3 2221 23
-3 -2 9 42843 1946.51 28
-3 -2 10 14625.9 1043.16 9
-3 -2 10 14583.3 1180.97 23
-3 -2 10 14056.3 999.047 30
-3 -2 11 5590 570.568 30
-3 -2 11 6236.84 614.512 9
-3 -2 11 6207.68 698.427 32
-3 -2 11 5044.18 659.333 23
-3 -2 12 109.747 140.217 32
-3 -2 12 77.8312 149.159 23
-3 -2 13 1036.33 208.252 32
-3 -1 -2 54310.8 2094.29 1
-3 -1 -1 62319 2293.23 1
-3 -1 0 6269.32 590.156 1
-3 -1 1 383302 9493.37 1
-3 -1 2 322453 8089.37 1
-3 -1 4 340221 8560.85 1
-3 -1 4 351639 8721.63 26
-3 -1 5 161402 4508.94 1
-3 -1 5 165797 4760.05 26
-3 -1 6 6730.11 586.764 28
-3 -1 6 5635.84 640.499 38
-3 -1 6 7850.24 743.832 26
-3 -1 6 7219.83 596.279 1
-3 -1 7 21084.1 1149.92 28
-3 -1 7 19786.6 1021.52 1
-3 -1 8 27671.9 1644.73 38
-3 -1 8 29350.7 1434.89 28
-3 -1 9 37002.4 1712.06 30
-3 -1 9 38498 2011.88 38
-3 -1 10 39781.8 1815.03 9
-3 -1 10 41771.6 2153.26 23
-3 -1 10 39010.6 1752.75 30
-3 -1 11 1236.37 358.268 23
-3 -1 11 1708.41 389.241 32
-3 -1 12 1081.02 290.675 32
-3 -1 12 1599.74 349.154 23
-3 -1 13 10844 656.742 32
-3 -1 13 11861.4 718.7 23
-3 0 -2 113757 3366.72 1
-3 0 -1 88489 2749.93 1
-3 0 2 711.113 174.821 26
-3 0 3 196145 5078.31 26
-3 0 4 213518 5616.68 26
-3 0 4 217209 5526.4 1
-3 0 5 8479.7 693.745 26
-3 0 5 9103.23 589.598 28
-3 0 5 9285.27 620.964 1
-3 0 6 67619.6 2562.92 38
-3 0 6 68903 2234.35 28
-3 0 6 70864.3 2212.98 1
-3 0 7 23888.8 1408.14 26
-3 0 7 24219.7 1154.37 28
-3 0 7 23908.8 1421.98 38
-3 0 8 6338.08 582.441 28
-3 0 8 6832.86 781.522 26
-3 0 9 80684.5 2853.2 9
-3 0 9 94582.5 3352.24 32
-3 0 10 9256.71 913.051 32
-3 0 11 -54.3741 197.746 23
-3 0 11 628.749 255.541 32
-3 0 12 15350.5 978.358 32
-3 0 13 9636.6 576.949 32
-3 1 -3 65129.2 2101.03 1
-3 1 0 681477 15349.8 26
-3 1 1 72911.2 2011.8 26
-3 1 2 38286.8 1293.88 26
-3 1 3 327745 7882.84 26
-3 1 4 121.601 69.5846 28
-3 1 4 557.108 176.179 26
-3 1 5 60346.9 1782.6 28
-3 1 5 58941 2119.83 26
-3 1 6 1035.99 185.04 28
-3 1 6 656.726 158.195 1
-3 1 6 977.437 264.515 38
-3 1 6 1021.91 273.336 26
-3 1 7 3108.45 461.714 32
-3 1 7 3128.06 479.542 26
-3 1 8 130207 4293.98 32
-3 1 8 143259 4494.63 26
-3 1 9 17507.5 1259.59 32
-3 1 9 16508.2 1254.61 26
-3 1 10 4190.03 620.116 32
-3 1 11 2832.41 473.937 32
-3 1 12 10848.2 775.613 32
-3 1 12 13283.5 902.66 23
-3 1 13 464.804 127.653 23
-3 2 -1 389768 8815.24 26
-3 2 3 11929.9 324.91 28
-3 2 3 18477.2 792.172 26
-3 2 4 447882 10706.3 26
-3 2 6 6144.72 629.004 5
-3 2 6 7119.84 648.536 26
-3 2 6 4846.31 407.733 36
-3 2 7 81347.8 2881.03 32
-3 2 7 83755 2990.42 26
-3 2 8 242034 6747.31 32
-3 2 8 237079 6805.39 26
-3 2 9 5763.25 713.884 32
-3 2 9 6672.6 771.574 26
-3 2 10 11563.4 996.28 32
-3 2 11 16782.1 1088.86 32
-3 2 12 24.4269 198.637 32
-3 2 12 517.155 193.918 23
-3 3 -3 11816.4 683.227 36
-3 3 4 79165.2 2476.08 36
-3 3 5 5998.91 562.515 26
-3 3 5 5881 512.072 36
-3 3 6 36322.9 1569.05 32
-3 3 6 34616.3 1638.84 26
-3 3 6 37210.2 1750.56 5
-3 3 7 202079 5775.58 32
-3 3 7 211133 5902.2 26
-3 3 8 4492.2 607.044 32
-3 3 8 4820.86 637.846 26
-3 3 9 68859.1 2691.78 32
-3 3 9 61748.9 2600.09 26
-3 3 10 219.093 281.05 32
-3 3 11 3478.49 463.096 32
-3 4 -4 53376.4 1911.4 36
-3 4 -3 123239 3564.31 36
-3 4 -2 28210.1 1256.27 36
-3 4 -1 508545 12127.8 36
-3 4 0 73089.9 2378.56 36
-3 4 2 300776 7538.25 36
-3 4 3 414428 10118.1 36
-3 4 4 17409.3 1020.25 36
-3 4 5 29682.1 1392.18 36
-3 4 5 30109.5 1486.66 22
-3 4 5 30522.2 1530 5
-3 4 6 69980.8 2698.4 22
-3 4 6 73444.4 2662.68 26
-3 4 6 65071.8 2410.88 32
-3 4 6 70188.6 2527.98 27
-3 4 7 3116.99 484.95 32
-3 4 7 2457.63 433.371 27
-3 4 7 3638.89 547.308 26
-3 4 8 12933 1038.25 26
-3 4 8 11089.2 942.533 32
-3 4 9 566.099 293.95 32
-3 4 9 299.75 163.923 24
-3 4 10 -104.344 242.162 32
-3 4 11 6279.99 482.76 32
-3 5 -4 13052.5 897.919 36
-3 5 -3 50344.1 2001.55 36
-3 5 -2 147626 4316.69 36
-3 5 -1 137134 4068.82 36
-3 5 0 3199.08 430.108 36
-3 5 1 195612 5464.98 36
-3 5 2 390480 9876.87 36
-3 5 3 1402.61 336.812 36
-3 5 4 53406.8 2106.91 22
-3 5 4 55461.6 2220.99 5
-3 5 4 53306.5 2213.82 36
-3 5 5 64275.6 2526.44 22
-3 5 5 63545.1 2539.38 5
-3 5 6 10634.7 954.457 22
-3 5 6 9994.64 811.51 32
-3 5 6 11223.4 932.422 26
-3 5 6 10787.2 900.349 27
-3 5 7 19727.2 1223.85 32
-3 5 7 21872.5 1443.51 5
-3 5 7 19579.9 1280.24 27
-3 5 7 20429.2 1314.5 26
-3 5 8 5834.4 662.991 32
-3 5 9 719.189 220.44 24
-3 5 9 1205.4 349.729 32
-3 6 -4 -44.5961 143.001 36
-3 6 -3 42868.5 1981.18 36
-3 6 -2 131787 4214.38 36
-3 6 -1 29710.9 1604.3 36
-3 6 1 207861 6052.97 36
-3 6 2 34439.9 1819.28 36
-3 6 3 181839 5538.87 36
-3 6 4 10960.2 901.124 22
-3 6 4 11760.3 986.25 36
-3 6 4 11288.4 957.249 5
-3 6 5 4017.79 577.15 22
-3 6 6 29418.9 1639.15 27
-3 6 6 29506.6 1692.32 22
-3 6 6 27004.7 1561.52 26
-3 6 6 29496.6 1685.53 5
-3 6 7 11849.8 971.379 27
-3 6 7 10971.6 980.563 5
-3 6 9 7056.33 565.114 24
-3 7 -5 58229.6 2409.71 37
-3 7 -4 104940 3707.58 36
-3 7 -3 169389 5312.9 36
-3 7 -2 12252.1 1061.24 36
-3 7 -1 40387.9 2081.45 36
-3 7 1 53780.7 2523.37 36
-3 7 2 31868.1 1870.59 36
-3 7 3 7859.25 862.569 36
-3 7 3 6132.07 739.918 5
-3 7 4 537.699 244.279 37
-3 7 4 47.189 114.42 22
-3 7 5 10314.3 951.236 22
-3 7 5 12247.8 1036.05 27
-3 7 6 19688.6 1313.05 22
-3 7 6 21430.3 1358.57 27
-3 7 6 23295.8 1438.2 5
-3 7 7 -43.6194 158.596 5
-3 7 7 -41.3941 132.734 27
-3 7 8 6996.12 590.536 24
-3 8 -5 31089.3 1691.9 37
-3 8 -4 46632.4 2278.17 37
-3 8 -4 49193.1 2315.35 36
-3 8 -3 1516.9 417.327 36
-3 8 -2 33224.9 1946.88 36
-3 8 -1 59147 2756.88 36
-3 8 0 8967.58 995.324 36
-3 8 1 24700.2 1677.08 36
-3 8 2 40703.5 2191.44 36
-3 8 2 43514.9 2272.42 37
-3 8 3 328.355 239.247 37
-3 8 4 28664.7 1657.63 5
-3 8 5 37279.2 1742.87 22
-3 8 5 39853.8 1920.9 5
-3 8 5 39370.6 1912.66 27
-3 8 6 120.544 168.803 5
-3 8 6 563.94 229.062 27
-3 8 7 10454.3 726.971 24
-3 9 -5 55711.9 2350.53 37
-3 9 -4 28597.5 1689.56 37
-3 9 -3 35027.3 1965.48 37
-3 9 -2 38913.3 2140.19 37
-3 9 0 10663.7 1084.1 37
-3 9 1 41839.1 2192.04 37
-3 9 2 106.471 182.501 37
-3 9 3 11954.2 1003.03 5
-3 9 4 42709.2 1951.4 27
-3 9 4 43864.1 1949.96 5
-3 9 5 1846.34 351.95 27
-3 9 5 1841.06 340.653 5
-3 10 -5 27987.4 1405.01 37
-3 10 -4 11045.2 913.874 37
-3 10 -3 18506.9 1270.65 37
-3 10 -2 52.5887 168.63 37
-3 10 0 52038.3 2311.94 37
-3 10 1 2935.71 479.365 37
-3 10 2 27929.6 1452.36 5
-3 10 2 25740.1 1374.12 27
-3 10 3 21592.7 1156.86 5
-3 10 4 3907.51 404.738 5
-3 11 -5 5771.76 458.202 37
-3 11 -4 29330.3 1304.7 37
-3 11 -3 946.748 257.264 37
-3 11 -2 13203.5 885.501 37
-3 11 -1 23916.5 1220.39 5
-3 11 -1 22716.3 1191.31 37
-3 11 0 1316.45 257.772 37
-3 11 0 1191.68 249.279 27
-3 11 1 5302.05 460.08 27
-3 11 1 6498.53 538.389 5
-3 11 2 3957.53 354.979 5
-3 11 2 3824.68 343.856 27
-2 -9 2 17570 860.206 4
-2 -9 3 17052 909.738 38
-2 -9 3 16862.8 923.365 4
-2 -9 4 14178.5 855.873 4
-2 -9 4 13300.5 796.118 38
-2 -9 5 54546.2 1870.02 38
-2 -9 6 3284.56 373.025 4
-2 -8 -2 13616.1 724.455 38
-2 -8 -1 12191.7 796.487 38
-2 -8 0 34690.1 1560.48 38
-2 -8 0 31636.4 1324.18 4
-2 -8 1 38035.4 1721.57 4
-2 -8 1 38765.7 1769.41 38
-2 -8 2 11408.8 936.488 4
-2 -8 3 3968.46 571.765 4
-2 -8 3 3212.4 494.979 38
-2 -8 4 60118.5 2418.16 38
-2 -8 4 62585.1 2548.32 4
-2 -8 5 12065.4 931.55 38
-2 -8 6 653.072 237.896 38
-2 -8 6 744.666 256.117 4
-2 -8 7 25791.4 1276.32 38
-2 -8 7 23066 1217.05 4
-2 -8 8 692.82 188.263 9
-2 -8 9 14121.5 720.338 9
-2 -8 10 6121.56 376.679 9
-2 -7 0 132855 4293.32 4
-2 -7 4 28595.3 1661.56 38
-2 -7 5 9837.76 928.928 38
-2 -7 6 40441.8 1982.71 38
-2 -7 7 6718.43 712.478 38
-2 -7 7 5747.87 661.216 4
-2 -7 7 5619.43 594.707 33
-2 -7 8 33179.2 1581.41 38
-2 -7 8 29383.8 1417.5 33
-2 -7 9 21787.6 1169.25 9
-2 -7 10 5830.58 517.576 9
-2 -7 10 5705.3 522.662 30
-2 -7 11 5824.17 434.665 9
-2 -7 11 5622.75 431.653 30
-2 -6 0 42500.1 2206.56 1
-2 -6 1 57837.3 2746.84 1
-2 -6 2 27085.7 1796.59 1
-2 -6 3 21768 1574.02 1
-2 -6 4 22684.3 1455.16 38
-2 -6 5 19622.5 1447.84 1
-2 -6 5 23434 1468.79 38
-2 -6 6 16974.4 1244.51 38
-2 -6 6 18555.5 1209.43 33
-2 -6 6 18430.9 1334.64 1
-2 -6 7 52386.5 2291.17 1
-2 -6 7 52462 2328.02 38
-2 -6 7 50523.3 2208.71 33
-2 -6 8 101044 3492.92 38
-2 -6 8 98661.7 3414.38 33
-2 -6 9 13186.5 969.232 38
-2 -6 9 13191.7 973.452 33
-2 -6 10 2982.84 440.975 30
-2 -6 10 3139.15 445.96 9
-2 -6 11 16967.5 934.614 30
-2 -6 11 17408.6 952.009 9
-2 -6 12 2222.75 263.953 32
-2 -6 12 2208.56 253.444 30
-2 -5 -1 43936.5 2156.37 1
-2 -5 0 4471.69 679.461 1
-2 -5 1 41287.7 2195.55 1
-2 -5 2 54522.6 2569.08 1
-2 -5 3 14152.1 1197.4 1
-2 -5 4 49134.2 2202.24 38
-2 -5 4 52294.3 2423.1 1
-2 -5 5 88472.8 3274.43 38
-2 -5 5 96473.8 3494.26 1
-2 -5 6 29705.1 1630.07 38
-2 -5 6 28952.2 1631.68 1
-2 -5 6 27300.5 1583.25 28
-2 -5 6 26385 1504.16 33
-2 -5 7 120398 4021.91 1
-2 -5 7 121395 4090.79 33
-2 -5 7 127901 4196.74 28
-2 -5 7 129658 4191.71 38
-2 -5 8 8357.02 846.206 33
-2 -5 8 7942.59 831.803 28
-2 -5 8 9144.23 870.229 38
-2 -5 9 559.653 252.988 38
-2 -5 9 397.206 225.388 33
-2 -5 10 40951.1 1817.01 38
-2 -5 10 42091.7 1901.47 30
-2 -5 11 3036.37 422.322 30
-2 -5 12 8089.02 576.493 9
-2 -5 12 7156.6 513.417 8
-2 -5 12 7660.35 544.816 30
-2 -4 -1 2498.33 465.687 1
-2 -4 0 112034 3899.49 1
-2 -4 1 90006 3360.62 1
-2 -4 2 240684 6854.14 1
-2 -4 4 54089.6 2323.74 1
-2 -4 5 14868.7 1084.67 1
-2 -4 5 15410.4 1061.37 38
-2 -4 6 348719 9116.35 1
-2 -4 6 363613 9118.7 28
-2 -4 6 338225 9070.16 33
-2 -4 6 348603 9147.05 38
-2 -4 7 22268.3 1383.87 33
-2 -4 7 20410.6 1307.09 23
-2 -4 7 23016 1402.63 38
-2 -4 7 23452.3 1401.33 28
-2 -4 7 22844.3 1279.76 1
-2 -4 8 989.358 334.759 33
-2 -4 8 1575.36 390.228 23
-2 -4 8 981.491 304.174 28
-2 -4 8 898.155 303.275 38
-2 -4 9 35027.4 1864.83 33
-2 -4 9 36559.6 1830.57 38
-2 -4 9 30515.1 1688.65 28
-2 -4 9 33874.9 1831.67 23
-2 -4 10 13029.5 1006.07 9
-2 -4 10 12939 992.891 30
-2 -4 10 12883.2 988.2 38
-2 -4 11 23890.6 1285.98 30
-2 -4 11 24574.4 1321.18 9
-2 -4 12 7693.44 598.439 9
-2 -4 12 7498.34 642.005 32
-2 -4 13 1860.05 234.547 8
-2 -3 -2 49115.5 2013.43 1
-2 -3 -1 40540.1 1864.03 1
-2 -3 0 33577.7 1662.81 1
-2 -3 1 70801.1 2620.09 1
-2 -3 2 750266 17875.6 1
-2 -3 4 1633.5 326.448 1
-2 -3 5 228613 6206.94 1
-2 -3 5 230565 6217.83 38
-2 -3 6 96056.1 3149.06 28
-2 -3 6 92641.5 3170.25 38
-2 -3 6 92263.8 3160.5 33
-2 -3 6 92085.7 3035.13 1
-2 -3 7 21724.6 1354.43 23
-2 -3 7 22319.9 1361.61 38
-2 -3 7 22275 1376.99 33
-2 -3 7 24794.4 1207.49 1
-2 -3 7 25653.7 1382.27 28
-2 -3 8 3611.57 568.167 33
-2 -3 8 2484.67 470.177 38
-2 -3 8 3096.42 482.367 28
-2 -3 8 3949.96 595.032 23
-2 -3 9 5989.08 726.423 38
-2 -3 9 5181.49 643.696 28
-2 -3 9 5164.8 700.763 23
-2 -3 10 25450.1 1597.04 23
-2 -3 10 24884.1 1456.58 9
-2 -3 10 25713.4 1452.13 30
-2 -3 11 30109.2 1477.36 30
-2 -3 11 28739.4 1586.15 32
-2 -3 11 28381.4 1464.17 9
-2 -3 11 28994.8 1639.71 23
-2 -3 12 427.994 198.286 32
-2 -3 12 390.403 165.808 9
-2 -3 13 1118.34 210.843 8
-2 -3 13 674.521 176.151 32
-2 -2 -2 79628.6 2633.77 1
-2 -2 -1 171614 4799.99 1
-2 -2 0 1149.15 256.546 1
-2 -2 1 887207 20566.7 1
-2 -2 2 54361.6 1948.51 1
-2 -2 3 11626.9 753.25 1
-2 -2 4 159604 4366.25 1
-2 -2 5 151446 4204.24 1
-2 -2 6 207016 5470.71 1
-2 -2 6 204848 5769.84 38
-2 -2 6 217535 5671.58 28
-2 -2 7 37539.2 1835.04 23
-2 -2 7 39073.1 1827.61 38
-2 -2 7 39001.2 1724.9 28
-2 -2 7 40010.7 1881.83 33
-2 -2 8 6233.48 751.885 23
-2 -2 8 7951.92 730.875 28
-2 -2 8 5713.47 696.5 38
-2 -2 9 1968.84 451.087 23
-2 -2 9 1749.83 365.587 28
-2 -2 9 1682.51 373.843 30
-2 -2 9 1398.9 368.97 9
-2 -2 9 2401.2 465.012 38
-2 -2 10 52527.7 2465.87 23
-2 -2 10 50733.9 2190.57 9
-2 -2 10 48460.6 2120.38 28
-2 -2 10 54815.5 2234.2 30
-2 -2 10 54697 2422.24 32
-2 -2 11 15600.5 1184.05 23
-2 -2 11 13896.5 966.007 9
-2 -2 11 16032.1 1156.85 32
-2 -2 12 158.698 179.943 23
-2 -2 12 121.892 106.581 31
-2 -2 12 225.196 164.042 32
-2 -2 13 12946.2 726.003 32
-2 -1 -2 43477.6 1586.17 1
-2 -1 -1 5273.33 460.397 1
-2 -1 0 835765 19186.9 1
-2 -1 1 256128 6320.15 1
-2 -1 3 113645 3169.23 1
-2 -1 3 119305 3281.82 26
-2 -1 4 191324 5089.17 26
-2 -1 4 193143 4899.25 1
-2 -1 5 95887.3 2776.24 1
-2 -1 5 100777 2892.05 28
-2 -1 6 85072 2458.57 1
-2 -1 6 88097.6 2724.71 28
-2 -1 6 85985.3 2923.32 26
-2 -1 7 5417.35 541.345 28
-2 -1 7 4992.6 601.931 38
-2 -1 8 7849.06 698.284 28
-2 -1 8 7060.83 761.094 38
-2 -1 8 8713.49 745.348 30
-2 -1 9 131679 4022.27 30
-2 -1 9 122472 3905.23 28
-2 -1 9 127066 3996.85 9
-2 -1 10 30055.8 1706.65 32
-2 -1 10 26694.4 1433.93 9
-2 -1 10 25478 1656.14 23
-2 -1 10 26562 1432.67 30
-2 -1 11 1522 305.637 31
-2 -1 11 1301.8 370.462 32
-2 -1 12 15457.6 1022.57 23
-2 -1 12 14701.6 985.87 32
-2 -1 13 4453.7 405.962 32
-2 -1 13 4203.12 365.638 8
-2 0 -3 157355 3972.08 1
-2 0 -2 58213.6 1782.84 1
-2 0 1 26006.8 896.087 26
-2 0 2 7133.05 427.106 26
-2 0 3 4463.03 368.218 26
-2 0 4 2337.74 250.916 28
-2 0 4 2706.51 258.257 1
-2 0 5 511300 11762.3 1
-2 0 5 507052 11933.9 28
-2 0 5 516658 12178.7 26
-2 0 6 2039 344.275 26
-2 0 6 1158.53 220.435 28
-2 0 7 33442.6 1430.84 30
-2 0 7 31965.3 1386.92 28
-2 0 7 33680.5 1597.79 26
-2 0 7 31089.1 1612.32 38
-2 0 8 81022.8 2710.28 28
-2 0 8 80507.4 2741.35 30
-2 0 8 85442.4 3081.95 32
-2 0 8 87476 3071.58 26
-2 0 9 42460.4 2081.79 32
-2 0 9 37600.2 1721.97 9
-2 0 10 1674.41 407.535 32
-2 0 11 1993.91 428.176 23
-2 0 11 3084.24 516.635 32
-2 0 12 6198.88 611.481 23
-2 0 12 6779.5 633.006 32
-2 0 13 1977.25 265.062 32
-2 1 0 93738.1 2259.08 26
-2 1 1 438773 9980.18 26
-2 1 2 1770.7 189.762 26
-2 1 3 21171.2 851.201 26
-2 1 3 21388.8 696.206 28
-2 1 4 454371 10401.7 28
-2 1 5 409268 9402.46 28
-2 1 5 407923 9760.63 26
-2 1 5 397429 9267.96 1
-2 1 6 42182.1 1693.73 26
-2 1 6 39927.6 1425.96 28
-2 1 7 98242.9 3327.78 32
-2 1 7 102924 3297.51 26
-2 1 7 97824.8 2950.37 28
-2 1 8 120111 4029.05 32
-2 1 8 121100 3915.13 26
-2 1 9 6334.84 709.554 26
-2 1 9 6169.48 756.118 32
-2 1 10 4198.13 619.729 32
-2 1 11 1590.44 358.514 32
-2 1 11 1478.49 368.746 23
-2 1 12 1525.67 285.97 23
-2 1 12 1133.84 306.143 32
-2 2 -3 97420.1 2558.77 36
-2 2 4 580408 13292.3 36
-2 2 4 573393 13041.8 28
-2 2 4 591027 13490 26
-2 2 5 41743.3 1332.53 36
-2 2 5 44902.8 1646.18 26
-2 2 6 450941 11345.8 22
-2 2 6 450326 11263.5 32
-2 2 6 457100 11389.9 5
-2 2 6 481919 11263.9 26
-2 2 7 44311.9 1867.83 27
-2 2 7 46328.4 2031.72 32
-2 2 7 47437.3 1978.91 26
-2 2 7 48591.7 2121.4 17
-2 2 8 37079.5 1721.19 24
-2 2 8 36197.8 1866.25 32
-2 2 8 35795.4 1749.22 26
-2 2 9 15373.8 1196.53 32
-2 2 9 16197.7 1080.66 24
-2 2 10 1878.27 337.196 24
-2 2 10 1924.29 422.818 32
-2 2 11 37.7927 129.552 23
-2 2 11 -194.322 294.15 32
-2 2 12 13536.7 748.983 32
-2 3 -4 320969 7689.63 36
-2 3 -3 104709 2901.73 36
-2 3 -2 6511.62 454.378 36
-2 3 -1 619693 14290.7 36
-2 3 0 176235 4471.47 36
-2 3 2 267912 6564.56 36
-2 3 3 358029 8574.63 36
-2 3 4 2941.19 338.117 36
-2 3 5 10361.6 598.274 36
-2 3 5 12573.5 792.153 26
-2 3 6 18214.1 1111.15 32
-2 3 6 19840 1215.85 22
-2 3 6 19805.2 1130.82 27
-2 3 6 17429.5 1149.73 5
-2 3 6 18389.5 1162.82 17
-2 3 6 20100.7 1126.89 26
-2 3 7 1217.63 329.75 5
-2 3 7 1099.76 321.704 22
-2 3 7 1404.91 348.414 32
-2 3 7 1052.21 294.252 27
-2 3 7 930.779 260.914 26
-2 3 8 26476.3 1490.26 24
-2 3 8 28465.9 1617.53 32
-2 3 9 51.3924 264.28 32
-2 3 9 259.236 181.432 24
-2 3 10 1471.98 296.773 24
-2 3 10 1268.74 383.588 32
-2 3 11 20905.3 1086.44 32
-2 4 -4 26248.4 1175.69 36
-2 4 -3 1461.23 270.265 36
-2 4 -2 654243 15294.9 36
-2 4 -1 376440 9145.24 36
-2 4 0 48843.6 1754.45 36
-2 4 1 159098 4349.44 36
-2 4 2 461918 11148.2 36
-2 4 3 3021.52 401.028 36
-2 4 4 19666.4 1051.23 36
-2 4 5 32460.2 1583.68 22
-2 4 5 33883.4 1504.62 32
-2 4 5 30961.1 1562.81 5
-2 4 6 516.903 239.503 27
-2 4 6 920.371 300.556 5
-2 4 6 40.7646 288.299 32
-2 4 6 493.744 210.993 17
-2 4 6 711.283 257.26 22
-2 4 6 810.696 238.836 26
-2 4 7 100548 3522.15 27
-2 4 7 99734.1 3552.87 17
-2 4 7 105003 3637.5 5
-2 4 7 97849.9 3346.15 26
-2 4 7 98497.6 3484.76 32
-2 4 7 107418 3734.5 22
-2 4 8 7232.58 767.679 24
-2 4 8 6802.74 776.016 32
-2 4 9 269.619 261.423 32
-2 4 9 741.909 259.804 24
-2 4 10 14436 858.634 24
-2 4 10 15011.7 961.24 32
-2 5 -5 24481.7 1220.84 36
-2 5 -4 33356.2 1524.81 36
-2 5 -3 167553 4750.11 36
-2 5 -2 330304 8418.44 36
-2 5 -1 2435.08 388.667 36
-2 5 1 168988 4870.85 36
-2 5 2 27967.5 1452.21 36
-2 5 3 93407.9 3178.01 36
-2 5 4 5634.54 632.714 5
-2 5 4 6102.35 612.308 36
-2 5 4 6595.84 617.021 32
-2 5 4 6194.99 639.844 22
-2 5 5 272.457 213.24 27
-2 5 5 458.261 215.195 5
-2 5 5 326.302 187.479 22
-2 5 5 76.7146 223.035 32
-2 5 6 57903.5 2495.48 22
-2 5 6 54829.4 2242.62 26
-2 5 6 57014.9 2429.08 27
-2 5 6 56213.1 2428.2 5
-2 5 6 54526.1 2285.19 32
-2 5 7 44085.2 2209.94 22
-2 5 7 46051.8 2087.3 32
-2 5 7 47115.7 2190.88 27
-2 5 7 48022 2203.39 5
-2 5 8 1502.95 354.963 24
-2 5 8 1479.28 426.394 32
-2 5 9 9347.95 748.696 24
-2 5 9 10661.8 808.236 32
-2 5 10 11638.9 631.46 24
-2 6 -5 120.708 129.026 36
-2 6 -5 41.2059 122.335 37
-2 6 -4 42856.2 1943.07 36
-2 6 -3 312361 8292.7 36
-2 6 -2 9177.97 836.049 36
-2 6 -1 60096.5 2466.82 36
-2 6 1 2992.05 502.725 36
-2 6 2 61569.2 2578.16 36
-2 6 3 3749.25 514.176 22
-2 6 3 4197.36 581.71 36
-2 6 4 2071.89 427.467 5
-2 6 4 1983.09 403.048 22
-2 6 5 56687.8 2411.68 5
-2 6 5 53682.6 2399.4 22
-2 6 5 52304.6 2389.59 27
-2 6 6 73248.2 2968.34 22
-2 6 6 72698.5 2908.95 27
-2 6 6 72552.3 2875.71 5
-2 6 7 2893.31 490.217 27
-2 6 7 3330.7 543.183 22
-2 6 8 13007.3 922.607 24
-2 6 9 11874.9 711.108 24
-2 7 -5 35717.1 1808.36 36
-2 7 -5 37582.8 1868.78 37
-2 7 -4 171041 5385.43 37
-2 7 -4 179134 5377.63 36
-2 7 -3 7297.81 802.123 36
-2 7 -2 63601.5 2710.54 36
-2 7 0 26922.7 1660.52 36
-2 7 1 138861 4673.18 36
-2 7 2 49078.4 2374.96 37
-2 7 2 47771.4 2065.59 22
-2 7 2 50125.8 2357.09 36
-2 7 3 4110.51 612.416 5
-2 7 3 3034.55 530.197 37
-2 7 3 2912.15 499.624 36
-2 7 3 3342.01 519.352 22
-2 7 4 37717.6 1973.26 27
-2 7 4 39604.1 1945.87 22
-2 7 4 36079.3 1896.24 5
-2 7 5 86488 3284.99 27
-2 7 5 88188.8 3218.13 5
-2 7 5 85792.1 3249.11 22
-2 7 6 346.642 210.174 5
-2 7 6 388.851 228.26 22
-2 7 6 240.469 202.035 27
-2 7 8 4956.41 460.88 24
-2 8 -6 33502.7 1675.98 37
-2 8 -5 52911.4 2340.89 37
-2 8 -5 46760.2 2216.16 36
-2 8 -4 31729.7 1838.75 37
-2 8 -4 35440 1896.54 36
-2 8 -3 40561.9 2105.84 36
-2 8 -3 37526.1 2063.98 37
-2 8 -2 24139.3 1618.62 37
-2 8 -2 22133.8 1535.69 36
-2 8 0 35305.2 2017.72 36
-2 8 0 36854.3 2098.89 37
-2 8 1 122935 4384.04 36
-2 8 1 128469 4493.96 37
-2 8 2 4220.64 558.884 22
-2 8 2 3846.47 608.125 37
-2 8 2 4011.64 610.508 36
-2 8 3 33487.8 1712.06 22
-2 8 3 34546.2 1831.25 5
-2 8 4 33052.7 1720.29 5
-2 8 4 32750.5 1676.07 22
-2 8 5 2205.25 394.255 5
-2 8 5 2739.31 440.839 22
-2 8 5 2335.88 445.471 27
-2 8 7 1438.52 241.134 24
-2 9 -6 14088.9 981.776 37
-2 9 -5 4374.54 606.395 37
-2 9 -4 38265.1 1987.73 37
-2 9 -3 59324.5 2674.01 37
-2 9 -2 12078.4 1114.25 37
-2 9 -1 44725.2 2304.42 37
-2 9 0 92384.8 3559.9 37
-2 9 1 592.341 269.4 37
-2 9 2 31342.9 1673.46 5
-2 9 2 29989.8 1645.56 27
-2 9 3 21497.2 1303.95 27
-2 9 3 20334.4 1227.47 5
-2 9 4 7037.16 625.645 5
-2 10 -6 4313.57 460.994 37
-2 10 -5 17131.6 1082.83 37
-2 10 -4 30961.3 1605.59 37
-2 10 -3 4147.05 576.277 37
-2 10 -1 18058.9 1219.91 37
-2 10 0 2594.08 448.101 5
-2 10 0 2469.48 435.319 37
-2 10 1 9489.9 783.99 5
-2 10 1 9872.99 773.329 27
-2 10 2 15176.8 918.534 27
-2 10 2 15641.1 923.426 5
-2 10 3 1176.82 239.12 27
-2 11 -5 22856.4 995.24 37
-2 11 -4 579.822 181.14 37
-2 11 -3 28519 1287.9 37
-2 11 -2 27659.6 1250.81 5
-2 11 -1 11144.7 706.884 5
-2 11 -1 9545.46 656.291 37
-2 11 0 8849.94 573.568 5
-1 -10 3 4120.12 382.322 4
-1 -10 4 40754.4 1463.18 4
-1 -10 6 123.379 83.6331 4
-1 -9 0 16607.9 829.786 4
-1 -9 1 39398.5 1656.56 4
-1 -9 1 38154.8 1656.41 38
-1 -9 2 15800.6 1006.3 38
-1 -9 2 14441 1003.1 4
-1 -9 3 5357.39 626.667 4
-1 -9 3 5963.35 611.101 38
-1 -9 4 36573.9 1618.1 38
-1 -9 4 35666.4 1716.51 4
-1 -9 5 39.1011 134.037 4
-1 -9 6 9165.13 722.922 4
-1 -8 0 104990 3566.26 4
-1 -8 1 30232.6 1717.63 4
-1 -8 2 4550.97 678.303 4
-1 -8 3 81577.7 3245.57 4
-1 -8 3 80441.7 3067.02 38
-1 -8 4 291.704 204.212 38
-1 -8 5 26899.5 1583.52 4
-1 -8 5 24722.4 1438.43 38
-1 -8 6 22469.9 1300.27 38
-1 -8 6 23796.2 1403.28 4
-1 -8 6 22990.3 1309.12 33
-1 -8 7 3763.35 499.501 33
-1 -8 7 4317.97 525.96 4
-1 -8 7 3397.92 435.836 9
-1 -8 8 39436.7 1600.82 9
-1 -8 8 40318 1695.4 33
-1 -8 9 13293.5 837.525 30
-1 -8 9 13717.8 796.701 9
-1 -8 10 129.505 104.718 30
-1 -8 10 259.594 114.663 9
-1 -7 -1 60248.2 2522.84 4
-1 -7 0 21293.2 1465.48 4
-1 -7 1 6078.28 811.142 1
-1 -7 2 46101.4 2420.03 1
-1 -7 3 3129.29 595.28 1
-1 -7 4 79589.3 3040.6 38
-1 -7 4 75023 3184.4 1
-1 -7 5 97589 3455.57 38
-1 -7 5 94834.9 3592.99 1
-1 -7 5 93603.5 3435.76 28
-1 -7 6 24844.2 1460.04 38
-1 -7 6 25938.5 1533.3 4
-1 -7 6 23305 1464.9 28
-1 -7 7 52199.3 2184 38
-1 -7 7 51074.8 2176.6 4
-1 -7 7 51535.8 2292.55 33
-1 -7 8 35731 1778.83 33
-1 -7 9 7813.76 731.892 33
-1 -7 9 8238.04 716.458 9
-1 -7 10 555.813 198.403 9
-1 -7 11 15812.8 829.377 30
-1 -7 11 15336.8 789.953 32
-1 -7 11 16652.3 831.924 9
-1 -6 -1 9818.02 958.275 1
-1 -6 0 1511.65 415.882 1
-1 -6 1 14760.2 1241.65 1
-1 -6 2 61094.3 2751.71 1
-1 -6 3 124303 4348.33 1
-1 -6 4 104572 3590.07 38
-1 -6 4 102021 3769.97 1
-1 -6 5 13603.5 1047.65 38
-1 -6 5 13097.5 1097.03 1
-1 -6 5 14773.9 1098.88 28
-1 -6 6 14348.9 1063.2 38
-1 -6 6 13601 1063.47 28
-1 -6 7 153432 4693.06 38
-1 -6 7 159910 4953.03 33
-1 -6 7 148831 4596.02 4
-1 -6 7 150144 4822.78 28
-1 -6 8 4180.41 618.53 33
-1 -6 8 4093.97 542.335 38
-1 -6 9 8372.95 833.964 33
-1 -6 9 7766.55 767.147 9
-1 -6 10 21088 1113.91 8
-1 -6 10 21857.7 1249.75 9
-1 -6 10 21557.6 1249.5 30
-1 -6 11 215.038 129.645 8
-1 -6 11 245.154 157.687 9
-1 -6 11 582.215 196.608 30
-1 -6 11 213.418 152.473 32
-1 -6 12 16335.5 772.565 32
-1 -5 -2 33136.8 1652.78 1
-1 -5 -1 168671 5171.3 1
-1 -5 0 53269.9 2387.5 1
-1 -5 1 57343.4 2517.01 1
-1 -5 2 143715 4637.45 1
-1 -5 4 31821.4 1677.19 1
-1 -5 4 29798.5 1520.19 38
-1 -5 5 811.576 256.337 38
-1 -5 5 1057.88 300.861 1
-1 -5 6 203327 5751.28 38
-1 -5 6 200063 5733.56 1
-1 -5 7 9872.84 848.599 38
-1 -5 7 9042.5 770.25 1
-1 -5 7 10728.7 924.462 28
-1 -5 7 10283.9 953.606 33
-1 -5 8 31614.3 1794.02 33
-1 -5 8 33316 1759.86 28
-1 -5 8 35330.7 1721.29 38
-1 -5 9 18134.4 1301.21 33
-1 -5 9 18801.3 1254.62 9
-1 -5 9 15264.7 1143.31 28
-1 -5 9 16775.4 1099.28 38
-1 -5 10 4237.83 569.987 30
-1 -5 10 4472.72 584.172 9
-1 -5 11 24972.3 1333.11 32
-1 -5 11 27798.3 1367.62 30
-1 -5 12 10210 680.611 32
-1 -5 12 10406.5 666.99 8
-1 -4 -2 116112 3629.42 1
-1 -4 -1 255326 6931.74 1
-1 -4 0 111590 3665.93 1
-1 -4 1 74072.4 2726.65 1
-1 -4 2 445253 11167.8 1
-1 -4 4 10786.4 837.434 1
-1 -4 5 44748.8 1854.19 38
-1 -4 5 48163.7 1939.58 1
-1 -4 6 5793.42 611.855 38
-1 -4 6 5697.6 623.355 28
-1 -4 6 6017.35 576.838 1
-1 -4 6 6006.1 668.862 23
-1 -4 7 61890.1 2606.44 23
-1 -4 7 61532.5 2605.59 33
-1 -4 7 65733.5 2219.85 1
-1 -4 7 67368.5 2579.51 28
-1 -4 7 64709 2479.02 38
-1 -4 8 40057.6 1882.58 38
-1 -4 8 38176.5 1903.46 28
-1 -4 8 44997.8 2141.18 33
-1 -4 8 41669.1 2089.7 23
-1 -4 9 621.894 299.689 23
-1 -4 9 738.916 316.648 33
-1 -4 9 1634.54 362.022 38
-1 -4 9 1226.99 342.593 30
-1 -4 9 1771.92 382.76 28
-1 -4 10 34421.5 1763.14 9
-1 -4 10 36302.2 1782.99 30
-1 -4 11 38388.3 1743.88 9
-1 -4 11 38238.7 1798.36 32
-1 -4 11 38284.4 1727.47 30
-1 -4 12 1007.9 243.744 32
-1 -4 13 1529.77 214.185 8
-1 -3 -2 461774 11155.5 1
-1 -3 -1 4854.34 507.104 1
-1 -3 0 72616.6 2486.03 1
-1 -3 1 641568 15205.3 1
-1 -3 2 142243 4059.8 1
-1 -3 3 200881 5362.38 1
-1 -3 4 101727 3087.98 1
-1 -3 5 25070.9 1222.62 28
-1 -3 5 25319.6 1183.18 1
-1 -3 6 31899.8 1489.52 38
-1 -3 6 29152.6 1541.46 33
-1 -3 6 32770 1515.34 28
-1 -3 6 34851 1356.59 1
-1 -3 7 42826.4 2036.49 23
-1 -3 7 44002.7 2049.44 33
-1 -3 7 46238.7 1944.84 28
-1 -3 7 46481.2 1953.04 38
-1 -3 8 41827.8 2103.12 23
-1 -3 8 41991.7 2099.52 33
-1 -3 8 43869.1 1955.37 38
-1 -3 8 44946.7 1988.23 28
-1 -3 9 5977.26 758.859 23
-1 -3 9 5875.37 688.759 9
-1 -3 9 6852.33 733.005 30
-1 -3 9 5674.13 666.955 28
-1 -3 10 89748.4 3219.07 30
-1 -3 10 94543.9 3477.33 23
-1 -3 10 88107.4 3206.42 9
-1 -3 11 2154.3 392.695 9
-1 -3 12 1465.2 264.319 31
-1 -3 12 905.568 241.84 32
-1 -3 13 2146.43 260.527 32
-1 -2 -3 745845 17009.6 1
-1 -2 -2 75304.2 2287.74 1
-1 -2 -1 3197.19 351.723 1
-1 -2 0 477420 11281.8 1
-1 -2 1 244771 6096.11 1
-1 -2 3 3871.6 372.465 1
-1 -2 4 17435.3 835.602 1
-1 -2 5 173519 4424.69 1
-1 -2 5 170107 4614.92 28
-1 -2 6 280853 6982.29 28
-1 -2 6 265817 6456.74 1
-1 -2 7 61168.5 2480.25 23
-1 -2 7 60818.8 2328.94 38
-1 -2 7 62050 2289.37 28
-1 -2 7 61234.8 2477.57 33
-1 -2 8 11350.3 1015.73 23
-1 -2 8 10709.3 863.603 28
-1 -2 8 9833.71 851.52 30
-1 -2 8 11784.7 927.032 38
-1 -2 8 10944.1 887.27 9
-1 -2 9 167538 4995.81 9
-1 -2 9 169520 5002.68 30
-1 -2 9 155003 4855.98 28
-1 -2 10 7682.89 774.133 28
-1 -2 10 7230.88 745.21 9
-1 -2 10 8729.42 823.289 30
-1 -2 11 2557.37 475.719 23
-1 -2 11 2080.8 379.809 31
-1 -2 12 2989.24 365.287 31
-1 -2 13 1322.82 195.733 8
-1 -1 -3 214460 5060.53 1
-1 -1 -2 7669.74 439.747 1
-1 -1 -1 16474.6 700.46 1
-1 -1 0 63190.9 1794.28 1
-1 -1 1 71655 1974.1 1
-1 -1 2 495313 11194.6 1
-1 -1 2 479497 11271 26
-1 -1 3 1410.43 183.561 1
-1 -1 4 313269 7324.55 1
-1 -1 4 312908 7500.51 28
-1 -1 4 309259 7584.75 26
-1 -1 5 356888 8131.75 1
-1 -1 5 349252 8513.76 28
-1 -1 5 344779 8619.98 26
-1 -1 6 27450.4 1238.87 28
-1 -1 6 28678.6 1333.83 26
-1 -1 7 2140.07 376.555 38
-1 -1 7 2262.46 354.875 28
-1 -1 7 2815.87 404.283 30
-1 -1 7 1794.65 332.916 9
-1 -1 8 68938.7 2694 32
-1 -1 8 69477.1 2537.09 30
-1 -1 8 63152.6 2465.67 9
-1 -1 8 64684.6 2433.32 28
-1 -1 9 30012.7 1575.12 9
-1 -1 9 33628.2 1821.49 32
-1 -1 9 30704.4 1617.33 30
-1 -1 9 33273.9 1861.94 23
-1 -1 9 30217.8 1596.11 28
-1 -1 10 14609.3 1160.64 32
-1 -1 10 11800.7 1064.29 23
-1 -1 11 9244.5 750.505 31
-1 -1 11 10614.4 920.784 23
-1 -1 11 11224.6 945.888 32
-1 -1 12 2885.22 400.892 23
-1 -1 12 2611.68 387.752 32
-1 -1 12 2882.45 382.304 8
-1 0 -3 63940.1 1566 1
-1 0 -2 197897 4624.92 1
-1 0 0 2913.93 151.187 26
-1 0 1 293826 6706 26
-1 0 2 337793 7784.54 26
-1 0 3 115363 2741.6 1
-1 0 3 117256 2873.55 28
-1 0 4 589815 13190.6 1
-1 0 4 589594 13489.5 28
-1 0 4 584039 13578.9 26
-1 0 5 177123 4537.91 28
-1 0 5 177672 4628.79 26
-1 0 6 9364.13 633.571 28
-1 0 6 9431.97 678.94 26
-1 0 7 26121.5 1433.8 32
-1 0 7 26709.5 1446.14 17
-1 0 7 27027.8 1305.65 30
-1 0 7 27792.7 1340.94 26
-1 0 7 25218.7 1250.64 28
-1 0 8 25953.2 1370.18 24
-1 0 8 25746.3 1359.48 28
-1 0 8 24330.3 1321.1 9
-1 0 9 24080 1349.17 24
-1 0 9 25469.4 1583.9 32
-1 0 9 25198.1 1402.73 31
-1 0 10 14296.4 991.159 31
-1 0 10 15612.3 1211.6 23
-1 0 10 14963.7 988.442 24
-1 0 10 14859.7 1174.7 32
-1 0 11 1911.2 396.668 32
-1 0 11 2417.59 435.7 23
-1 0 12 7337.02 627.173 32
-1 1 -3 5872.66 254.496 36
-1 1 2 59292.5 1452.2 28
-1 1 4 181404 4227.34 36
-1 1 4 185218 4482.22 28
-1 1 4 192591 4627.15 26
-1 1 5 207186 5128.56 28
-1 1 5 205578 5259.28 26
-1 1 6 11951.6 849.582 32
-1 1 6 12581.6 740.717 28
-1 1 6 12641 781.425 26
-1 1 7 45654.9 1909.53 24
-1 1 7 45100 2013.61 22
-1 1 7 49042.2 2086.01 32
-1 1 7 45085.9 2030.53 17
-1 1 7 46844.3 1842.15 26
-1 1 7 46372.8 1823.64 31
-1 1 8 8351.31 775.115 24
-1 1 8 7291.17 686.079 31
-1 1 8 8438.13 842.422 17
-1 1 8 8549.47 855.067 32
-1 1 8 6994.7 621.909 10
-1 1 9 31713.1 1659.27 24
-1 1 9 37010.5 1956.51 32
-1 1 10 2224.46 451.833 23
-1 1 10 2582.9 493.917 32
-1 1 10 2830.59 442.86 24
-1 1 11 2657.04 345.882 24
-1 1 11 2880.54 483.018 32
-1 1 12 17485.3 893.425 32
-1 2 -4 230643 5434.14 36
-1 2 -3 32966.2 1063.94 36
-1 2 -2 50183.9 1453.68 36
-1 2 -1 999999 22444.3 36
-1 2 0 244633 5775.51 36
-1 2 1 38165.6 1188.52 36
-1 2 2 66899.9 1856.1 36
-1 2 2 65356 1550.26 10
-1 2 3 132432 3328.37 36
-1 2 3 129586 3105.88 10
-1 2 4 58599.7 1675.42 10
-1 2 4 64403.8 1687.06 36
-1 2 5 13339.3 645.395 10
-1 2 5 15579.8 815.496 26
-1 2 6 927.237 258.678 5
-1 2 6 926.96 252.545 22
-1 2 6 1188.59 300.259 17
-1 2 6 492.69 195.478 32
-1 2 6 571.09 198.829 27
-1 2 6 939.567 221.482 26
-1 2 6 522.788 140.831 10
-1 2 7 20070.3 1299.8 17
-1 2 7 20271.4 1288.56 32
-1 2 7 19547.9 1088.74 26
-1 2 8 119157 4100.95 32
-1 2 8 118571 3962.65 24
-1 2 8 122473 4145.14 17
-1 2 9 5616.8 657.021 24
-1 2 9 6110.06 735.613 32
-1 2 10 1444.27 314.159 24
-1 2 10 1605.81 425.79 32
-1 2 11 14976.7 787.378 24
-1 2 11 15781.4 969.518 32
-1 3 -4 46188.3 1532.52 36
-1 3 -3 55532.8 1775.99 36
-1 3 -2 522218 12162.3 36
-1 3 -1 631306 14569.5 36
-1 3 1 7709.2 529.644 36
-1 3 2 385122 9231.26 36
-1 3 3 12108.5 692.108 36
-1 3 4 254741 6172.81 36
-1 3 5 614.987 207.264 32
-1 3 5 358.492 179.401 22
-1 3 5 562.478 200.075 27
-1 3 5 348.35 141.891 26
-1 3 6 1106.07 298.898 5
-1 3 6 1136.2 311.193 32
-1 3 6 712.135 259.859 17
-1 3 6 1015.69 289.258 22
-1 3 6 994.966 239.588 26
-1 3 7 120798 4055.15 32
-1 3 7 121822 4102.49 17
-1 3 7 121342 4115.53 22
-1 3 7 122438 4049.86 27
-1 3 8 30390.9 1728.17 32
-1 3 8 32261.5 1717.53 24
-1 3 8 28613.5 1687.99 17
-1 3 9 1497.15 361.718 24
-1 3 9 1095.61 396.84 32
-1 3 10 8846.58 778.295 32
-1 3 10 7233.66 644.039 24
-1 3 11 8003.3 472.894 24
-1 3 11 12954.4 717.94 32
-1 4 -5 63773 2085.75 36
-1 4 -4 4452.62 445.882 36
-1 4 -3 776888 18072.1 36
-1 4 -2 518788 12366.7 36
-1 4 -1 243563 6281.77 36
-1 4 1 74197.5 2486.31 36
-1 4 2 6775.93 602.086 36
-1 4 3 141110 4010.78 36
-1 4 4 33556.5 1487.31 32
-1 4 4 31503.4 1484.96 5
-1 4 4 31386.1 1506.98 22
-1 4 4 33362.3 1302.03 36
-1 4 5 5453.14 621.843 32
-1 4 5 6092.53 663.479 27
-1 4 5 5155.07 604.537 17
-1 4 5 5354.27 601.423 5
-1 4 5 5993.97 651.791 22
-1 4 6 104856 3617.66 22
-1 4 6 103410 3517.42 32
-1 4 6 100440 3548.25 17
-1 4 6 105155 3599.01 27
-1 4 6 94582 3138.97 26
-1 4 6 104322 3490.44 5
-1 4 7 52067 2402.68 22
-1 4 7 49582.9 2324.91 17
-1 4 7 51941.1 2311.64 32
-1 4 7 56714 2433.47 27
-1 4 8 3316.95 536.418 24
-1 4 8 4605.9 646.265 32
-1 4 8 3434.05 552.52 17
-1 4 8 4081.3 617.259 22
-1 4 9 18250.8 1136.63 24
-1 4 9 17109.3 1127.33 32
-1 4 10 8204.21 589.079 24
-1 5 -5 9416.39 728.559 36
-1 5 -4 83961.5 2827.14 36
-1 5 -3 167320 4782.09 36
-1 5 -2 12889.6 901.38 36
-1 5 -1 54414.2 2161.72 36
-1 5 0 10388.5 829.326 36
-1 5 1 164.646 172.847 36
-1 5 2 270597 7233.88 36
-1 5 3 103706 3232.8 32
-1 5 3 99655.3 3262.62 36
-1 5 4 34030.7 1626.99 5
-1 5 4 28641.7 1563.28 22
-1 5 4 33683.8 1607.55 32
-1 5 4 29895.8 1618.65 27
-1 5 5 86359 3158.34 22
-1 5 5 81640 2994.01 5
-1 5 5 81020.6 2982.24 32
-1 5 5 83168.7 3150.13 27
-1 5 6 97028.3 3505.26 17
-1 5 6 101287 3675.55 22
-1 5 6 102575 3559.68 32
-1 5 6 105892 3717.9 27
-1 5 6 102369 3521.43 5
-1 5 7 275.823 184.971 17
-1 5 7 381.252 247.121 22
-1 5 7 856.161 395.286 32
-1 5 8 13497.4 1002.02 24
-1 5 9 1098.59 253.055 24
-1 6 -5 51892.3 2177.09 37
-1 6 -5 50616.7 2122.46 36
-1 6 -4 135333 4331.81 37
-1 6 -4 140649 4327.17 36
-1 6 -3 68023.5 2676.25 37
-1 6 -3 68550.7 2654.87 36
-1 6 -2 273676 7476.96 36
-1 6 0 1729.61 416.417 37
-1 6 0 2847.34 482.971 36
-1 6 1 132906 4474.13 37
-1 6 1 139446 4437.72 36
-1 6 2 155796 4926.52 21
-1 6 2 166687 5133.84 37
-1 6 2 174215 5111.29 36
-1 6 3 11724.3 939.839 5
-1 6 3 10800.6 911.132 37
-1 6 3 11454 900.059 36
-1 6 4 34057.2 1808.2 22
-1 6 4 34353.5 1745.11 5
-1 6 5 54397.9 2446.42 22
-1 6 5 58592.9 2539.78 27
-1 6 5 51891 2260.47 5
-1 6 6 125.232 143.098 5
-1 6 6 -52.6626 201.832 27
-1 6 6 53.181 170.528 22
-1 6 7 14383.2 1042.51 24
-1 6 7 12316.4 999.941 22
-1 6 8 1167.8 260.71 24
-1 7 -6 39410.6 1855.01 36
-1 7 -6 40064.6 1886.9 37
-1 7 -5 18302.5 1265.18 36
-1 7 -5 21868 1383.17 37
-1 7 -4 3440.99 547.757 36
-1 7 -4 2742.58 517.634 37
-1 7 -3 90785.2 3450.1 37
-1 7 -3 89088.4 3362.37 36
-1 7 -2 87142.9 3425.94 37
-1 7 -2 91919 3432.59 36
-1 7 -1 22001.5 1508.9 37
-1 7 -1 21607.8 1457.06 36
-1 7 0 117317 4326.49 37
-1 7 0 130624 4360.11 36
-1 7 1 111845 3991.73 36
-1 7 1 114251 4084.46 37
-1 7 2 3771.21 593.655 37
-1 7 2 3870.48 580.176 36
-1 7 3 60309.7 2579.37 22
-1 7 3 60925.8 2522.16 5
-1 7 3 61122.6 2646.82 27
-1 7 4 18716.2 1323.19 22
-1 7 4 21684.9 1317.28 5
-1 7 5 750.122 297.374 22
-1 7 6 23674.9 1356.31 22
-1 7 7 3676.34 435.089 24
-1 8 -6 29784 1610.64 37
-1 8 -5 1053.46 326.759 36
-1 8 -5 1722.76 423.812 37
-1 8 -4 77964.1 3169.24 37
-1 8 -4 79891 3148.62 36
-1 8 -3 103241 3841.6 37
-1 8 -3 99802.9 3740.57 36
-1 8 -2 13647.4 1196.94 37
-1 8 -1 87871.7 3538.71 37
-1 8 -1 87210.8 3451.08 36
-1 8 0 91088.3 3612.2 37
-1 8 0 92621 3554.11 36
-1 8 1 5702.36 740.311 36
-1 8 1 6945.45 816.994 37
-1 8 2 36907.9 1852.28 22
-1 8 2 38980.8 1901.78 5
-1 8 2 36347 1906.54 27
-1 8 3 7486.13 774.076 22
-1 8 3 8016.04 761.569 5
-1 8 3 7806.69 809.537 27
-1 8 4 1669.04 370.975 22
-1 8 4 585.33 256.782 27
-1 8 5 3816.17 476.168 22
-1 9 -7 8913.31 684.93 37
-1 9 -6 7853.51 739.283 37
-1 9 -5 18175.3 1240.45 37
-1 9 -4 23568 1502.29 37
-1 9 -3 5067.17 692.165 37
-1 9 -1 58653.4 2601.58 37
-1 9 0 2031.89 439.751 37
-1 9 1 38450.3 1804.42 5
-1 9 1 37690 1661.13 22
-1 9 1 36218.9 1753.24 27
-1 9 2 6163.69 592.663 22
-1 9 2 5872.69 633.266 27
-1 9 3 57.7837 92.6514 22
-1 9 3 67.7808 142.288 27
-1 9 4 12701.9 756.947 24
-1 9 4 11085.4 646.696 22
-1 10 -6 22659.2 1111.25 37
-1 10 -5 47546 1924.67 37
-1 10 -4 4892.86 574.967 37
-1 10 -3 23869.4 1344.64 37
-1 10 -2 21471.6 1264.11 37
-1 10 -1 4284.52 534.992 37
-1 11 -4 13365.3 716.587 37
-1 11 -3 9805.41 575.936 5
-1 11 -2 270.966 119.756 37
0 -10 1 17781.9 918.373 4
0 -10 2 495.709 191.771 4
0 -10 3 8916.63 717.694 4
0 -10 5 1586.94 244.1 33
0 -10 5 1724.69 306.897 4
0 -10 6 14151.9 724.543 33
0 -10 6 15613.1 816.122 4
0 -10 8 1167.97 173.68 18
0 -9 -1 13960.1 824.975 4
0 -9 0 58684.9 2301.25 4
0 -9 1 240.485 233.224 4
0 -9 2 11128.8 897.759 38
0 -9 2 10643.3 959.678 4
0 -9 3 24453.4 1502.94 4
0 -9 3 25279.2 1389.08 38
0 -9 5 45563.1 2036.26 4
0 -9 6 19492.8 1161.1 4
0 -9 7 388.818 186.926 33
0 -9 8 31005 1362.73 33
0 -9 9 14753.4 781.325 33
0 -8 -1 45822.1 2094.58 4
0 -8 0 796.098 330.977 4
0 -8 1 23461.6 1583.69 4
0 -8 2 81299.3 3340.52 4
0 -8 3 3969.21 649.226 4
0 -8 3 4639.61 626.06 38
0 -8 4 113571 3712.65 38
0 -8 4 103330 3583.66 28
0 -8 4 110713 3970.75 4
0 -8 5 29029.9 1518.26 38
0 -8 5 28279.9 1655.69 4
0 -8 6 19738 1277.8 4
0 -8 6 17330.8 1051.05 9
0 -8 7 3354.23 534.284 33
0 -8 7 3989.86 514.531 4
0 -8 7 3749.38 479.932 9
0 -8 8 26952.2 1312.39 9
0 -8 8 27830.9 1494.44 33
0 -8 9 1995.2 359.695 33
0 -8 9 1867.28 305.086 9
0 -8 9 1942.26 335.856 30
0 -8 10 2174.36 300.169 18
0 -8 10 1600.11 259.79 30
0 -8 10 1779.64 261.869 9
0 -7 -2 9859.14 872.448 4
0 -7 -1 7283.11 821.083 4
0 -7 0 68912.5 2955.14 4
0 -7 1 64151.7 2865.56 4
0 -7 2 3272.22 590.228 1
0 -7 4 163150 4881.53 38
0 -7 4 158304 5149.43 1
0 -7 4 157379 5138.96 4
0 -7 4 160578 4884.36 28
0 -7 5 13613.8 1009.77 38
0 -7 5 15707.2 1189.71 4
0 -7 5 15449.9 1116.07 28
0 -7 6 27860.2 1438.1 38
0 -7 6 24892.7 1484.64 4
0 -7 6 26942.9 1543.22 28
0 -7 7 67140.8 2512.16 4
0 -7 7 66604.1 2669.9 28
0 -7 7 67266.5 2588.41 9
0 -7 8 211.057 192.024 33
0 -7 8 686.412 260.101 9
0 -7 9 26220.8 1390.99 9
0 -7 9 26700.3 1427.12 30
0 -7 9 27585.8 1524.14 33
0 -7 10 16556.6 991.436 9
0 -7 10 18625.5 1008.02 18
0 -7 10 19308 1131.44 33
0 -6 -2 11510.1 949.219 4
0 -6 -1 131098 4346.71 4
0 -6 0 196832 5935.54 1
0 -6 1 32506.3 1829.48 1
0 -6 2 54901 2480.16 1
0 -6 4 10592.2 846.979 38
0 -6 4 10771.6 865.674 28
0 -6 4 10792.2 950.44 1
0 -6 5 31230.3 1528.32 38
0 -6 5 32215.1 1678.26 1
0 -6 5 29745.5 1578.78 28
0 -6 6 64897.1 2422.24 38
0 -6 6 65415.4 2609.18 28
0 -6 6 63874.8 2504.49 4
0 -6 7 224.625 157.213 38
0 -6 7 98.6923 146.533 28
0 -6 8 42647.3 2148.8 33
0 -6 8 43747.5 2029.23 9
0 -6 8 43297.2 2050.11 28
0 -6 9 15769.7 1072.92 8
0 -6 9 18157.7 1203.7 9
0 -6 9 18471.5 1284.68 33
0 -6 10 799.003 257.339 8
0 -6 10 1362.79 315.375 9
0 -6 10 971.15 286.57 30
0 -6 10 577.75 218.755 18
0 -6 11 17361.2 945.95 8
0 -6 11 17773 999.422 30
0 -6 11 18318.6 1007.72 9
0 -6 12 4469.66 355.68 8
0 -6 12 5490.68 419.381 31
0 -5 -1 178914 5212.57 1
0 -5 0 42839.5 1968.69 1
0 -5 1 68625.3 2631.98 1
0 -5 2 193158 5568.81 1
0 -5 3 588.226 216.43 1
0 -5 4 21821.4 1259.97 1
0 -5 5 130478 3917.36 38
0 -5 5 132904 4023.39 34
0 -5 5 134990 4086.75 1
0 -5 5 138091 4120.69 28
0 -5 6 7033.92 646.984 38
0 -5 6 7654.53 735.968 34
0 -5 6 7264.68 675.025 4
0 -5 6 7924.61 756.396 28
0 -5 7 158391 4535.42 38
0 -5 7 154577 4797.79 34
0 -5 7 152533 4940.73 33
0 -5 8 42259.8 2125.93 33
0 -5 8 42412 2024.23 9
0 -5 9 9100.01 901.207 33
0 -5 9 6525.75 731.11 28
0 -5 9 6403.26 731.464 30
0 -5 9 7225.9 767.87 9
0 -5 10 36047.2 1748.27 9
0 -5 10 34362.6 1707.71 32
0 -5 10 31812.6 1508.81 18
0 -5 10 35421.1 1749.14 30
0 -5 11 23648.6 1261.89 30
0 -5 11 25306.9 1293.51 8
0 -5 11 23586.9 1243.82 32
0 -5 12 2000.66 303.158 8
0 -5 12 1971.67 288.066 31
0 -4 -2 445632 10820.2 1
0 -4 -1 71895.3 2479.4 1
0 -4 0 74932.3 2572.24 1
0 -4 1 360866 9070.07 1
0 -4 3 6507.83 590.241 1
0 -4 4 14731.2 892.906 28
0 -4 4 16218 948.768 1
0 -4 5 82936.4 2672.04 1
0 -4 6 98124.1 3410.21 23
0 -4 6 100810 3120.93 38
0 -4 6 99515.3 3342.97 34
0 -4 7 126813 4327.93 23
0 -4 7 133607 4366.13 33
0 -4 7 137958 4291.73 34
0 -4 7 136355 4198.34 28
0 -4 7 131243 3945.75 38
0 -4 8 5636.77 720.845 23
0 -4 8 6100.04 611.176 38
0 -4 8 6964.73 743.798 30
0 -4 8 5676.13 678.026 9
0 -4 8 5494.29 660.537 28
0 -4 9 13465.8 1059.97 30
0 -4 9 11704.4 984.317 28
0 -4 9 12089.7 912.009 18
0 -4 10 31948.5 1656.29 30
0 -4 10 29193.3 1616.58 32
0 -4 11 311.045 182.628 32
0 -4 12 743.817 197.484 11
0 -4 12 551.547 180.237 32
0 -4 12 724.41 224.374 8
0 -4 12 475.101 160.901 31
0 -3 -2 38120.9 1393.44 1
0 -3 -1 40426 1494.08 1
0 -3 0 17138.7 895.445 1
0 -3 1 3686.06 397.207 1
0 -3 3 129095 3569.68 1
0 -3 4 235686 5931.22 1
0 -3 5 199091 5011.12 1
0 -3 5 195487 5279.01 28
0 -3 6 577817 14125.5 34
0 -3 6 585681 13990.9 28
0 -3 7 4420.54 541.222 28
0 -3 7 3732.19 470.003 38
0 -3 8 1650.02 366.105 28
0 -3 8 1495.62 360.131 30
0 -3 8 1916.14 364.607 29
0 -3 8 1598.98 375.555 9
0 -3 9 48294.2 2199.78 28
0 -3 9 51089.8 2272.07 9
0 -3 9 48099.3 1980.8 18
0 -3 9 52398.1 2286.04 30
0 -3 9 52215.6 2338.83 32
0 -3 9 53288 2420.49 23
0 -3 10 2081.59 451.603 23
0 -3 10 2930.51 515.34 32
0 -3 10 2633.02 488.606 30
0 -3 10 2558.7 462.766 9
0 -3 11 12190.9 930.652 32
0 -3 11 12682.5 917.602 31
0 -3 12 3625.85 428.171 8
0 -3 12 3553.3 413.209 32
0 -3 12 3491.61 388.45 31
0 -2 -2 10933.2 526.141 1
0 -2 -1 273100 6526.09 1
0 -2 0 37509.9 1259.45 1
0 -2 1 780030 17753.2 1
0 -2 2 177547 4432.5 1
0 -2 3 15766.6 735.946 28
0 -2 3 15858.5 700.771 1
0 -2 4 78655.3 2044.34 1
0 -2 4 64896.3 2168.58 28
0 -2 5 416806 10060.7 28
0 -2 6 35870 1681.71 33
0 -2 6 38478 1718.72 34
0 -2 6 38698.6 1607.17 28
0 -2 7 8089.03 678.835 24
0 -2 7 8345.41 731.149 28
0 -2 7 7524.55 784.648 23
0 -2 7 8947.2 827.735 33
0 -2 7 8140.43 782.268 34
0 -2 7 8330.33 748.102 9
0 -2 7 9649.07 794.998 30
0 -2 7 9989.3 811.735 29
0 -2 8 71158.7 2597.07 24
0 -2 8 74799.3 2939.58 23
0 -2 8 72748.8 2752.1 9
0 -2 8 71463.2 2808.15 32
0 -2 8 76197.6 2778.97 29
0 -2 8 72656.6 2753.98 30
0 -2 8 64431 2612.01 28
0 -2 9 7913.13 801.306 9
0 -2 9 7616.3 786.649 30
0 -2 9 7529.93 723.165 24
0 -2 9 6756.78 797.319 23
0 -2 9 7076.72 801.826 32
0 -2 9 7394.23 772.748 28
0 -2 10 32289.2 1757.33 23
0 -2 10 30216.8 1709.44 32
0 -2 11 7052.1 694.391 23
0 -2 11 6042.25 603.18 11
0 -2 11 6906.35 702.421 32
0 -2 11 6421.12 638.257 31
0 -2 12 1026.72 224.777 8
0 -2 12 1064.64 229.659 32
0 -1 -3 11512.5 338.516 25
0 -1 -2 4884.32 232.125 1
0 -1 -1 263345 6055.62 1
0 -1 0 13567.2 502.498 1
0 -1 2 58097.8 1543.9 1
0 -1 2 61250.7 1632.19 28
0 -1 3 13505.2 634.961 26
0 -1 3 13243.1 625.638 28
0 -1 4 400857 9361.14 28
0 -1 4 392516 9342.18 26
0 -1 5 58346.8 1932.57 28
0 -1 6 58106.4 2053.83 28
0 -1 7 25617.9 1296.59 28
0 -1 7 22085.2 1223.8 24
0 -1 7 22514.1 1252.88 9
0 -1 7 21779.1 1322.34 29
0 -1 7 20385.3 1264.97 32
0 -1 7 22486.3 1302.66 17
0 -1 7 22462.5 1262.43 30
0 -1 8 14792.6 1038.37 24
0 -1 8 14090.9 1132.48 23
0 -1 8 13635 1014.5 9
0 -1 8 15839.1 1141.54 17
0 -1 8 16638.9 1182.49 32
0 -1 8 14842.7 1060.52 28
0 -1 8 16388.7 1191.68 29
0 -1 9 77232.6 2836.32 24
0 -1 9 77469.2 2908.82 31
0 -1 9 69440.2 2757.49 10
0 -1 9 76249.9 3036.77 23
0 -1 9 77564 3054.9 32
0 -1 10 62297.6 2360.83 24
0 -1 10 60263.2 2505.91 23
0 -1 10 56870.5 2307.17 11
0 -1 10 59512.2 2547.26 32
0 -1 10 58180.7 2379.1 31
0 -1 11 41.445 132.93 32
0 -1 11 321.813 178.704 8
0 -1 12 5788.75 509.722 32
0 0 1 115095 2664.5 28
0 0 2 301918 6821.56 28
0 0 2 293409 6766.19 26
0 0 3 91041.3 2368.91 28
0 0 3 89745.6 2311.64 26
0 0 4 202235 5062.49 28
0 0 4 208686 5011.19 26
0 0 5 32252.2 1261.56 28
0 0 5 31928.6 1191.17 26
0 0 6 7762.9 641.497 30
0 0 6 8467.32 772.112 29
0 0 6 9692.98 687.838 28
0 0 6 8552.39 592.252 26
0 0 7 19200.6 1181.37 24
0 0 7 18274.7 1107.86 28
0 0 7 19738.3 1132.47 9
0 0 7 20452.1 1318.6 29
0 0 7 18959.4 1253.09 13
0 0 8 56153.2 2319.56 24
0 0 8 53896.5 2241.48 31
0 0 8 50537.7 2110.39 10
0 0 9 76678.1 2892.31 24
0 0 9 69861.1 2670.72 10
0 0 9 78157.4 3000.11 23
0 0 9 81311.8 2904.92 31
0 0 9 73922.6 2734.22 11
0 0 10 1032.12 283.866 24
0 0 10 1220.15 313.193 23
0 0 10 671.576 332.409 31
0 0 11 174.043 257.674 31
0 0 11 684.62 196.635 24
0 0 12 5024.21 438.214 32
0 1 -4 348170 7763.34 35
0 1 -3 13385.4 463.143 36
0 1 -2 59779.3 1556.2 36
0 1 -1 630021 14160.8 36
0 1 1 287070 6365.65 10
0 1 1 272604 6473.52 36
0 1 2 4656.91 250.047 10
0 1 2 4471.31 232.469 36
0 1 3 10613.1 321.251 35
0 1 3 12787.6 558.932 28
0 1 4 160685 4161.56 28
0 1 4 164934 4056.78 26
0 1 5 186663 4917.72 10
0 1 5 199204 4866.8 26
0 1 6 6369.43 628.621 24
0 1 6 6225.25 622.554 22
0 1 6 5439.09 605.449 17
0 1 6 6695.76 662.03 32
0 1 6 6424.85 696.492 29
0 1 6 6605.96 587.635 31
0 1 6 5788.47 646.239 13
0 1 6 5803.13 471.498 26
0 1 6 6434.54 538.633 10
0 1 7 21222.1 1321.26 24
0 1 7 19704.6 1122.72 11
0 1 7 21656.9 1337.4 22
0 1 7 20994.2 1330.11 32
0 1 7 24227.2 1282.89 31
0 1 7 22040.8 1360.05 17
0 1 7 19996.5 1109.13 10
0 1 7 20971.1 1366.62 13
0 1 8 127010 3994.15 24
0 1 8 110349 3536.03 11
0 1 8 105676 3468.55 10
0 1 8 117731 4015.19 17
0 1 8 117225 3724.44 31
0 1 8 109227 3934.83 32
0 1 9 21626.6 1438.85 17
0 1 9 22048.1 1377.55 24
0 1 9 19024.4 1267.06 23
0 1 9 21248 1259.49 31
0 1 10 873.381 268.547 24
0 1 10 826.116 352.294 31
0 1 11 9259.09 626.253 24
0 2 -4 68088.8 1896.77 36
0 2 -3 16437.7 701.681 36
0 2 -2 199274 4890.49 36
0 2 -1 918147 20778.7 36
0 2 1 289305 6911.14 36
0 2 2 11284.6 554.107 36
0 2 3 18397.7 677.244 36
0 2 3 17214.9 688.418 10
0 2 4 244600 5932.09 10
0 2 5 10775.6 800.065 32
0 2 5 10212.3 771.062 22
0 2 5 9853.89 612.394 10
0 2 5 10524.7 796.461 27
0 2 5 11839.5 647.393 26
0 2 6 16194.8 886.869 10
0 2 6 16872 1121.27 22
0 2 6 16166.8 1100.61 32
0 2 6 16842.4 1130.04 27
0 2 6 17170.5 1185.56 13
0 2 6 16771.4 1131.48 17
0 2 6 16510.3 996.854 31
0 2 7 110380 3750.97 24
0 2 7 107121 3731.42 22
0 2 7 110849 3758.01 32
0 2 7 105816 3758.55 17
0 2 7 104386 3428.01 31
0 2 7 109255 3810.14 13
0 2 8 38778.5 1956.34 24
0 2 8 37937.8 1965.27 22
0 2 8 35787.2 1684.17 31
0 2 8 38646.6 1977.62 32
0 2 8 35851.9 1940.59 17
0 2 9 5980.61 686.417 24
0 2 9 4338.13 622.319 17
0 2 9 4252.71 640.519 32
0 2 10 8053.68 690.283 24
0 2 10 8666.97 770.68 32
0 2 11 3641.59 403.866 32
0 2 11 2495.12 273.349 24
0 3 -5 207450 5204.83 36
0 3 -4 254197 6295.65 36
0 3 -3 140810 3789.77 36
0 3 -2 436185 10390.2 36
0 3 -1 4835.63 439.868 36
0 3 0 19214.3 953.005 36
0 3 1 40035.1 1508.6 36
0 3 2 40369.6 1480.68 36
0 3 3 471312 11021.7 36
0 3 4 21744.4 1147.63 32
0 3 4 19891.2 1152.09 21
0 3 5 19535.9 1042.78 31
0 3 5 22083.7 1248.91 32
0 3 5 19051.7 1183.08 17
0 3 5 19274.4 1217 27
0 3 5 19041.9 925.04 26
0 3 5 19773.5 1117.32 5
0 3 6 139445 4142.66 31
0 3 6 145337 4579.24 17
0 3 6 145842 4594.26 27
0 3 6 138772 4482.38 13
0 3 6 148868 4545.24 32
0 3 7 54165.7 2394.52 32
0 3 7 52686.1 2393.48 24
0 3 7 51499.3 2375.51 22
0 3 7 54017.9 2423.71 17
0 3 8 11802.3 1014 24
0 3 8 12681.7 1057.76 22
0 3 8 12774.8 1062.32 32
0 3 8 10474.4 972.196 17
0 3 9 8124.74 751.011 24
0 3 9 8717.79 816.03 32
0 3 9 7064.98 726.774 17
0 3 10 2350.99 335.766 24
0 3 10 2323.46 388.991 32
0 4 -5 87518.3 2732.81 36
0 4 -4 16021.3 917.594 36
0 4 -3 4986.78 503.585 36
0 4 -2 3395.1 423.628 36
0 4 0 81714.5 2715.45 36
0 4 1 74214.2 2533.54 36
0 4 2 437778 10680 36
0 4 3 194622 5082.72 36
0 4 3 200866 5321.89 32
0 4 4 4501.75 590.779 21
0 4 4 5806.75 623.522 32
0 4 4 4369.44 504.575 5
0 4 5 70371 2743.86 17
0 4 5 71711 2818.5 27
0 4 5 73073 2736.64 32
0 4 5 69006.1 2732.46 22
0 4 5 66939.7 2521.77 5
0 4 6 23705.4 1487.09 22
0 4 6 23508.9 1465.22 32
0 4 6 20866.8 1406.17 17
0 4 6 22677.9 1475.34 27
0 4 7 17041.3 1242.67 24
0 4 7 15817.8 1203.82 17
0 4 7 17168.3 1241.02 32
0 4 8 5836.76 713.271 32
0 4 8 4737.41 606.674 17
0 4 8 5153.62 648.432 24
0 4 9 358.896 177.014 24
0 4 10 1475.5 196.418 24
0 5 -5 142505 4178.01 36
0 5 -5 137393 4205.01 37
0 5 -4 23903.7 1288.88 36
0 5 -4 22610.1 1297.75 37
0 5 -3 371.579 173.59 37
0 5 -3 511.389 208.025 36
0 5 -2 197449 5563.78 36
0 5 -2 192830 5573.67 37
0 5 -1 65086.5 2566.48 37
0 5 0 42037.1 1962.26 37
0 5 0 43892.1 1941.74 36
0 5 1 173834 5211.89 37
0 5 1 177522 5150.2 36
0 5 2 153413 4580.16 36
0 5 2 155739 4690.43 21
0 5 2 154279 4658.94 37
0 5 3 23799.9 1277.97 5
0 5 3 22426.9 1414 21
0 5 3 22872.6 1389.91 27
0 5 4 40840.1 1997.75 22
0 5 4 42902.9 1978.9 32
0 5 4 41170.6 2044.41 27
0 5 4 41093.7 1824.16 5
0 5 5 22220.6 1393.01 17
0 5 5 21004.4 1410.73 22
0 5 5 23576.8 1433.97 32
0 5 5 21416.2 1250.01 5
0 5 6 1518.19 372.484 17
0 5 6 1873.76 431.954 22
0 5 7 31242.7 1657.68 24
0 5 7 28904.6 1619.97 22
0 5 7 28872.3 1509.52 17
0 5 8 492.054 208.958 24
0 5 9 992.78 184.956 24
0 6 -6 66805.5 2584.74 37
0 6 -5 32578.7 1664.9 36
0 6 -5 31978.3 1687.43 37
0 6 -4 11405.4 966.661 37
0 6 -4 10349.7 897.282 36
0 6 -3 302546 8233.36 37
0 6 -3 298774 8157.3 36
0 6 -2 55440.5 2478.85 37
0 6 -2 58345.1 2476.77 36
0 6 -1 39145.1 2012.33 37
0 6 -1 36106.9 1879.38 36
0 6 0 185467 5419.89 21
0 6 0 202575 5836.59 36
0 6 0 191321 5865.85 37
0 6 1 123101 4027.31 21
0 6 1 123590 4125.77 36
0 6 1 122937 4203.29 37
0 6 2 10282.4 916.193 37
0 6 2 9713.1 933.499 21
0 6 3 37972.4 1768.11 5
0 6 3 34741.6 1908.24 27
0 6 4 22804.9 1451.46 22
0 6 4 20964.5 1438.66 27
0 6 4 20275.4 1217.44 5
0 6 5 5368.43 687.095 22
0 6 5 6332.93 753.143 27
0 6 6 51434 2240.06 22
0 6 7 1685.52 333.086 22
0 6 8 3390.91 334.708 24
0 7 -7 72464.1 2667.69 37
0 7 -6 27747.5 1575.6 37
0 7 -5 15297.7 1183.6 37
0 7 -4 171682 5372.39 37
0 7 -4 165977 5282.35 36
0 7 -3 104290 3832.94 36
0 7 -3 112113 3976.62 37
0 7 -1 60901.3 2725.59 36
0 7 -1 63444.9 2843.75 37
0 7 0 64973.6 2569.61 21
0 7 0 65678.1 2882.03 37
0 7 1 7924.84 827.43 21
0 7 1 8300.23 889.12 37
0 7 2 10868 902.53 5
0 7 2 10960.9 937.989 37
0 7 2 11123.6 1001.89 27
0 7 3 7107.28 786.753 22
0 7 3 6928.04 790.364 27
0 7 4 1234.42 355.167 22
0 7 4 1339.96 351.86 27
0 7 5 22702.6 1314.24 24
0 7 5 24523.2 1364.43 22
0 7 6 13622.2 853.709 24
0 7 6 12957.7 856.378 22
0 8 -7 4313.83 533.524 37
0 8 -6 19642.5 1286.63 37
0 8 -5 31055.5 1757.63 37
0 8 -4 121020 4245.32 37
0 8 -3 4158.21 660.924 37
0 8 -1 22872.1 1553.53 37
0 8 0 284.099 228.44 37
0 8 0 181.348 164.907 27
0 8 1 40213.3 1850.15 5
0 8 1 41123.7 1940.12 27
0 8 1 42805.8 2004.68 37
0 8 2 7211.82 757.568 22
0 8 2 9624.71 847.445 27
0 8 3 2989.82 456.304 22
0 8 3 2148.89 395.697 27
0 8 4 23372 1179.21 24
0 8 4 22004.7 1184.28 22
0 8 5 47040.3 1654.96 22
0 9 -7 363.411 172.338 37
0 9 -6 19928.8 1196.15 37
0 9 -5 46629.9 2080.37 37
0 9 -4 847.559 308.666 37
0 9 -3 25958.1 1538.26 37
0 9 -2 10583.4 946.235 37
0 9 -1 522.577 257.745 37
0 9 0 51327.6 2002.86 22
0 9 1 13424.2 871.299 22
0 9 2 14664.4 848.409 22
0 9 3 25437.3 1027.99 22
0 10 -6 15213.5 830.568 37
0 10 -5 2196.15 345.443 37
0 10 -4 15965.5 969.92 37
0 10 -2 498.618 185.354 37
1 -11 3 9596.42 605.38 4
1 -10 0 11443 794.541 4
1 -10 1 3465.53 486.51 4
1 -10 2 22361 1296.42 4
1 -10 3 22870.1 1318.98 4
1 -10 5 47371.3 1897.49 4
1 -10 6 24697 1231.41 33
1 -10 7 692.33 202.115 33
1 -10 8 13395.4 716.132 33
1 -10 8 15677.3 733.653 18
1 -9 -1 39205.7 1826.35 4
1 -9 0 1657.02 413.143 4
1 -9 1 61419 2692.8 4
1 -9 2 22101.8 1296 38
1 -9 2 22364.6 1497.8 4
1 -9 3 4956.14 688.709 4
1 -9 4 22855.5 1467.91 4
1 -9 5 18000.1 1213.53 4
1 -9 6 7296.93 691.396 4
1 -9 7 10640.9 883.537 33
1 -9 8 20584.7 1157.1 33
1 -9 9 8220.24 619.32 33
1 -9 10 8697.86 468.974 18
1 -8 -6 418.806 142.521 3
1 -8 -2 41186.6 1914.27 4
1 -8 -1 4723.5 658.545 25
1 -8 -1 6104.58 754.334 4
1 -8 0 88498.8 3467.63 25
1 -8 0 96324.1 3626.91 4
1 -8 1 87879.6 3475.68 4
1 -8 1 82905.3 3337.59 25
1 -8 2 14394.7 1237 4
1 -8 3 93456 3217.16 38
1 -8 4 79169.4 2700.36 38
1 -8 4 77630.1 3084.61 4
1 -8 4 68204.8 2639.26 28
1 -8 4 73376.3 2961.26 25
1 -8 5 892.024 318.451 4
1 -8 5 680.478 231.18 28
1 -8 5 903.878 285.991 25
1 -8 6 26027.9 1333.5 9
1 -8 6 27240.4 1496.68 4
1 -8 7 44553.6 1838.56 9
1 -8 7 43425.6 1911.79 30
1 -8 8 2662.97 419.995 30
1 -8 8 3317.16 523.515 33
1 -8 8 2448.5 388.156 9
1 -8 9 17649.8 962.003 9
1 -8 9 20016.7 1156.05 33
1 -8 9 18043.1 1046.85 18
1 -8 9 17242.7 996.036 30
1 -8 10 13841.8 766.62 18
1 -8 10 13775.9 760.142 30
1 -7 -2 3140.43 504.719 25
1 -7 -2 3504.53 539.146 4
1 -7 -1 105798 3771.56 4
1 -7 -1 103328 3681.13 25
1 -7 0 119649 4202.98 4
1 -7 1 21059.3 1470.53 4
1 -7 2 83518.8 2847.22 28
1 -7 2 86700.7 3350.84 4
1 -7 3 80548 3173.62 4
1 -7 3 78531.4 2786.66 28
1 -7 4 3267.11 445.299 38
1 -7 4 2848.7 538.036 4
1 -7 4 3600.51 494.58 28
1 -7 5 18879.4 1233.04 25
1 -7 5 17815.1 1240.82 4
1 -7 5 17918.9 1175.99 28
1 -7 5 17853.3 1118.46 34
1 -7 5 18435.2 1129.24 9
1 -7 6 37769.8 1841.44 28
1 -7 6 39071.3 1831.22 4
1 -7 6 39134.5 1823.41 34
1 -7 6 38599.4 1795.17 9
1 -7 6 35828.1 1732.59 25
1 -7 7 4210.37 580.281 28
1 -7 7 5593.84 645.436 9
1 -7 8 55543.9 2179.75 8
1 -7 8 58806.8 2338.92 9
1 -7 8 54934.7 2313.86 30
1 -7 8 57295 2515.45 33
1 -7 9 12587.8 915.319 9
1 -7 9 12679.6 924.552 18
1 -7 9 12246.4 854.956 8
1 -7 9 12050.2 910.06 30
1 -7 10 908.036 243.602 9
1 -7 10 736.161 211.839 18
1 -7 10 994.872 226.435 8
1 -7 10 580.333 199.99 30
1 -7 11 15387.3 782.531 31
1 -7 11 14039 682.317 8
1 -6 -2 168726 4966.8 4
1 -6 -2 162900 4856.06 25
1 -6 -1 129595 4198.81 4
1 -6 0 1993.84 423.187 4
1 -6 1 11503.7 977.184 4
1 -6 3 60606 2540.72 4
1 -6 3 65810.4 2346.89 28
1 -6 4 128646 3881.95 34
1 -6 4 128225 3929.18 28
1 -6 4 128198 4129.14 4
1 -6 5 50488.7 2075.46 34
1 -6 5 44707 2013.56 4
1 -6 5 46950.1 2017.97 28
1 -6 6 3358.32 474.269 4
1 -6 6 4652.86 605.028 34
1 -6 6 3588.44 522.902 28
1 -6 6 3211.02 495.434 9
1 -6 6 3832.58 482.564 25
1 -6 6 4067.93 535.696 8
1 -6 7 159750 4896.66 9
1 -6 7 164119 4966.09 34
1 -6 7 157877 4803.66 8
1 -6 7 153713 4856.61 28
1 -6 8 31753.8 1696.34 9
1 -6 8 31612.7 1664.06 8
1 -6 8 32044.8 1714.7 30
1 -6 8 31190.4 1688.47 28
1 -6 9 16141.4 1181 33
1 -6 9 14250.2 1065.55 9
1 -6 9 16748.8 1106.73 18
1 -6 9 14750.9 1066.83 8
1 -6 9 14860 1091.06 30
1 -6 10 934.176 259.44 9
1 -6 10 1084.73 274.113 18
1 -6 10 1210.86 308.523 8
1 -6 11 17510 941.602 8
1 -6 12 14.9836 70.3307 11
1 -6 12 14.8735 67.4464 31
1 -6 12 -13.9147 63.0988 8
1 -5 -3 98500.5 3009.19 25
1 -5 0 8205.78 721.906 1
1 -5 1 49292.6 2018.27 1
1 -5 3 150563 4479.1 1
1 -5 3 156007 4304.37 28
1 -5 4 78494.6 2647.35 28
1 -5 5 8144.71 741.285 34
1 -5 5 7529.01 689.54 28
1 -5 6 144551 4085.57 25
1 -5 6 150398 4531.24 9
1 -5 6 148661 4581.73 34
1 -5 6 146210 4472.82 28
1 -5 7 54903.2 2350.3 30
1 -5 7 57709.4 2404.42 9
1 -5 7 55149.4 2401.11 34
1 -5 7 57232.7 2516.39 33
1 -5 7 52852.6 2306.18 28
1 -5 8 797.429 302.785 34
1 -5 8 1068.47 320.961 9
1 -5 8 611.447 278.398 33
1 -5 8 997.596 302.842 28
1 -5 9 1384.77 344.15 32
1 -5 9 2102.05 438.775 9
1 -5 9 1763.56 411.095 33
1 -5 9 1335.45 327.89 18
1 -5 10 52576.8 2128.44 32
1 -5 10 54350.2 2266.58 8
1 -5 10 56003.7 2276.44 9
1 -5 11 2146.93 354.712 31
1 -5 11 1444.99 307.193 8
1 -5 12 23028.8 973.507 11
1 -5 12 23172.1 971.811 31
1 -4 -3 146029 3883.1 25
1 -4 -1 72247.8 2343.33 1
1 -4 0 75740.8 2443.06 1
1 -4 1 217741 5696.99 1
1 -4 2 455293 10982.2 1
1 -4 3 723109 16782 28
1 -4 4 3178.89 396.265 28
1 -4 5 59831.2 2280.31 34
1 -4 5 56464.1 1908.09 25
1 -4 6 180701 5332.83 34
1 -4 6 178632 5018.03 29
1 -4 6 185578 5254.06 9
1 -4 7 2589.57 492.343 23
1 -4 7 4199.82 596.453 33
1 -4 7 3418.87 545.986 34
1 -4 7 2921.53 443.074 29
1 -4 8 8015.88 816.948 9
1 -4 8 7137.61 801.902 33
1 -4 8 7533.54 741.668 18
1 -4 8 6067.62 655.852 29
1 -4 8 5341.71 675.829 30
1 -4 8 5611.8 673.398 28
1 -4 9 24588 1451.9 32
1 -4 9 22964.3 1311.67 18
1 -4 9 25214.7 1503.21 30
1 -4 9 21679.4 1272.13 29
1 -4 9 24025.8 1474.17 28
1 -4 10 482.691 261.641 8
1 -4 10 85.1303 126.41 32
1 -4 11 36535.4 1627.39 11
1 -4 11 41151.1 1713.84 31
1 -4 12 1900.34 255.079 11
1 -4 12 1656.89 269.026 31
1 -3 -3 14014.8 633.622 25
1 -3 0 10532 597.693 1
1 -3 2 455767 10625.8 1
1 -3 2 450088 10539.7 28
1 -3 3 51821.4 1711.26 28
1 -3 4 37005.6 1252.49 25
1 -3 5 427766 9918.96 25
1 -3 6 345.809 222.341 23
1 -3 6 41.7516 134.007 34
1 -3 6 307.595 168.117 9
1 -3 6 147.44 134.148 29
1 -3 6 457.954 225.723 33
1 -3 7 35298.6 1807.3 23
1 -3 7 33315.1 1744.71 34
1 -3 7 32857.6 1692.16 30
1 -3 7 34510.3 1683.63 29
1 -3 7 30558.4 1596.67 28
1 -3 7 33073.4 1587.75 18
1 -3 7 35221.2 1783.11 33
1 -3 7 35933.2 1698.6 13
1 -3 7 33749.8 1568.07 12
1 -3 7 35966.4 1669.99 24
1 -3 8 11169.7 1015.94 23
1 -3 8 13041.8 1064.17 34
1 -3 8 11503 901.29 18
1 -3 8 12381 1011.74 32
1 -3 8 13902.3 1078.14 30
1 -3 8 12123.3 981.254 29
1 -3 8 11286.7 970.58 28
1 -3 9 424.403 231.936 23
1 -3 9 756.204 273.343 32
1 -3 9 734.148 235.524 18
1 -3 9 51.3964 176.34 9
1 -3 9 141.036 171.091 29
1 -3 9 622.753 251.692 28
1 -3 10 32721.2 1730.43 8
1 -3 10 33940.6 1717.37 31
1 -3 10 31859.8 1657.11 32
1 -3 11 12876.9 867.634 11
1 -3 11 14030.7 930.82 8
1 -3 11 12605.4 851.359 32
1 -3 11 12701.1 873.502 31
1 -3 12 2535.98 293.966 8
1 -3 12 1305.99 262.965 31
1 -2 -4 67380.5 1714.99 25
1 -2 -3 150285 3615.47 25
1 -2 -2 66431.4 1761.19 25
1 -2 1 908989 20355.5 28
1 -2 2 43172 1321.28 28
1 -2 3 28085.6 904.446 25
1 -2 4 187950 4995.4 28
1 -2 4 198848 4598.42 25
1 -2 5 9594.9 680.462 28
1 -2 6 173114 4885.98 30
1 -2 6 169828 4877.41 9
1 -2 6 169023 4794.56 28
1 -2 6 172175 4993.23 34
1 -2 6 175950 5022.83 29
1 -2 6 171378 4935.3 33
1 -2 6 167694 4890.06 13
1 -2 7 102092 3355.1 24
1 -2 7 99693.3 3464.93 23
1 -2 7 97362.1 3369.62 9
1 -2 7 100624 3380.31 30
1 -2 7 100995 3436.64 34
1 -2 7 93879.2 3118.42 18
1 -2 7 97490.2 3358.27 32
1 -2 7 97467 3331.79 17
1 -2 7 98822.7 3453.19 29
1 -2 7 99775.5 3345.65 28
1 -2 7 96689.1 3384.36 13
1 -2 7 95720.8 3300.1 12
1 -2 8 1438.57 357.075 24
1 -2 8 2270.49 447.713 23
1 -2 8 1250.32 285.626 18
1 -2 8 1052.86 317.278 32
1 -2 8 1502.88 358.762 17
1 -2 8 1516.68 371.617 9
1 -2 8 1454.2 373.691 29
1 -2 8 1527.14 354.597 28
1 -2 8 1282.07 358.407 13
1 -2 9 76122.5 2871.18 24
1 -2 9 77039.6 2949.1 23
1 -2 9 75756.1 2938.93 31
1 -2 9 76188.4 2964.17 32
1 -2 9 79015.6 3002.07 29
1 -2 9 66634.3 2790.89 10
1 -2 10 43804.4 1979.7 11
1 -2 10 48064.7 2106.65 8
1 -2 10 48664.8 2113.59 32
1 -2 10 43364.7 1997.18 31
1 -2 11 1953.45 323.189 11
1 -2 11 1441.96 298.307 31
1 -2 11 1726.24 313.242 32
1 -2 11 2027.08 346.589 8
1 -1 -2 62609 1568.49 25
1 -1 -1 467343 10513.6 25
1 -1 0 571232 12437.7 28
1 -1 0 534104 12546.2 25
1 -1 1 115671 2754.07 25
1 -1 2 4482.99 224.914 25
1 -1 3 5582.59 377.066 28
1 -1 3 4859.75 223.894 25
1 -1 4 83320.4 2441.97 28
1 -1 5 271259 6860.89 28
1 -1 6 84160.3 2873.09 24
1 -1 6 79255.8 2822.63 34
1 -1 6 83285.2 2832.27 17
1 -1 6 85924 2853.63 30
1 -1 6 82480.4 2843.15 32
1 -1 6 80360.8 2778.74 9
1 -1 6 85776.8 3041.7 29
1 -1 6 84901 2823.09 28
1 -1 6 83459.2 2927.56 12
1 -1 7 16025.5 1123.79 24
1 -1 7 15876.1 1130.08 23
1 -1 7 14416.2 1045.54 34
1 -1 7 16239.1 1141.93 32
1 -1 7 16001.3 1124.85 17
1 -1 7 16797.6 1214.54 29
1 -1 7 16475.9 1103.26 28
1 -1 7 17623.1 1205.95 13
1 -1 7 16386.2 1079.61 10
1 -1 7 15285.8 1128.91 12
1 -1 8 42121.7 1983.53 24
1 -1 8 38852.8 1933.39 23
1 -1 8 40656.1 2004.15 32
1 -1 8 37989.5 1951.55 17
1 -1 8 39579.9 1931.27 31
1 -1 8 39528.9 2048.6 29
1 -1 8 40573 2026.64 13
1 -1 8 37195.8 1843.81 10
1 -1 9 42582.9 2015.94 24
1 -1 9 46239.7 2041.1 23
1 -1 9 40870.7 1951.73 11
1 -1 9 40130.7 1922.21 10
1 -1 9 41107.1 2054.84 32
1 -1 9 43977.3 2120.76 17
1 -1 9 43006.6 2021.78 31
1 -1 10 203.319 163.564 24
1 -1 10 377.692 214.786 11
1 -1 10 277.667 166.643 8
1 -1 10 492.639 223.873 32
1 -1 10 124.19 194.403 31
1 -1 11 553.447 253.877 31
1 -1 11 662.976 239.872 32
1 0 -3 116528 2796.81 35
1 0 -2 357480 8122.89 35
1 0 -1 308815 7045.62 35
1 0 1 134102 3292.78 10
1 0 1 141521 3251.49 35
1 0 2 207024 4348.65 35
1 0 2 209177 4574.67 28
1 0 3 70815.5 1957.91 28
1 0 3 63858.9 1640.32 26
1 0 4 215256 5157.95 28
1 0 4 194466 4718.39 26
1 0 5 162450 4353.73 10
1 0 5 154153 4682.19 29
1 0 6 39418.1 1806.28 24
1 0 6 40521.5 1729.35 22
1 0 6 38127 1642.36 10
1 0 6 39987.5 1791.76 32
1 0 6 38034.4 1715.74 31
1 0 6 37120.8 1878.54 29
1 0 6 37765.5 1818.74 13
1 0 6 37889.7 1866 12
1 0 7 9681.9 878.882 24
1 0 7 8887.98 830.055 23
1 0 7 9367.68 796.697 11
1 0 7 8988.03 823.244 22
1 0 7 9946.06 959.901 29
1 0 7 8588.1 834.347 32
1 0 7 9190.79 823.925 31
1 0 7 9188.14 780.729 10
1 0 7 8162.37 857.305 13
1 0 8 114831 3922.1 24
1 0 8 112046 3711.04 11
1 0 8 113510 3772.87 23
1 0 8 103794 3617.01 10
1 0 8 117050 3976.07 32
1 0 8 114313 3826.38 31
1 0 8 120321 4078.85 13
1 0 9 8015.87 816.794 24
1 0 9 8350.69 753.094 11
1 0 9 7598.99 728.328 8
1 0 9 8090.82 840.329 32
1 0 9 8116.72 808.924 31
1 0 10 1428.56 325.13 24
1 0 10 823.609 324.386 32
1 0 10 1107.54 346.778 31
1 0 11 6337.52 536.295 32
1 1 -5 347973 8000.93 35
1 1 -4 306468 7183.33 35
1 1 2 7836.79 433.795 10
1 1 2 8359.66 403.854 35
1 1 3 206572 5257.93 10
1 1 3 221616 4984.37 35
1 1 3 212036 4990.01 26
1 1 4 343470 8050.01 10
1 1 4 327250 7635.91 26
1 1 5 32838.8 1561.24 24
1 1 5 31448.5 1346.4 10
1 1 5 34556.8 1549.49 32
1 1 5 34130.6 1466.11 31
1 1 5 30814.3 1624.04 29
1 1 5 31597.5 1566.44 13
1 1 5 31036.3 1629.67 12
1 1 6 17191.7 1163.21 24
1 1 6 15129.8 977.516 11
1 1 6 16713.2 1093.38 22
1 1 6 17229.6 1010.22 10
1 1 6 16677.5 1129.4 32
1 1 6 16777.9 1135.67 17
1 1 6 17163.1 1081.14 31
1 1 6 14727.7 1167.31 29
1 1 6 16818.7 1186.79 13
1 1 6 15944.4 1215.23 12
1 1 7 105606 3759.98 24
1 1 7 100374 3416.51 11
1 1 7 111509 3715.72 22
1 1 7 99571.1 3378.35 10
1 1 7 107070 3740.76 32
1 1 7 108909 3612.21 31
1 1 7 106334 3838.24 13
1 1 8 11707.9 1026.64 24
1 1 8 9726.95 803.695 11
1 1 8 9140.02 920.35 32
1 1 8 9506.16 943.638 17
1 1 8 10616.8 913.128 31
1 1 8 11146.1 1011.14 13
1 1 9 12010.1 982.511 24
1 1 9 12616.8 1048.99 17
1 1 9 13494.2 964.415 31
1 1 9 12818.3 1021.49 32
1 1 10 5526.91 562.928 24
1 1 10 6234.53 623.194 32
1 1 11 1121.65 229.196 32
1 2 -5 156494 4089.28 35
1 2 -3 2818.28 301.308 36
1 2 -2 172195 4419.43 36
1 2 0 480978 11245.5 36
1 2 3 753809 17082.9 35
1 2 4 56668.8 1947.38 31
1 2 4 47476.9 2025.65 29
1 2 5 19066.4 1038.09 11
1 2 5 22153.2 1235.61 22
1 2 5 20065 1133.4 31
1 2 5 21267 1238.59 21
1 2 5 19086.7 1265.1 29
1 2 5 19187.7 1242.11 13
1 2 5 20519 1340.96 12
1 2 6 50861.6 1981.7 11
1 2 6 50284.3 2295.94 24
1 2 6 52666.1 2258.86 22
1 2 6 52764.5 2309.58 17
1 2 6 51679.5 2118.44 31
1 2 6 52412.3 2350.24 13
1 2 7 30972.8 1756.54 24
1 2 7 29397.3 1666.66 22
1 2 7 32088 1614.69 31
1 2 7 27249.4 1661.03 13
1 2 7 31718.2 1767.98 17
1 2 8 32276 1759.3 24
1 2 8 30142.8 1673.2 22
1 2 8 32515.1 1790.38 17
1 2 8 33623.6 1610.6 31
1 2 9 10152.1 843.019 24
1 2 9 9817.37 847.82 17
1 2 9 8808.94 799.926 32
1 2 10 571.428 178.912 24
1 2 10 1513.41 330.184 32
1 3 -6 29012.6 1275.78 35
1 3 -4 100198 2988.56 36
1 3 -3 206939 5420.52 36
1 3 -2 142255 3986.95 36
1 3 0 71934.8 2358.05 36
1 3 3 42210.1 1780.96 21
1 3 3 41350.3 1474.84 35
1 3 3 40046.3 1774.41 27
1 3 4 81498.8 2706.11 31
1 3 4 80581.7 2968.72 27
1 3 5 4525 587.773 22
1 3 5 3295.15 534.144 13
1 3 5 3922.53 573.248 21
1 3 6 1881.89 433.605 17
1 3 6 1521.47 365.24 22
1 3 6 1363.08 358.403 13
1 3 7 19417.3 1358.61 24
1 3 7 19421.4 1308.43 22
1 3 7 20355.9 1377.6 17
1 3 8 28079.8 1535.19 24
1 3 8 25077.8 1436.25 22
1 3 8 26119.7 1497.82 17
1 3 9 842.345 233.034 24
1 3 10 4637.6 347.857 24
1 4 -4 11835.8 843.413 36
1 4 -3 64363.5 2354.83 36
1 4 -2 444993 11025.2 36
1 4 -1 65743.8 2420.86 36
1 4 0 101655 3291.5 36
1 4 2 108479 3571.91 21
1 4 2 112055 3442.49 37
1 4 2 108804 3370.01 16
1 4 2 110278 3548.48 27
1 4 3 23154.4 1291.36 32
1 4 3 19071.7 1170.76 16
1 4 3 19371.5 1268.92 27
1 4 3 19346.6 1261.74 21
1 4 4 24248 1524.4 21
1 4 4 28994.8 1568.87 32
1 4 4 26847.3 1598.74 27
1 4 5 5895.16 762.789 32
1 4 5 5569.28 708.854 17
1 4 6 7233.09 789.688 22
1 4 6 5742.63 768.893 32
1 4 6 6227.76 748.254 17
1 4 7 49447.1 2152.92 22
1 4 7 46454.6 2117.61 17
1 4 8 1293.62 300.428 24
1 4 8 1778.88 329.65 17
1 4 9 4664.47 398.556 24
1 5 -6 195529 5604.04 37
1 5 -5 631.037 221.129 7
1 5 -5 494.305 237.721 37
1 5 -4 32090.1 1660.5 37
1 5 -4 28864.5 1453.43 7
1 5 -3 459970 11888.4 37
1 5 -3 475296 11815.5 36
1 5 -1 51843.4 2332.88 37
1 5 -1 51262.6 2251.02 36
1 5 0 43375.1 2086.27 37
1 5 1 140327 4455.9 21
1 5 1 137199 4122 16
1 5 1 147054 4414.27 27
1 5 1 144432 4533.97 37
1 5 2 29834.4 1524.37 37
1 5 2 27507.7 1516.91 35
1 5 2 26950.2 1587.88 21
1 5 2 27124.9 1433.68 16
1 5 2 30431.5 1639.32 27
1 5 3 81505.8 3273.24 21
1 5 3 91826.4 3375.71 27
1 5 4 478.871 232.733 22
1 5 4 352.261 225.244 21
1 5 4 627.655 276.805 27
1 5 5 16557.3 1246.96 24
1 5 5 14950.3 1130.47 17
1 5 6 76888.3 2837.63 24
1 5 6 65116.3 2583.38 17
1 5 7 5441.36 584.056 24
1 5 7 4593.24 528.497 22
1 5 7 4509.46 486.279 17
1 6 -7 149739 4574.32 37
1 6 -6 13306.4 1055.27 37
1 6 -5 13159.9 1088.03 37
1 6 -4 106867 3840.1 37
1 6 -3 127618 4404.91 37
1 6 -1 13758.7 1182.9 37
1 6 -1 13550.8 1014.64 21
1 6 0 2095.69 474.991 37
1 6 0 1872.12 415.632 21
1 6 0 1643.85 363.447 27
1 6 1 8497.35 873.152 37
1 6 1 9057.37 900.077 21
1 6 1 9321.8 877.431 27
1 6 1 8200.21 892.025 35
1 6 2 58914.1 2604.38 21
1 6 2 55808.3 2293.02 37
1 6 2 55617 2469.27 27
1 6 3 3638.27 605.509 21
1 6 3 4245.96 624.932 27
1 6 4 12173.5 1026.4 22
1 6 4 12481.6 943.363 17
1 6 5 77605.3 2835.43 24
1 6 5 74489.8 2800.93 22
1 6 5 74292.2 2552.3 17
1 6 6 15514.9 946.841 24
1 6 7 2928.7 293.477 24
1 7 -7 51257.6 2192.09 37
1 7 -6 22816.1 1525.29 35
1 7 -6 26473.9 1556.49 37
1 7 -5 98286.3 3643.77 37
1 7 -4 76759.5 3187.85 37
1 7 -3 2131.01 488.652 37
1 7 -2 49752.8 2477.93 37
1 7 -1 5817.67 777.156 37
1 7 -1 4397.35 581.914 21
1 7 -1 5051.75 591.786 27
1 7 0 22884.3 1400.94 21
1 7 0 22040.7 1477.06 37
1 7 0 17164.3 1389.08 35
1 7 0 18122.2 1203.16 27
1 7 1 55592.6 2418.4 21
1 7 1 51749.4 2255.7 27
1 7 1 52211.7 2306.49 37
1 7 2 63902.7 2559.49 27
1 7 3 16420.9 1144.87 22
1 7 4 42088.8 1759.28 24
1 7 4 42101.5 1832.44 22
1 7 5 11146.7 749.087 22
1 8 -7 3748.45 503.159 37
1 8 -6 24318.6 1441.84 37
1 8 -5 26823.6 1597.61 37
1 8 -4 224.682 235.872 37
1 8 -2 3954.28 619.578 37
1 8 -1 27025.1 1607.75 37
1 8 0 93976.1 3300.17 37
1 8 2 15444.8 1000.52 22
1 8 3 37753.7 1546.02 22
1 8 4 19226.9 855.063 22
1 9 -7 14978.9 853.046 37
1 9 -6 10247.7 779.218 37
1 9 -5 79.2008 151.779 37
1 9 -4 35003.6 1690.09 37
1 9 -2 13968.6 976.392 37
1 9 0 19474.3 992.91 22
1 9 1 1405.15 232.857 22
1 10 -5 10460.7 624.16 37
1 10 -4 40569.7 1471.27 37
1 10 -3 3812.75 365.335 37
2 -11 5 25993.6 1121.01 33
2 -11 6 2666.84 296.488 33
2 -10 -4 8206.87 519.813 3
2 -10 0 3462.62 512.351 4
2 -10 1 18854.4 1251.76 4
2 -10 2 14009.5 1083.02 4
2 -10 4 30017.5 1556.56 4
2 -10 5 17195.1 1051.61 4
2 -10 6 4263.03 460.413 18
2 -10 7 20909.2 1093.63 33
2 -10 7 21442.4 1025.17 18
2 -10 8 17151 839.509 33
2 -10 8 15371.8 764.243 18
2 -9 -5 14239.2 874.87 3
2 -9 -2 31483.2 1575.93 4
2 -9 -1 206.197 187.48 4
2 -9 0 90864.4 3484.27 4
2 -9 1 49354.4 2419.74 4
2 -9 2 10793.4 1040.92 4
2 -9 4 37513.3 1938.15 4
2 -9 5 3650.49 549.97 4
2 -9 6 12690.2 907.131 4
2 -9 7 21799.7 1316.05 33
2 -9 8 10039.2 740.837 18
2 -9 9 24758.2 1118.44 33
2 -8 -6 21451.3 1179.61 3
2 -8 -2 4016.42 596.915 4
2 -8 -2 3608.03 570.464 25
2 -8 -1 117730 4158.12 4
2 -8 -1 117261 4139.25 25
2 -8 0 35899.9 2024.32 4
2 -8 0 37170.8 2028.89 25
2 -8 1 -62.8663 186.629 4
2 -8 1 121.578 180.463 25
2 -8 2 24024.2 1607.86 4
2 -8 3 36937.7 2018.13 4
2 -8 3 36556.9 1970.91 25
2 -8 4 30419.5 1750.24 4
2 -8 4 28907.9 1687.45 25
2 -8 5 47832.6 2006.74 34
2 -8 5 47744.7 2169.19 4
2 -8 5 43565.4 1912.95 30
2 -8 5 46541.8 2147.97 25
2 -8 6 31487.3 1583.76 4
2 -8 6 31550.2 1596.65 34
2 -8 6 32028.7 1568.99 30
2 -8 7 2557.04 439.84 34
2 -8 7 2146.98 371.321 9
2 -8 7 2129.17 395.67 30
2 -8 8 56653.4 2128.27 9
2 -8 8 63422.3 2457.27 33
2 -8 8 58528.7 2190.95 30
2 -8 9 14279.1 932.302 33
2 -8 9 13531.8 882.258 18
2 -8 10 17.343 81.4236 11
2 -8 10 204.925 116.503 18
2 -7 -7 10108.1 778.586 3
2 -7 -3 3203.8 498.895 4
2 -7 -2 50618.1 2260.4 4
2 -7 -2 48946 2212.59 25
2 -7 -1 127667 4313.19 4
2 -7 -1 129709 4253.97 25
2 -7 0 27764.6 1663.21 4
2 -7 0 28110.9 1619.04 25
2 -7 1 53597.8 2465.59 4
2 -7 1 53478.5 2389.77 25
2 -7 2 54615.8 1994.5 28
2 -7 3 7841.89 838.104 4
2 -7 3 7021.17 641.224 28
2 -7 3 8746.97 859.262 25
2 -7 4 164277 4950.74 4
2 -7 4 148644 4520.33 28
2 -7 4 154203 4649.82 34
2 -7 4 156380 4840.69 25
2 -7 5 34660.8 1638.77 9
2 -7 5 34432 1753.52 34
2 -7 5 32762.9 1644.56 28
2 -7 5 35940.9 1784.09 4
2 -7 5 35776.2 1758.6 25
2 -7 6 17508.5 1114.07 4
2 -7 6 18516.5 1181.82 9
2 -7 6 19908.8 1202.29 8
2 -7 6 17275.9 1226.04 34
2 -7 6 19009.2 1220.48 30
2 -7 6 14417.7 1080.45 28
2 -7 7 25604.9 1447.29 9
2 -7 7 24934.6 1502.86 34
2 -7 7 28698.1 1672.01 33
2 -7 7 25842 1436.8 8
2 -7 7 26023.1 1474.27 30
2 -7 7 21509.9 1355.4 28
2 -7 8 25951.3 1500.77 33
2 -7 8 20255 1257.35 8
2 -7 8 25330 1453.49 18
2 -7 8 22963.4 1346.76 30
2 -7 8 23302.7 1347.64 9
2 -7 8 22455.1 1400.63 34
2 -7 9 41.5743 142.512 33
2 -7 9 36.1238 131.34 8
2 -7 9 -37.6253 144.199 30
2 -7 9 -38.415 139.671 18
2 -7 10 2897.46 364.291 18
2 -7 10 2344.35 340.388 31
2 -7 10 1877.58 305.746 8
2 -7 11 3226.69 305.929 11
2 -7 11 3529.21 310.985 31
2 -6 -8 12499.1 816.716 3
2 -6 -3 3785.35 484.019 25
2 -6 -2 58139.8 2305.23 4
2 -6 -2 56981.7 2264.38 25
2 -6 -1 1575.11 358.518 4
2 -6 -1 2694.06 425.042 25
2 -6 0 24676.9 1420.54 4
2 -6 0 25170.2 1389.25 25
2 -6 1 55475.1 2309.62 4
2 -6 1 52701.4 1803.4 28
2 -6 2 7591.19 776.807 4
2 -6 2 8232.19 616.469 28
2 -6 2 8843.83 779.922 25
2 -6 3 267712 7480.5 4
2 -6 3 273326 7115.91 28
2 -6 3 293145 7433.29 25
2 -6 4 38391.7 1804.02 4
2 -6 4 36705.8 1663.41 28
2 -6 4 39413.7 1781.74 25
2 -6 5 93.2434 149.504 34
2 -6 5 159.185 127.619 4
2 -6 5 84.5158 153.653 8
2 -6 5 163.32 156.492 9
2 -6 5 41.1689 99.8051 28
2 -6 5 38.676 93.7636 25
2 -6 6 50738 2232.16 8
2 -6 6 52638.5 2241.61 9
2 -6 6 51537.9 2228.85 30
2 -6 6 50712.7 2314.54 34
2 -6 6 53289.9 2238.56 28
2 -6 7 106731 3661.09 9
2 -6 7 107130 3806.76 33
2 -6 7 104756 3669.14 8
2 -6 7 106722 3645.7 30
2 -6 7 105262 3749.14 34
2 -6 7 95923.4 3506.82 28
2 -6 8 10901.9 971.44 34
2 -6 8 9473.42 892.95 9
2 -6 8 9380.63 910.119 33
2 -6 8 10098.1 924.787 8
2 -6 8 9570.17 886.477 18
2 -6 8 9398.32 878.307 30
2 -6 9 44504.5 1996.81 33
2 -6 9 41985.8 1892.78 18
2 -6 9 43040.2 1976.01 8
2 -6 10 50163.3 1974.46 8
2 -6 10 48234.6 1932.86 31
2 -6 11 4561.42 421.419 11
2 -6 11 3696.54 389.389 8
2 -5 -8 619.137 215.345 3
2 -5 -4 6939.93 559.863 25
2 -5 -3 98672.2 3028.54 25
2 -5 -2 29993.5 1351.24 25
2 -5 -1 161490 4516.09 25
2 -5 0 396742 9343.89 28
2 -5 0 410979 9912.67 25
2 -5 1 1845.24 240.618 28
2 -5 2 302593 7404.53 28
2 -5 2 303033 7680.56 25
2 -5 3 136545 3978.89 28
2 -5 3 151728 4143.82 25
2 -5 4 27106.8 1327.87 28
2 -5 4 30891.4 1389.5 25
2 -5 5 24277 1325.16 9
2 -5 5 23556.1 1345.95 8
2 -5 5 22102.2 1260.67 30
2 -5 5 21242 1202.28 29
2 -5 5 22574.4 1259.26 28
2 -5 5 24047.3 1174.99 25
2 -5 6 74135.6 2852.17 34
2 -5 6 72274.3 2737.52 9
2 -5 6 65705.9 2633.96 30
2 -5 6 69622 2580.69 29
2 -5 6 71260.9 2786.38 8
2 -5 6 69294.2 2660.51 28
2 -5 7 3721.13 594.156 34
2 -5 7 4024.95 594.211 9
2 -5 7 5011.16 661.951 33
2 -5 7 4498.39 643.682 8
2 -5 7 3856.76 580.285 18
2 -5 7 5778.09 682.266 30
2 -5 7 4450.85 577.565 29
2 -5 7 5423.11 655.802 28
2 -5 8 55925.9 2418.05 33
2 -5 8 55070.7 2232.43 32
2 -5 8 55461.6 2355.36 18
2 -5 8 54806.2 2462.93 8
2 -5 8 52817.5 2371.32 30
2 -5 8 51592.6 2197.33 29
2 -5 8 54505.5 2422.45 9
2 -5 8 54514.7 2393.95 28
2 -5 9 14173.5 997.44 18
2 -5 9 11449.8 997.472 8
2 -5 9 12464.5 905.239 29
2 -5 10 26510.1 1398.2 11
2 -5 10 27567 1444.12 8
2 -5 11 30046.5 1267.8 11
2 -5 11 29220.9 1281.57 8
2 -5 11 28955.2 1251.96 31
2 -4 -8 8042.51 756.097 3
2 -4 -4 21834.9 954.779 25
2 -4 -3 3155.1 337.845 25
2 -4 -2 452950 10745.2 25
2 -4 -1 128867 3129.54 28
2 -4 -1 150928 3716.08 25
2 -4 0 43673.6 1273.01 28
2 -4 0 46172.5 1623.82 25
2 -4 1 325201 7648.22 28
2 -4 2 565978 12964.5 28
2 -4 2 551658 13164.6 25
2 -4 3 687.293 182.149 28
2 -4 3 536.469 167.711 25
2 -4 4 21336.4 1100.32 28
2 -4 4 23091.9 1063.68 25
2 -4 5 73847.1 2659.25 9
2 -4 5 74313.1 2640.97 30
2 -4 5 78369.7 2703.81 29
2 -4 5 71260.5 2591.38 28
2 -4 5 77410.2 2266.03 25
2 -4 6 15649.9 1082.35 30
2 -4 6 15281.4 1098.99 9
2 -4 6 15608.1 1106.93 33
2 -4 6 16455.5 1103.12 29
2 -4 6 15277.1 1040.65 28
2 -4 6 14960.2 993.868 13
2 -4 6 15265.7 960.231 12
2 -4 7 44736.1 2080.99 30
2 -4 7 43017.2 2080.72 9
2 -4 7 41966.3 1906.11 32
2 -4 7 46146 2068.86 18
2 -4 7 44052.4 2119.92 34
2 -4 7 43739.1 2034.49 29
2 -4 7 44939.4 2079.54 33
2 -4 7 41601 2010.75 28
2 -4 7 43991.4 1970.78 13
2 -4 7 41647.6 1835.21 12
2 -4 8 18231.1 1306.02 34
2 -4 8 21279.6 1439.28 8
2 -4 8 17057.8 1181.64 18
2 -4 8 17937.7 1233.14 29
2 -4 8 17319.2 1173.84 32
2 -4 9 6077.1 638.455 18
2 -4 9 5570.5 635.551 32
2 -4 9 7197.59 772.92 31
2 -4 9 7923.11 772.978 29
2 -4 10 43060.2 1902.28 31
2 -4 11 10109.3 687.707 11
2 -4 11 9773.19 682.158 31
2 -4 11 9492.28 682.012 8
2 -3 -7 1170.02 317.934 3
2 -3 -4 3234.27 287.386 25
2 -3 -3 360634 8493.38 25
2 -3 -2 276099 6636.18 25
2 -3 -1 67549.2 1976.89 25
2 -3 0 168924 3910.54 28
2 -3 0 166320 4261.63 25
2 -3 1 564617 12799.5 28
2 -3 1 562358 13025.2 25
2 -3 2 6346.62 415.473 28
2 -3 2 5708.12 421.204 25
2 -3 3 92769.7 2734.32 28
2 -3 3 99530.1 2695.75 25
2 -3 4 276641 7013.64 28
2 -3 4 279477 6675.24 25
2 -3 5 905.871 243.141 30
2 -3 5 937.491 259.835 29
2 -3 5 564.608 189.532 28
2 -3 6 207482 5851.38 24
2 -3 6 202734 5871.1 23
2 -3 6 208009 5877.91 9
2 -3 6 208619 5926.84 34
2 -3 6 197500 5622.42 32
2 -3 6 202000 5719.18 18
2 -3 6 204008 5614.22 17
2 -3 6 213377 5962.23 29
2 -3 6 210499 5798.75 33
2 -3 6 202839 5758.62 13
2 -3 6 201361 5689.89 12
2 -3 7 42324.4 2005.49 24
2 -3 7 45830.8 2113.44 9
2 -3 7 40551.6 1905.69 18
2 -3 7 43429.7 1925.97 17
2 -3 7 40527.4 1942.16 33
2 -3 7 45511.9 2117.26 34
2 -3 7 45610.2 2117.36 29
2 -3 7 46277.2 2080.32 13
2 -3 7 41342.7 1935.03 12
2 -3 7 40894.2 1912.47 32
2 -3 8 9276.29 891.78 34
2 -3 8 8148.79 768.18 18
2 -3 8 8224.36 810.125 32
2 -3 8 8530.32 908.415 8
2 -3 8 10237 955.787 29
2 -3 8 8883.01 883.497 28
2 -3 8 8070.95 839.671 13
2 -3 9 37699.9 1915.23 11
2 -3 9 42706.7 2052.74 8
2 -3 9 36442.7 1799.82 32
2 -3 9 37978.5 1927.03 31
2 -3 9 39268.2 1926.46 29
2 -3 10 28336.1 1463.3 11
2 -3 10 27527.1 1458.73 31
2 -3 10 29107.9 1507.15 8
2 -3 11 124.704 120.926 11
2 -3 11 328.08 149.854 8
2 -3 11 -132.446 203.051 31
2 -2 -4 621656 14123.7 25
2 -2 -3 343720 7989.45 25
2 -2 -2 16779.3 670.828 25
2 -2 -1 1912.34 203.035 25
2 -2 0 198438 4687.01 10
2 -2 0 205806 4649.78 28
2 -2 1 66636.9 1772.15 28
2 -2 1 66934.2 1860.5 25
2 -2 2 248179 5902.56 28
2 -2 2 245030 5864.77 25
2 -2 3 83948.3 2401.99 28
2 -2 3 80597.5 2194.73 25
2 -2 4 98228.3 2509.13 25
2 -2 5 314498 8295.06 29
2 -2 6 39948 1863.1 24
2 -2 6 38980.5 1810.11 23
2 -2 6 39026.3 1772.36 32
2 -2 6 42090.2 1816.22 17
2 -2 6 43723 1938.01 34
2 -2 6 42443.5 2009.26 29
2 -2 6 34477.2 1730.97 28
2 -2 6 42418 1785.54 18
2 -2 6 39849.8 1878.03 13
2 -2 6 40803.9 1889.51 12
2 -2 7 197.597 207.431 12
2 -2 7 147.593 168.692 24
2 -2 7 229.608 176.04 23
2 -2 7 -48.0859 116.624 10
2 -2 7 271.936 182.221 32
2 -2 7 704.197 254.48 34
2 -2 7 98.1673 145.767 31
2 -2 7 184.519 185.464 17
2 -2 7 257.271 197.239 13
2 -2 8 17657.5 1255.42 24
2 -2 8 18782.1 1294.63 11
2 -2 8 18919.7 1325.45 8
2 -2 8 17094.6 1210.67 32
2 -2 8 18197.2 1255.35 17
2 -2 8 17260 1256.53 31
2 -2 8 18143.6 1332.56 29
2 -2 8 16978.9 1222.91 10
2 -2 9 70087.9 2747.66 11
2 -2 9 72092.2 2798.25 8
2 -2 9 66942.8 2659.63 32
2 -2 9 73675.5 2881.23 29
2 -2 9 68245.9 2748.77 31
2 -2 9 72678.3 2780.92 24
2 -2 10 615.838 215.589 11
2 -2 10 747.644 236.791 8
2 -2 10 655.712 234.197 31
2 -2 11 4187.18 423.073 31
2 -1 -3 20149.8 758.323 35
2 -1 -3 21579.6 767.862 25
2 -1 -2 2049.34 202.542 35
2 -1 -2 2139.99 206.929 25
2 -1 -1 455994 10499.7 35
2 -1 -1 461166 10490.5 25
2 -1 0 99784.7 2479.62 10
2 -1 1 390235 8952.66 10
2 -1 1 392766 8925.68 35
2 -1 1 381112 8943.56 25
2 -1 2 15380.3 683.548 10
2 -1 2 14440.1 607.786 25
2 -1 3 114599 3151.96 10
2 -1 4 160736 4379.22 28
2 -1 5 274871 7325.15 24
2 -1 5 282060 7153.3 32
2 -1 5 278703 7221.23 31
2 -1 5 279288 7168.27 10
2 -1 5 286479 7339.91 13
2 -1 6 5122.9 625.497 24
2 -1 6 4449.54 558.401 11
2 -1 6 4878.11 526.838 22
2 -1 6 4723.99 560.4 10
2 -1 6 3966.68 524.722 34
2 -1 6 4235.81 545.038 32
2 -1 6 2991.34 481.853 31
2 -1 6 5516.99 627.001 17
2 -1 6 5295.44 674.08 29
2 -1 6 4286.09 584.733 13
2 -1 7 1021.56 298.736 10
2 -1 7 1395.62 371.377 24
2 -1 7 665.457 265.059 11
2 -1 7 1315.82 345.215 8
2 -1 7 1334 342.425 32
2 -1 7 1243.24 357.353 17
2 -1 7 1029.84 320.945 31
2 -1 7 939.056 334.479 29
2 -1 7 1146.02 356.962 13
2 -1 8 70227.8 2747.36 24
2 -1 8 59836.3 2523.98 11
2 -1 8 54740.2 2427.85 10
2 -1 8 58863.7 2487.51 8
2 -1 8 63659.5 2614.66 31
2 -1 8 58962.2 2523.96 32
2 -1 8 62500.5 2627.39 17
2 -1 8 61761.3 2732.22 29
2 -1 8 65744.7 2736.05 13
2 -1 9 -47.0539 150.88 24
2 -1 9 127.968 163.481 11
2 -1 9 91.9958 167.242 31
2 -1 9 -39.9573 145.279 8
2 -1 9 -264.622 370.321 32
2 -1 9 96.0622 174.634 17
2 -1 10 12774.9 860.356 31
2 0 -5 539636 12341.3 35
2 0 -4 1644.65 201.633 35
2 0 -3 4341.95 330.765 35
2 0 -2 6075.8 395.216 35
2 0 -1 25606.2 934.097 35
2 0 0 734200 16644.9 35
2 0 1 229616 5496.46 10
2 0 1 227248 5452.73 35
2 0 2 60039.7 1678.06 35
2 0 3 143656 3843.86 10
2 0 4 511070 11987.6 10
2 0 4 518854 12087.1 31
2 0 5 2544.21 459.862 12
2 0 5 2254.21 375.882 11
2 0 5 2498.42 374.289 10
2 0 5 2899.71 427.643 31
2 0 5 2349.15 400.146 32
2 0 5 1895.52 407.281 29
2 0 5 2446.32 424.833 13
2 0 6 13747.7 1072.53 24
2 0 6 12061.2 935.746 11
2 0 6 14592.1 983.436 22
2 0 6 12028.8 916.015 10
2 0 6 11900.9 899.471 8
2 0 6 13432.6 1009.88 32
2 0 6 13396.2 1006.17 31
2 0 6 13856.5 1045.59 17
2 0 6 13347.8 1120.99 29
2 0 6 11342.6 999.478 13
2 0 6 15019.6 1172.64 12
2 0 7 47005.1 2202.07 24
2 0 7 42564.2 1974.76 11
2 0 7 45034.9 1981.63 22
2 0 7 41814.5 1942.12 10
2 0 7 41601.7 1877.47 8
2 0 7 43166.5 2051.1 32
2 0 7 43275.1 2121.07 17
2 0 7 41607 2017.79 31
2 0 7 41377.3 2142.27 13
2 0 7 45646.2 2265.92 12
2 0 8 1908.11 427.373 24
2 0 8 1488.55 341.347 11
2 0 8 1447.91 380.398 17
2 0 8 1129.95 378.011 32
2 0 8 1695.76 372.834 31
2 0 8 1388.72 376.281 13
2 0 9 47084.7 2041.23 24
2 0 9 42865 1921.5 32
2 0 9 47369.6 2084.45 17
2 0 9 43784.8 1912.42 31
2 0 10 9347.1 683.002 24
2 1 -6 86184.7 2437.23 35
2 1 -5 97486.4 2761.9 35
2 1 -4 184549 4750.35 35
2 1 -3 110416 3094.06 35
2 1 -2 4952.47 421.202 35
2 1 0 815439 18639.2 35
2 1 1 5049.73 394.152 35
2 1 2 42863.2 1388.15 35
2 1 3 393920 9121.8 35
2 1 4 68702.8 2584.3 24
2 1 4 71015.3 2395.43 11
2 1 4 71136.4 2427.9 21
2 1 4 72370.9 2477.8 31
2 1 4 70939.1 2474.04 16
2 1 4 68936.8 2634.67 29
2 1 4 67971.3 2435.74 32
2 1 4 67634.1 2660.71 12
2 1 5 68745.9 2479.48 11
2 1 5 76076.4 2591.15 22
2 1 5 70873.9 2598.55 32
2 1 5 67806.1 2547.26 31
2 1 5 66261 2754.19 29
2 1 5 70983.6 2739.11 13
2 1 5 62168.4 2445.54 21
2 1 5 66727.9 2785.64 12
2 1 6 16727.5 1103.9 11
2 1 6 17915.7 1170.37 22
2 1 6 17779.3 1218.55 32
2 1 6 18429.2 1275.71 17
2 1 6 17088 1162.75 31
2 1 6 17259.8 1309.69 29
2 1 6 15948.8 1226.31 13
2 1 6 17070 1326.31 12
2 1 7 4086.04 628.234 24
2 1 7 3321.85 498.713 11
2 1 7 4288.16 581.594 22
2 1 7 4017.43 609.203 32
2 1 7 3826.72 595.739 17
2 1 7 4710.26 626.63 31
2 1 7 4946.14 674.084 13
2 1 8 43425.6 2057.42 24
2 1 8 40871.8 2012.25 17
2 1 8 45259.3 1953.6 31
2 1 8 42680.9 2049.5 13
2 1 8 37473 1884.66 32
2 1 9 21719.4 1226.3 24
2 1 9 21587.5 1185.01 32
2 2 -6 185823 4936.32 35
2 2 -5 140727 3985.62 35
2 2 -4 145593 4113.11 35
2 2 -3 11382.9 767.986 35
2 2 -2 52150.3 1924.13 35
2 2 0 827.177 214.746 35
2 2 1 171332 4584.24 35
2 2 2 76374.5 2339.63 35
2 2 3 5828.38 591.86 21
2 2 3 7164.55 467.893 35
2 2 3 7335.16 649.848 32
2 2 3 6105.36 588.398 16
2 2 3 7492.97 665.704 31
2 2 3 6576.14 625.898 29
2 2 3 6825.96 672.97 27
2 2 4 66721.6 2659.23 24
2 2 4 70796.1 2551.62 32
2 2 4 68311 2466.43 31
2 2 4 66737.6 2535.15 16
2 2 4 67562.1 2593.81 29
2 2 4 65896.3 2521.11 21
2 2 4 66787.3 2615.11 13
2 2 4 65276.8 2689.6 12
2 2 5 16909.2 1258.04 24
2 2 5 19098.3 1213.78 22
2 2 5 17758.2 1199.31 21
2 2 5 16000.9 1145.95 32
2 2 5 16136.7 1215.35 13
2 2 5 17789.6 1312.93 12
2 2 6 3253 510.386 22
2 2 6 3625.53 603.759 32
2 2 6 3151.58 536.416 17
2 2 6 2383.59 490.452 13
2 2 7 55451.2 2332.52 22
2 2 7 53270.5 2352.02 32
2 2 7 61229 2573.64 17
2 2 7 58486.7 2481.31 13
2 2 8 62929.9 2464.18 24
2 2 8 61183.7 2448.64 17
2 2 8 56916.2 2296.59 32
2 2 9 58.4824 117.541 24
2 2 9 30.1901 109.77 17
2 3 -6 84524.2 2860.5 35
2 3 -5 217174 5983.2 35
2 3 -4 1640.75 333.387 35
2 3 0 31040.2 1512.54 35
2 3 1 33664.5 1536.86 35
2 3 2 45121.2 1738.08 35
2 3 2 44264.7 1833.26 32
2 3 2 43609.8 1803.09 16
2 3 2 40603.7 1862.46 27
2 3 3 20660.4 1237.47 32
2 3 3 20110.7 1213.42 16
2 3 3 18763.1 1264.36 27
2 3 4 42761.6 2103.93 24
2 3 4 43683.1 1974.67 32
2 3 4 40053.8 1973.26 21
2 3 4 39290.3 1930.81 13
2 3 5 920.393 320.061 24
2 3 5 876.218 289.66 22
2 3 5 734.844 285.139 21
2 3 5 660.803 254.729 13
2 3 6 43122 2138.14 24
2 3 6 40487.7 1954.48 22
2 3 6 39310.2 1971.32 32
2 3 6 43129.5 2086.33 17
2 3 6 41926.9 1963.05 13
2 3 7 67997.9 2678.97 24
2 3 7 63592 2482.64 22
2 3 7 70308.4 2686.09 17
2 3 8 2789.73 403.836 17
2 4 -7 21439.1 1249.1 35
2 4 -7 20223.2 1168.91 7
2 4 -6 333866 8820.45 35
2 4 -6 329509 8576.43 7
2 4 -6 342980 8787.45 37
2 4 -5 15089.5 1076.51 37
2 4 -5 13681.3 1063.29 35
2 4 -5 15212.9 1009.08 7
2 4 -4 52240.9 2091.27 7
2 4 -4 48891.9 2173.29 37
2 4 -3 131984 4235.61 37
2 4 -3 131967 4070.3 7
2 4 -2 216588 6011.9 7
2 4 -1 82082.7 3064.65 37
2 4 0 97095.3 3361.32 37
2 4 0 90885.2 3343.53 35
2 4 1 1620.75 359.241 35
2 4 1 1340.92 324.761 37
2 4 1 1226.38 290.19 16
2 4 1 1830.98 372.003 27
2 4 2 72112.9 2896.95 21
2 4 2 78171.8 2702.27 35
2 4 2 76291.1 2793.62 16
2 4 2 77405.9 2934.56 27
2 4 3 114274 3846.76 16
2 4 3 117671 4033.99 21
2 4 4 284.506 206.901 24
2 4 4 50.5891 137.123 22
2 4 5 11405.5 1015.21 24
2 4 5 10337.7 922.692 22
2 4 5 11283.5 985.879 17
2 4 6 62556.8 2513.71 24
2 4 6 58563 2363.91 22
2 4 6 59033.9 2417.67 17
2 4 7 11144.9 813.074 24
2 4 7 10174.7 741.923 22
2 4 7 10543 781.318 17
2 4 8 4286.61 366.674 24
2 5 -7 117017 3987.54 35
2 5 -7 123280 3832.8 7
2 5 -7 127554 4032.58 37
2 5 -6 28427 1603.49 37
2 5 -6 26772.8 1607.43 35
2 5 -6 27243.5 1466.94 7
2 5 -5 92643.8 3402.47 37
2 5 -5 92106.2 3468.23 35
2 5 -5 88019.3 3158.92 7
2 5 -4 50586 2341.2 37
2 5 -4 46504.5 2327.95 35
2 5 -4 51255.8 2200.07 7
2 5 -3 14692 1183.47 37
2 5 -2 48086.2 2332.27 37
2 5 -2 47208.5 2376.62 35
2 5 -1 37201.6 1983.25 37
2 5 -1 32117.7 1917.39 35
2 5 0 2594.49 509.535 35
2 5 0 3156.95 464.088 16
2 5 0 2929.96 531.588 37
2 5 0 3100.48 469.202 27
2 5 1 36245.6 1849.67 37
2 5 1 38460.2 1972.94 21
2 5 1 35624.5 1868.67 35
2 5 1 35483.8 1729.17 16
2 5 1 36104 1810.87 27
2 5 2 184357 5636.16 21
2 5 2 176829 5327.34 16
2 5 2 177882 5474.4 27
2 5 3 5787.26 710.336 24
2 5 3 3987.93 627.549 21
2 5 4 18962.1 1289.32 24
2 5 4 16431 1189.78 22
2 5 5 43930.1 1977.73 24
2 5 5 47021.2 2005.59 22
2 5 5 43394 1922.75 17
2 5 6 19045 1049.6 24
2 5 6 17475.6 1015.56 22
2 5 6 18792.4 999.639 17
2 6 -7 44834.2 2164.87 35
2 6 -7 50681.5 2209.12 37
2 6 -6 17965.9 1292.56 37
2 6 -6 15830 1262.16 35
2 6 -5 26096 1606.26 37
2 6 -5 19585 1481.74 35
2 6 -4 22215.6 1531.45 37
2 6 -4 18416.8 1445.48 35
2 6 -2 28764.4 1793.1 37
2 6 -2 24608.1 1742.52 35
2 6 -1 53392.7 2541.22 37
2 6 -1 54793.9 2379.83 21
2 6 -1 48496.5 2524.26 35
2 6 -1 50846.3 2092.81 16
2 6 0 42835.8 2144.27 37
2 6 0 43131 2111.57 21
2 6 0 36662.8 2067.54 35
2 6 0 41326.1 1855.34 16
2 6 1 146675 4720.69 37
2 6 1 162127 5058.72 21
2 6 1 159074 4682.91 16
2 6 1 151262 4675.5 27
2 6 2 3626.42 531.86 24
2 6 2 3454.79 578.355 21
2 6 3 23232.4 1395.34 22
2 6 3 22604.8 1276.09 17
2 6 4 23236.1 1164.97 17
2 6 5 8475.42 654.78 22
2 7 -8 30568.7 1436.07 37
2 7 -7 5717.85 664.579 37
2 7 -6 37968.7 1943.94 37
2 7 -5 8990.57 928.965 37
2 7 -4 27201.2 1710.76 37
2 7 -3 154489 4562.6 21
2 7 -2 9771.38 990.031 37
2 7 -2 9223.74 824.685 21
2 7 -1 34506.2 1895.81 37
2 7 -1 35327.8 1759.35 21
2 7 0 123644 4160.45 37
2 7 0 136907 4250.54 21
2 7 1 53160.7 2261 21
2 7 2 8878.56 781.602 22
2 7 3 11083 786.455 22
2 7 4 4160.48 400.474 22
2 8 -8 869.619 200.313 37
2 8 -7 25729.7 1299.9 37
2 8 -6 584.072 242.827 37
2 8 -5 11865.3 966.183 37
2 8 -4 59567.1 2494.33 37
2 8 -3 3674.99 553.473 37
2 8 -2 10434.7 898.179 37
2 8 1 11018.8 748.148 22
2 8 2 13688.9 736.257 22
2 9 -7 11753.7 628.773 37
2 9 -6 3585.45 397.903 37
2 9 -5 53876.2 1939.27 37
2 9 -3 15868.8 897.272 37
2 9 -1 9043.96 519.074 22
3 -10 0 53540.7 2331.95 4
3 -10 1 16252.5 1204.89 4
3 -10 2 155.236 208.022 4
3 -10 3 18287.9 1241.7 4
3 -10 4 8149.77 669.975 18
3 -10 5 26338.5 1283.61 18
3 -10 6 25793 1227.21 18
3 -10 7 6210.43 544.317 33
3 -10 7 5587.97 490.958 18
3 -10 8 3172.91 312.607 18
3 -10 8 3070.59 315.345 33
3 -9 -6 8752.81 641.266 3
3 -9 -5 1829.3 370.881 3
3 -9 -1 40339.7 2081.67 4
3 -9 0 9402.34 984.563 4
3 -9 1 13396.1 1195.77 4
3 -9 1 12580.5 1186.34 25
3 -9 3 31532.2 1818.81 4
3 -9 4 27558.3 1608.44 4
3 -9 5 52064.9 2028.89 34
3 -9 6 25845.9 1304.91 34
3 -9 6 25424.8 1410.23 18
3 -9 7 358.626 199.246 33
3 -9 7 298.799 181.206 18
3 -9 8 26859.6 1253.03 33
3 -9 8 26822.4 1249.18 18
3 -8 -7 11388 783.126 3
3 -8 -6 363.025 226.895 3
3 -8 -2 41200.1 2071.11 4
3 -8 -2 41732.7 2094.51 25
3 -8 -1 22171.2 1526.02 4
3 -8 -1 23045.1 1562.29 25
3 -8 0 10428.2 1029.62 4
3 -8 0 9312.5 979.479 25
3 -8 1 54362.5 2601.01 4
3 -8 1 55121 2606 25
3 -8 2 29278.1 1789.5 25
3 -8 3 1532.05 429.204 4
3 -8 3 897.118 325.109 25
3 -8 4 46700.3 2192.74 4
3 -8 4 41072.6 1958.33 34
3 -8 4 44438.9 2156.72 25
3 -8 5 28570.4 1569.27 4
3 -8 5 28111 1578.74 34
3 -8 5 26620.6 1516.24 25
3 -8 6 146.211 177.239 34
3 -8 6 204.571 214.746 18
3 -8 7 29572.2 1559.44 34
3 -8 7 26432.7 1523.43 33
3 -8 7 27274.2 1521.61 18
3 -8 8 2533.55 362.571 11
3 -8 8 3026.02 443.076 33
3 -8 9 1880.28 266.967 11
3 -8 9 1957.52 317.113 18
3 -7 -8 7578.93 617.803 3
3 -7 -7 44.9435 163.41 3
3 -7 -3 7352.25 755.821 4
3 -7 -3 8328.8 793.441 25
3 -7 -2 33840.3 1795.41 4
3 -7 -2 34405.4 1818.47 25
3 -7 -1 54390.3 2426.25 4
3 -7 -1 54012.3 2401.3 25
3 -7 0 114985 4035.6 4
3 -7 0 117217 3977.39 25
3 -7 1 35553.4 1919.01 4
3 -7 1 37980.1 1947.15 25
3 -7 2 10401.3 985.643 4
3 -7 2 11624.3 873.485 29
3 -7 2 12725.2 1061.87 25
3 -7 3 151486 4897.72 4
3 -7 3 157833 4935.14 25
3 -7 4 98057.9 3380.38 4
3 -7 4 85292.6 2945.26 30
3 -7 4 82435.3 2904.77 28
3 -7 4 102289 3432.61 25
3 -7 5 55109.5 2398.37 34
3 -7 5 54495.7 2259.69 8
3 -7 5 48500.9 2085.06 30
3 -7 5 45772.2 2006.96 28
3 -7 5 54136 2193.64 25
3 -7 6 93330.7 3202.47 9
3 -7 6 94235.2 3450.59 34
3 -7 6 94444.3 3305.7 8
3 -7 6 97795.2 3467.25 18
3 -7 6 88040.6 3140.28 30
3 -7 7 87475.5 3272.33 34
3 -7 7 85662.5 3136.55 8
3 -7 7 84203.7 3211.21 18
3 -7 7 84682.8 3054.87 30
3 -7 7 87578.5 3205.33 33
3 -7 8 13723.2 1061.97 34
3 -7 8 14922.2 1046.91 8
3 -7 8 16114.5 1069.79 33
3 -7 8 13985.4 1041.48 18
3 -7 9 12161.2 822.678 11
3 -7 9 12306.6 844.272 18
3 -7 9 10108.8 746.25 31
3 -7 10 6054.17 470.914 11
3 -6 -8 1184.94 294.128 3
3 -6 -7 11271.4 992.837 3
3 -6 -4 11439.8 827.926 25
3 -6 -3 185783 5332.94 4
3 -6 -3 189770 5342.6 25
3 -6 -2 35552 1736.28 4
3 -6 -2 40529.5 1818.05 25
3 -6 -1 199583 5819.98 4
3 -6 -1 212694 5887.99 25
3 -6 0 47333.4 2103.11 4
3 -6 0 49355 2116.88 25
3 -6 2 117313 3800.25 4
3 -6 2 116917 3563.79 29
3 -6 2 125779 3862.36 25
3 -6 3 41684.2 1908.42 4
3 -6 3 38209.7 1705.65 8
3 -6 3 38018.4 1737.94 29
3 -6 3 35843.8 1523.31 28
3 -6 3 40883.1 1893.64 25
3 -6 4 42.3974 125.907 4
3 -6 4 262.311 205.235 8
3 -6 4 220.764 154.508 30
3 -6 4 332.848 207.931 29
3 -6 4 105.46 112.768 28
3 -6 4 165.829 158.92 25
3 -6 5 83688.1 2955.42 9
3 -6 5 85143.2 3094.45 8
3 -6 5 79304.9 2881.22 30
3 -6 5 83046.3 2968.45 29
3 -6 5 83608.1 2779.96 25
3 -6 6 49107 2147.35 9
3 -6 6 45708.1 2213.01 34
3 -6 6 43262.5 2087.55 33
3 -6 6 45884.4 2176.12 8
3 -6 6 46972.4 2210.4 18
3 -6 6 41396 1987.29 30
3 -6 6 44073.4 2012.18 29
3 -6 6 38361.1 1925.88 28
3 -6 7 148618 4720.33 34
3 -6 7 136489 4551.6 8
3 -6 7 144664 4502.45 33
3 -6 7 139030 4551.4 18
3 -6 7 139405 4447.97 30
3 -6 7 140988 4371.21 29
3 -6 7 131761 4383.26 28
3 -6 7 127530 4351.76 10
3 -6 8 54064.3 2356.1 8
3 -6 8 51400.6 2173.19 33
3 -6 8 50219.7 2227.05 18
3 -6 8 50479.7 2095.02 29
3 -6 9 6025.18 630.725 11
3 -6 9 6815.74 701.59 8
3 -6 9 5840.35 603.753 18
3 -6 9 6577.73 580.67 29
3 -6 9 6663.47 653.592 31
3 -6 10 27.7573 125.881 11
3 -6 10 107.235 112.562 31
3 -6 11 13517 606.726 11
3 -5 -10 13712.3 775.136 6
3 -5 -9 993.465 254.775 3
3 -5 -8 6403.63 710.297 3
3 -5 -7 21942.5 1430.94 3
3 -5 -4 59779 2098.71 25
3 -5 -3 833.556 222.117 25
3 -5 -2 418740 10325.3 25
3 -5 -1 219393 5896.32 25
3 -5 0 3760.72 468.316 25
3 -5 1 118562 2990.43 10
3 -5 1 113610 2992.48 28
3 -5 2 123594 3487.49 28
3 -5 2 150367 4093.34 25
3 -5 3 41688.1 1798.09 29
3 -5 3 39365.5 1569.74 28
3 -5 3 44793.5 1799.22 25
3 -5 4 10207.2 800.773 9
3 -5 4 11405.1 913.219 8
3 -5 4 10333.7 791.727 30
3 -5 4 11048 887.13 29
3 -5 4 10203.9 761.907 28
3 -5 4 9968.68 744.691 25
3 -5 5 42465 1778.48 12
3 -5 5 46116.2 2129.86 8
3 -5 5 42998.5 2055.87 18
3 -5 5 45118.5 2009.94 9
3 -5 5 44181.1 1954.46 30
3 -5 5 45244.1 2039.63 29
3 -5 5 46832.8 1975.16 28
3 -5 6 1072.75 269.069 12
3 -5 6 704.535 254.655 33
3 -5 6 310.425 234.704 18
3 -5 6 553.913 292.691 8
3 -5 6 290.525 194.741 30
3 -5 6 296.333 207.452 29
3 -5 6 286.994 183.434 28
3 -5 6 38.6116 114.811 13
3 -5 7 95510.5 3448.85 10
3 -5 7 96104.8 3555.1 34
3 -5 7 92509.9 3540.41 8
3 -5 7 97229.4 3483.36 18
3 -5 7 95815.8 3329.25 33
3 -5 7 99219.9 3464.19 29
3 -5 7 89930.2 3371.91 28
3 -5 7 89754.4 3159.66 13
3 -5 7 88929.1 3075.12 12
3 -5 8 9215.34 903.558 34
3 -5 8 9918.33 964.519 8
3 -5 8 9285.66 864.128 18
3 -5 8 10713.4 937.899 31
3 -5 8 10282.8 900.831 29
3 -5 9 438.871 232.168 11
3 -5 9 554.015 274.386 8
3 -5 9 1114.44 298.669 31
3 -5 9 381.441 207.103 29
3 -5 10 15696.1 939.407 11
3 -5 10 15835.3 934.686 31
3 -5 11 5787.15 404.84 11
3 -4 -10 66.8866 114.65 6
3 -4 -9 621.612 235.824 3
3 -4 -8 12973.3 1029.77 3
3 -4 -7 3404.08 538.951 3
3 -4 -4 18678.2 920.995 25
3 -4 -3 422107 10079.9 25
3 -4 -2 288629 7178.09 25
3 -4 -1 102.675 116.422 25
3 -4 0 66210.6 1734.3 10
3 -4 0 66430.6 1674.93 28
3 -4 0 69594.9 2231.53 25
3 -4 1 460494 10722.2 10
3 -4 1 462945 10662.1 28
3 -4 1 477189 11169.6 25
3 -4 2 23296.2 965.683 28
3 -4 2 23887.1 1127.86 25
3 -4 3 96586.5 2974.82 28
3 -4 3 106810 3052.29 25
3 -4 4 44619.4 1970.6 8
3 -4 4 43879.5 1907.63 18
3 -4 4 45869 1834.55 30
3 -4 4 44700.7 1967.61 29
3 -4 4 44589.2 1801.08 28
3 -4 4 47242.7 1670.33 25
3 -4 5 1059.98 272.733 12
3 -4 5 977.408 260.889 33
3 -4 5 1171.38 340.844 8
3 -4 5 1906.94 370.158 30
3 -4 5 1175.4 323.43 29
3 -4 5 1278.59 326.115 18
3 -4 5 1017.2 284.524 28
3 -4 5 1465.83 313.419 13
3 -4 6 191814 5488.07 10
3 -4 6 183005 5292.16 33
3 -4 6 181364 5481.32 18
3 -4 6 184101 5675.34 8
3 -4 6 191212 5629.96 29
3 -4 6 177994 5403.59 28
3 -4 6 178983 5348.2 13
3 -4 6 177121 5298.07 12
3 -4 7 32325.5 1805.12 34
3 -4 7 32683.1 1751.67 18
3 -4 7 32684.4 1792.76 10
3 -4 7 31761.9 1756.34 31
3 -4 7 33048.3 1817.07 29
3 -4 7 33398.9 1750.87 13
3 -4 7 31478.5 1651.65 12
3 -4 8 -86.9336 158.039 12
3 -4 8 -53.3244 204.366 11
3 -4 8 249.286 226.087 34
3 -4 8 52.3669 155.459 31
3 -4 8 103.467 188.095 29
3 -4 8 432.641 217.988 13
3 -4 9 15761.4 1117.71 11
3 -4 9 16363.8 1143.31 8
3 -4 9 14832.9 1055.9 29
3 -4 10 22712.6 1173.31 8
3 -4 11 526.291 141.09 11
3 -4 11 361.336 190.165 31
3 -3 -10 511.368 218.756 6
3 -3 -8 4761.35 616.041 3
3 -3 -7 214554 6077.28 3
3 -3 -6 39359.1 1779.14 3
3 -3 -5 6386.81 459.151 25
3 -3 -4 85326.6 2474.49 25
3 -3 -3 205694 5169.13 25
3 -3 -2 13686.2 710.961 25
3 -3 -1 53666.6 1742.08 25
3 -3 0 217813 5151.58 10
3 -3 1 429060 9946.63 10
3 -3 1 430429 9885.75 28
3 -3 1 424325 10151.6 25
3 -3 2 556961 12530.6 10
3 -3 2 516267 12469.3 28
3 -3 2 542112 12552.1 25
3 -3 3 9859.18 671.571 10
3 -3 3 9670.81 609.694 25
3 -3 4 701.382 202.767 10
3 -3 4 634.322 235.186 29
3 -3 4 871.237 228.366 28
3 -3 4 393.975 126.932 25
3 -3 5 156842 4897.99 24
3 -3 5 156211 4779.25 12
3 -3 5 164923 4832.28 18
3 -3 5 158931 4961.52 8
3 -3 5 162079 4564.88 17
3 -3 5 166396 4843.44 10
3 -3 5 166398 5031.47 29
3 -3 5 168861 4777.56 28
3 -3 5 162617 4786.79 13
3 -3 6 139654 4567.79 24
3 -3 6 143218 4572.76 34
3 -3 6 139086 4466.16 18
3 -3 6 138321 4649.72 8
3 -3 6 135212 4190.98 32
3 -3 6 142478 4315.53 17
3 -3 6 147077 4571.12 31
3 -3 6 148332 4560.28 10
3 -3 6 151316 4767.2 29
3 -3 6 145456 4554.76 13
3 -3 6 144039 4532.06 12
3 -3 7 8981.48 894.142 11
3 -3 7 8986.89 879.754 10
3 -3 7 9103.25 878.065 34
3 -3 7 7908.5 883.916 8
3 -3 7 9367.18 806.458 32
3 -3 7 9879.48 845.278 17
3 -3 7 8536.2 897.532 29
3 -3 7 9390.43 914.909 13
3 -3 7 8669.53 867.17 12
3 -3 7 7909.07 849.284 24
3 -3 8 13392.9 1005.94 34
3 -3 8 12873.5 1090.09 8
3 -3 8 11556.8 923.427 17
3 -3 8 14342.7 1141.29 29
3 -3 8 12540.5 1051.42 13
3 -3 8 12321.3 1009.68 12
3 -3 9 25438.9 1428.87 8
3 -3 9 24569.2 1411.26 31
3 -3 9 27226.6 1484.82 29
3 -3 10 1484.24 291.514 11
3 -3 10 1196.87 256.647 31
3 -2 -10 11123.4 887.538 6
3 -2 -8 252051 6894.02 3
3 -2 -7 88877.8 3052.3 3
3 -2 -4 470478 10997.2 25
3 -2 -3 18789.2 825.991 25
3 -2 -2 77742.5 2240.29 25
3 -2 -1 8390.71 513.751 25
3 -2 0 64481.5 1760.59 10
3 -2 0 59276.8 1876.23 25
3 -2 1 405885 9352.82 10
3 -2 1 392270 9434.89 25
3 -2 2 151421 3945.17 10
3 -2 2 146802 3887.64 25
3 -2 3 7399.59 575.701 10
3 -2 4 35854.2 1696.94 24
3 -2 4 36756.7 1618.62 11
3 -2 4 38167.2 1613.81 10
3 -2 4 37492.5 1612.65 31
3 -2 4 35214 1575.1 14
3 -2 5 160515 5007.23 12
3 -2 5 170216 4952.58 11
3 -2 5 167963 4924.21 10
3 -2 5 165356 4984.37 8
3 -2 5 161617 4654.45 32
3 -2 5 162638 4898.46 31
3 -2 5 170879 4820.83 17
3 -2 5 171715 5208.05 29
3 -2 5 167188 4975.99 13
3 -2 6 2710.42 498.245 12
3 -2 6 2648.69 468.239 34
3 -2 6 3604.46 574.789 8
3 -2 6 3264.92 475.432 32
3 -2 6 2857.04 463.483 17
3 -2 6 2955.19 552.864 29
3 -2 6 3028.2 525.046 13
3 -2 7 15386.6 1191.58 24
3 -2 7 16221.7 1188.45 10
3 -2 7 17546.8 1155 34
3 -2 7 16053.6 1207.37 8
3 -2 7 17943.2 1219.23 17
3 -2 7 16169.3 1201.18 31
3 -2 7 13419.9 1022.2 32
3 -2 7 17644 1328.65 29
3 -2 7 15834.8 1218.48 12
3 -2 8 18158.9 1275.41 11
3 -2 8 19356.2 1277.83 8
3 -2 8 21880.8 1339.36 17
3 -2 8 19987.9 1327.48 31
3 -2 8 20770.7 1402.7 29
3 -2 8 20577.8 1354.75 24
3 -2 9 1672.4 349.889 11
3 -2 9 1623.84 340.452 31
3 -2 10 36037.7 1454.89 31
3 -1 -10 3364.27 500.572 6
3 -1 -9 18958.8 1257.03 6
3 -1 -7 2090.03 383.912 3
3 -1 -4 99.611 93.5375 35
3 -1 -3 309191 7732.17 35
3 -1 -3 333182 7714.2 25
3 -1 -2 37480.3 1344.79 35
3 -1 -2 39333.8 1345.72 25
3 -1 0 642428 14569.9 35
3 -1 0 622296 14580.5 25
3 -1 1 612317 14191.3 10
3 -1 1 618802 14171.7 35
3 -1 2 266.678 126.465 10
3 -1 3 62634.7 2136.08 10
3 -1 4 234694 6486.48 24
3 -1 4 238170 6118.63 32
3 -1 4 226064 6602.65 29
3 -1 4 237190 6350.8 14
3 -1 5 -51.1249 163.932 12
3 -1 5 48.8765 145.097 24
3 -1 5 -42.7495 126.908 11
3 -1 5 40.6611 120.709 8
3 -1 5 72.9052 108.215 32
3 -1 5 -41.4403 112.303 10
3 -1 5 220.039 210.825 29
3 -1 5 46.8897 160.733 13
3 -1 6 44538.1 2086.05 11
3 -1 6 46694.8 2084.37 10
3 -1 6 39848.8 1942.51 8
3 -1 6 42121.1 1940.05 32
3 -1 6 48238.4 2142.29 17
3 -1 6 44900.9 2100.11 31
3 -1 6 45505.6 2260.39 29
3 -1 6 47074.5 2217.57 13
3 -1 6 47051.6 2263.01 12
3 -1 7 23286.4 1509.86 24
3 -1 7 25030.8 1485 11
3 -1 7 22840 1372.76 32
3 -1 7 24341.6 1484.8 17
3 -1 7 23360 1468.52 31
3 -1 7 23652.2 1376.19 8
3 -1 7 24010.8 1558.16 13
3 -1 7 24316.6 1570.65 12
3 -1 8 49.7976 190.925 24
3 -1 8 224.269 188.386 11
3 -1 8 284.881 190.925 17
3 -1 8 427.785 244.459 31
3 -1 8 312.71 209.561 13
3 -1 9 43155 1824.81 17
3 -1 9 43701.6 1820.2 31
3 0 -9 95653.5 3348.12 6
3 0 -8 6414.6 694.856 6
3 0 -7 21356.8 1256.16 6
3 0 -6 66648.4 2103.86 35
3 0 -5 10185.1 654.721 35
3 0 -4 204745 5291.22 35
3 0 -3 185156 4828.05 35
3 0 -2 693.478 170.001 35
3 0 0 612092 14206.3 35
3 0 1 84789.1 2474.4 35
3 0 2 110363 3017.95 35
3 0 3 133433 4167.09 29
3 0 3 133639 3942.25 14
3 0 4 322.611 193.51 24
3 0 4 336.364 192.192 11
3 0 4 59.8406 88.8705 22
3 0 4 32.0161 77.6581 21
3 0 4 239.668 181.16 19
3 0 4 306.118 278.264 31
3 0 4 75.0801 120.408 16
3 0 4 344.234 223.018 29
3 0 4 82.2073 140.929 14
3 0 5 61555.1 2611.7 24
3 0 5 54940.5 2352.12 11
3 0 5 61458.2 2251.6 22
3 0 5 57956.2 2202.5 8
3 0 5 61453.1 2384.6 32
3 0 5 61970 2472.36 31
3 0 5 64947.8 2711.64 29
3 0 5 61417.2 2285.88 21
3 0 5 65753.6 2640.04 13
3 0 5 60795.7 2675.85 12
3 0 6 18979.2 1361.85 24
3 0 6 20547.5 1296.58 11
3 0 6 20264.7 1170.47 22
3 0 6 18970.2 1248.14 32
3 0 6 20942 1371.19 17
3 0 6 19764.6 1317.99 31
3 0 6 19045.9 1407.43 29
3 0 6 20073.2 1397.51 13
3 0 6 19532.8 1431.04 12
3 0 7 11257.7 945.535 11
3 0 7 11458 947.724 32
3 0 7 12665.3 1048.68 17
3 0 7 11969.7 1012.12 31
3 0 7 12769.3 1096.37 29
3 0 7 12322.8 1087.32 13
3 0 7 12472.9 1093.89 12
3 0 8 63372.5 2551.83 17
3 0 8 68418.4 2543.05 31
3 0 8 66483.1 2626.81 13
3 0 9 11699.3 797.398 17
3 0 9 10954 784.166 24
3 1 -9 38656.6 1836.19 6
3 1 -8 28105.2 1526.82 6
3 1 -7 21968.5 1286.2 6
3 1 -6 6644.46 573.349 35
3 1 -5 147127 4166.53 35
3 1 -4 310957 7856.97 35
3 1 -3 13491.5 851.757 35
3 1 -2 282864 7228.56 35
3 1 -1 360759 8886.54 35
3 1 0 5884.53 510.423 35
3 1 1 54207.8 1868.91 35
3 1 2 49567.1 1829.12 32
3 1 2 49117 1885.15 31
3 1 2 50930 1732.31 35
3 1 3 8219.22 801.165 12
3 1 3 8540.35 797.374 24
3 1 3 7860.61 683.741 21
3 1 3 7259.32 755.482 19
3 1 3 7624.03 674.959 32
3 1 3 8842.9 758.935 31
3 1 3 6831.49 692.309 29
3 1 3 7528.31 705.377 14
3 1 4 177934 5537.74 24
3 1 4 194043 5240.69 22
3 1 4 181738 5250.5 32
3 1 4 191627 5348.3 31
3 1 4 182066 5490.47 29
3 1 4 176255 5407.79 14
3 1 4 182948 5654.13 12
3 1 4 184388 5272.94 21
3 1 5 65626.4 2821.77 24
3 1 5 68983.9 2542.09 22
3 1 5 63700.5 2534.81 21
3 1 5 66171.3 2611.25 32
3 1 5 70364.9 2690.08 31
3 1 5 67305.4 2797.42 29
3 1 5 68243 2823.2 13
3 1 5 69520.7 2937.15 12
3 1 6 472.522 258.694 12
3 1 6 514.65 268.981 24
3 1 6 688.031 250.722 22
3 1 6 883.742 394.985 32
3 1 6 906.687 322.607 13
3 1 7 30916.5 1703.49 24
3 1 7 29868.1 1562.59 32
3 1 7 31989.1 1717.19 13
3 2 -9 43773.5 1953.42 6
3 2 -8 24372.7 1397.19 6
3 2 -7 1927.93 332.588 35
3 2 -7 1458.43 330.901 6
3 2 -6 172542 4929.14 35
3 2 -6 179025 5071.39 6
3 2 -6 167411 4931.48 37
3 2 -5 456467 11289.6 35
3 2 -4 512.692 191.52 35
3 2 -3 24108.8 1318.86 35
3 2 -1 26037.9 1352.76 35
3 2 0 4734.21 526.067 35
3 2 1 18806.5 1045.14 35
3 2 1 17660.5 1039.08 37
3 2 2 11690.3 929.015 24
3 2 2 13441.1 813.829 35
3 2 2 12134.6 1051.43 19
3 2 2 13692.8 927.462 16
3 2 2 12072.6 880.917 14
3 2 2 13336.4 973.45 12
3 2 3 205186 6101.48 24
3 2 3 215700 5886.7 32
3 2 3 217521 5971.26 16
3 2 3 205834 5771.63 29
3 2 3 203972 5939.91 14
3 2 3 208251 5948.29 21
3 2 3 210637 6106.95 12
3 2 4 69734 2900.56 24
3 2 4 71788.8 2658.4 22
3 2 4 68645 2709.59 21
3 2 4 69159.6 2683.12 32
3 2 4 66996.7 2717.78 16
3 2 4 68947.9 2812.61 13
3 2 4 72540 2917.34 12
3 2 5 115.515 156.538 24
3 2 5 261.755 167.211 22
3 2 5 47.78 153.223 21
3 2 5 -54.4436 147.558 13
3 2 6 24543.1 1533.84 24
3 2 6 25563.8 1376.15 22
3 2 6 25778.2 1533.77 17
3 2 6 25270 1508.09 13
3 2 7 76730 2819.05 24
3 2 7 76102.6 2812.79 17
3 2 7 78850.4 2721.44 13
3 2 8 1445.93 270.794 24
3 2 8 927.442 236.995 17
3 3 -7 46632.2 2014.46 37
3 3 -7 44732.8 1966.97 35
3 3 -6 165875 5077.64 37
3 3 -6 164138 5063.66 35
3 3 -6 178240 4935.82 2
3 3 -5 38916.9 1919.59 37
3 3 -5 40737.8 1966.04 35
3 3 -5 43533.8 1851.56 2
3 3 -4 53796.2 2322.24 37
3 3 -4 53688 2354.88 35
3 3 -4 54957.7 2217.66 7
3 3 -4 54419.4 2194 2
3 3 -3 181820 5622.77 37
3 3 -3 178714 5651.88 35
3 3 -3 196918 5520.14 7
3 3 -2 13553 1058.66 37
3 3 -1 142518 4465.83 37
3 3 -1 139576 4475.62 35
3 3 -1 142086 4413.66 19
3 3 -1 137881 4256.26 7
3 3 0 50746.4 2195.13 35
3 3 0 53098.3 2354.59 19
3 3 0 52353.4 2226.22 37
3 3 1 -41.283 100.068 24
3 3 1 163.986 140.533 37
3 3 1 -57.2962 138.881 19
3 3 1 280.892 168.468 35
3 3 1 79.5958 107.854 16
3 3 2 63984.9 2613.38 24
3 3 2 66056.1 2559.42 16
3 3 2 63681.1 2466.45 14
3 3 3 136988 4536.35 24
3 3 3 135983 4471.2 21
3 3 3 139306 4435.35 16
3 3 3 136257 4378.55 13
3 3 4 4052.47 624.212 24
3 3 4 3888.46 559.815 22
3 3 4 4340.87 601.593 13
3 3 4 4049.81 590.432 21
3 3 5 22584.1 1445.95 24
3 3 5 21795.6 1292.96 22
3 3 5 21499.8 1301.26 13
3 3 6 46797.9 2030.12 24
3 3 6 41915.2 1793.46 22
3 3 6 46823.6 2023.36 17
3 3 7 523.634 186.664 24
3 3 7 155.513 136.054 17
3 4 -9 283.046 160.562 7
3 4 -8 50582.5 2117.38 7
3 4 -7 118061 3968.13 37
3 4 -7 118724 3987.72 35
3 4 -7 120520 3894.01 7
3 4 -6 4070.57 598.635 37
3 4 -6 4141.1 620.069 35
3 4 -6 5035.94 620.51 7
3 4 -5 51890.4 2406.76 37
3 4 -5 53566.7 2464.4 35
3 4 -5 52919.9 2264.28 7
3 4 -4 23867.5 1547.22 37
3 4 -4 24916.5 1596.49 35
3 4 -4 22582.9 1396.95 7
3 4 -3 18636.6 1379.79 37
3 4 -3 18531.1 1394.36 35
3 4 -3 20375.5 1311.31 7
3 4 -2 89488.5 3441.92 37
3 4 -2 87444.4 3456.46 35
3 4 -1 110191 3974.08 37
3 4 -1 113335 4041.91 35
3 4 0 425.972 241.564 37
3 4 0 269.587 184.964 35
3 4 1 52316 2264.13 24
3 4 1 60059.8 2410.56 37
3 4 1 59675.8 2557.94 21
3 4 1 54375.1 2311.27 35
3 4 1 58893.1 2390.97 16
3 4 2 161432 5080.18 24
3 4 2 172212 5312.75 21
3 4 2 168685 5124.5 16
3 4 3 11501.8 997.731 24
3 4 3 11108.3 977.29 16
3 4 4 1872.11 402.894 24
3 4 4 3057.58 483.719 22
3 4 4 3308.52 542.992 21
3 4 5 25115.8 1343.06 24
3 4 5 24274.7 1282.89 22
3 4 5 23646 1344.48 17
3 4 6 13023.4 826.725 17
3 5 -8 25533.8 1424.8 37
3 5 -8 27861.4 1423.05 7
3 5 -7 17979.9 1295.33 35
3 5 -7 18853.9 1226.22 7
3 5 -6 6606.74 798.643 37
3 5 -6 7298.85 855.501 35
3 5 -6 6458.93 733.691 7
3 5 -5 1959.23 470.671 37
3 5 -5 1481.71 407.282 35
3 5 -5 1537.79 389.622 7
3 5 -4 71076.8 3105.84 37
3 5 -4 73988.6 3194.22 35
3 5 -2 199789 6192.73 37
3 5 -2 189353 6190.08 35
3 5 -1 10553.5 1047.55 37
3 5 -1 9597.24 1012.02 35
3 5 0 54637.1 2534.06 35
3 5 0 57434.9 2404.11 16
3 5 0 61151.9 2632.62 37
3 5 1 118842 4094.4 21
3 5 1 110292 3781.03 16
3 5 2 13716.8 1035.57 16
3 5 2 12241.8 1073.31 21
3 5 3 15011.9 1052.31 22
3 5 3 12530.9 1033.14 21
3 5 4 28849.2 1406.63 22
3 5 4 28387.7 1398.75 17
3 5 5 4589.48 436.609 22
3 5 5 4938.4 446.432 17
3 6 -8 25529.2 1365.71 37
3 6 -7 26871.3 1547.85 37
3 6 -6 87746.6 3357.06 37
3 6 -5 4772.24 703.51 37
3 6 -4 38226.1 2111.94 37
3 6 -4 36456.2 2105.46 35
3 6 -3 196868 6287.98 35
3 6 -2 13276.1 1186.7 37
3 6 -2 14988.8 1025.91 16
3 6 -1 23209.8 1528.35 37
3 6 -1 26231.8 1547.85 21
3 6 -1 22628 1304.95 16
3 6 0 42569.3 1883.42 16
3 6 0 44325.1 2104.97 21
3 6 1 21182 1347.79 21
3 6 2 17788.9 1159.38 21
3 6 3 5305.28 527.737 22
3 6 3 4973.48 453.517 17
3 6 4 537.854 141.273 22
3 7 -8 8349.99 655.991 37
3 7 -7 31350.6 1541.57 37
3 7 -6 4424.45 591.964 37
3 7 -5 12829.7 1058.62 37
3 7 -4 75792 2989.58 37
3 7 -4 73319.1 2499.16 21
3 7 -3 24342 1516.5 37
3 7 -3 26082.5 1314.05 21
3 7 -2 42669.6 2033.2 37
3 7 -2 46291.9 1903.72 21
3 7 -1 34405.3 1597.19 21
3 7 0 13493.6 912.388 21
3 7 1 11128.7 774.352 22
3 8 -7 907.092 208.945 37
3 8 -6 22899.9 1155.03 37
3 8 -5 33480.4 1506.9 37
3 8 -3 4597.18 498.306 37
3 8 0 5410.39 402.126 22
4 -11 5 12357.5 721.936 33
4 -10 -4 25406.3 1299.72 3
4 -10 -3 3088.37 478.325 3
4 -10 -2 952.603 302.191 3
4 -10 4 12553.7 833.335 18
4 -10 5 22799.8 1150.16 18
4 -10 6 4196.46 464.733 33
4 -10 6 4178.6 439.266 18
4 -10 7 269.902 123.412 18
4 -9 -7 6400.04 468.26 3
4 -9 -6 388.591 191.661 3
4 -9 -5 27277.6 1532.97 3
4 -9 0 19705.3 1469.47 25
4 -9 1 20561.6 1511.29 25
4 -9 3 15372.8 1071.53 18
4 -9 4 46089 2081.29 18
4 -9 4 48666.5 2048.06 34
4 -9 5 1939.13 379.289 34
4 -9 5 1419.07 354.332 18
4 -9 6 75.5787 129.57 34
4 -9 6 275.228 196.494 33
4 -9 6 120.632 161.655 18
4 -9 7 15554.8 940.478 34
4 -9 7 16895.1 992.447 18
4 -9 8 1926.09 289.033 18
4 -8 -8 1491.3 245.129 3
4 -8 -7 894.821 275.643 3
4 -8 -6 12159.2 1036.66 3
4 -8 -3 23356 1450.49 25
4 -8 -2 21972.1 1463.9 25
4 -8 -1 44851.8 2279.28 4
4 -8 -1 44097.6 2250.64 25
4 -8 0 85341.2 3440.84 4
4 -8 0 84004.3 3409.99 25
4 -8 1 73137.4 2787.51 29
4 -8 2 44373.1 2260.32 4
4 -8 2 38801.1 1869.18 18
4 -8 2 40791.8 1938.2 29
4 -8 2 44832.9 2249.97 25
4 -8 3 135375 4351.45 18
4 -8 3 129266 4197.45 29
4 -8 3 135206 4507.75 25
4 -8 4 59831.3 2538.15 18
4 -8 4 56427.8 2320.61 29
4 -8 4 56290.5 2438.54 25
4 -8 5 5234.2 688.501 18
4 -8 5 4213.21 544.924 29
4 -8 5 4448.26 640.016 34
4 -8 6 21553.6 1365.33 34
4 -8 6 18664.9 1217.75 33
4 -8 6 17917.2 1259.98 18
4 -8 7 7723.43 747.482 34
4 -8 7 6486.08 678.293 18
4 -8 8 13366.1 738.802 11
4 -8 8 16156.7 970.788 34
4 -7 -8 4406.64 537.261 3
4 -7 -7 3029.3 521.192 3
4 -7 -6 42870.9 2220.56 3
4 -7 -4 35517.3 1714.34 25
4 -7 -3 20876.4 1323.27 25
4 -7 -2 2778.23 486.858 25
4 -7 -1 109589 3883.39 4
4 -7 -1 109084 3851.61 25
4 -7 0 15398.2 1214.37 4
4 -7 0 16679.9 1252.69 25
4 -7 1 4775.96 608.016 29
4 -7 2 202593 5990.38 4
4 -7 2 185074 5570.34 18
4 -7 2 202082 5745.91 29
4 -7 2 194149 5900.42 25
4 -7 3 38780.4 1941.91 18
4 -7 3 40064.5 1938.85 29
4 -7 3 40229.3 1993.42 25
4 -7 4 193614 5852.08 18
4 -7 4 195835 5733.77 29
4 -7 4 188777 5633.26 25
4 -7 5 56822.9 2550.46 18
4 -7 5 55758.8 2405.88 29
4 -7 6 12098.5 937.184 11
4 -7 6 13173.3 1112.78 34
4 -7 6 12883.3 993.049 33
4 -7 6 15115.3 1173.58 18
4 -7 6 10553.5 860.77 31
4 -7 6 11642.3 957.184 29
4 -7 7 11969.6 902.663 11
4 -7 7 10536.1 961.736 34
4 -7 7 11971.7 985.663 18
4 -7 7 11241.2 873.779 29
4 -7 8 34946 1541.78 11
4 -7 8 35369.9 1684.27 34
4 -7 8 36132.5 1653.18 18
4 -7 8 33657.1 1448.49 29
4 -7 9 11323.5 682.657 11
4 -6 -10 3684.81 367.931 6
4 -6 -9 680.861 226.224 3
4 -6 -8 7333.02 771.789 3
4 -6 -7 24127.4 1559.62 3
4 -6 -6 17608.4 1354.33 3
4 -6 -4 52083.9 2095.2 25
4 -6 -3 619.269 224.178 25
4 -6 -2 207029 5874.83 25
4 -6 -1 56908.4 2351.25 25
4 -6 0 1459.96 366.943 4
4 -6 0 1517.25 366.865 25
4 -6 1 18511 1080.92 18
4 -6 1 19437.2 1253.65 25
4 -6 2 34644 1660.34 18
4 -6 2 32834.8 1688.58 29
4 -6 2 35258.7 1758.55 25
4 -6 3 10044.7 733.289 10
4 -6 3 9358.24 873.498 18
4 -6 3 12170.4 986.344 29
4 -6 3 9135.07 686.632 28
4 -6 3 10229.3 878.799 25
4 -6 4 54397.9 2149.39 10
4 -6 4 56400.6 2425.12 8
4 -6 4 51810.8 2365.1 18
4 -6 4 54171.9 2366.08 29
4 -6 4 46407 2005.84 28
4 -6 4 56072.9 2202.63 25
4 -6 5 12838.7 898.838 12
4 -6 5 10964.8 930.852 11
4 -6 5 11471.5 938.744 10
4 -6 5 10743.9 1022.45 8
4 -6 5 12249.6 1065.61 18
4 -6 5 12088.2 1035.18 29
4 -6 5 10544.5 890.041 28
4 -6 6 14786.8 1113.2 11
4 -6 6 12507.9 1020.12 10
4 -6 6 13830.3 1163.73 8
4 -6 6 13354.3 993.546 33
4 -6 6 14365.1 1169.27 18
4 -6 6 13508.4 1039.43 31
4 -6 6 14411.3 1120.45 29
4 -6 6 11463.7 861.808 12
4 -6 7 55264.3 2332.44 11
4 -6 7 56879.7 2477.7 8
4 -6 7 49306 2184.25 31
4 -6 7 50952.5 2262.26 29
4 -6 8 9643.19 823.641 11
4 -6 8 12183.3 940.468 34
4 -6 8 9572.97 796.511 31
4 -6 8 10582.1 835.804 29
4 -6 9 478.913 185.089 11
4 -6 9 27.9214 257.796 31
4 -6 9 490.994 171.667 29
4 -6 10 9561.7 535.589 11
4 -5 -10 2057.74 363.483 6
4 -5 -9 3336.21 484.414 3
4 -5 -8 8638.17 865.018 3
4 -5 -7 2587.06 508.702 3
4 -5 -6 138803 4621.43 3
4 -5 -5 49894.2 1908.41 25
4 -5 -4 932.122 242.946 25
4 -5 -3 145973 4250.92 25
4 -5 -2 180324 5060.34 25
4 -5 -1 7331.69 669.078 25
4 -5 1 62699.5 1897.05 10
4 -5 1 62389.9 2355.18 25
4 -5 2 28272.8 1233.11 10
4 -5 2 30631 1478.13 18
4 -5 2 30392.2 1563.38 29
4 -5 2 29278.9 1195.87 28
4 -5 2 33660.4 1554.01 25
4 -5 3 203615 5498.59 11
4 -5 3 205424 5457.52 10
4 -5 3 207078 5783.37 18
4 -5 3 206348 5855.47 29
4 -5 3 192327 5473.4 15
4 -5 3 190440 5321.41 28
4 -5 3 200288 5777.39 8
4 -5 3 201917 5575.94 25
4 -5 4 43975.3 1941.28 11
4 -5 4 45627.4 1939.76 10
4 -5 4 41639.2 2050.69 8
4 -5 4 43778.1 2064.92 18
4 -5 4 46869.4 2145.13 29
4 -5 4 40779.4 1821.95 28
4 -5 4 41468.6 1760.05 13
4 -5 4 43043.2 1781.74 25
4 -5 5 1508.48 352.738 12
4 -5 5 2338.94 451.581 11
4 -5 5 1497.78 333.433 33
4 -5 5 1821.37 412.613 18
4 -5 5 2793.09 475.88 10
4 -5 5 2448.78 499.35 8
4 -5 5 1546.19 367.834 31
4 -5 5 1913.52 446.329 29
4 -5 5 1691.72 347.558 13
4 -5 6 97672.4 3488.72 11
4 -5 6 92476 3388.96 10
4 -5 6 94955.9 3605.57 8
4 -5 6 85193.1 3269.61 31
4 -5 6 100949 3584.53 29
4 -5 6 94199.1 3246.13 13
4 -5 6 87869.2 3199.72 12
4 -5 7 26865 1590.97 11
4 -5 7 29085.3 1711.27 8
4 -5 7 29177.6 1658.42 34
4 -5 7 24447.6 1490.81 31
4 -5 7 26653.3 1601.12 29
4 -5 7 26525 1454.23 13
4 -5 7 26530.4 1439.7 12
4 -5 8 182.93 192.131 11
4 -5 8 343.142 187.565 34
4 -5 8 346.327 209.986 31
4 -5 8 486.856 245.914 29
4 -5 9 13510.7 884.816 11
4 -5 9 11911.2 821.33 31
4 -5 9 13872.2 867.703 29
4 -5 10 6748.17 474.392 11
4 -5 10 6471.91 468.312 31
4 -4 -11 -45.248 116.333 6
4 -4 -10 23590.5 1323.02 6
4 -4 -9 5619.69 671.378 3
4 -4 -8 365.638 210.113 3
4 -4 -7 96238 3514.12 3
4 -4 -6 35984.9 1843.78 3
4 -4 -5 10173 878.423 3
4 -4 -5 10096.4 705.844 25
4 -4 -4 74447.8 2457.54 25
4 -4 -3 177614 4826.1 25
4 -4 -2 294479 7451.87 25
4 -4 -1 179072 4889.08 25
4 -4 1 51118.6 1690.84 10
4 -4 1 52646.7 1958.72 25
4 -4 2 242783 6229.93 10
4 -4 2 237886 6653.29 29
4 -4 2 253177 6438.68 25
4 -4 3 126540 3801.22 11
4 -4 3 125813 3755.8 10
4 -4 3 127068 4009.86 8
4 -4 3 132072 3970.33 18
4 -4 3 120263 3678.19 31
4 -4 3 126598 4100.77 29
4 -4 3 119455 3807.6 15
4 -4 3 131124 3751.68 25
4 -4 4 35653.2 1726.95 11
4 -4 4 36868.4 1701.34 10
4 -4 4 32136.6 1540.72 20
4 -4 4 36049.8 1848.23 8
4 -4 4 37882.2 1818.59 18
4 -4 4 34828.7 1650.62 31
4 -4 4 37787.2 1891.72 29
4 -4 4 32673.2 1423.31 25
4 -4 5 106508 3678.66 11
4 -4 5 105097 3618.18 10
4 -4 5 99090.5 3538.51 31
4 -4 5 108839 3853.27 29
4 -4 5 107248 3587.3 13
4 -4 6 36659.4 1924.53 11
4 -4 6 35487.1 1866.18 10
4 -4 6 37793 1946.99 34
4 -4 6 33486.1 1928.47 8
4 -4 6 33393 1812.79 31
4 -4 6 40237.7 2050.89 29
4 -4 6 36182.3 1843.61 13
4 -4 6 33360.6 1789.89 12
4 -4 7 2018.01 426.44 12
4 -4 7 1952.48 433.491 11
4 -4 7 2041.28 429.158 34
4 -4 7 2001.75 467.265 8
4 -4 7 2271.71 457.87 31
4 -4 7 2289.67 494.892 29
4 -4 7 2138.47 441.212 13
4 -4 8 14128.4 1057.37 11
4 -4 8 10295.9 893.289 31
4 -4 8 13863.1 1041.72 29
4 -4 8 13140.3 971.763 13
4 -4 8 10981.2 875.812 12
4 -4 9 15190 952.567 11
4 -4 9 14289.2 915.414 31
4 -4 9 15717.3 963.892 29
4 -4 10 16489.8 770.634 31
4 -3 -11 49172.3 1851.53 6
4 -3 -10 4544.23 593.961 6
4 -3 -9 1035.55 308.055 3
4 -3 -8 40028.2 1978.75 3
4 -3 -7 106640 3685.19 3
4 -3 -6 10706.7 900.443 3
4 -3 -5 16671.2 1096.46 3
4 -3 -5 16692.5 910.656 25
4 -3 -4 53938.1 1901.58 25
4 -3 -3 4703.67 454.257 25
4 -3 -2 91063.8 2769.81 25
4 -3 -1 25853.3 1177.05 25
4 -3 0 3100.07 376.211 25
4 -3 1 192860 4927.13 10
4 -3 1 189991 5122.77 25
4 -3 2 124356 3556.27 10
4 -3 2 123996 3596.08 25
4 -3 3 1377.42 291.52 11
4 -3 3 947.121 243.975 10
4 -3 3 1316.52 300.108 18
4 -3 3 1160.62 296.227 8
4 -3 3 1475.59 292.134 31
4 -3 3 1030.87 277.309 15
4 -3 3 1225.85 267.662 14
4 -3 4 96479.6 3247.11 11
4 -3 4 92445.9 3153.92 10
4 -3 4 86558.2 2991.4 20
4 -3 4 91130.8 3284.46 8
4 -3 4 93333.8 3137.01 31
4 -3 4 91247.9 3137.22 14
4 -3 4 95082.9 3354.71 24
4 -3 5 75089.7 2954.98 12
4 -3 5 75529.1 2942.59 11
4 -3 5 80706.2 2952.21 10
4 -3 5 75409.9 2986.94 8
4 -3 5 70431 2604.62 17
4 -3 5 72536.8 2830.83 31
4 -3 5 82075.1 3169.5 29
4 -3 5 74831.9 2904.47 13
4 -3 5 73565.8 2983.55 24
4 -3 6 9489.45 940.85 11
4 -3 6 10210 950.425 10
4 -3 6 8809.49 866.97 34
4 -3 6 10999.6 1017.91 8
4 -3 6 10172.7 845.67 17
4 -3 6 9772.54 927.949 31
4 -3 6 11075.9 1051.71 29
4 -3 6 11448.1 1013.25 13
4 -3 6 10800.9 979.26 12
4 -3 7 43064.9 2092.22 11
4 -3 7 40260.5 2047.31 8
4 -3 7 40652.7 1864.99 34
4 -3 7 40500.8 1811.64 17
4 -3 7 39565.5 1994.8 31
4 -3 7 45251.7 2178.74 29
4 -3 7 40302 2029.61 13
4 -3 7 42178.7 2032.43 12
4 -3 8 20900.1 1306.59 29
4 -3 8 17842.1 1196.69 13
4 -2 -11 6836.38 642.472 6
4 -2 -10 47.7477 153.107 6
4 -2 -9 9096.35 894.578 6
4 -2 -8 51887.9 2283.86 3
4 -2 -7 1791.28 395.589 3
4 -2 -6 29144.4 1520.74 3
4 -2 -4 1952.55 293.6 25
4 -2 -3 438447 10517.8 25
4 -2 -2 193982 5085.18 25
4 -2 0 360835 8827.82 25
4 -2 2 1334.95 329.185 29
4 -2 2 1504.45 271.182 10
4 -2 3 27884.8 1521.21 24
4 -2 3 29879.2 1451.41 11
4 -2 3 31312.3 1443.62 10
4 -2 3 26902.6 1401.88 20
4 -2 3 26849.9 1397.83 8
4 -2 3 29523.7 1411.29 31
4 -2 3 29028.4 1614.36 29
4 -2 3 30389.4 1441.77 14
4 -2 4 93902.9 3408.16 24
4 -2 4 97724.4 3316.84 11
4 -2 4 96931.6 3262.62 10
4 -2 4 92671.2 3142.17 20
4 -2 4 94004.6 3282.31 8
4 -2 4 93509.1 3229.44 31
4 -2 4 96167.9 3542.66 29
4 -2 4 96892.7 3301.81 14
4 -2 5 16691.9 1248.55 24
4 -2 5 16625.4 1200.48 11
4 -2 5 17480 1206.22 10
4 -2 5 15632.2 1158.56 8
4 -2 5 15184.5 1135.2 31
4 -2 5 17653.5 1144.49 17
4 -2 5 16718.4 1306.33 29
4 -2 5 17005.1 1231.21 13
4 -2 6 56729.5 2541.52 24
4 -2 6 54822.8 2325.56 17
4 -2 6 55757.5 2443.85 31
4 -2 6 54455 2384.4 8
4 -2 7 9312.7 829.45 17
4 -2 8 810.113 303.936 11
4 -2 8 2221.07 426.846 31
4 -2 9 50070.7 1819.28 31
4 -1 -11 360.41 180.271 6
4 -1 -10 5198.41 646.611 6
4 -1 -9 54208.5 2199.46 2
4 -1 -9 51884.3 2360.99 6
4 -1 -8 -50.7239 162.65 6
4 -1 -7 14968.6 1107.65 6
4 -1 -6 33684.9 1667.61 6
4 -1 -5 301.391 150.751 35
4 -1 -4 336325 8393.49 35
4 -1 -3 154678 4307.77 35
4 -1 -2 68046.9 2282.72 35
4 -1 -1 256405 6525.3 35
4 -1 0 317464 7865.36 35
4 -1 1 20975.3 1012.69 35
4 -1 2 17312.6 1001.64 11
4 -1 2 17197.7 981.654 31
4 -1 2 16810.9 1123.08 29
4 -1 2 16180.1 983.769 14
4 -1 3 53154.6 2308.03 24
4 -1 3 59952.6 2262.18 11
4 -1 3 58594.6 2305.25 20
4 -1 3 53121.9 2230.51 19
4 -1 3 57093.3 2189.42 31
4 -1 3 58364 2144.97 16
4 -1 3 52946.5 2365.35 29
4 -1 3 57211.5 2241.23 14
4 -1 4 60541.1 2591.04 24
4 -1 4 64018.8 2690.26 12
4 -1 4 60871.5 2419.93 20
4 -1 4 59245.2 2382.54 19
4 -1 4 61436.5 2446.03 31
4 -1 4 63209.4 2709.96 29
4 -1 4 62648.7 2520.21 14
4 -1 5 161786 5119.73 24
4 -1 5 148099 4511.1 32
4 -1 5 161456 5160.51 29
4 -1 5 159651 5068.82 13
4 -1 5 160415 5158.37 12
4 -1 6 8633.57 893.735 24
4 -1 6 7992.97 819.067 11
4 -1 6 8547.86 829.304 17
4 -1 6 7651.7 862.567 29
4 -1 6 8038.5 875.625 13
4 -1 6 8131.23 889.611 12
4 -1 7 668.101 271.781 12
4 -1 7 594.812 268.947 24
4 -1 7 265.715 178.449 17
4 -1 7 611.381 283.235 29
4 -1 7 463.16 257.459 13
4 -1 8 48112.8 1902.13 17
4 -1 8 50539.6 2056.84 13
4 0 -11 1304.23 294.287 6
4 0 -10 17837 1209.57 6
4 0 -9 102.792 206.602 6
4 0 -8 52071.3 2194.02 2
4 0 -8 55095.4 2380.18 6
4 0 -7 31452.6 1573.04 2
4 0 -7 30128.2 1637.05 6
4 0 -6 1104.33 262.77 35
4 0 -6 1528.05 333.633 2
4 0 -6 1392.51 334.787 6
4 0 -5 402418 9985.82 35
4 0 -4 212259 5770.6 35
4 0 -3 16686.6 1003.57 35
4 0 -1 231722 6064.21 35
4 0 0 300.534 150.322 35
4 0 1 152064 4499.62 20
4 0 1 151773 4202.19 35
4 0 1 151964 4220.79 31
4 0 1 146177 4259.72 14
4 0 2 70387.3 2658.19 24
4 0 2 69423.4 2697.21 20
4 0 2 74455.1 2340.93 35
4 0 2 70893.9 2768.04 19
4 0 2 73627.3 2544.1 31
4 0 2 73316.3 2528.74 16
4 0 2 68917.7 2649.42 29
4 0 2 74466 2611.88 14
4 0 3 3387.58 535.8 24
4 0 3 3923.28 476.733 21
4 0 3 4271.73 599.092 19
4 0 3 4426.57 544.411 32
4 0 3 3893.28 503.109 16
4 0 3 3723.73 556.492 29
4 0 3 3725.46 527.505 14
4 0 4 150500 4857.39 24
4 0 4 140840 4626.34 19
4 0 4 145007 4375.11 32
4 0 4 152182 4617.5 16
4 0 4 152168 4407.38 21
4 0 4 152265 4825.22 29
4 0 4 146358 4717.86 14
4 0 4 152128 4964.31 12
4 0 5 11643.5 1067.75 24
4 0 5 11338.9 920.834 32
4 0 5 10990 1015.73 29
4 0 5 12753.5 1091.05 13
4 0 5 11871.1 1106.36 12
4 0 6 3271.48 554.849 24
4 0 6 2992.92 505.385 17
4 0 6 3701.66 564.35 29
4 0 6 4252.03 629.582 13
4 0 6 4245.3 634.071 12
4 0 7 1097.02 320.128 24
4 0 7 1201.38 306.487 17
4 0 7 1213.65 332.374 13
4 0 8 33426.4 1421.2 17
4 0 8 34489 1457.75 13
4 1 -10 1300.07 331.727 6
4 1 -9 88926.4 3269.89 6
4 1 -8 60063.2 2357.27 2
4 1 -8 55952.3 2449.28 6
4 1 -7 113.512 112.421 35
4 1 -7 338.612 198.727 2
4 1 -7 439.094 229.051 6
4 1 -6 63905.9 2505.03 2
4 1 -6 67913.1 2527.36 35
4 1 -6 65670.5 2598.54 6
4 1 -6 65180.3 2532.04 37
4 1 -5 158828 4664.72 2
4 1 -5 150232 4685 37
4 1 -5 156502 4675.52 35
4 1 -5 156982 4727.63 6
4 1 -4 1254.25 323.821 37
4 1 -4 787.504 252.064 35
4 1 -3 10830 857.612 35
4 1 -3 10201.1 855.987 37
4 1 -2 69702 2611.93 37
4 1 -1 13844.9 979.532 37
4 1 -1 14483.5 970.569 35
4 1 0 306522 7957.76 37
4 1 0 306923 8212.85 19
4 1 0 303999 7768.71 14
4 1 0 306414 7910.03 35
4 1 1 11880.5 824.425 35
4 1 1 11574.1 1008.39 19
4 1 1 11118.6 824.154 37
4 1 1 11547.9 849.405 14
4 1 2 2874.38 482.418 24
4 1 2 3372.76 409.372 35
4 1 2 3561.24 589.541 19
4 1 2 3544.32 476.732 29
4 1 2 4055.76 535.706 14
4 1 3 153190 4901.31 24
4 1 3 153891 4660.82 21
4 1 3 150803 5003.92 19
4 1 3 151828 4661.46 29
4 1 3 163099 4895.73 14
4 1 3 158931 5013.74 12
4 1 4 144692 4800.41 24
4 1 4 141191 4289.12 22
4 1 4 144384 4476.29 21
4 1 4 152510 4611 29
4 1 4 151769 4887.6 12
4 1 5 608.135 276.321 12
4 1 5 164.12 239.126 24
4 1 5 163.401 198.121 13
4 1 6 14252.4 1083.53 24
4 1 6 13876.1 1045.52 17
4 1 6 15314.2 1113.67 13
4 1 7 72033.2 2506.41 24
4 1 7 69883.7 2495.99 17
4 1 7 72558.4 2485.58 13
4 1 8 79.0289 86.3513 17
4 2 -9 43753.7 2043.45 6
4 2 -8 497.061 224.843 2
4 2 -8 657.803 281.295 6
4 2 -7 32018.7 1659.98 35
4 2 -7 34787.3 1806.75 6
4 2 -7 34120.1 1731.19 37
4 2 -7 34701 1709.66 2
4 2 -6 249207 7007.43 37
4 2 -6 237180 6908.56 35
4 2 -6 261352 7071.46 6
4 2 -6 249017 6893.94 2
4 2 -5 2096.32 440.147 37
4 2 -5 1870.75 395.2 2
4 2 -5 1741.69 393.067 35
4 2 -4 51027.6 2328.82 37
4 2 -4 52482.5 2334.33 35
4 2 -4 55935.6 2295.79 2
4 2 -3 36126.8 1879.6 37
4 2 -3 36101.8 1862.4 35
4 2 -3 36107.4 1696.02 19
4 2 -3 38982.2 1794.11 7
4 2 -3 39036.9 1838.64 2
4 2 -2 1449.82 370.173 37
4 2 -2 1523.68 349.484 2
4 2 -2 1476.12 359.465 35
4 2 -2 1704.36 360.879 19
4 2 -2 1672.4 347.774 7
4 2 -1 150895 4624.89 35
4 2 -1 148455 4668.09 19
4 2 -1 146983 4402.44 7
4 2 -1 149169 4659.8 37
4 2 -1 142299 4247.7 14
4 2 0 65444.3 2557.99 37
4 2 0 67589.5 2551.08 35
4 2 0 65745.2 2760.98 19
4 2 0 58951.9 2319.43 14
4 2 1 1132.21 283.026 37
4 2 1 1636.22 331.786 35
4 2 1 1149.26 293.272 16
4 2 1 1487.37 329.64 14
4 2 2 104495 3677.93 24
4 2 2 112263 3762.74 21
4 2 2 108925 4064.74 19
4 2 2 111845 3716.94 16
4 2 2 109549 3713.79 14
4 2 2 114417 3767.63 12
4 2 3 149320 4857.9 24
4 2 3 156891 4811 21
4 2 3 156444 4847.21 16
4 2 3 147074 4795.71 14
4 2 3 159527 4869.2 12
4 2 4 1930.09 410.989 12
4 2 4 1571.2 398.081 24
4 2 4 2488.6 409.761 22
4 2 4 1519.22 359.13 21
4 2 4 1134.98 326.944 13
4 2 5 16588.3 1163.09 24
4 2 5 17630 1185.71 13
4 2 6 6963.46 644.248 24
4 2 6 6723.44 650.598 17
4 2 6 7850.58 647.743 13
4 2 7 807.803 197.594 17
4 3 -10 62204.7 2270.99 7
4 3 -9 1872.45 384.715 7
4 3 -8 18364.2 1187.38 37
4 3 -8 18587.3 1232.63 7
4 3 -8 17601.9 1125.79 2
4 3 -7 54437.1 2402.14 37
4 3 -7 53440.4 2355.61 35
4 3 -7 55695.9 2369.02 7
4 3 -7 51796.6 2229.42 2
4 3 -6 8647.1 899.991 37
4 3 -6 9231.28 911.675 35
4 3 -6 8980.87 867.745 7
4 3 -6 9975.96 895.339 2
4 3 -5 57633 2645.01 37
4 3 -5 56575 2612.95 35
4 3 -5 65086.7 2594.71 7
4 3 -5 62209.5 2540.46 2
4 3 -4 14573.9 1229.73 37
4 3 -4 14246.6 1206.1 35
4 3 -4 15722.2 1031.91 19
4 3 -4 16507.4 1174.92 7
4 3 -4 18157.2 1242.21 2
4 3 -3 312.587 171.28 19
4 3 -2 139222 4650.99 37
4 3 -2 129398 4532.34 35
4 3 -2 134389 4403.69 19
4 3 -2 139889 4384.68 7
4 3 -2 131851 3984.33 14
4 3 -1 172083 5337.46 37
4 3 -1 162862 5230 35
4 3 -1 173877 5359.87 19
4 3 -1 160716 4747.8 14
4 3 0 205.561 176.237 37
4 3 0 200.297 148.744 35
4 3 0 744.743 300.907 19
4 3 0 159.818 160.684 14
4 3 1 18672.4 1179.82 37
4 3 1 15379.3 1074.75 35
4 3 1 18522.8 1228.89 16
4 3 1 16092.8 1103.58 14
4 3 2 104237 3617.5 24
4 3 2 110388 3883.74 21
4 3 2 116036 3869.19 16
4 3 2 117615 3768.2 14
4 3 3 14243.9 1016.69 22
4 3 3 14026.7 1085.84 16
4 3 3 14741.9 1112.34 21
4 3 3 15847.7 1108.09 13
4 3 4 19471.3 1134.87 22
4 3 4 20444.3 1260.77 21
4 3 4 20116.6 1166.62 13
4 3 5 7104.62 677.331 17
4 3 6 837.665 207.195 17
4 4 -10 312.291 150.136 7
4 4 -9 3067.47 457.962 7
4 4 -8 807.447 277.719 7
4 4 -8 721.37 256.839 37
4 4 -7 70928.1 2837.17 37
4 4 -7 63748.1 2721.23 35
4 4 -7 65211.4 2655.3 7
4 4 -6 78098.6 3154.89 37
4 4 -6 71437.5 3050 35
4 4 -6 73148.6 2916.61 7
4 4 -5 74106.6 3154.03 37
4 4 -5 69112 3081.22 35
4 4 -5 77395.1 2995.15 7
4 4 -4 20367 1510.8 37
4 4 -4 18115.1 1448.79 35
4 4 -4 20373.8 1384.41 7
4 4 -3 110920 4192.07 35
4 4 -2 165981 5446.06 37
4 4 -2 161325 5407.82 35
4 4 -1 121.116 194.188 37
4 4 -1 59.7825 125.504 35
4 4 0 18476 1284.01 37
4 4 0 17851.9 1269.14 35
4 4 0 16860.9 1193.56 16
4 4 1 117230 4060.28 21
4 4 1 115609 3905.42 16
4 4 2 20829.1 1315 16
4 4 3 64207.9 2378.17 22
4 4 3 64554.4 2525.31 21
4 4 4 11812.4 842.152 17
4 4 5 892.719 196.039 17
4 5 -8 16723.7 1107.07 37
4 5 -8 17833 1107.46 7
4 5 -7 38461 1945.17 37
4 5 -7 38628.8 1849.34 7
4 5 -6 109362 3959.64 37
4 5 -5 254.004 255.308 37
4 5 -4 30882.6 1913.88 37
4 5 -3 96598.7 3788.4 37
4 5 -2 5882.87 784.312 37
4 5 -1 24686.5 1553.49 37
4 5 -1 25269.4 1430.77 16
4 5 0 13783.5 1090.68 21
4 5 0 12041.2 950.695 16
4 5 1 93.6316 150.147 21
4 5 1 201.573 169.282 16
4 5 2 25186.4 1278.41 22
4 5 2 24732.7 1359.97 21
4 5 3 11517.5 743.484 17
4 6 -8 14941.7 929.449 37
4 6 -7 60049.4 2375.41 37
4 6 -6 393.941 238.876 37
4 6 -5 52638.5 2390.22 37
4 6 -3 16962.6 1238.95 37
4 6 -3 16331.6 1014.7 16
4 6 -2 19430 1279.81 37
4 6 -2 20532 1233.19 21
4 6 -2 20313.7 1137.75 16
4 6 -1 14535.7 999.922 21
4 6 -1 12897.3 856.852 16
4 6 0 699.856 228.15 21
4 6 1 11568.5 762.571 22
4 6 1 13739 853.454 21
4 6 2 18879.2 851.06 22
4 7 -7 2978.65 381.393 37
4 7 -6 8470.81 696.008 37
4 7 -5 24512.3 1287.82 37
4 7 -4 11619.6 670.689 21
4 7 -3 15198.3 811.234 21
4 7 -3 16006.2 966.121 37
4 7 -2 8496.31 580.527 21
4 7 -1 140.75 94.4307 21
4 7 0 13953 679.796 22
5 -10 -5 9423.53 690.674 3
5 -10 -4 109.226 152.874 3
5 -10 -3 6352.97 666.865 3
5 -10 4 17495.3 935.184 18
5 -10 5 116.056 112.552 34
5 -9 -7 743.541 204.421 3
5 -9 -6 12020.2 900.8 3
5 -9 -4 20453.1 1403.05 3
5 -9 -3 18172.9 1341.05 3
5 -9 -2 34875.5 1891.44 3
5 -9 -1 2253.27 438.751 29
5 -9 -1 1436.59 372.159 3
5 -9 0 63298.7 2561.75 29
5 -9 1 34259.8 1731.7 29
5 -9 2 977.111 290.67 29
5 -9 3 31485.7 1564.69 18
5 -9 3 30916.2 1561.31 29
5 -9 4 399.205 221.795 34
5 -9 4 209.748 176.304 18
5 -9 4 578.257 219.155 29
5 -9 5 14517.2 1015.93 34
5 -9 5 14240.9 986.769 18
5 -9 6 13797.2 920.258 34
5 -9 6 13322.4 886.619 18
5 -9 7 4641.43 455.807 34
5 -8 -8 1213 268.355 3
5 -8 -7 7274.14 727.785 3
5 -8 -6 2193.52 467.734 3
5 -8 -4 24597.7 1674.74 3
5 -8 -3 13621.2 1223.86 3
5 -8 -3 12324.7 1064.99 25
5 -8 -2 1047.04 373.853 3
5 -8 -2 939.11 326.702 25
5 -8 -1 174910 5444.1 3
5 -8 -1 174504 5595.08 25
5 -8 0 23109.4 1460.45 29
5 -8 0 20778.1 1514.75 25
5 -8 1 81846.5 3191.18 29
5 -8 1 86851.8 3438.69 25
5 -8 2 71504.5 2754.35 18
5 -8 2 80041.8 3029.04 29
5 -8 2 72719.4 3056.02 25
5 -8 3 1241.42 336.005 18
5 -8 3 1186.09 348.872 29
5 -8 3 985.329 325.967 25
5 -8 4 23096.6 1452.45 18
5 -8 4 23771.3 1436.06 29
5 -8 5 26847.1 1593.66 34
5 -8 5 29110.9 1615.66 18
5 -8 5 26745.4 1469.56 29
5 -8 6 25399.2 1431.68 34
5 -8 6 24131.1 1381.27 18
5 -8 6 22620.6 1237.15 29
5 -8 7 5899.88 590.403 34
5 -8 7 4501.6 445.105 29
5 -7 -9 4604.22 486.25 6
5 -7 -8 9919.29 850.619 3
5 -7 -7 12172.3 1055.57 3
5 -7 -6 17117 1352.57 3
5 -7 -4 21788.2 1567.29 3
5 -7 -4 18786 1259.72 25
5 -7 -3 128.448 220.211 3
5 -7 -3 309.308 197.635 25
5 -7 -2 52795.6 2466.43 3
5 -7 -2 48475.5 2316.12 25
5 -7 -1 2625.65 506.779 3
5 -7 -1 1371.66 387.788 25
5 -7 0 1928.13 333.249 15
5 -7 1 26758.9 1410.42 18
5 -7 1 27260.6 1621.77 29
5 -7 1 26013 1314.8 15
5 -7 1 30012.8 1741.66 25
5 -7 2 2162.69 428.709 18
5 -7 2 2094.88 474.525 29
5 -7 2 1809.54 424.801 25
5 -7 3 81956.7 3179.41 18
5 -7 3 86471.9 3298.69 29
5 -7 3 85037.3 3202.15 25
5 -7 4 43640 2142.39 18
5 -7 4 40094.9 2067.85 29
5 -7 5 27826.7 1641.06 18
5 -7 5 25766.9 1552.06 29
5 -7 6 8246.7 718.537 11
5 -7 6 9281.07 902.615 34
5 -7 6 8838.5 832.433 29
5 -7 7 34747.1 1515.12 11
5 -7 7 39909.6 1691.92 29
5 -7 8 3422.53 355.404 11
5 -7 8 3379.46 413.518 34
5 -7 8 4066.13 403.179 29
5 -6 -10 2714.17 282.62 2
5 -6 -10 3793.1 419.563 6
5 -6 -9 14253.8 977.509 3
5 -6 -8 13264.4 1077.52 3
5 -6 -7 3061.83 576.883 3
5 -6 -6 84559.4 3454.47 3
5 -6 -5 25784.6 1391.48 25
5 -6 -4 2102.82 498.538 3
5 -6 -4 1457.66 332.012 25
5 -6 -3 34400 1925.73 3
5 -6 -3 35336.3 1765.42 25
5 -6 -2 21475.8 1431.93 3
5 -6 -2 23255.5 1399.83 25
5 -6 -1 24123.4 1462.08 3
5 -6 -1 29433.6 1602.86 25
5 -6 1 60557.5 2293.93 18
5 -6 1 57884.7 2492.59 29
5 -6 1 55739.6 2192.88 15
5 -6 1 58624.4 2497.31 25
5 -6 2 53935.6 2287.1 18
5 -6 2 57337.1 2490.85 29
5 -6 2 50765.3 2120.66 15
5 -6 2 54899.8 2367.71 25
5 -6 3 111546 3797.46 18
5 -6 3 107954 3868.01 29
5 -6 3 102283 3600.66 25
5 -6 4 29413.3 1714.61 18
5 -6 4 31367.5 1776.42 29
5 -6 5 1149.39 301.889 12
5 -6 5 1860.21 391.3 11
5 -6 5 1535.35 414.273 18
5 -6 5 444.24 290.66 31
5 -6 5 1359.59 383.094 29
5 -6 6 57793.4 2386.41 11
5 -6 6 59362.8 2550.81 34
5 -6 6 58803.2 2521.86 29
5 -6 7 4474 557.246 11
5 -6 7 4312.01 562.272 34
5 -6 7 4571.67 580.309 29
5 -6 8 7229.35 597.027 11
5 -6 8 6050.21 556.697 34
5 -6 8 6805.62 594.572 29
5 -5 -11 2127.9 264.111 6
5 -5 -10 14395.4 844.008 2
5 -5 -10 15455.4 990.801 6
5 -5 -9 4103.25 570.712 3
5 -5 -8 1279.25 370.286 3
5 -5 -7 72266.5 3050.6 3
5 -5 -6 37053.7 2041.55 3
5 -5 -5 35619.3 1653.33 25
5 -5 -4 59641.6 2601.21 3
5 -5 -4 59105.4 2321.71 25
5 -5 -3 19889 1346.6 3
5 -5 -3 20855.3 1236.69 25
5 -5 -2 100841 3520.43 3
5 -5 -2 102420 3396.97 25
5 -5 -1 64106.3 2497.54 25
5 -5 0 94127.3 3255.44 25
5 -5 1 2447.61 397.477 18
5 -5 1 1958.26 359.876 15
5 -5 1 2075.87 422.211 29
5 -5 1 2604.76 444.93 25
5 -5 2 234090 6533.46 18
5 -5 2 235858 6804.22 29
5 -5 2 230190 6453.18 15
5 -5 2 241617 6580.96 25
5 -5 3 16655.2 1082.34 11
5 -5 3 15757.2 1035.84 10
5 -5 3 16582.9 1196.54 18
5 -5 3 15393.5 1220.41 29
5 -5 3 15455.7 987.42 14
5 -5 3 14788.5 1037.82 25
5 -5 4 234.906 180.322 11
5 -5 4 507.87 216.936 10
5 -5 4 424.966 212.581 20
5 -5 4 273.121 198.846 18
5 -5 4 413.919 237.884 29
5 -5 5 43607.6 2052.03 12
5 -5 5 42374.8 2059.46 11
5 -5 5 41701.8 2028.73 10
5 -5 5 41363.7 1949.82 31
5 -5 5 48889.4 2319.98 29
5 -5 5 43419.3 1972.93 13
5 -5 6 20725.7 1339.68 11
5 -5 6 21140.6 1381.23 34
5 -5 6 18079.8 1229.18 31
5 -5 6 21841.2 1440.52 29
5 -5 6 18263.8 1192.41 13
5 -5 6 20495.2 1284.33 12
5 -5 7 44182.6 1958.66 11
5 -5 7 41872 1878.74 34
5 -5 7 39323 1798.27 31
5 -5 7 39506.5 1782.1 12
5 -5 8 13288.1 869.941 11
5 -5 8 12491.2 817.094 31
5 -5 8 14626.4 918.011 29
5 -4 -11 12214.7 779.969 6
5 -4 -10 6865.57 628.168 2
5 -4 -10 7451.75 735.255 6
5 -4 -9 5678.89 704.314 3
5 -4 -9 4138.39 623.614 6
5 -4 -8 29656.2 1745.66 3
5 -4 -7 23642.5 1549.87 3
5 -4 -6 6623.85 803.849 3
5 -4 -5 3135.18 531.283 3
5 -4 -5 2914.79 423.513 25
5 -4 -4 10854.3 956.437 3
5 -4 -4 12364 874.213 25
5 -4 -3 62242.1 2531.67 3
5 -4 -3 62975 2344.25 25
5 -4 -2 103015 3331.35 25
5 -4 0 2426.13 442.607 29
5 -4 0 3755.64 493.102 25
5 -4 1 325849 8599.19 15
5 -4 1 335651 8346.27 14
5 -4 1 343587 8656.48 25
5 -4 2 71642.5 2476.74 11
5 -4 2 66356.8 2283.16 31
5 -4 2 69600.4 2618.79 15
5 -4 2 66721 2397.41 14
5 -4 2 65698.3 2507.58 25
5 -4 3 169.592 170.636 11
5 -4 3 490.708 235.818 20
5 -4 3 587.038 284.851 31
5 -4 3 512.162 197.053 14
5 -4 4 58754.7 2428.5 11
5 -4 4 56460.2 2360.52 10
5 -4 4 54338.6 2241.69 20
5 -4 4 50797.5 2211.5 31
5 -4 5 41112.2 2060.75 12
5 -4 5 44110.1 2108.87 11
5 -4 5 40641.4 1974.25 31
5 -4 5 44027.9 2228.74 29
5 -4 5 40582.4 1991.84 13
5 -4 6 47630.2 2178.36 11
5 -4 6 43154.1 2015.87 34
5 -4 6 39471.5 1961.25 31
5 -4 6 48867.5 2291.94 29
5 -4 6 42049.6 2018.66 13
5 -4 6 42758.9 2060.62 12
5 -4 7 25876.1 1445.2 11
5 -4 7 23617.5 1355.47 31
5 -4 7 28068.1 1541.23 29
5 -4 7 25444.5 1399.98 13
5 -4 7 25649.2 1407.29 12
5 -4 8 1431.89 306.98 29
5 -4 8 1828.33 316.859 13
5 -3 -11 5392.49 559.632 6
5 -3 -10 294.933 161.134 2
5 -3 -10 47.8371 142.054 6
5 -3 -9 7053.31 803.048 6
5 -3 -8 33641.7 1861.86 3
5 -3 -7 6018.86 753.987 3
5 -3 -6 48483.8 2264.83 3
5 -3 -5 65982 2679.44 3
5 -3 -4 18904.9 1233.7 3
5 -3 -4 16289.6 1018.83 25
5 -3 -3 351090 8877.7 25
5 -3 -2 96658.1 3135.94 25
5 -3 0 86104 3174.85 29
5 -3 0 100626 3148.73 25
5 -3 1 108863 3243.42 11
5 -3 1 101210 3434.24 20
5 -3 1 100959 3037.57 31
5 -3 1 102474 3594.26 29
5 -3 1 107448 3252.39 14
5 -3 2 35176.7 1610.83 11
5 -3 2 33823.2 1698.17 20
5 -3 2 33040.2 1484.47 31
5 -3 2 33414.7 1814.87 29
5 -3 2 34086.9 1583.05 14
5 -3 3 26279 1458.6 11
5 -3 3 26624.5 1491.24 20
5 -3 3 24896.6 1370.85 31
5 -3 3 28467.1 1696.45 29
5 -3 3 25817.9 1431.46 14
5 -3 4 17734 1248.07 11
5 -3 4 19527.8 1219.59 20
5 -3 4 17928.1 1074.27 17
5 -3 4 17300.2 1188.65 31
5 -3 4 18655.4 1388.74 29
5 -3 4 18262 1229.35 14
5 -3 5 28656.3 1652.31 11
5 -3 5 25712.5 1355.06 17
5 -3 5 27392.2 1564.93 31
5 -3 5 27784.2 1727.29 29
5 -3 5 27348.5 1612.56 13
5 -3 6 104145 3624.79 11
5 -3 6 95390.9 3456.64 31
5 -3 6 106534 3652.07 13
5 -3 6 96552.9 3570.66 12
5 -3 7 15521.2 1060.87 31
5 -3 7 13378.7 1005.37 13
5 -3 7 14693 1042.23 12
5 -3 8 268.393 149.135 13
5 -2 -12 7628.56 495.513 6
5 -2 -11 37.3677 150.204 6
5 -2 -10 305.322 179.229 2
5 -2 -10 199.126 181.084 6
5 -2 -9 17858.3 1224.34 2
5 -2 -9 20913.3 1409.89 6
5 -2 -8 7923.14 868.923 6
5 -2 -7 78056.8 3086.05 6
5 -2 -5 6966.36 747.678 6
5 -2 -4 360692 9332.8 6
5 -2 -1 25967.4 1310.68 20
5 -2 -1 21240.1 1243.55 29
5 -2 0 135650 4083 15
5 -2 0 140115 3899.01 14
5 -2 1 137045 4357.21 20
5 -2 1 140110 3998.72 31
5 -2 1 146057 3971.81 16
5 -2 1 139524 4464.32 29
5 -2 1 138932 4370.45 15
5 -2 1 143010 4162.89 14
5 -2 2 90879.3 3302.92 20
5 -2 2 93484.1 3069.91 31
5 -2 2 97598.5 3013.53 16
5 -2 2 94232.8 3402.19 15
5 -2 2 91093.4 3426.46 29
5 -2 2 98070.7 3226.18 14
5 -2 3 12698.1 1009.48 11
5 -2 3 12719.9 1024.6 20
5 -2 3 13426.8 1025.34 19
5 -2 3 13062.3 986.981 31
5 -2 3 13456.5 915.15 16
5 -2 3 14471.7 1165.86 29
5 -2 3 11585.4 960.621 14
5 -2 3 12803.9 1055.42 24
5 -2 4 9842.72 975.193 12
5 -2 4 9618.45 900.167 11
5 -2 4 8094.19 795.032 20
5 -2 4 7622.32 743.547 19
5 -2 4 9821.46 886.161 31
5 -2 4 9300.01 968.592 29
5 -2 4 9864.82 955.837 24
5 -2 5 177578 5168.36 17
5 -2 5 165810 5244.27 31
5 -2 5 176691 5567.19 29
5 -2 5 186203 5614.26 12
5 -2 6 15464.9 1040.88 17
5 -2 6 17498.1 1239.29 29
5 -2 6 17019.7 1240.29 12
5 -2 7 283.562 196.407 12
5 -2 7 79.8683 145.232 29
5 -1 -12 360.652 145.914 6
5 -1 -11 3643.16 496.217 6
5 -1 -10 9777.96 799.457 2
5 -1 -10 9816.58 905.772 6
5 -1 -9 1529.01 370.033 2
5 -1 -9 1831.91 432.335 6
5 -1 -8 151879 4792.6 2
5 -1 -8 154734 4982.67 6
5 -1 -7 25023.1 1493.23 2
5 -1 -7 26508.2 1594.69 6
5 -1 -6 2821.94 484.53 2
5 -1 -6 2989.99 535.728 6
5 -1 -5 135599 4429.74 2
5 -1 -5 150351 4384.55 35
5 -1 -5 143761 4537.2 6
5 -1 -4 153480 4553.75 35
5 -1 -4 148263 4618.92 6
5 -1 -3 2354.96 392.256 35
5 -1 -3 1553.16 351.291 2
5 -1 -2 40521.8 1734.4 20
5 -1 -1 123846 3882.13 20
5 -1 -1 128609 3865.43 35
5 -1 -1 122491 3837.79 15
5 -1 0 33546.9 1535.94 35
5 -1 0 29322.4 1524.54 29
5 -1 0 34073.9 1654.9 15
5 -1 0 33986.7 1531.52 14
5 -1 1 139751 4393.07 20
5 -1 1 139732 4010.97 16
5 -1 1 130305 4333.63 15
5 -1 1 131936 4268.56 29
5 -1 1 139477 4171.35 14
5 -1 2 1673.4 375.088 24
5 -1 2 2426 473.133 20
5 -1 2 2659.68 496.149 19
5 -1 2 1861.08 344.21 16
5 -1 2 2342.26 458.711 29
5 -1 2 2278.11 410.868 14
5 -1 3 51.6414 140.099 24
5 -1 3 567.672 250.262 20
5 -1 3 411.896 225.078 19
5 -1 3 331.975 174.338 16
5 -1 3 435.789 238.124 29
5 -1 3 441.196 222.393 14
5 -1 4 24881.8 1570.83 24
5 -1 4 24478.3 1604.34 12
5 -1 4 24947.4 1458.25 19
5 -1 4 29988.3 1633.94 31
5 -1 4 26796 1625.39 29
5 -1 4 25349.6 1556.02 14
5 -1 5 48083.1 2126.92 17
5 -1 5 50192.2 2271.41 29
5 -1 5 50531.3 2334.27 13
5 -1 5 51341.2 2376.14 12
5 -1 5 45072.4 2195.81 24
5 -1 6 1286.79 351.968 12
5 -1 6 1084.03 278.384 17
5 -1 6 649.327 252.482 29
5 -1 6 1000.64 327.352 13
5 -1 7 24503.2 1274.91 13
5 0 -11 3336.03 466.171 6
5 0 -10 826.259 306.62 6
5 0 -9 66464.9 2598.18 2
5 0 -9 66854.1 2777.9 6
5 0 -8 22023.1 1382.84 2
5 0 -8 21622.5 1446.92 6
5 0 -7 3735.71 566.946 2
5 0 -7 3399.22 497.603 35
5 0 -7 3056.7 538.549 6
5 0 -6 1810.13 378.921 35
5 0 -6 1257.66 343.574 2
5 0 -6 1725.29 412.086 6
5 0 -5 105387 3611.9 2
5 0 -5 106711 3618.1 35
5 0 -5 100154 3612.07 6
5 0 -4 939.901 311.976 37
5 0 -4 747.475 222.379 20
5 0 -4 705.229 273.78 35
5 0 -4 699.29 265.538 6
5 0 -3 100477 3420.36 2
5 0 -3 96785 3436.23 37
5 0 -3 98647.9 3216.79 20
5 0 -3 99291.7 3407.58 35
5 0 -3 95896.9 3356.18 6
5 0 -2 9835.73 875.168 37
5 0 -2 10899.5 864.162 20
5 0 -2 9786.54 778.414 15
5 0 -2 9476.1 839.342 35
5 0 -2 9844.8 855.81 2
5 0 -1 33211.2 1664.18 20
5 0 -1 34314.3 1648.79 35
5 0 -1 29666 1418.55 7
5 0 -1 33050.9 1598 15
5 0 -1 30994.4 1578.95 2
5 0 0 271332 7107.72 35
5 0 0 266962 7267.89 15
5 0 0 282063 7120.11 14
5 0 1 75304.8 3042.19 20
5 0 1 79505.3 2732.64 35
5 0 1 77859 3144.34 19
5 0 1 79881.1 2799.54 16
5 0 1 83122.8 2939.32 14
5 0 2 362.748 212.917 24
5 0 2 464.72 253.906 19
5 0 2 128.104 171.742 16
5 0 2 130.977 175.589 29
5 0 2 524.12 251.777 14
5 0 3 79807.9 3203.74 12
5 0 3 77425.1 3017.49 24
5 0 3 78987.4 2764.34 21
5 0 3 76471.2 3117.14 19
5 0 3 75958.4 2895.07 16
5 0 3 80078.3 2957.3 29
5 0 3 86949.6 3158.44 14
5 0 4 185717 5621.93 24
5 0 4 181379 5452.31 29
5 0 4 195597 5851.65 12
5 0 5 500.703 258.048 12
5 0 5 876.199 296.258 24
5 0 5 928.562 279.005 17
5 0 5 953.713 304.674 13
5 0 6 22644.8 1214.96 17
5 0 6 23074.4 1297.66 13
5 0 7 7258.57 528.53 17
5 0 7 7858.92 577.895 13
5 1 -10 34540.3 1739.12 6
5 1 -9 86755.5 3236.79 6
5 1 -9 83348.2 3002.21 2
5 1 -8 192.376 184.336 2
5 1 -8 55.1086 176.722 6
5 1 -7 9668.1 888.672 35
5 1 -7 11211.8 1007.03 6
5 1 -7 10006 919.198 2
5 1 -6 79136.9 3114.09 37
5 1 -6 74275.4 2994.85 35
5 1 -6 82719.2 3143.24 6
5 1 -6 75721 2992.44 2
5 1 -5 168.94 152.637 37
5 1 -5 54.3887 147.422 35
5 1 -5 202.461 184.052 2
5 1 -4 59606 2626.24 37
5 1 -4 60613.4 2601.86 35
5 1 -4 60177.7 2544.53 2
5 1 -3 9923.4 863.342 7
5 1 -3 8483.77 833.897 2
5 1 -2 1014.07 323.734 37
5 1 -2 483.395 248.961 2
5 1 -2 722.303 265.665 35
5 1 -2 545.277 227.783 7
5 1 -1 259854 7328.75 37
5 1 -1 262467 7289.26 35
5 1 -1 278229 7546.58 19
5 1 -1 252352 6961.11 7
5 1 -1 263565 7052.08 14
5 1 0 116296 3836.38 35
5 1 0 118799 4202.17 19
5 1 0 117085 3815.69 14
5 1 1 8507.99 744.814 35
5 1 1 9245.44 827.163 16
5 1 1 8344.88 813.84 14
5 1 2 65753.7 2588.16 21
5 1 2 66996.8 2955.98 19
5 1 2 64919.7 2623.13 16
5 1 2 66520.8 2707.74 14
5 1 2 70699.8 2812.39 12
5 1 3 41774.6 1969.01 16
5 1 3 38615.4 1966.37 14
5 1 3 40225.2 1850.26 21
5 1 3 44673.6 2097.9 12
5 1 4 10695 951.553 13
5 1 4 12765.1 996.851 12
5 1 5 14881.9 1003.16 17
5 1 5 14809.9 1027.22 13
5 1 6 10755.7 723.375 17
5 1 6 9164.41 652.326 13
5 2 -11 10540.3 711.61 7
5 2 -10 41435.4 1814.24 7
5 2 -9 78.0649 156.903 2
5 2 -8 8289.71 794.45 2
5 2 -7 13075 1103.52 37
5 2 -7 12137.4 1050.57 35
5 2 -7 12931 1041.57 2
5 2 -6 779.337 348.59 37
5 2 -6 103.616 208.496 2
5 2 -6 1115.27 341.325 35
5 2 -5 95180.4 3721.58 37
5 2 -5 92989.5 3650.7 35
5 2 -5 103998 3626.45 2
5 2 -4 34867.5 2009.78 37
5 2 -4 33717.2 1939.65 35
5 2 -4 34176.6 1710.58 19
5 2 -4 37597.1 1897.78 7
5 2 -4 33273.7 1830.54 2
5 2 -3 1738.67 380.993 19
5 2 -3 247.768 208.45 7
5 2 -2 97313.7 3714.57 37
5 2 -2 97752.4 3669.73 35
5 2 -2 102924 3675.63 19
5 2 -2 99063.7 3441.91 7
5 2 -2 93578.2 3263.01 14
5 2 -1 131699 4416.02 37
5 2 -1 129151 4366.96 35
5 2 -1 135453 4564.51 19
5 2 -1 124191 4060.71 14
5 2 0 2410.91 440.537 35
5 2 0 2237.84 516.758 19
5 2 0 2560.91 452.044 16
5 2 0 2403.29 432.508 14
5 2 1 24880.3 1461.3 14
5 2 2 43674.1 2025.59 21
5 2 2 43719.6 2034.63 14
5 2 3 3752.8 512.007 21
5 2 3 4045.8 554.838 13
5 2 4 28744.1 1423.59 13
5 2 5 4084.74 392.751 13
5 3 -11 3286.54 345.905 7
5 3 -10 14160.5 913.089 7
5 3 -9 16457 1090.82 7
5 3 -8 20792.2 1320.19 7
5 3 -7 3589.13 597.516 37
5 3 -7 2949.46 528.092 35
5 3 -7 3166.1 534.381 7
5 3 -7 4601.62 611.394 2
5 3 -6 126282 4546.35 37
5 3 -6 126087 4524.52 35
5 3 -6 139496 4455.01 7
5 3 -6 135500 4381.65 2
5 3 -5 47363.1 2422.49 37
5 3 -5 43192.4 2307.45 35
5 3 -5 47786.8 2253.12 7
5 3 -4 2930.05 616.832 37
5 3 -4 3089.18 602.574 35
5 3 -4 3254.68 511.436 19
5 3 -4 4056.39 605.226 7
5 3 -3 40485.9 2265.33 37
5 3 -3 38554.1 2194.96 35
5 3 -3 43158.5 2083.41 19
5 3 -3 45216.6 2134.6 7
5 3 -3 43917.4 1887.59 14
5 3 -2 238214 7030.39 37
5 3 -2 238109 6836.56 19
5 3 -2 234133 6364.17 14
5 3 -1 12777.7 1106.08 37
5 3 -1 12858.9 1155.26 19
5 3 -1 11538.6 1055.33 35
5 3 -1 13963 993.82 14
5 3 0 64964.5 2640.2 16
5 3 0 66767.3 2526.22 14
5 3 1 29460.2 1638.58 21
5 3 1 30468.2 1631.13 16
5 3 1 30156.7 1517.35 14
5 3 2 1951.76 385.261 21
5 3 2 1915.37 386.652 16
5 3 2 2167.24 366.351 13
5 3 3 39642.7 1701.3 21
5 3 4 2870.24 382.086 17
5 4 -10 15458.3 849.381 7
5 4 -9 15936.7 991.147 7
5 4 -8 418.79 215.533 7
5 4 -7 53777 2380.69 37
5 4 -7 51434 2248.59 7
5 4 -6 44856 2269.42 37
5 4 -6 46466.8 2152.23 7
5 4 -5 898.341 339.862 37
5 4 -5 1360.99 370.726 7
5 4 -3 58939 2728.44 37
5 4 -2 1067.99 360.311 37
5 4 -1 24253.8 1485.38 37
5 4 -1 26588.4 1469.34 16
5 4 0 7974.85 755.629 16
5 4 1 2052.03 375.185 16
5 4 2 69084.8 2416.5 21
5 4 3 18314.1 920.777 17
5 5 -7 82625.1 2955.1 37
5 5 -6 593.602 275.042 37
5 5 -5 13803.8 1110.04 37
5 5 -3 4014.56 590.035 37
5 5 -3 3090.74 457.06 16
5 5 -2 16555.3 1127.73 37
5 5 -2 16202.9 1088.49 21
5 5 -2 16591.1 1035.25 16
5 5 -1 9098.68 773.913 21
5 5 -1 8897.38 715.331 16
5 5 0 270.962 159.091 21
5 5 0 264.612 142.653 16
5 5 1 39250.4 1535.82 21
5 6 -6 16391.2 991.298 37
5 6 -5 6285.68 614.84 37
5 6 -5 5538.81 481.075 21
5 6 -5 5508.96 461.977 16
5 6 -4 1982.06 352.811 37
5 6 -4 1573.28 269.993 21
5 6 -4 1369.28 242.007 16
5 6 -3 29929 1270.05 21
5 6 -3 28272.8 1159.5 16
5 6 -2 16855.1 865.483 21
5 6 -2 14046.1 718.985 16
5 6 -1 437.843 138.739 21
6 -10 -5 3554.53 410.38 3
6 -10 -4 1185.23 239.248 29
6 -10 -3 13722.2 860.55 29
6 -10 -2 18874.8 1069.55 29
6 -10 -1 5379.88 570.539 29
6 -10 0 16582.3 1010.26 29
6 -10 1 194.75 136.337 29
6 -10 2 2597.88 361.334 29
6 -10 3 18956.5 984.682 34
6 -10 4 97.4948 110.548 34
6 -10 5 13832 711.607 34
6 -9 -7 3339.91 399.922 3
6 -9 -7 2961.21 346.503 6
6 -9 -5 8761 842.222 3
6 -9 -4 60552.5 2572.52 3
6 -9 -3 22526.7 1443.83 3
6 -9 -1 56747.5 2426.68 29
6 -9 0 1592.71 397.109 29
6 -9 1 4068.99 585.123 29
6 -9 2 19882.7 1263.78 29
6 -9 3 7755.29 730.601 29
6 -9 4 20749.3 1236.21 34
6 -9 4 21143.9 1164.31 29
6 -9 5 17381.4 1033.63 34
6 -9 5 16799 909.593 29
6 -9 6 3467.29 392.211 34
6 -8 -8 6880.48 588.054 6
6 -8 -7 8581.42 793.681 3
6 -8 -5 25482.6 1657.47 3
6 -8 -4 128.501 190.758 3
6 -8 -3 251.267 263.781 3
6 -8 -2 23041.2 1515.22 3
6 -8 -2 21896.3 1527.41 25
6 -8 -1 5186.77 714.508 29
6 -8 -1 5119.31 748.505 25
6 -8 0 50567.3 2380.81 29
6 -8 1 16655.9 1272.2 29
6 -8 1 18162.2 1384.15 25
6 -8 2 26504 1612.1 29
6 -8 3 46622.4 2183.47 29
6 -8 4 33453.5 1715.27 29
6 -8 5 8138.04 780.287 34
6 -8 5 8730.47 754.907 29
6 -8 6 518.269 217.849 34
6 -8 6 464.115 182.986 29
6 -7 -9 11293.2 773.495 6
6 -7 -8 8166.34 771.399 3
6 -7 -7 55.3519 189.745 3
6 -7 -5 2511.54 554.633 3
6 -7 -4 273.559 274.958 3
6 -7 -4 258.029 165.575 25
6 -7 -3 41878.7 2264.84 3
6 -7 -3 42992.7 2143.65 25
6 -7 -2 18422.7 1375.97 3
6 -7 -2 16911.7 1307.3 25
6 -7 -1 72288 2825.19 3
6 -7 -1 68426.9 2977.32 25
6 -7 0 33137.4 1880.15 29
6 -7 0 30671.4 1555.8 15
6 -7 0 32240.7 1889.96 25
6 -7 1 25880.6 1655.94 29
6 -7 1 24040.6 1372.53 15
6 -7 1 29101.1 1748.09 25
6 -7 2 7715.13 874.812 29
6 -7 2 7053.38 705.911 15
6 -7 2 6653.59 804.916 25
6 -7 3 77044.1 3131.19 29
6 -7 4 2803.75 450.872 20
6 -7 4 2967.29 526.906 29
6 -7 5 1926.23 408.838 29
6 -7 6 30599.2 1532.51 34
6 -7 6 31898.4 1515.25 29
6 -7 7 1388.32 260.717 34
6 -7 7 1455.24 259.922 29
6 -6 -10 12813.9 693.935 2
6 -6 -10 15649.4 867.575 6
6 -6 -9 4643.07 579.763 6
6 -6 -8 2723.21 503.351 3
6 -6 -7 34077.6 1953.54 3
6 -6 -5 19351.8 1495.32 3
6 -6 -5 19437.6 1246.4 25
6 -6 -4 9620.31 1031.42 3
6 -6 -4 8900.17 868.433 25
6 -6 -3 28587.5 1803.73 3
6 -6 -3 29827.2 1691.98 25
6 -6 -2 25803.7 1637.4 3
6 -6 -2 28644 1670.45 25
6 -6 -1 120542 4013.95 3
6 -6 0 14135 1180.32 29
6 -6 0 12452.4 980.358 15
6 -6 0 14121.9 1160.86 25
6 -6 1 1775.29 388.576 15
6 -6 1 2249.68 490.694 29
6 -6 1 1952.34 447.688 25
6 -6 2 96914.3 3677.97 29
6 -6 2 93213.4 3343.98 15
6 -6 2 95910.2 3499.09 25
6 -6 3 11095.4 975 20
6 -6 3 10924.5 1042.88 29
6 -6 4 22417.4 1285.45 11
6 -6 4 23742.3 1338.82 20
6 -6 4 23937.3 1560.48 29
6 -6 5 23516.3 1432.46 29
6 -6 5 18830.5 1177.98 12
6 -6 6 2616.44 431.432 34
6 -6 6 2986 469.322 29
6 -6 7 25021.6 1200.6 29
6 -5 -11 10062.5 608.212 6
6 -5 -10 2533.15 357.983 2
6 -5 -10 2619.83 415.21 6
6 -5 -9 48.9432 156.94 6
6 -5 -8 3034.44 563.416 3
6 -5 -7 633.504 334.956 3
6 -5 -6 34467.4 2019.69 3
6 -5 -5 8091.84 942.861 3
6 -5 -5 8135.35 783.671 25
6 -5 -4 27590.2 1749.51 3
6 -5 -4 27443.1 1540.14 25
6 -5 -3 35921.9 1968.81 3
6 -5 -3 30915 1703.87 6
6 -5 -3 33698.8 1760.99 25
6 -5 -2 258643 7382.17 3
6 -5 -2 262787 7265.36 25
6 -5 -1 33034.6 1838.98 29
6 -5 0 3648.01 615.873 29
6 -5 0 3291.3 509.665 15
6 -5 0 2999.56 397.175 14
6 -5 0 3187.27 539.441 25
6 -5 1 109581 3764.3 15
6 -5 1 109631 3435.75 14
6 -5 1 118426 3956.65 25
6 -5 2 20509.2 1396.84 20
6 -5 2 20766.9 1346.34 15
6 -5 2 20160.3 1169.96 14
6 -5 3 41679.1 2024.77 20
6 -5 4 19114.8 1244.12 11
6 -5 4 18525 1185.38 20
6 -5 4 18139.2 1363.43 29
6 -5 4 20889.9 1260.43 13
6 -5 5 1435.67 360.213 12
6 -5 5 814.939 309.793 29
6 -5 5 1138.13 292.453 13
6 -5 6 28393 1517.64 29
6 -5 6 26453 1379.77 12
6 -5 7 19086.1 1049.29 29
6 -5 8 6199.78 427.807 29
6 -4 -11 5362.44 512.465 6
6 -4 -10 307.671 194.378 2
6 -4 -10 127.828 154.983 6
6 -4 -9 3531.87 529.521 2
6 -4 -9 2562.5 492.977 6
6 -4 -8 20019.1 1419.41 6
6 -4 -7 25145.9 1660.52 3
6 -4 -6 67965.5 3026.26 3
6 -4 -6 76132 3109.59 6
6 -4 -5 26203.7 1644.75 6
6 -4 -4 417.535 270.573 3
6 -4 -4 264.236 192.27 6
6 -4 -3 133237 4335.16 6
6 -4 -3 142348 4398.93 25
6 -4 -2 29924.3 1637.17 2
6 -4 -2 30858.7 1641.51 25
6 -4 -1 3569.14 505.167 2
6 -4 -1 4879.72 673.742 29
6 -4 -1 4826.54 514.223 14
6 -4 0 47836.9 2326.97 29
6 -4 0 50044.1 1962.69 14
6 -4 1 12722.1 1070.66 20
6 -4 1 12293.8 1107.36 29
6 -4 1 13811.3 949.549 14
6 -4 2 66202.2 2741.79 20
6 -4 2 63022.3 2707.66 15
6 -4 2 66837.9 2935.4 29
6 -4 2 66505 2533.52 14
6 -4 3 63244 2651.94 20
6 -4 3 65067.1 2425.05 31
6 -4 3 67697 2945.23 29
6 -4 3 68697 2635.01 14
6 -4 4 20559 1259.55 20
6 -4 4 21724 1294.9 31
6 -4 4 22613.6 1522.16 29
6 -4 4 20392.3 1319.9 13
6 -4 5 17968.2 1153.45 31
6 -4 5 17793.6 1273.97 29
6 -4 5 15843.6 1121.6 13
6 -4 5 16523.2 1182.43 12
6 -4 6 49093.7 2024.34 13
6 -4 6 52955.1 2114.28 12
6 -4 7 6776.39 550.862 13
6 -4 7 7998.94 610.801 12
6 -3 -11 2200.03 359.237 6
6 -3 -10 4297.93 526.278 2
6 -3 -10 3892.75 554.871 6
6 -3 -9 5943.73 699.793 2
6 -3 -9 5654.39 719.317 6
6 -3 -8 6286.94 757.667 2
6 -3 -8 5698.33 763.509 6
6 -3 -6 13722.1 1166.25 6
6 -3 -5 1782.45 428.76 6
6 -3 -4 100450 3609.53 2
6 -3 -4 100126 3259.49 20
6 -3 -4 97820.4 3551.32 6
6 -3 -3 65532.9 2674.84 2
6 -3 -3 66758.4 2517.59 20
6 -3 -3 64159.7 2579.8 6
6 -3 -2 54556.4 2295.52 2
6 -3 -2 50582.5 2183.61 20
6 -3 -2 48798.7 2234.54 29
6 -3 -1 31096.6 1595.18 2
6 -3 -1 33751.9 1761.13 20
6 -3 -1 32395.6 1774.19 29
6 -3 0 24140.2 1543.1 29
6 -3 0 23845.5 1450.6 15
6 -3 0 24754.3 1320.55 14
6 -3 1 48618 2288.82 20
6 -3 1 47723.7 2339.84 29
6 -3 1 52785.8 2350.4 15
6 -3 1 52113.7 2140.54 14
6 -3 2 146915 4806.13 20
6 -3 2 147522 4948.27 29
6 -3 2 153952 4651.57 14
6 -3 3 10995.7 982.537 20
6 -3 3 10988.4 933.826 19
6 -3 3 14223.3 1052.91 31
6 -3 3 13284.9 1165.56 29
6 -3 3 12998.1 1035.66 14
6 -3 4 9262.36 931.614 12
6 -3 4 9413.05 837.207 20
6 -3 4 9345.11 950.792 29
6 -3 5 89950.3 3245.45 29
6 -3 5 84296.8 3128.33 13
6 -3 5 86052.6 3202.82 12
6 -3 6 8707.71 749.13 29
6 -3 6 7851.36 718.208 13
6 -3 7 912.91 214.531 29
6 -3 7 948.901 219.197 13
6 -2 -12 1256.96 208.956 6
6 -2 -11 13225.9 900.264 6
6 -2 -10 3809.67 499.277 2
6 -2 -10 4313 593.221 6
6 -2 -9 5865.87 698.686 2
6 -2 -9 5314.89 715.377 6
6 -2 -8 94911.8 3485.65 2
6 -2 -8 93337.1 3581.13 6
6 -2 -7 21158.6 1426.31 2
6 -2 -6 554.724 260.785 2
6 -2 -6 813.995 315.467 6
6 -2 -5 44497.1 2199.08 6
6 -2 -4 74145.4 2982.78 2
6 -2 -4 78274.6 2730.42 20
6 -2 -4 77210.5 2997.04 6
6 -2 -3 32883.8 1752.55 2
6 -2 -3 33213.5 1616.53 20
6 -2 -3 29415.3 1543.46 29
6 -2 -3 30010 1615.78 6
6 -2 -2 19985.9 1304.36 2
6 -2 -2 21050.7 1286.5 20
6 -2 -2 21163.1 1278.69 29
6 -2 -2 18718.9 1145.76 6
6 -2 -1 2026.9 428.012 20
6 -2 -1 1773.26 371.536 2
6 -2 -1 1919.65 417.633 15
6 -2 -1 1860.96 393.055 29
6 -2 -1 2315.58 397.492 14
6 -2 0 46629.9 1828.09 16
6 -2 0 49488.7 2220.74 29
6 -2 0 45190 2175.67 15
6 -2 0 47747.4 2032.63 14
6 -2 1 36801.7 1968.39 20
6 -2 1 39150.6 1672.99 16
6 -2 1 42005.1 2100.41 15
6 -2 1 39768.3 2009.61 29
6 -2 1 39298 1873.82 14
6 -2 2 23216 1495.11 20
6 -2 2 23823 1509.09 19
6 -2 2 20621.7 1187.01 16
6 -2 2 21994.9 1465.8 29
6 -2 3 1400.78 373.878 20
6 -2 3 1960.29 413.209 19
6 -2 3 1827.39 426.116 29
6 -2 4 122241 4077.73 12
6 -2 4 110602 3563.03 17
6 -2 4 112405 3885.91 29
6 -2 5 17330.5 1135.1 29
6 -2 5 18466.3 1222.16 12
6 -2 6 12538.4 865.814 12
6 -1 -11 141.27 135.39 6
6 -1 -10 1437.25 316.326 2
6 -1 -10 1985.54 410.757 6
6 -1 -9 24725.9 1447.76 2
6 -1 -9 22269 1477.84 6
6 -1 -8 24271.5 1517.36 2
6 -1 -8 25347.1 1609.27 6
6 -1 -7 604.475 274.919 2
6 -1 -6 30268.9 1729.99 2
6 -1 -6 27608.3 1697.87 6
6 -1 -5 28871.4 1420.69 20
6 -1 -5 28035.7 1644.88 35
6 -1 -5 28528.4 1707.98 6
6 -1 -4 65718.4 2717.17 2
6 -1 -4 61319 2401.12 20
6 -1 -4 62442.9 2647.49 35
6 -1 -4 63035.2 2644.07 6
6 -1 -3 83917.4 3216.99 2
6 -1 -3 87446.4 3087.55 20
6 -1 -3 86193.1 3233.11 35
6 -1 -3 87848.4 3168.52 6
6 -1 -2 30539.1 1632.8 20
6 -1 -2 32253.3 1698.89 35
6 -1 -2 26840.8 1416.55 7
6 -1 -2 30864.4 1632.28 15
6 -1 -2 26191.7 1549.92 2
6 -1 -1 2459.72 436.315 2
6 -1 -1 2571.9 486.334 20
6 -1 -1 2326.54 452.65 15
6 -1 -1 3211.64 481.955 14
6 -1 0 163288 4742.07 16
6 -1 0 165810 5172.15 15
6 -1 0 157119 4796.47 29
6 -1 0 168472 4979.73 14
6 -1 1 165838 5294.81 20
6 -1 1 164923 5346.6 19
6 -1 1 165766 4837.62 16
6 -1 1 160539 4931.99 29
6 -1 1 169472 5079.28 14
6 -1 2 10797.6 1021.67 19
6 -1 2 8897.04 796.422 16
6 -1 2 9908.74 884.642 29
6 -1 2 9657.3 905.125 14
6 -1 3 81154.5 3192.17 12
6 -1 3 75462 2981.83 19
6 -1 3 83310.6 3096.71 14
6 -1 4 21779.6 1368.22 13
6 -1 4 22273.5 1403.11 12
6 -1 5 16423.1 1091.23 13
6 -1 5 18773.8 1137.76 12
6 -1 6 7409.06 596.524 13
6 0 -12 5117.1 386.802 7
6 0 -10 13449.6 1013.31 6
6 0 -10 12999 896.03 2
6 0 -9 40169.9 2018.41 6
6 0 -9 39702 1890.47 2
6 0 -8 1185.42 348.903 2
6 0 -8 1367.45 385.485 6
6 0 -7 3873.78 598.572 2
6 0 -7 4560.18 667.289 6
6 0 -6 13300.6 1131.58 2
6 0 -6 14296.4 1167.28 35
6 0 -6 16012.8 1241.07 6
6 0 -5 6334.69 777.963 35
6 0 -5 5691.61 733.2 6
6 0 -5 7358.07 837.273 2
6 0 -4 155142 4665.39 20
6 0 -4 147879 4932.08 35
6 0 -4 151453 4552.56 15
6 0 -4 153320 4947.82 2
6 0 -3 22325.3 1380.91 20
6 0 -3 21174.9 1330.61 7
6 0 -3 22700.2 1328.71 15
6 0 -3 23174.5 1477.53 2
6 0 -2 14322.2 1121.89 20
6 0 -2 14135.2 1124.52 35
6 0 -2 11785.6 931.79 7
6 0 -2 13605 1034.58 15
6 0 -2 12775.2 1052.66 2
6 0 -1 218681 6418.67 20
6 0 -1 213802 6234.8 35
6 0 -1 227063 6628.32 19
6 0 -1 199583 5767.5 7
6 0 -1 219676 6261.28 15
6 0 -1 219813 6158.23 14
6 0 0 36167.7 1740.85 16
6 0 0 35485 1821.59 14
6 0 1 18431.4 1400.64 19
6 0 1 18041.1 1177 16
6 0 1 18364.6 1263.54 14
6 0 2 14869.6 1153.79 12
6 0 2 14065 950.112 21
6 0 2 16562.1 1262.6 19
6 0 2 14191.7 1037.31 16
6 0 2 15203.8 1139.04 14
6 0 3 44221.3 2055.95 12
6 0 4 19842.3 1154.48 17
6 0 4 21640.1 1276.83 13
6 0 4 21900 1237.13 12
6 0 5 38266.6 1500.38 17
6 0 5 38587 1598.58 13
6 1 -12 101.409 67.0018 7
6 1 -11 3003.93 379.258 7
6 1 -10 18473.6 1022.64 2
6 1 -9 1285.76 326.999 2
6 1 -8 11952 990.646 2
6 1 -7 6992.21 802.598 35
6 1 -7 6689.45 770.766 2
6 1 -6 1713.77 425.395 2
6 1 -6 1681.22 419.701 35
6 1 -5 117568 4266.26 35
6 1 -5 116705 3841.48 19
6 1 -5 118347 4082.74 7
6 1 -5 125082 4209.8 2
6 1 -4 25558.3 1690.85 35
6 1 -4 28725.3 1599.84 19
6 1 -4 27708.3 1612.07 7
6 1 -3 386.704 241.473 2
6 1 -3 310.298 212.818 35
6 1 -3 108.648 147.34 19
6 1 -3 534.997 235.854 7
6 1 -2 77375 3135.51 35
6 1 -2 81466.6 3205.22 19
6 1 -2 74095.7 2813.71 7
6 1 -2 76182.6 2897.61 14
6 1 -1 77068.8 3022.79 35
6 1 -1 79599 3244.96 19
6 1 -1 75930.3 2924.93 14
6 1 0 9792.89 1025.62 19
6 1 0 9965.16 882.171 16
6 1 0 10394.3 917.802 14
6 1 1 9714.83 838.033 21
6 1 1 7283.29 886.992 19
6 1 1 10173 870.665 16
6 1 1 8707.85 832.344 14
6 1 1 9347.6 817.105 12
6 1 2 14049.7 963.301 21
6 1 2 16001.7 1080.78 16
6 1 2 15918.1 1116.62 14
6 1 2 16453.3 1048.45 12
6 1 3 15152.7 1015.37 13
6 1 3 12162.3 815.899 12
6 1 4 53508.2 1957.43 17
6 1 4 52911 1945.08 13
6 1 5 2235.42 262.171 17
6 2 -11 15113.3 787.195 7
6 2 -10 1317.13 286.473 7
6 2 -9 40448.5 1819.13 7
6 2 -9 38433.6 1692.35 2
6 2 -8 1971.18 395.937 2
6 2 -8 1828.51 395.899 7
6 2 -7 1870.09 402.383 2
6 2 -7 2022.7 435.459 7
6 2 -6 73325.9 2929.26 2
6 2 -5 109059 4192.42 35
6 2 -5 113674 3749.43 19
6 2 -5 120084 4073.43 7
6 2 -4 4701.42 625.607 19
6 2 -4 5199.63 672.772 7
6 2 -3 62974.7 2876.38 35
6 2 -3 69009.8 2787.07 19
6 2 -3 66601.6 2672.09 7
6 2 -3 63891.8 2546.29 14
6 2 -2 86507.8 3368.08 19
6 2 -2 84723.8 3065.33 14
6 2 -1 11079.5 1060.39 19
6 2 -1 12316.3 956.554 14
6 2 0 22377.4 1318.99 14
6 2 1 564.157 224.238 21
6 2 1 712.4 240.237 14
6 2 2 4944.53 522.725 21
6 2 2 5184.03 545.688 13
6 2 3 45066 1594.07 13
6 2 4 12884.3 675.254 17
6 3 -10 29289.5 1254.03 7
6 3 -9 1636.48 319.426 7
6 3 -8 1701.8 345.792 7
6 3 -7 43725.1 1999.07 7
6 3 -5 9407.15 876.769 7
6 3 -5 9276.34 758.26 14
6 3 -4 15251.6 989.676 14
6 3 -3 27418.6 1379.06 14
6 3 -2 5987.38 665.158 16
6 3 -2 4194.55 505.87 14
6 3 -1 75646.6 2791.78 16
6 3 -1 76783.7 2582.03 14
6 3 0 4883.73 569.027 21
6 3 0 4903.37 562.136 16
6 3 1 799.047 226.685 21
6 3 1 961.962 251.794 16
6 4 -3 146.68 160.271 16
6 4 -2 63746.3 2389.81 21
6 4 -2 63364.3 2303.63 16
6 4 -1 8094.88 655.989 16
6 4 0 4645.81 465.028 21
6 5 -5 2896.66 341.32 16
6 5 -4 128.061 107.612 21
6 5 -4 280.772 123.678 16
6 5 -3 35759.1 1396.88 21
6 5 -3 35092.7 1337.89 16
6 5 -2 43695.4 1519.28 21
6 5 -2 41183 1428.95 16
6 5 -1 1663.43 221.711 21
7 -10 -4 14881.8 837.176 29
7 -10 -3 270.764 141.34 29
7 -10 -2 940.053 239.865 29
7 -10 -1 9884.36 752.34 29
7 -10 0 127.756 139.593 29
7 -10 1 9627.27 704.715 29
7 -10 2 15005.4 816.003 34
7 -10 2 14402.5 810.409 29
7 -10 3 636.09 172.955 34
7 -10 3 640.858 149.527 29
7 -9 -7 202.848 115.396 2
7 -9 -3 7595.42 765.638 29
7 -9 -2 10314.1 916.478 29
7 -9 -1 2080.46 425.322 29
7 -9 0 37988.3 1860.03 29
7 -9 1 20382.1 1259.59 29
7 -9 2 11661.1 898.215 29
7 -9 3 4153.42 498.429 29
7 -9 4 30544 1340.08 34
7 -9 4 27609.6 1230.18 29
7 -9 5 904.039 192.733 34
7 -8 -8 1179.78 235.774 2
7 -8 -8 1007.89 219.513 6
7 -8 -7 440.345 201.346 6
7 -8 -6 18539 1260.49 3
7 -8 -5 776.547 301.121 3
7 -8 -4 13249.6 1126.38 3
7 -8 -3 10333.4 967.939 3
7 -8 -2 4389.44 667.757 29
7 -8 -2 3946.2 504.493 15
7 -8 -1 26624.2 1657.73 29
7 -8 -1 24446 1301.32 15
7 -8 0 34070.8 1885.55 29
7 -8 1 8302.21 877.33 29
7 -8 2 8737.21 854.542 29
7 -8 3 33422.6 1561.82 20
7 -8 3 35000.5 1719.03 29
7 -8 4 -36.8073 141.066 29
7 -8 5 7892.35 612.835 29
7 -8 6 10522.5 579.244 34
7 -7 -9 140.23 116.87 2
7 -7 -9 283.529 139.771 6
7 -7 -8 455.087 195.257 6
7 -7 -7 5220.97 650.159 6
7 -7 -6 964.982 387.101 3
7 -7 -6 577.554 292.032 6
7 -7 -5 20119.6 1475.26 3
7 -7 -5 15636.5 1208.78 6
7 -7 -4 30017 1861.62 3
7 -7 -2 22681.9 1626.52 29
7 -7 -2 27200.9 1696.5 25
7 -7 -1 55267.1 2613.94 29
7 -7 -1 53359.6 2262.94 15
7 -7 0 11746.5 1111.37 29
7 -7 0 11344.4 925.313 15
7 -7 1 10190 1009.9 29
7 -7 1 9620.82 848.492 15
7 -7 2 34065.6 1824.09 20
7 -7 2 36878.5 1958.16 29
7 -7 3 538.969 246.608 20
7 -7 3 928.648 331.193 29
7 -7 4 20308.2 1255.62 29
7 -7 5 29718.6 1394.55 34
7 -7 5 30953.6 1435.43 29
7 -7 6 1747.53 265.488 29
7 -6 -10 245.245 112.52 2
7 -6 -10 370.022 153.647 6
7 -6 -9 2184.72 357.572 2
7 -6 -8 762.137 289.135 6
7 -6 -7 4977.11 689.004 6
7 -6 -6 29435.5 1776.74 6
7 -6 -5 52423 2466.76 6
7 -6 -4 21048.7 1407.68 6
7 -6 -3 3087.94 551.181 25
7 -6 -2 85657.3 3211.92 2
7 -6 -2 91887.5 3577.08 29
7 -6 -2 85258.8 3415.28 25
7 -6 -1 4567.87 720.361 29
7 -6 -1 5381.96 676.923 15
7 -6 -1 5082.4 728.982 25
7 -6 0 8248.95 835.274 15
7 -6 0 7124.76 855.237 25
7 -6 1 33528.9 1885.88 20
7 -6 1 31207.9 1714.51 15
7 -6 2 3178.89 545.574 20
7 -6 3 42050.1 1928.24 20
7 -6 4 7242.84 685.493 12
7 -6 4 8511.15 830.688 29
7 -6 5 12380.8 892.215 29
7 -6 5 11721.9 785.037 12
7 -6 6 18116.2 926.73 29
7 -5 -11 1322.03 196.59 6
7 -5 -10 2906.84 364.096 2
7 -5 -10 2284.57 369.305 6
7 -5 -9 3281.16 477.384 2
7 -5 -8 7935.41 828.751 2
7 -5 -8 8040.33 850.382 6
7 -5 -7 10668.6 1038.29 6
7 -5 -6 43590.6 2255.01 6
7 -5 -5 8798.29 768.341 20
7 -5 -5 7747.09 886.676 6
7 -5 -4 4536.6 592.76 20
7 -5 -4 2398.44 486.253 6
7 -5 -3 76608.3 3106.81 2
7 -5 -3 75248.4 2550.93 14
7 -5 -2 551.677 251.004 2
7 -5 -2 574.609 328.584 29
7 -5 -2 722.772 211.157 14
7 -5 -1 19355.4 1392.43 20
7 -5 -1 20320 1483.25 29
7 -5 -1 17244.3 1268.66 15
7 -5 -1 16196.8 1016.19 14
7 -5 0 41783.5 2217.44 29
7 -5 0 40608.3 2037.73 15
7 -5 0 39621.9 1740.92 14
7 -5 1 8977.52 950.513 20
7 -5 1 9512.26 999.042 29
7 -5 1 9939.28 952.762 15
7 -5 1 8722.69 755.007 14
7 -5 2 56845.3 2468.22 20
7 -5 2 58614.4 2632.11 29
7 -5 3 32125.6 1649.89 20
7 -5 3 32049.7 1804.25 29
7 -5 3 29291.3 1497.09 13
7 -5 4 18018.4 1160.5 12
7 -5 4 18207 1238.25 29
7 -5 5 9506.34 772.88 29
7 -5 5 7065.23 644.411 12
7 -5 6 32495.2 1300.38 29
7 -5 6 29657.5 1197.51 12
7 -4 -11 4697.98 437.809 6
7 -4 -10 9711.14 719.231 2
7 -4 -10 10318.8 807.313 6
7 -4 -9 3687.86 521.582 2
7 -4 -8 10025.6 944.658 2
7 -4 -8 10241.2 988.07 6
7 -4 -7 64111.1 2804.33 2
7 -4 -7 63971.8 2812.86 6
7 -4 -6 16246.4 1301.11 6
7 -4 -5 2965.56 449.816 20
7 -4 -5 3182.97 604.382 2
7 -4 -5 3463.3 596.426 6
7 -4 -4 45927 2302.57 2
7 -4 -4 47219 2063.17 20
7 -4 -4 41388.8 2106.59 6
7 -4 -3 5652.94 738.937 2
7 -4 -3 6044.62 703.699 20
7 -4 -3 5204.39 724.044 29
7 -4 -3 5738.28 666.089 6
7 -4 -2 27336.6 1591.71 2
7 -4 -2 30508 1721.57 20
7 -4 -2 26984.6 1719.7 29
7 -4 -2 31025.2 1502.85 14
7 -4 -1 50939.6 2388.88 20
7 -4 -1 47344 2397.98 29
7 -4 -1 48121.6 2322.4 15
7 -4 -1 51611.9 2090.19 14
7 -4 0 10309.2 1036.49 29
7 -4 0 11616.9 1031.84 15
7 -4 0 9393.02 813.983 14
7 -4 1 70992.6 3003.88 20
7 -4 1 79480 3083.07 15
7 -4 1 73939 3080.95 29
7 -4 1 69545.1 2690.38 14
7 -4 2 86526.7 3307.33 20
7 -4 2 89346.7 3435.76 29
7 -4 2 88199.4 3111.9 14
7 -4 3 7496.39 763.232 20
7 -4 3 7603.69 835.064 29
7 -4 4 1502.06 371.604 29
7 -4 4 1568.54 341.086 13
7 -4 5 26475.5 1289.37 29
7 -4 5 22856.3 1164.03 13
7 -4 6 1899.89 263.147 29
7 -4 6 2728.55 315.25 12
7 -3 -11 12443.7 756.706 6
7 -3 -11 9094.64 552.687 2
7 -3 -10 2101.43 353.388 2
7 -3 -10 2290.19 410.238 6
7 -3 -9 134.686 180.508 2
7 -3 -9 252.19 193.349 6
7 -3 -8 40178.7 2035.32 2
7 -3 -7 12028.5 1084.17 2
7 -3 -7 11725.1 1099.1 6
7 -3 -6 2701.32 544.949 6
7 -3 -5 9834.99 1006.72 2
7 -3 -5 9776.31 814.591 20
7 -3 -5 10590.9 1019.99 6
7 -3 -4 896.956 288.598 20
7 -3 -4 1488.06 415.088 2
7 -3 -4 905.84 305.885 29
7 -3 -4 1328.92 370.851 6
7 -3 -3 79998.5 3177.09 2
7 -3 -3 85352.8 3106.21 20
7 -3 -3 80684.1 3104.7 29
7 -3 -3 78258.4 2923.42 6
7 -3 -2 3874.99 581.266 2
7 -3 -2 4974.35 672.471 20
7 -3 -2 3505.38 582.627 29
7 -3 -2 4261 642.493 15
7 -3 -2 3948.86 537.974 14
7 -3 -1 15035.7 1202.6 20
7 -3 -1 12536.8 1081.21 29
7 -3 -1 14113.5 1160.3 15
7 -3 -1 12542.1 972.802 14
7 -3 -1 12009.6 919.455 2
7 -3 0 6583.17 792.014 29
7 -3 0 7542.36 861.303 15
7 -3 0 7389.34 745.793 14
7 -3 1 189206 5822.89 20
7 -3 1 187861 5741.49 29
7 -3 1 186463 5519.92 14
7 -3 2 8142.06 857.582 20
7 -3 2 7705.54 801.056 19
7 -3 2 8171.3 851.837 29
7 -3 2 8691.64 826.417 14
7 -3 3 5391.6 684.269 12
7 -3 3 4377.21 591.299 29
7 -3 4 33238.2 1606.77 13
7 -3 4 34843.6 1694.31 12
7 -3 5 2464.12 357.17 13
7 -3 5 3699.67 444.631 12
7 -3 6 8587.83 508.896 13
7 -2 -11 1172.77 205.797 2
7 -2 -11 1051.29 249.552 6
7 -2 -10 1353.81 288.233 2
7 -2 -10 934.329 283.941 6
7 -2 -9 25917.8 1463.82 2
7 -2 -9 26923.4 1566.91 6
7 -2 -8 11805.6 1036.68 2
7 -2 -7 17035.4 1294.5 2
7 -2 -7 18056.3 1362.27 6
7 -2 -6 9293.07 961.125 6
7 -2 -5 17721 1342.32 2
7 -2 -5 18988.3 1160.67 20
7 -2 -5 15420.8 1236.63 6
7 -2 -4 19814.9 1427.09 2
7 -2 -4 21763.1 1323.46 20
7 -2 -4 21106.2 1398.08 6
7 -2 -3 53884.1 2365.99 20
7 -2 -3 56347.7 2466.81 15
7 -2 -3 52686.3 2435.95 2
7 -2 -2 86683.9 3302.18 20
7 -2 -2 90331.2 3354.88 15
7 -2 -2 87266.5 3135.19 14
7 -2 -2 82404.6 3143.25 2
7 -2 -1 6849.76 804.486 20
7 -2 -1 6314.96 612.378 16
7 -2 -1 7343.18 735.977 29
7 -2 -1 7754.59 858.173 15
7 -2 -1 8444.94 818.077 14
7 -2 -1 7812.82 737.499 2
7 -2 0 189692 5238.9 16
7 -2 1 9907 968.033 20
7 -2 1 9678.55 970.931 19
7 -2 2 13807.6 1079.27 19
7 -2 3 9316.11 858.809 12
7 -2 4 1729.68 347.584 12
7 -2 5 29335.1 1228.21 12
7 -1 -11 17.1555 85.7265 2
7 -1 -10 2781.19 442.786 6
7 -1 -10 3273.19 427.749 2
7 -1 -9 12222.4 991.069 6
7 -1 -9 11909.4 937.993 2
7 -1 -8 8645.85 850.593 2
7 -1 -7 14688.5 1181.72 2
7 -1 -7 15466.3 1234.22 6
7 -1 -6 6162.82 779.236 6
7 -1 -6 7156.91 835.259 2
7 -1 -5 32567 1599.83 20
7 -1 -5 29006.9 1761.51 2
7 -1 -4 199268 5826.34 20
7 -1 -4 208164 5929.76 15
7 -1 -4 194474 6095.53 2
7 -1 -3 6139.57 737.256 20
7 -1 -3 5642.94 645.571 7
7 -1 -3 6082.33 718.999 15
7 -1 -3 5714.03 722.068 2
7 -1 -2 13130 1091.74 20
7 -1 -2 12123.3 1034.1 15
7 -1 -2 13413.7 1044.88 14
7 -1 -2 11351.2 973.28 2
7 -1 -1 68687.2 2904.65 20
7 -1 -1 71018.8 3028.93 19
7 -1 -1 68485.1 2565.65 16
7 -1 -1 74438.9 2837.81 14
7 -1 0 53935.8 2171.76 16
7 -1 0 56311.5 2389.57 14
7 -1 1 21195.1 1441.7 19
7 -1 1 22335.2 1236.83 16
7 -1 1 23222.1 1399.61 14
7 -1 2 26297.7 1480.18 12
7 -1 2 24781.1 1451.11 19
7 -1 2 24832.7 1418.75 14
7 -1 3 6222.13 643.425 13
7 -1 3 6306.71 638.145 12
7 -1 4 17854 986.508 13
7 -1 4 16639.9 898.403 12
7 -1 5 26314.9 998.481 13
7 0 -11 625.658 182.527 7
7 0 -10 6481.47 569.224 2
7 0 -9 6094.26 627.939 2
7 0 -8 25122.3 1452.57 2
7 0 -7 1407.04 385.426 2
7 0 -6 1266.77 373.276 2
7 0 -6 1869.2 365.56 19
7 0 -5 105839 3709.54 19
7 0 -5 121115 3962.62 7
7 0 -4 22351.9 1565.01 35
7 0 -4 24176.1 1493.53 19
7 0 -4 24829 1458.81 7
7 0 -4 25508.3 1569.27 2
7 0 -3 2573.4 510.773 19
7 0 -3 2099.06 403.103 7
7 0 -3 3742.15 574.358 2
7 0 -3 2837.65 492.484 14
7 0 -2 8909.18 926.809 19
7 0 -2 10653.3 927.032 14
7 0 -1 34244.2 1939.7 19
7 0 -1 33315.5 1639.42 16
7 0 -1 30469.4 1663.42 14
7 0 0 29067.7 1511.23 12
7 0 0 28410.4 1485.82 16
7 0 0 28516.1 1568.66 14
7 0 1 29553.1 1658.68 19
7 0 1 29343.2 1460.94 16
7 0 1 32054.5 1613.81 14
7 0 1 30285.6 1487.49 12
7 0 2 1306.68 281.955 12
7 0 3 17284.7 980.786 13
7 0 4 49305.5 1583.78 13
7 1 -11 936.144 181.285 7
7 1 -10 2778.69 374.111 7
7 1 -9 27287.8 1369.67 7
7 1 -9 25665.9 1290.07 2
7 1 -8 16069.3 1096.22 7
7 1 -8 16571.4 1087.4 2
7 1 -7 2841.29 486.369 2
7 1 -6 89256 3276.52 7
7 1 -6 95309.5 3371.64 2
7 1 -5 55612.7 2292.12 19
7 1 -5 61890.2 2489.44 7
7 1 -4 12111.6 997.518 19
7 1 -4 12686.3 980.126 7
7 1 -4 12162.5 962.945 14
7 1 -3 8338.49 838.848 19
7 1 -3 7567.75 752.945 14
7 1 -2 2405.11 483.447 19
7 1 -2 2909.6 465.024 16
7 1 -2 2173.28 402.331 14
7 1 -1 19090.5 1306.33 19
7 1 -1 15435.8 1054.32 16
7 1 -1 16133 1098.49 14
7 1 0 35569.2 1604.38 21
7 1 0 39856.8 1918.46 19
7 1 0 36943.9 1691.69 16
7 1 0 38849.1 1744.37 14
7 1 1 7161.28 627.345 16
7 1 2 8314.31 617 13
7 2 -10 27643.6 1147.71 7
7 2 -9 11350.7 764.219 7
7 2 -8 5795.96 592.141 7
7 2 -6 38167.4 1784.22 7
7 2 -5 8679.69 711.997 19
7 2 -5 10661.3 867.362 7
7 2 -5 9518.83 768.583 14
7 2 -4 22764.1 1280.09 19
7 2 -4 23354.1 1256.86 14
7 2 -3 4193.17 550.863 19
7 2 -3 4092.82 494.958 14
7 2 -2 3717.26 493.89 16
7 2 -2 3677.18 466.677 14
7 2 -1 63368.8 2324.55 21
7 2 -1 64622.1 2346.56 16
7 2 -1 64911.7 2244.66 14
7 2 0 9994.88 688.269 21
7 2 0 9809.44 712.785 16
7 3 -8 603.608 132.649 14
7 3 -7 11070.4 628.811 14
7 3 -6 592.422 154.408 14
7 3 -5 20399 940.604 14
7 3 -4 196.299 143.098 16
7 3 -4 357.712 137.471 14
7 3 -3 9060.35 695.842 16
7 3 -2 67150.8 2269.49 21
7 3 -2 66070.2 2243.47 16
7 3 -1 18786.6 918.141 21
7 3 -1 18211.2 917.795 16
7 4 -6 21706.1 936.763 16
7 4 -5 10002.9 600.335 16
7 4 -4 3327.79 341.433 21
7 4 -4 3104.56 323.348 16
7 4 -3 43880.3 1444.28 21
7 4 -3 40619.9 1389.3 16
8 -10 -3 5772.89 438.587 20
8 -10 -3 5938.66 492.005 29
8 -10 -2 11131.1 697.243 20
8 -10 -2 11292.4 715.452 29
8 -10 -1 775.732 208.276 20
8 -10 -1 765.528 205.842 29
8 -10 0 6351.53 512.678 29
8 -10 1 11999 669.539 20
8 -10 1 10170.2 611.99 29
8 -9 -6 2704.86 338.125 29
8 -9 -5 288.705 150.705 29
8 -9 -4 7251.2 554.44 20
8 -9 -4 7831.36 706.091 29
8 -9 -3 10721.8 788.997 20
8 -9 -3 11333.4 880.287 29
8 -9 -2 4642.07 574.669 29
8 -9 -1 19064.8 1156.44 20
8 -9 -1 18869.8 1158.67 29
8 -9 0 14565.2 979.203 29
8 -9 1 1097.56 266.914 20
8 -9 1 1624.85 324.326 29
8 -9 2 7360.7 561.257 20
8 -9 2 7674.69 609.256 29
8 -9 3 12245.2 695.106 34
8 -9 3 11225.8 656.668 29
8 -8 -7 6560.73 555.271 2
8 -8 -7 6704.78 585.199 29
8 -8 -6 34.444 138.452 2
8 -8 -6 38.6892 140.67 29
8 -8 -5 15714.1 827.548 20
8 -8 -4 12449.8 873.581 20
8 -8 -4 13785.6 887.951 15
8 -8 -3 13168.5 979.239 20
8 -8 -3 13200.9 888.469 15
8 -8 -2 18724.8 1233.94 20
8 -8 -2 18139.7 1271.57 29
8 -8 -2 16162 1003.64 15
8 -8 -1 18938.9 1268.32 20
8 -8 -1 20570.3 1347.61 29
8 -8 0 434.107 241.215 29
8 -8 1 5384.61 618.961 20
8 -8 1 6355.62 682.039 29
8 -8 2 34337.5 1506.39 20
8 -8 2 33106.7 1569.5 29
8 -8 3 1049.89 247.653 29
8 -8 4 11534.5 660.068 34
8 -8 4 12494 685.075 29
8 -7 -7 4327.43 540.35 2
8 -7 -6 12998.7 1008.56 2
8 -7 -5 21050.1 1353.78 2
8 -7 -5 21919.5 1121.85 20
8 -7 -5 19408.7 1347.48 29
8 -7 -4 4842.04 630.019 2
8 -7 -4 4360.97 563.1 20
8 -7 -4 4161.67 653.279 29
8 -7 -3 7559.96 777.803 20
8 -7 -3 5419.48 752.905 29
8 -7 -3 6281.74 691.533 15
8 -7 -2 32224.9 1743.67 20
8 -7 -2 29190.1 1767.98 29
8 -7 -2 28745 1555.57 15
8 -7 -1 11200.9 1000.69 20
8 -7 -1 11299.9 1043.06 29
8 -7 -1 9224.13 826.907 15
8 -7 0 9258.62 807.892 15
8 -7 1 7138.68 745.007 20
8 -7 2 1356.22 320.998 20
8 -7 4 20233.4 948.269 34
8 -6 -9 4606.62 445.04 2
8 -6 -9 3427.82 397.663 6
8 -6 -8 3414.34 475.275 2
8 -6 -8 3238.63 461.182 6
8 -6 -7 12377.5 976.79 2
8 -6 -7 9319.07 834.269 6
8 -6 -6 30841.2 1721.81 2
8 -6 -5 211.822 154.421 20
8 -6 -5 495.916 306.103 2
8 -6 -5 462.532 252.736 29
8 -6 -4 1228.51 323.879 20
8 -6 -4 1912.28 436.949 2
8 -6 -3 31963.2 1720.04 20
8 -6 -3 31154 1872.17 29
8 -6 -3 30779.6 1724.54 15
8 -6 -2 162.72 197.219 20
8 -6 -2 102.591 175.849 15
8 -6 -2 62.1426 225.95 29
8 -6 -1 25090.7 1590.71 20
8 -6 -1 26924.5 1683.77 29
8 -6 -1 26132.4 1541.77 15
8 -6 0 11736 1066.19 29
8 -6 0 10997.8 959.974 15
8 -6 1 13511.1 1066.75 20
8 -6 1 12823.9 1069.52 29
8 -6 2 38695.7 1780.26 20
8 -6 2 37713.7 1837 29
8 -6 3 30717.2 1419.08 12
8 -6 3 32291.1 1532.61 29
8 -6 4 1070.74 214.909 12
8 -6 4 844.628 215.039 29
8 -5 -10 7432.14 493.569 2
8 -5 -9 6163.7 570.424 2
8 -5 -9 4785.34 526.352 6
8 -5 -8 3128.05 476.883 2
8 -5 -8 2844.82 470.609 6
8 -5 -7 31822.3 1688.13 6
8 -5 -6 279.33 224.716 2
8 -5 -6 502.712 243.85 6
8 -5 -5 675.148 232.292 20
8 -5 -5 693.093 305.501 2
8 -5 -5 722.983 323.605 29
8 -5 -4 22587.2 1484.48 2
8 -5 -4 22297.5 1345.31 20
8 -5 -4 21105.5 1471.16 29
8 -5 -3 406.314 230.433 20
8 -5 -3 294.387 206.121 2
8 -5 -3 223.618 224.834 15
8 -5 -3 479.787 272.062 29
8 -5 -2 78585.7 3055.21 20
8 -5 -2 75320.7 3118.33 29
8 -5 -2 77831.4 3051.77 15
8 -5 -2 70535.4 2535.99 14
8 -5 -1 34568.2 1886.31 20
8 -5 -1 33682.2 1886.79 29
8 -5 -1 29970.3 1450.81 14
8 -5 0 7541.04 840.223 29
8 -5 1 19355.1 1316.38 20
8 -5 1 22568.5 1412.88 29
8 -5 2 34604.3 1683.41 20
8 -5 2 36702.5 1765.23 29
8 -5 3 2195.62 380.655 12
8 -5 3 2897.94 426.226 29
8 -5 4 1141.46 239.453 12
8 -4 -10 1391.61 244.548 2
8 -4 -9 139.919 152.853 2
8 -4 -9 -74.509 162.792 6
8 -4 -8 16693 1137.88 2
8 -4 -8 15287.9 1092.95 6
8 -4 -7 3200.95 534.395 6
8 -4 -6 22622.6 1496.06 2
8 -4 -6 20732 1377.03 6
8 -4 -5 809.231 256.331 20
8 -4 -5 754.344 306.984 2
8 -4 -5 679.5 270.065 6
8 -4 -4 3725.23 542.741 20
8 -4 -4 3346.43 571.33 2
8 -4 -4 3904.15 515.111 14
8 -4 -3 35748.4 1834.22 20
8 -4 -3 31938.6 1780.66 29
8 -4 -3 31942.7 1584.15 14
8 -4 -3 31930.5 1737.2 2
8 -4 -2 81685 3142.4 20
8 -4 -2 77749.2 3064.45 29
8 -4 -2 86262.6 3257.93 15
8 -4 -2 76126.5 2793.98 14
8 -4 -1 7382.71 833.996 20
8 -4 -1 6605.87 759.825 29
8 -4 -1 8081.98 869.92 15
8 -4 -1 7253.01 700.831 14
8 -4 0 10797.5 956.982 29
8 -4 0 10682.6 846.619 14
8 -4 1 67243.2 2647.44 20
8 -4 1 63844.8 2517.52 19
8 -4 1 58174.2 2302.9 14
8 -4 2 363.381 207.76 20
8 -4 3 2986.69 392.825 13
8 -4 3 3071.24 440.558 12
8 -4 4 11935.2 718.938 12
8 -3 -10 270.155 139.736 2
8 -3 -9 4494.36 531.144 2
8 -3 -9 4853.78 561.902 6
8 -3 -8 3284.97 494.864 2
8 -3 -8 2483.58 463.946 6
8 -3 -7 7728.76 813.933 6
8 -3 -6 1393.96 400.961 2
8 -3 -6 1387.39 359.059 6
8 -3 -5 38200.1 2001.02 2
8 -3 -5 36515.3 1691.16 20
8 -3 -4 2937.86 484.724 20
8 -3 -4 2405.43 499.745 2
8 -3 -4 3232.59 551.129 15
8 -3 -3 135653 4416.58 20
8 -3 -3 138764 4592.58 15
8 -3 -3 138170 4317.56 14
8 -3 -3 136325 4403.04 2
8 -3 -2 2809.06 518.124 20
8 -3 -2 2897.84 531.635 15
8 -3 -2 3277.01 504.957 14
8 -3 -1 9241.44 916.888 20
8 -3 -1 9142.31 923.988 15
8 -3 -1 8445.77 796.72 14
8 -3 0 32760 1782.59 19
8 -3 0 31698.2 1611.98 14
8 -3 1 887.154 284.524 19
8 -3 1 79.2194 151.912 14
8 -3 2 23227 1306.33 12
8 -3 3 14075.8 855.993 13
8 -3 3 16533.2 942.398 12
8 -3 4 1496.66 216.84 13
8 -3 4 1613.86 232.895 12
8 -2 -11 208.779 108.467 7
8 -2 -10 1336.8 247.252 2
8 -2 -9 2743.79 414.71 2
8 -2 -8 24920.1 1418.72 6
8 -2 -8 25204.5 1415.98 2
8 -2 -6 2604.09 497.529 2
8 -2 -6 2231.06 430.682 15
8 -2 -5 20754.6 1275.13 7
8 -2 -5 21780.5 1346.11 15
8 -2 -5 23038.2 1473.58 2
8 -2 -4 100647 3452.68 20
8 -2 -4 107221 3619.12 15
8 -2 -4 100495 3488.54 14
8 -2 -4 99003.8 3591.28 2
8 -2 -3 22380.9 1388.26 20
8 -2 -3 22561.2 1414.28 15
8 -2 -3 20298.7 1302.41 14
8 -2 -3 21332.5 1324.42 2
8 -2 -2 4615.67 633.867 20
8 -2 -2 3507.72 558.043 15
8 -2 0 2787.35 504.844 19
8 -2 1 26667.4 1399.08 12
8 -2 1 24574.6 1369.88 19
8 -2 2 14448.1 901.906 12
8 -2 3 166.121 112.606 12
8 -1 -11 637.034 134.368 7
8 -1 -10 654.551 172.1 2
8 -1 -10 463.722 167.776 7
8 -1 -9 8389.51 665.473 2
8 -1 -8 37365.3 1699.72 7
8 -1 -8 38146.4 1728.86 2
8 -1 -7 1525.08 370.476 2
8 -1 -7 1758.59 371.204 7
8 -1 -6 822.498 288.094 2
8 -1 -6 1054.25 276.017 19
8 -1 -6 1112.56 311.931 7
8 -1 -5 29912.9 1565.52 19
8 -1 -5 28606.2 1496.96 7
8 -1 -5 30107 1446.84 15
8 -1 -5 31483.6 1683.71 2
8 -1 -4 13190.1 1042.83 19
8 -1 -4 11886.9 889.392 15
8 -1 -4 12195.1 982.536 14
8 -1 -4 11988.4 976.394 2
8 -1 -3 10159.1 929.571 19
8 -1 -3 9155.69 843.667 14
8 -1 -2 18595.6 1278.14 19
8 -1 -2 16582.7 1136.27 14
8 -1 -1 1632.54 381.045 19
8 -1 -1 1762.16 365.063 14
8 -1 0 48952.9 1899.87 12
8 -1 0 48029.3 2097.23 19
8 -1 0 49000.3 2012.47 14
8 -1 1 38398.7 1609.48 14
8 -1 1 34651.1 1418.15 12
8 -1 2 4322.25 440.173 13
8 0 -10 81.7737 89.3505 7
8 0 -9 46607.4 1709.74 2
8 0 -8 10613.9 788.39 7
8 0 -8 12779.2 856.174 2
8 0 -7 2719.42 419.851 7
8 0 -7 2799.3 433.568 2
8 0 -6 15821.8 925.843 19
8 0 -6 18920 1119.51 7
8 0 -5 3172.63 453.094 19
8 0 -5 3477.39 469.02 7
8 0 -5 4089.27 527.914 14
8 0 -4 12365.5 929.51 19
8 0 -4 12121.2 921.301 14
8 0 -3 5472.19 637.706 19
8 0 -3 4594.08 516.107 16
8 0 -3 5430.2 609.445 14
8 0 -2 6869.34 613.376 16
8 0 -2 6494.86 654.882 14
8 0 -1 37481.9 1710.49 19
8 0 -1 32442 1530.62 14
8 0 0 55585.3 2018.6 14
8 0 1 5391.6 472.372 13
8 1 -10 20291.6 779.123 7
8 1 -10 16607.3 691.108 14
8 1 -8 3572.67 408.66 7
8 1 -7 8493.85 656.561 7
8 1 -7 7453.39 600.589 14
8 1 -6 6293.32 573.19 7
8 1 -6 6485.18 579.645 14
8 1 -5 5127.58 487.611 19
8 1 -5 6621.18 592.268 14
8 1 -4 14329.4 891.136 19
8 1 -4 13507.3 873.997 16
8 1 -4 14554.7 905.19 14
8 1 -3 2317.5 356.777 16
8 1 -3 2494.84 363.289 14
8 1 -2 8080.56 609.722 16
8 1 -2 8721.24 639.427 14
8 1 -1 49447.5 1715.17 16
8 1 -1 52568.3 1757.5 14
8 2 -7 1071.7 170.689 14
8 2 -6 10224.2 571.348 14
8 2 -5 32022.7 1252.8 16
8 2 -5 27209.6 1071.91 14
8 2 -4 1659.13 268.681 16
8 2 -4 1533.99 208.744 14
8 2 -3 2817.99 317.888 21
8 2 -3 2541.47 309.692 16
8 2 -2 50896 1603.89 16
9 -9 -3 183.944 94.6683 20
9 -9 -2 3781.85 382.716 20
9 -9 -1 12189.1 706.796 20
9 -9 -1 11168 706.398 29
9 -9 0 2805.76 326.282 29
9 -8 -5 7723.32 627.557 29
9 -8 -4 1141.71 214.071 20
9 -8 -4 1744 332.817 29
9 -8 -3 1980.74 319.191 20
9 -8 -3 2978.57 436.598 29
9 -8 -2 3771.32 463.124 20
9 -8 -2 4722.05 543.394 29
9 -8 -1 1098.89 267.37 20
9 -8 -1 1781.41 333.514 29
9 -8 0 18354.8 1010.49 29
9 -8 1 17981.2 877.445 20
9 -8 1 18798.5 937.522 29
9 -7 -7 1663.59 266.298 2
9 -7 -7 1908.22 282.156 15
9 -7 -6 9743.81 700.631 15
9 -7 -5 993.84 254.871 15
9 -7 -4 1709.92 300.767 20
9 -7 -4 1872.19 352.747 15
9 -7 -4 1982.01 378.709 29
9 -7 -3 6308.35 618.503 20
9 -7 -3 7850.6 741.554 29
9 -7 -3 6092.86 616.648 15
9 -7 -2 38.3773 147.084 20
9 -7 -2 35.4395 135.825 15
9 -7 -2 41.7226 143.023 29
9 -7 -1 28007.8 1431.52 20
9 -7 -1 28902.3 1466.08 29
9 -7 0 18436.6 1076.64 29
9 -7 1 1551.5 277.717 20
9 -7 1 1258.99 265.895 29
9 -7 2 9630.83 601.542 29
9 -6 -8 136.677 123.479 2
9 -6 -8 45.7113 107.297 15
9 -6 -7 9987.86 733.08 2
9 -6 -7 11124 767.991 15
9 -6 -6 1044.59 271.493 2
9 -6 -6 1398.91 313.422 15
9 -6 -5 11974.1 739.436 20
9 -6 -5 15272.9 1025.45 15
9 -6 -4 12406.8 851.431 20
9 -6 -3 544.442 235.96 20
9 -6 -2 36539.7 1725.6 20
9 -6 -1 11886 914.773 20
9 -6 1 9198.29 690.002 20
9 -6 2 15328.9 786.855 12
9 -5 -9 941.68 181.181 2
9 -5 -9 1199.26 187.593 15
9 -5 -7 174.451 158.254 2
9 -5 -7 138.947 157.558 15
9 -5 -6 11432.5 871.729 2
9 -5 -6 11232.4 876.059 15
9 -5 -5 13340.5 818.437 20
9 -5 -5 16887 1124.23 15
9 -5 -4 2888.92 428.27 20
9 -5 -4 3483.15 522.65 15
9 -5 -3 32181.8 1594.35 20
9 -5 -3 35080.1 1740.82 15
9 -5 -2 36629.1 1736.56 20
9 -5 -2 35203.1 1760.64 15
9 -5 -1 1927.81 379.071 20
9 -5 0 1313.41 290.056 19
9 -5 2 1418.77 247.624 12
9 -4 -9 146.936 119.428 2
9 -4 -9 293.721 110.224 15
9 -4 -8 5619.58 507.385 15
9 -4 -7 6163.18 595.243 15
9 -4 -7 5808.04 598.402 2
9 -4 -6 33866.1 1626.57 15
9 -4 -6 35037.3 1647.73 2
9 -4 -5 3215.63 404.471 20
9 -4 -5 3884.2 535.9 15
9 -4 -5 3081.7 462.648 2
9 -4 -4 24337.3 1273.13 20
9 -4 -4 26906.7 1468.95 15
9 -4 -4 22945.2 1196.67 14
9 -4 -3 31003.9 1526.66 20
9 -4 -3 31968.7 1637.16 15
9 -4 -3 27599.9 1345.55 14
9 -4 -2 875.691 282.112 20
9 -4 -2 1019.2 313.809 15
9 -4 -2 894.575 236.4 14
9 -4 -1 3492.69 499.474 20
9 -4 -1 3438.81 499.354 19
9 -4 -1 2765.89 379.715 14
9 -4 0 21317.9 1155.89 19
9 -4 1 -85.8005 120.087 12
9 -4 2 44943.2 1521.15 12
9 -3 -9 1259.73 224.674 2
9 -3 -9 1040.63 191.403 7
9 -3 -8 20808.7 934.364 15
9 -3 -7 31641.3 1336.88 15
9 -3 -7 30111.3 1321.18 14
9 -3 -7 33420.4 1485.75 2
9 -3 -6 7404.65 656.884 15
9 -3 -6 6871.18 613.884 14
9 -3 -6 8230.74 721.773 2
9 -3 -5 3206.25 464.867 15
9 -3 -5 3437.56 444.615 14
9 -3 -5 2989.78 449.404 2
9 -3 -4 41800.6 1806.24 15
9 -3 -4 35614.9 1627.22 14
9 -3 -3 88.1047 151.05 19
9 -3 -3 241.14 168.768 15
9 -3 -3 175.514 164.806 14
9 -3 -2 4313.52 551.614 19
9 -3 -2 3416.93 443.695 14
9 -3 -1 8827.78 758.011 19
9 -3 -1 7579.84 641.891 14
9 -3 0 1016.15 242.284 12
9 -3 0 1002.37 239.643 19
9 -3 0 1056.5 230.93 14
9 -3 1 26947.9 1142 13
9 -3 1 31433.6 1191.21 12
9 -2 -9 3932.04 346.006 7
9 -2 -9 3951.42 343.644 14
9 -2 -9 4639.85 388.696 2
9 -2 -8 14950.6 813.547 14
9 -2 -8 14753.7 840.031 2
9 -2 -7 1442.08 295.505 2
9 -2 -7 1049.93 243.783 14
9 -2 -6 813.313 250.336 2
9 -2 -6 785.038 206.155 19
9 -2 -6 747.707 184.904 15
9 -2 -6 583.567 204.794 14
9 -2 -5 22696 1196.64 19
9 -2 -5 23123.4 1104.93 15
9 -2 -5 23420.1 1226.99 14
9 -2 -5 25103.7 1249.89 2
9 -2 -4 183.941 178.394 19
9 -2 -4 208.743 163.359 14
9 -2 -3 29498.5 1474.33 19
9 -2 -2 10160.2 804.804 19
9 -2 -1 2260.6 294.418 12
9 -2 0 25079.8 1110.77 19
9 -1 -7 409.686 155.424 14
9 -1 -6 2070.43 255.65 19
9 -1 -6 3117.28 391.026 14
9 -1 -5 2940.06 360.761 19
9 -1 -5 4162.65 462.692 14
9 -1 -4 31774.1 1388.6 19
9 -1 -4 32615.3 1421.09 14
9 -1 -3 12663.4 823.193 19
9 -1 -3 11983 787.664 14
9 -1 -2 1455.12 284.805 19
9 -1 -2 1418.49 260.565 14
9 -1 -1 10351 631.949 14
9 0 -8 803.492 146.042 14
9 0 -7 694.979 154.328 14
9 0 -6 1999.55 273.109 14
9 0 -5 17461.2 862.57 14
9 0 -4 23732.3 1027.8 14
9 0 -3 3039.92 319.709 14
10 -6 -5 5982.24 478.543 15
10 -6 -4 2757.93 343.14 15
10 -6 -2 6438.59 481.423 19
10 -5 -6 5268.37 414.507 15
10 -5 -5 -21.4521 82.2156 19
10 -5 -5 45.5808 95.6811 15
10 -5 -4 2418.52 325.619 19
10 -5 -3 14665.7 819.936 19
10 -5 -2 690.665 176.132 19
10 -4 -5 194.978 103.092 19
10 -4 -4 7297.08 540.931 19
10 -4 -3 4226.58 412.184 19
10 -3 -4 53.8227 72.1244 19
10 -3 -3 16143.1 753.605 19
-8 10 -1 10473 637.268 37
-7 -3 6 661.599 192.475 38
-7 -3 7 14724.3 863.913 38
-7 -3 8 1185.1 236.179 38
-7 -3 9 291.069 123.607 38
-7 -2 6 40282.4 1773.96 38
-7 -2 7 27442.5 1406.76 38
-7 -2 8 5784.08 597.154 38
-7 -2 9 12420.5 826.67 38
-7 -1 6 92284.7 3221.53 38
-7 -1 7 2682.33 469.82 38
-7 -1 8 17664.1 1161.98 38
-7 0 3 2116.73 512.26 1
-7 0 4 23353.8 1659.72 1
-7 0 5 114384 4235.17 1
-7 0 6 1923.28 406.251 38
-7 0 7 1145.68 338.292 38
-7 0 8 23793.4 1423.23 38
-7 1 1 77210.9 3273.64 1
-7 1 2 12914.2 1218.43 1
-7 1 3 5797.87 814.809 1
-7 1 5 31640 1905.9 1
-7 1 6 6940.4 851.897 1
-7 2 0 220611 6710.72 1
-7 2 1 8243.17 976.153 1
-7 2 2 94717.6 3782.6 1
-7 2 3 59608 2796.3 1
-7 2 5 16172.9 1305.98 1
-7 2 6 8697.12 932.011 1
-7 3 0 8416.7 970.659 1
-7 3 1 15679.6 1327.47 1
-7 3 5 10387.6 973.07 26
-7 3 5 8825.22 954.887 1
-7 3 6 1855.07 443.765 1
-7 3 6 2202.35 468.046 26
-7 3 11 8259.44 541.367 23
-7 4 5 2577.02 491.613 26
-7 4 6 16134 1313.66 36
-7 4 6 14456.5 1199.82 26
-7 4 11 3451.53 339.544 23
-7 5 -1 9246.18 925.506 36
-7 5 0 41322.3 2133.4 36
-7 5 1 19760.4 1440.45 36
-7 5 2 824.982 326.809 36
-7 5 4 2413.52 528.14 36
-7 5 4 1557.91 379.806 26
-7 5 5 7071.8 818.992 26
-7 5 5 8521.46 976.217 36
-7 6 0 8681.55 951.489 36
-7 6 1 5113.73 752.744 36
-7 6 2 87879.5 3577.13 36
-7 6 3 4006.18 680.666 36
-7 6 4 22035.8 1626.18 36
-7 6 4 21052.2 1411.13 26
-7 9 4 6202.12 574.412 5
-7 10 -2 15878.8 932.255 37
-7 11 -1 1271.72 218.8 37
-7 11 0 8510.82 610.702 37
-7 11 1 2042.54 297.558 37
-6 -5 4 132.397 116.607 38
-6 -5 5 2436 326.556 38
-6 -5 6 19457.6 982.414 38
-6 -5 7 666.517 185.011 38
-6 -5 8 13087.5 726.742 38
-6 -4 3 99.4648 127.085 38
-6 -4 4 6962.32 670.521 38
-6 -4 5 4834.07 576.121 38
-6 -4 6 278.521 192.985 38
-6 -4 7 42764.2 1848.46 38
-6 -4 8 11685.7 840.412 38
-6 -4 9 445.313 187.214 38
-6 -4 10 16364.7 845.781 38
-6 -3 3 31441.7 1613.4 38
-6 -3 4 19291 1267.52 38
-6 -3 5 11857.9 989.31 38
-6 -3 6 73234.7 2868.62 38
-6 -3 7 48799.2 2192.78 38
-6 -3 8 1770.94 394.949 38
-6 -3 9 1244.71 312.797 38
-6 -3 10 31491.5 1445.76 38
-6 -2 2 95287.3 3829.69 1
-6 -2 3 72349.3 3251.93 1
-6 -2 3 74226.1 2838.98 38
-6 -2 4 5466.18 701.364 38
-6 -2 4 6425.09 877.938 1
-6 -2 5 134714 4381.28 38
-6 -2 5 123370 4593.08 1
-6 -2 6 73031 3203.47 1
-6 -2 6 81528.8 3138.01 38
-6 -2 7 2347.38 479.89 38
-6 -2 8 2158.08 458.046 38
-6 -2 9 40754.7 1960.01 38
-6 -2 10 1511.06 351.568 38
-6 -1 1 90855.3 3689.21 1
-6 -1 2 88112.6 3634.59 1
-6 -1 3 136.435 233.861 1
-6 -1 4 28542.6 1616.07 38
-6 -1 4 29779 1871.62 1
-6 -1 5 131028 4416.9 38
-6 -1 5 137914 4752.31 1
-6 -1 6 1973.96 490.409 1
-6 -1 6 2350.1 481.888 38
-6 -1 7 7728.17 891.499 1
-6 -1 7 8079.8 882.031 38
-6 -1 8 12556.1 1097.79 38
-6 -1 9 1335.73 361.733 38
-6 0 0 43161.8 2258.08 1
-6 0 1 243954 7287.54 1
-6 0 2 13487.4 1199.19 1
-6 0 3 22450 1565.8 1
-6 0 5 8427.33 840.765 38
-6 0 5 6647.85 822.602 1
-6 0 6 15290 1231.14 1
-6 0 6 14549.7 1161.83 38
-6 0 7 4589.8 665.532 1
-6 0 7 4644.03 691.884 38
-6 0 8 1695.93 426.891 38
-6 0 9 39414 2056.8 38
-6 0 11 50.437 96.6564 23
-6 1 -1 197819 6023.52 1
-6 1 0 189036 5905.61 1
-6 1 1 2930.82 555.838 1
-6 1 2 35768.2 1975.98 1
-6 1 3 95171.6 3595.65 1
-6 1 5 30253.2 1612.39 38
-6 1 5 33007.2 1834.89 1
-6 1 6 31065.8 1720.17 38
-6 1 6 31028.9 1772.05 1
-6 1 6 32915.9 1835.9 26
-6 1 7 1340.94 349.049 1
-6 1 7 1112.3 390.071 26
-6 1 7 1169.75 364.533 38
-6 1 10 1406.55 328.191 23
-6 1 11 192.811 160.635 23
-6 1 12 9722.62 596.882 23
-6 2 -1 44775.4 2198.89 1
-6 2 0 53640.7 2476.56 1
-6 2 4 84771.9 3045.31 26
-6 2 5 48680.4 2206.29 26
-6 2 5 48355.5 2259.12 1
-6 2 6 805.934 263.794 38
-6 2 6 778.78 286.485 26
-6 2 6 614.534 278.036 1
-6 2 7 22646.4 1393.92 1
-6 2 7 22628.7 1533.23 26
-6 2 8 97161.4 3752.29 26
-6 2 11 14563.8 953.257 23
-6 2 12 1341.16 237.185 23
-6 3 3 72124.2 2611.83 26
-6 3 4 102129 3456.69 26
-6 3 5 2132.24 435.908 26
-6 3 6 11979.8 1050.1 26
-6 3 7 122643 4292.59 26
-6 3 8 5741.98 778.052 26
-6 3 12 3185.24 335.87 23
-6 4 -2 76403.1 2846.57 36
-6 4 3 146452 4414.4 26
-6 4 4 637.794 259.35 26
-6 4 5 27251.9 1573.33 26
-6 4 6 64166.3 2729.48 26
-6 4 6 65112.3 2750.79 36
-6 4 7 23272.8 1547.91 26
-6 5 -2 23570.3 1460.87 36
-6 5 -1 127611 4268.15 36
-6 5 0 2942.03 522.675 36
-6 5 1 40554 2050.74 36
-6 5 2 259354 7211.64 36
-6 5 2 244568 6708.54 26
-6 5 3 31877.5 1641.9 26
-6 5 3 35758.5 1932.12 36
-6 5 4 30006.8 1786.18 36
-6 5 4 26512.3 1529.71 26
-6 5 5 7286.11 800.632 26
-6 5 5 6895.41 846.142 36
-6 5 5 6469.98 692.611 5
-6 5 6 30185.6 1767.3 26
-6 5 6 31346.9 1803.08 36
-6 5 7 823.772 311.372 26
-6 6 -2 107211 3838.21 36
-6 6 -1 2834.45 542.113 36
-6 6 0 15066.9 1233.76 36
-6 6 1 124320 4374.09 36
-6 6 2 26066.3 1454.77 26
-6 6 3 28597.4 1599.67 26
-6 6 3 30026.5 1851.65 36
-6 6 4 8404.78 793.352 5
-6 6 4 9197.98 892.797 26
-6 6 4 9514.13 1028.1 36
-6 6 5 20776.6 1512.17 36
-6 6 5 17943.7 1219.96 5
-6 6 5 17646.5 1299.2 26
-6 6 6 2402.59 487.61 26
-6 6 6 1950.57 426.944 5
-6 7 -2 7354.08 873.404 36
-6 7 -1 28152.2 1780.18 36
-6 7 0 32987.6 1981.22 36
-6 7 1 69715 3094.1 36
-6 7 2 18214.9 1259.58 26
-6 7 2 18263.5 1464.92 36
-6 7 3 38744.2 1849.96 5
-6 7 3 38875 1983.26 26
-6 7 3 41567.4 2305.77 36
-6 7 4 278.417 202.518 26
-6 7 4 347.499 252.74 36
-6 7 4 143.386 163.915 5
-6 7 5 1830 408.546 5
-6 7 6 24153.7 1457.64 5
-6 8 0 53981.5 2691.43 36
-6 8 2 22534.3 1355.37 5
-6 8 3 143.152 182.905 5
-6 8 4 193.306 194.299 5
-6 8 5 20965.6 1325.16 5
-6 8 6 3263.33 499.793 5
-6 8 6 3214.49 395.69 27
-6 9 1 53570 2208.18 5
-6 9 2 32947.7 1663.55 5
-6 9 3 20872.2 1280.77 5
-6 9 4 53410.7 2212.72 5
-6 9 5 7692.01 717.526 5
-6 9 5 7311.82 618.144 27
-6 10 -3 21098.3 1164.71 37
-6 10 0 17418.2 1013.29 5
-6 10 1 5987.98 606.084 5
-6 10 2 19429.2 1133.56 5
-6 10 2 21034.1 1319.59 37
-6 10 3 12568.5 867.133 5
-6 10 4 942.504 239.361 5
-6 10 4 624.252 187.216 27
-6 11 -3 1987.43 261.991 37
-6 11 -2 597.948 192.524 37
-6 11 -1 7784.91 652.736 37
-6 11 0 4985.33 392.352 5
-6 11 1 2370.55 359.503 37
-6 11 1 2051.74 269.816 5
-6 11 2 6966.13 486.744 5
-5 -6 2 14877.7 791.045 4
-5 -6 2 15749.6 801.954 38
-5 -6 3 32798.4 1377.82 38
-5 -6 4 1396.54 281.904 38
-5 -6 5 6509.32 597.046 38
-5 -6 6 17939.4 1012.15 38
-5 -6 7 2948.11 388.135 38
-5 -6 8 35847.5 1422.31 38
-5 -5 1 9551.2 736.943 38
-5 -5 2 18814.2 1151.38 38
-5 -5 3 3966.1 552.444 38
-5 -5 4 30674 1609.09 38
-5 -5 5 13149.3 1010.49 38
-5 -5 6 716.973 287.807 38
-5 -5 7 86813.8 3064.36 38
-5 -5 8 44476.1 1900.47 38
-5 -5 9 233.306 156.528 38
-5 -5 11 8649.78 471.058 9
-5 -4 0 9342.52 782.073 38
-5 -4 1 30988.6 1625.84 38
-5 -4 2 1300.55 364.867 38
-5 -4 3 72907 2915.7 38
-5 -4 4 32704.6 1796.34 38
-5 -4 5 1569.86 405.905 38
-5 -4 6 52101 2365.59 38
-5 -4 7 59209.7 2550.32 38
-5 -4 8 642.81 287.749 38
-5 -4 9 17161.9 1146.95 38
-5 -4 11 11284.7 665.48 9
-5 -3 1 14557.7 1301.31 1
-5 -3 1 15690.4 1158.76 38
-5 -3 2 272483 7527.84 38
-5 -3 2 259910 7971.02 1
-5 -3 3 46988.3 2226.47 38
-5 -3 3 43946.6 2442.13 1
-5 -3 4 4828.23 762.461 1
-5 -3 4 4759.93 669.045 38
-5 -3 5 57617.9 2538.87 38
-5 -3 5 49679.5 2584.14 1
-5 -3 6 145119 4788.87 38
-5 -3 6 140079 4897.23 1
-5 -3 7 4365.47 654.026 38
-5 -3 7 2897.79 497.061 28
-5 -3 7 3901.65 640.38 1
-5 -3 8 22811.8 1490.99 38
-5 -3 9 16432 1210.74 38
-5 -3 10 15955.4 1121.3 38
-5 -3 11 3697.43 421.606 32
-5 -3 12 695.804 145.596 32
-5 -2 0 2879.72 570.006 1
-5 -2 1 152755 5211.65 1
-5 -2 1 153426 4744.63 38
-5 -2 2 109202 4224.43 1
-5 -2 2 119947 3927.4 38
-5 -2 3 607.075 281.497 38
-5 -2 3 1113.42 381.07 1
-5 -2 4 37722.3 1931.96 38
-5 -2 5 102730 3973.45 1
-5 -2 5 117456 3974.42 38
-5 -2 6 61.4716 149.006 1
-5 -2 6 56.6655 153.568 38
-5 -2 7 14723.2 1208.28 1
-5 -2 7 13392 1027.18 28
-5 -2 7 15709.1 1244.82 38
-5 -2 8 8358.83 901.923 38
-5 -2 9 113.905 218.284 38
-5 -2 10 38991.2 1951.44 38
-5 -2 11 12155.2 827.952 32
-5 -2 12 1234.52 216.893 32
-5 -1 -1 10648.2 1021.27 1
-5 -1 0 142208 4781.9 1
-5 -1 1 315700 8789.18 1
-5 -1 2 3525.27 582.776 1
-5 -1 3 9536.49 850.351 38
-5 -1 3 10075.4 974.256 1
-5 -1 4 65050.2 2611.22 38
-5 -1 5 252.401 202.992 38
-5 -1 5 274.997 188.622 1
-5 -1 6 83691.9 3257.71 38
-5 -1 6 85547.2 3259.26 1
-5 -1 7 10868.4 1023.89 38
-5 -1 7 11511.3 1015.34 1
-5 -1 8 -60.3369 219.379 38
-5 -1 9 84101.3 3336.93 38
-5 -1 9 81921.7 2953.29 23
-5 -1 10 33073.3 1635.38 23
-5 -1 11 35.7942 130.144 23
-5 -1 11 34.4894 118.229 32
-5 -1 12 996.292 222.375 23
-5 -1 12 1158.35 223.196 32
-5 0 -1 91719.1 3396.34 1
-5 0 0 319897 8709.77 1
-5 0 1 42078.8 2058 1
-5 0 2 10952.5 965.439 1
-5 0 3 110683 3781.9 1
-5 0 4 724.339 262.143 1
-5 0 4 624.846 242.569 38
-5 0 5 114525 3847.23 38
-5 0 5 118765 3934.77 1
-5 0 6 2214.88 446.907 1
-5 0 6 2062.6 435.527 38
-5 0 7 3450.29 582.783 38
-5 0 7 3560.74 537.295 1
-5 0 8 17725.4 1360.41 38
-5 0 9 62803.3 2816.74 38
-5 0 10 344.655 223.507 23
-5 0 10 588.179 227.939 32
-5 0 11 3681.26 519.906 23
-5 0 11 2759.94 408.991 32
-5 0 12 8461.5 672.131 23
-5 0 13 -31.4511 63.2137 23
-5 1 -1 155485 4814.23 1
-5 1 0 33975.9 1742.17 1
-5 1 3 2673.97 401.407 26
-5 1 4 158489 4737.53 38
-5 1 4 178939 4902.19 26
-5 1 5 153778 4697.6 26
-5 1 5 148630 4611.52 38
-5 1 5 158807 4709.16 1
-5 1 6 3235.62 528.101 26
-5 1 6 3012.74 511.349 38
-5 1 6 3204.21 483.118 1
-5 1 7 26163.2 1613.63 38
-5 1 7 25239.9 1599.41 26
-5 1 7 28154.5 1462.88 1
-5 1 8 161323 5294.71 26
-5 1 10 8719.67 771.909 32
-5 1 11 2876.15 483.347 23
-5 1 12 487.524 193.271 23
-5 1 13 5180.7 384.044 23
-5 2 -2 103641 3509.92 1
-5 2 2 10316.3 702.21 26
-5 2 3 112507 3409.8 26
-5 2 4 409891 10192.2 26
-5 2 5 7164.69 690.522 38
-5 2 5 7089.82 711.376 26
-5 2 6 17712.1 1218.4 26
-5 2 6 16963 1177.25 38
-5 2 7 81580.9 3148.03 26
-5 2 7 76940.7 2735.88 1
-5 2 9 20088.1 1473.88 26
-5 2 12 9689.92 719.223 23
-5 3 1 17854.7 890.03 26
-5 3 2 101542 3043.98 26
-5 3 3 344375 8634.03 26
-5 3 4 17512.6 1061.53 26
-5 3 5 66318.8 2532.1 26
-5 3 6 46172 2109.04 26
-5 3 7 5845.25 728.194 26
-5 3 9 8049.53 898.415 26
-5 3 12 8958.17 636.089 23
-5 4 -2 78474.9 2792.31 36
-5 4 1 50273.6 1800.42 26
-5 4 2 101392 3117.92 26
-5 4 3 60928.8 2237.7 26
-5 4 4 12140.1 852.83 5
-5 4 4 14669 983.391 26
-5 4 5 3028.83 486.515 26
-5 4 5 2818.65 453.394 5
-5 4 6 6015.14 689.683 36
-5 4 6 6510.25 713.92 5
-5 4 6 7496.31 782.519 26
-5 4 8 25385 1614.46 26
-5 5 -3 17590.8 1166.65 36
-5 5 -2 260459 7163.47 36
-5 5 -1 2922.42 480.405 36
-5 5 0 91615.9 3253.5 36
-5 5 1 65347 2605.93 36
-5 5 3 19729.1 1118.12 5
-5 5 3 20204.6 1324.52 36
-5 5 4 58488 2352.73 26
-5 5 4 60010 2311.79 5
-5 5 4 57491.1 2509.93 36
-5 5 5 36027.5 1888.61 36
-5 5 5 34760.3 1736.59 5
-5 5 5 35599.2 1811.12 26
-5 5 6 34803.3 1846.83 26
-5 5 6 33420.3 1778.22 5
-5 5 7 61264.3 2675.59 26
-5 5 7 63567.2 2687.38 5
-5 6 -3 119764 4053.02 36
-5 6 -2 61671.1 2618.25 36
-5 6 -1 69198.8 2820.88 36
-5 6 0 93772.5 3462.21 36
-5 6 1 26954.8 1621.38 36
-5 6 2 21792.1 1250.65 5
-5 6 2 26115.7 1591.32 36
-5 6 3 32199.5 1855.66 36
-5 6 3 32655.9 1623.25 5
-5 6 4 1521.7 367.924 5
-5 6 4 1438.12 412.114 36
-5 6 5 28855.9 1722 36
-5 6 5 26408.7 1556.23 5
-5 6 5 27363.5 1605.16 26
-5 6 6 74610.9 2961.65 5
-5 6 6 71709.3 2604.3 27
-5 6 7 2967.11 543.107 5
-5 7 -3 88118.7 3398.39 36
-5 7 -2 2610.07 518.158 36
-5 7 -1 32075.1 1895.74 36
-5 7 0 2028.62 487.975 36
-5 7 2 49060.4 2500.88 36
-5 7 2 51901.6 2234.68 5
-5 7 3 296.103 246.681 5
-5 7 3 269.028 230.634 36
-5 7 4 20029.3 1505.63 36
-5 7 4 20239.3 1353.23 5
-5 7 5 57826.6 2490.58 5
-5 7 5 51791.5 2416.66 26
-5 7 6 15124.1 1155.69 5
-5 7 6 11756.4 913.829 27
-5 7 7 10219.6 918.298 5
-5 7 7 8646.27 713.084 27
-5 8 -3 2001.67 467.027 36
-5 8 -2 78654.5 3308.94 36
-5 8 -1 83781 3493.23 36
-5 8 0 25682.3 1764.26 36
-5 8 1 182699 6012.04 36
-5 8 2 844.866 307.743 5
-5 8 2 1359.4 425.399 36
-5 8 3 13584.3 1115.53 5
-5 8 3 14838 1329.98 36
-5 8 4 23001.6 1473.01 5
-5 8 5 13873.9 1107.58 5
-5 8 6 2870.72 491.337 5
-5 8 6 2827.33 426.815 27
-5 8 7 4381.33 454.339 27
-5 9 -4 403.213 230.534 37
-5 9 1 949.074 338.782 5
-5 9 2 34027.9 1825.02 5
-5 9 3 18415.4 1273.46 5
-5 9 4 17394 1203.57 5
-5 9 5 1573.99 355.041 5
-5 9 5 1480.74 311.314 27
-5 9 6 8626.29 630.414 27
-5 9 6 7807.17 685.801 5
-5 10 -4 19379.9 1112.88 37
-5 10 -3 1911.16 401.696 37
-5 10 -2 5265.55 671.01 37
-5 10 -1 27079 1628.48 37
-5 10 0 35460.8 1750.2 5
-5 10 1 11328.4 997.453 37
-5 10 1 9221.31 842.48 5
-5 10 2 7705.71 759.813 5
-5 10 2 9337.49 862.847 37
-5 10 3 5824.25 634.181 5
-5 10 4 216.768 163.622 27
-5 10 4 103.365 132.09 5
-5 10 5 6723.91 508.3 27
-5 10 5 6930.01 567.707 5
-5 11 -4 3134.77 325.989 37
-5 11 -3 7702.9 610.9 37
-5 11 -3 5081.94 413.002 5
-5 11 -2 14671.9 935.449 37
-5 11 -2 13420.8 784.965 5
-5 11 -1 17606.3 969.973 5
-5 11 -1 17928.6 1079.95 37
-5 11 0 1587.06 332.83 37
-5 11 0 1508.67 292.241 5
-5 11 1 13506 857.253 37
-5 11 1 11783.1 790.414 5
-5 11 2 1777.45 292.452 5
-5 11 2 2093.73 320.004 27
-5 11 3 597.718 164.108 5
-5 11 3 544.254 156.932 27
-4 -8 5 3702.57 312.94 4
-4 -7 1 108.396 94.7625 38
-4 -7 2 8456.28 636.84 38
-4 -7 2 8078.95 598.608 4
-4 -7 3 18267.6 1023.66 38
-4 -7 3 17942 1034.99 4
-4 -7 4 14577.1 920.115 38
-4 -7 5 28254.5 1349.79 38
-4 -7 6 8520.31 676.232 38
-4 -7 7 2655.88 366.473 4
-4 -7 8 34850.6 1382.43 38
-4 -7 9 10470.2 555.732 9
-4 -7 9 9517.29 563.693 38
-4 -6 -1 14786.3 807.126 38
-4 -6 0 1145.12 268.853 38
-4 -6 1 14586.7 1011.82 38
-4 -6 2 22120.1 1323.08 38
-4 -6 3 18299.2 1214.61 38
-4 -6 4 84683.6 3107.98 38
-4 -6 5 56369.9 2373.12 38
-4 -6 6 1154.81 327.425 38
-4 -6 9 3601.26 452.409 38
-4 -6 10 4460.93 431.246 38
-4 -6 10 4235.85 417.502 9
-4 -6 11 5941.1 397.033 9
-4 -5 -2 29481 1338.64 38
-4 -5 -1 166.049 142.346 38
-4 -5 0 16070.6 1156.15 38
-4 -5 1 30731.4 1711.81 38
-4 -5 2 5618.37 709.959 38
-4 -5 3 103970 4050.9 1
-4 -5 3 104933 3745.64 38
-4 -5 4 35783.4 2120.63 1
-4 -5 4 38180.1 1975.16 38
-4 -5 5 553.054 268.217 38
-4 -5 5 200.565 229.3 1
-4 -5 6 112559 3940.41 38
-4 -5 7 39890 2009.28 38
-4 -5 9 26712 1476.17 38
-4 -5 10 9730.6 772.564 38
-4 -5 11 10703.8 625.938 30
-4 -5 11 9935.08 654.37 9
-4 -5 12 9140.01 476.595 9
-4 -4 0 19543.7 1459.42 1
-4 -4 1 488.502 293.18 1
-4 -4 2 195302 5959.16 38
-4 -4 2 203491 6442.12 1
-4 -4 3 134963 4840.52 1
-4 -4 3 133663 4472.94 38
-4 -4 4 21144.8 1420.71 38
-4 -4 4 19942.3 1534.65 1
-4 -4 5 73220.1 3220.51 1
-4 -4 5 78818 3087.3 38
-4 -4 6 78341.7 3138.12 38
-4 -4 6 79523.1 3279.85 1
-4 -4 7 66190.2 2860.72 1
-4 -4 7 68635.2 2799.27 28
-4 -4 7 69784.8 2885.41 38
-4 -4 10 267.922 195.213 38
-4 -4 11 20277.4 1061.39 9
-4 -4 11 19607.1 980.864 30
-4 -4 12 3210.46 353.201 32
-4 -3 0 64.9537 176.03 1
-4 -3 1 193018 6161.54 1
-4 -3 2 156821 4892.22 38
-4 -3 2 159791 5307.08 1
-4 -3 3 504.459 275.66 1
-4 -3 3 296.493 189.554 38
-4 -3 4 18537.9 1273.13 38
-4 -3 5 60752.2 2738.79 1
-4 -3 5 65294.6 2683.77 38
-4 -3 6 8927.94 935.126 1
-4 -3 6 9028.5 911.05 38
-4 -3 7 57183.1 2565.34 38
-4 -3 7 57515.7 2427.39 28
-4 -3 7 56606.8 2525.09 1
-4 -3 8 20224.3 1408.99 38
-4 -3 8 18587.5 1251.72 28
-4 -3 9 1411.29 329.296 23
-4 -3 10 65922.7 2706.43 38
-4 -3 11 27352.9 1257.15 30
-4 -3 11 31316.9 1410.35 9
-4 -3 12 138.775 130.314 32
-4 -2 -1 1453.9 390.633 1
-4 -2 0 72460.2 2974.7 1
-4 -2 1 166053 5263.58 1
-4 -2 2 2395.36 480.137 1
-4 -2 2 1553.64 343.762 38
-4 -2 3 39187.9 1840.26 38
-4 -2 3 41078.1 2024.55 1
-4 -2 4 57215 2350.55 38
-4 -2 5 1659.5 382.845 1
-4 -2 5 2138.42 429.109 38
-4 -2 6 274991 7543.16 1
-4 -2 6 268763 7568.56 38
-4 -2 7 38758.4 1989.03 38
-4 -2 7 33899.2 1771.41 1
-4 -2 7 36182.8 1746.81 28
-4 -2 8 694.459 297.904 38
-4 -2 8 537.353 224.21 23
-4 -2 8 740.474 253.564 28
-4 -2 9 38402.9 1895.49 23
-4 -2 10 37721.5 1859.76 23
-4 -2 10 36792 1652.84 30
-4 -2 11 1092.18 301.874 32
-4 -2 11 1176.29 306.162 23
-4 -2 11 694.514 224.089 9
-4 -2 12 4005.99 461.4 32
-4 -2 12 3672.47 450.512 23
-4 -2 13 2756.99 288.009 32
-4 -1 -1 15076.1 1109.5 1
-4 -1 0 344993 9104.66 1
-4 -1 1 15062.4 1084.22 1
-4 -1 2 83197.6 2988.24 1
-4 -1 3 10444.9 860.565 1
-4 -1 4 866.851 266.898 38
-4 -1 4 1329.91 315.41 1
-4 -1 5 157615 4857.17 38
-4 -1 5 169612 4871.64 1
-4 -1 6 69686.9 2781.71 38
-4 -1 6 72611.5 2666.75 1
-4 -1 7 106.334 182.318 38
-4 -1 7 257.76 148.095 28
-4 -1 7 282.123 169.278 1
-4 -1 8 59712 2636.2 38
-4 -1 8 57241.4 2221.42 28
-4 -1 9 93061.1 3397.47 23
-4 -1 9 84890.9 3439.94 38
-4 -1 10 1137.03 354.272 23
-4 -1 10 1145.79 290.164 9
-4 -1 11 7241.66 759.007 23
-4 -1 11 7079.74 720.497 32
-4 -1 12 4804.8 523.172 32
-4 -1 12 4294.45 524.639 23
-4 -1 13 915.474 173.203 32
-4 0 -2 83035.4 2915.19 1
-4 0 -1 167142 4922.52 1
-4 0 0 229.511 153.839 1
-4 0 1 235129 6348.84 1
-4 0 2 68616.5 2455.08 1
-4 0 3 19864.3 1067.98 26
-4 0 4 234017 6299.85 1
-4 0 4 237436 6314.01 26
-4 0 5 410765 10450.7 38
-4 0 5 413144 10357.7 1
-4 0 5 426021 10526 26
-4 0 6 1749.27 388.286 26
-4 0 6 1275.96 299.89 1
-4 0 6 1817.77 391.196 38
-4 0 6 1951.09 302.978 28
-4 0 7 33080.6 1506.28 1
-4 0 7 37794.5 1897.9 26
-4 0 7 32445.3 1777.69 38
-4 0 8 53945.3 2492.65 38
-4 0 10 17964.6 1252.76 32
-4 0 11 702.666 250.221 32
-4 0 11 879.422 320.132 23
-4 0 12 1747.45 320.448 32
-4 0 12 2289.48 398.621 23
-4 0 13 12309.8 709.134 23
-4 1 -2 17666 1070.29 1
-4 1 1 291862 7068.27 26
-4 1 2 74227.2 2293.98 26
-4 1 3 167470 4524.79 26
-4 1 4 344619 8607.1 26
-4 1 5 834.497 260.472 26
-4 1 5 529.12 136.121 28
-4 1 6 36410.4 1748.9 26
-4 1 6 37343.9 1559.53 1
-4 1 6 35015.5 1756.5 38
-4 1 7 16451 1205.51 38
-4 1 8 229.531 208.648 26
-4 1 8 44.3642 152.094 32
-4 1 9 54923.3 2372.15 32
-4 1 9 54431.7 2584.56 26
-4 1 10 4372.81 605.348 32
-4 1 11 539.657 230.858 32
-4 1 12 17781.6 1082.41 23
-4 1 12 16399 925.665 32
-4 1 13 8260.02 539.884 23
-4 2 0 382323 8861.37 26
-4 2 1 931.485 176.113 26
-4 2 2 202613 5143.05 26
-4 2 3 419437 10085.1 26
-4 2 4 1081.57 246.604 26
-4 2 5 52290.8 2044.06 26
-4 2 6 25463.6 1406.83 26
-4 2 8 42590 2148.62 26
-4 2 8 43350.2 1945.08 32
-4 2 9 7940.42 900.106 26
-4 2 9 9054.32 858.396 32
-4 2 10 -45.2465 134.325 32
-4 2 11 5744.61 589.707 32
-4 2 12 6818.16 515.838 32
-4 3 -3 1302.74 253.02 36
-4 3 3 4480.42 444.665 26
-4 3 4 52530.5 1946.92 26
-4 3 5 16268.9 1023.91 26
-4 3 6 9196.77 718.281 36
-4 3 6 10194.8 857.391 5
-4 3 7 98766.8 3498.32 26
-4 3 8 33305.4 1841.51 26
-4 3 8 32056 1601.35 32
-4 3 9 798.664 301.871 26
-4 3 9 783.962 264.497 32
-4 3 10 3799.42 502.65 32
-4 3 11 42877.4 1650.26 32
-4 3 12 3230.87 377.681 23
-4 4 -3 150165 4312.94 36
-4 4 -2 285443 7371.51 36
-4 4 -1 57215 2098.48 36
-4 4 3 177913 5004.15 36
-4 4 4 70125 2549.77 36
-4 4 5 10664.8 836.743 26
-4 4 5 10980.2 856.5 5
-4 4 5 9926.25 816.343 36
-4 4 6 30422 1627.93 26
-4 4 6 34168.1 1712.96 5
-4 4 7 86353.6 3239.99 26
-4 4 7 85751.8 3250.63 5
-4 4 8 439.818 231.015 26
-4 5 -3 236362 6454.73 36
-4 5 -2 37093.9 1711.02 36
-4 5 -1 73401.7 2653.32 36
-4 5 0 23128.4 1286.47 36
-4 5 2 179378 5206.29 36
-4 5 3 138752 4152.5 5
-4 5 3 147076 4391.48 36
-4 5 4 730.758 282.862 36
-4 5 4 952.389 268.425 5
-4 5 5 45692.6 2119 36
-4 5 5 58368.8 2307.06 5
-4 5 6 124410 3908.28 27
-4 5 6 125493 4154.51 26
-4 5 6 130796 4253.3 5
-4 5 7 2251.3 403.866 27
-4 5 7 1537.53 382.35 26
-4 5 7 1825.12 431.15 5
-4 5 8 5911.93 617.247 27
-4 6 -4 60108.1 2448.76 36
-4 6 -3 12169 991.721 36
-4 6 -2 42087.6 2018.8 36
-4 6 -1 20044.3 1309.34 36
-4 6 0 1912.02 422.253 36
-4 6 2 197982 5919.33 36
-4 6 3 707.409 288.165 36
-4 6 3 1120.41 296.114 5
-4 6 4 51621 2249.52 5
-4 6 4 52146.8 2395.64 36
-4 6 5 89346.5 3314.94 5
-4 6 6 15966.2 1193.39 26
-4 6 6 16392 1137.09 27
-4 6 6 17183.8 1261.78 5
-4 6 7 20294.6 1397 5
-4 6 7 20071.9 1240.84 27
-4 6 8 6829.39 644.606 27
-4 7 -4 207980 6167.27 36
-4 7 -3 46664.8 2264.07 36
-4 7 -2 200175 6118.14 36
-4 7 -1 4917.46 697.205 36
-4 7 0 17497.4 1332.11 36
-4 7 1 107147 3962.99 36
-4 7 2 2527.69 527.997 36
-4 7 3 17366.4 1371.02 36
-4 7 3 17900.7 1260.82 5
-4 7 4 33976 1852.16 5
-4 7 4 35515.6 1960.16 36
-4 7 5 22349.1 1435.76 26
-4 7 5 22429.8 1473.06 5
-4 7 6 38725.3 1989.31 5
-4 7 6 39501.4 1891.81 27
-4 7 7 2417.38 419.343 27
-4 7 8 3148.47 400.065 24
-4 8 -5 5592.3 657.784 37
-4 8 -4 63383.3 2720.87 36
-4 8 -3 150842 5040.72 36
-4 8 -2 44255.6 2331.09 36
-4 8 -1 81722.5 3417.82 36
-4 8 1 46684.4 2453.88 36
-4 8 2 21116.6 1573.11 36
-4 8 3 27293.2 1745.07 36
-4 8 3 25032.7 1585.97 5
-4 8 4 15111.2 1193.55 5
-4 8 5 6269.39 703.044 27
-4 8 5 4576.75 631.832 5
-4 8 6 9779.41 823.278 27
-4 8 7 733.276 219.662 27
-4 9 -5 1721.88 360.3 37
-4 9 -4 54053.7 2404.87 37
-4 9 -3 17069.4 1317.03 37
-4 9 2 19155.9 1417.46 37
-4 9 2 19589.6 1369.52 5
-4 9 3 317.091 221.984 5
-4 9 4 2899.98 492.583 27
-4 9 4 3114.25 503.882 5
-4 9 5 21748.7 1231.66 27
-4 9 6 126.391 138.12 5
-4 9 6 197.784 137.02 27
-4 10 -5 24959.3 1226.95 37
-4 10 -4 15266.5 1061.43 37
-4 10 -3 22227 1401.28 37
-4 10 -2 29653.6 1698.69 37
-4 10 -1 16997.4 1271.53 37
-4 10 0 8088.38 873.681 37
-4 10 1 28707.1 1612.16 5
-4 10 1 32126 1716.87 37
-4 10 2 1442.69 351.307 5
-4 10 3 2953.63 452.116 27
-4 10 3 3010.3 467.582 5
-4 10 4 21248.4 1109.62 27
-4 10 5 1306.25 228.233 27
-4 10 5 1427.23 247.404 5
-4 11 -4 2777.46 357.925 37
-4 11 -3 28900.6 1365.16 37
-4 11 -2 14433 954.966 37
-4 11 -1 412.463 199.986 5
-4 11 0 16958.8 1017.97 5
-4 11 0 17766.3 1040.69 37
-4 11 1 154.33 144.92 5
-4 11 2 9634.16 663.716 5
-4 11 3 13596 686.261 27
-3 -8 1 5407.65 467.636 38
-3 -8 2 19246 990.473 38
-3 -8 2 17604.2 923.121 4
-3 -8 3 4812.9 504.783 38
-3 -8 3 5071.26 518.027 4
-3 -8 4 19104.4 1089.04 4
-3 -8 5 34356.2 1486.25 38
-3 -8 6 25153.6 1185.28 38
-3 -8 6 22683.7 1153.11 4
-3 -8 7 799.864 206.366 4
-3 -8 7 780.483 209.912 38
-3 -8 8 33368 1117.1 9
-3 -7 -1 11848.6 785.715 38
-3 -7 0 11795 748.439 4
-3 -7 0 13999.5 937.653 38
-3 -7 1 33629.7 1618.37 4
-3 -7 1 31514.6 1605.78 38
-3 -7 2 47738.5 2098.97 38
-3 -7 3 27078.9 1525.44 38
-3 -7 4 86007.9 3140.8 38
-3 -7 6 4343.53 571.463 38
-3 -7 7 35318.4 1677.83 38
-3 -7 8 9292.02 748.737 38
-3 -7 10 6989.46 501.108 9
-3 -7 10 8084.56 545.85 30
-3 -6 -3 5715.7 515.702 38
-3 -6 2 14576 1164.71 38
-3 -6 3 221309 6556.14 38
-3 -6 3 226048 6901.83 1
-3 -6 4 37436.4 2146.63 1
-3 -6 4 40514 2045.12 38
-3 -6 5 5105.23 742.312 1
-3 -6 6 81750 3153.5 38
-3 -6 7 27895.9 1608.93 38
-3 -6 8 25527 1463.92 38
-3 -6 9 20002.5 1200.12 38
-3 -6 10 7797.28 646.583 9
-3 -6 11 6041.08 488.858 9
-3 -6 11 5482.76 457.194 30
-3 -5 0 68411.8 2973.03 1
-3 -5 1 13945.5 1261.71 1
-3 -5 2 232782 7167.28 1
-3 -5 3 85607.6 3244.85 38
-3 -5 3 79433.2 3419.44 1
-3 -5 4 78102.2 3076.17 38
-3 -5 5 2179.88 493.476 1
-3 -5 5 1904.37 454.295 38
-3 -5 6 6543.11 813.177 1
-3 -5 7 19553.5 1363.4 1
-3 -5 7 20136.6 1371.83 28
-3 -5 7 20085.7 1366.98 38
-3 -5 8 28169.3 1464.92 33
-3 -5 8 27766.4 1622.38 38
-3 -5 9 9413.61 872.902 38
-3 -5 10 3984.47 528.165 38
-3 -5 11 48861.2 1822.84 30
-3 -5 12 2666.97 285.32 30
-3 -5 12 3319.65 339.336 9
-3 -5 12 3435.63 363.498 32
-3 -4 -1 60503.1 2645.28 1
-3 -4 0 315.455 229.494 1
-3 -4 1 131816 4637.11 1
-3 -4 2 104078 3928.25 1
-3 -4 3 20827.8 1323.06 38
-3 -4 3 20592 1475.98 1
-3 -4 4 22740.3 1398.98 38
-3 -4 5 56787.8 2425.14 38
-3 -4 5 55301.3 2514.06 1
-3 -4 6 4600.35 644.67 1
-3 -4 7 121249 4130.31 28
-3 -4 7 122317 3957.08 33
-3 -4 7 124822 4122.92 1
-3 -4 7 128940 4258.72 38
-3 -4 8 50270.9 2214.24 33
-3 -4 8 52395.1 2396.81 38
-3 -4 8 52104.8 2309.36 28
-3 -4 9 -52.859 212.473 38
-3 -4 10 43955.2 2030.69 38
-3 -4 11 9537.15 731.651 30
-3 -4 11 8486.8 716.819 9
-3 -4 12 58.2933 106.029 32
-3 -4 12 171.264 125.85 9
-3 -4 12 295.215 117.163 30
-3 -4 13 2217.95 247.53 32
-3 -3 -1 -53.3744 182.966 1
-3 -3 0 59975.3 2617.64 1
-3 -3 1 165351 5185.1 1
-3 -3 2 16629.7 1204.08 1
-3 -3 3 209832 5797.97 38
-3 -3 3 201110 6022.97 1
-3 -3 4 54958.7 2265.89 38
-3 -3 4 58587 2434.4 1
-3 -3 5 44921.9 2015.72 38
-3 -3 5 43183.6 2020.21 1
-3 -3 6 190085 5584.51 1
-3 -3 7 45219.2 1998.29 1
-3 -3 7 42370.8 1973.22 33
-3 -3 7 46156.9 1986.81 23
-3 -3 7 47182.6 2066.62 28
-3 -3 8 239.216 183.484 23
-3 -3 8 328.809 180.149 28
-3 -3 8 379.448 236.965 38
-3 -3 9 60668.8 2561.44 23
-3 -3 9 58932 2438.69 28
-3 -3 9 62453.8 2647.01 38
-3 -3 10 20122.6 1333.44 38
-3 -3 10 18766.4 1291.8 23
-3 -3 10 19522.5 1210.02 30
-3 -3 11 5543.14 643.114 23
-3 -3 11 5548.07 594.071 9
-3 -3 11 5273.69 560.859 30
-3 -3 12 5433.68 557.219 32
-3 -3 13 2396.65 292.241 32
-3 -2 -2 14872.7 1039.02 1
-3 -2 -1 21711.1 1325.37 1
-3 -2 0 4716.63 586.182 1
-3 -2 1 29558.7 1525.85 1
-3 -2 2 163740 4782.41 1
-3 -2 4 787.991 228.045 1
-3 -2 5 477477 11963.9 38
-3 -2 5 490650 11942.8 1
-3 -2 6 191343 5262.72 1
-3 -2 6 179987 5179.36 33
-3 -2 6 185947 5419.13 38
-3 -2 7 1709.87 365.606 23
-3 -2 7 1343.48 295.4 1
-3 -2 7 1218.9 322.428 33
-3 -2 7 1460.72 326.004 28
-3 -2 8 26359.4 1425.75 28
-3 -2 8 27587.4 1624.47 38
-3 -2 8 24464 1493.02 23
-3 -2 9 45867.7 2220.36 38
-3 -2 9 45704.3 2221 23
-3 -2 9 42843 1946.51 28
-3 -2 10 14625.9 1043.16 9
-3 -2 10 14583.3 1180.97 23
-3 -2 10 14056.3 999.047 30
-3 -2 11 5590 570.568 30
-3 -2 11 6236.84 614.512 9
-3 -2 11 6207.68 698.427 32
-3 -2 11 5044.18 659.333 23
-3 -2 12 109.747 140.217 32
-3 -2 12 77.8312 149.159 23
-3 -2 13 1036.33 208.252 32
-3 -1 -2 54310.8 2094.29 1
-3 -1 -1 62319 2293.23 1
-3 -1 0 6269.32 590.156 1
-3 -1 1 383302 9493.37 1
-3 -1 2 322453 8089.37 1
-3 -1 4 340221 8560.85 1
-3 -1 4 351639 8721.63 26
-3 -1 5 161402 4508.94 1
-3 -1 5 165797 4760.05 26
-3 -1 6 6730.11 586.764 28
-3 -1 6 5635.84 640.499 38
-3 -1 6 7850.24 743.832 26
-3 -1 6 7219.83 596.279 1
-3 -1 7 21084.1 1149.92 28
-3 -1 7 19786.6 1021.52 1
-3 -1 8 27671.9 1644.73 38
-3 -1 8 29350.7 1434.89 28
-3 -1 9 37002.4 1712.06 30
-3 -1 9 38498 2011.88 38
-3 -1 10 39781.8 1815.03 9
-3 -1 10 41771.6 2153.26 23
-3 -1 10 39010.6 1752.75 30
-3 -1 11 1236.37 358.268 23
-3 -1 11 1708.41 389.241 32
-3 -1 12 1081.02 290.675 32
-3 -1 12 1599.74 349.154 23
-3 -1 13 10844 656.742 32
-3 -1 13 11861.4 718.7 23
-3 0 -2 113757 3366.72 1
-3 0 -1 88489 2749.93 1
-3 0 2 711.113 174.821 26
-3 0 3 196145 5078.31 26
-3 0 4 213518 5616.68 26
-3 0 4 217209 5526.4 1
-3 0 5 8479.7 693.745 26
-3 0 5 9103.23 589.598 28
-3 0 5 9285.27 620.964 1
-3 0 6 67619.6 2562.92 38
-3 0 6 68903 2234.35 28
-3 0 6 70864.3 2212.98 1
-3 0 7 23888.8 1408.14 26
-3 0 7 24219.7 1154.37 28
-3 0 7 23908.8 1421.98 38
-3 0 8 6338.08 582.441 28
-3 0 8 6832.86 781.522 26
-3 0 9 80684.5 2853.2 9
-3 0 9 94582.5 3352.24 32
-3 0 10 9256.71 913.051 32
-3 0 11 -54.3741 197.746 23
-3 0 11 628.749 255.541 32
-3 0 12 15350.5 978.358 32
-3 0 13 9636.6 576.949 32
-3 1 -3 65129.2 2101.03 1
-3 1 0 681477 15349.8 26
-3 1 1 72911.2 2011.8 26
-3 1 2 38286.8 1293.88 26
-3 1 3 327745 7882.84 26
-3 1 4 121.601 69.5846 28
-3 1 4 557.108 176.179 26
-3 1 5 60346.9 1782.6 28
-3 1 5 58941 2119.83 26
-3 1 6 1035.99 185.04 28
-3 1 6 656.726 158.195 1
-3 1 6 977.437 264.515 38
-3 1 6 1021.91 273.336 26
-3 1 7 3108.45 461.714 32
-3 1 7 3128.06 479.542 26
-3 1 8 130207 4293.98 32
-3 1 8 143259 4494.63 26
-3 1 9 17507.5 1259.59 32
-3 1 9 16508.2 1254.61 26
-3 1 10 4190.03 620.116 32
-3 1 11 2832.41 473.937 32
-3 1 12 10848.2 775.613 32
-3 1 12 13283.5 902.66 23
-3 1 13 464.804 127.653 23
-3 2 -1 389768 8815.24 26
-3 2 3 11929.9 324.91 28
-3 2 3 18477.2 792.172 26
-3 2 4 447882 10706.3 26
-3 2 6 6144.72 629.004 5
-3 2 6 7119.84 648.536 26
-3 2 6 4846.31 407.733 36
-3 2 7 81347.8 2881.03 32
-3 2 7 83755 2990.42 26
-3 2 8 242034 6747.31 32
-3 2 8 237079 6805.39 26
-3 2 9 5763.25 713.884 32
-3 2 9 6672.6 771.574 26
-3 2 10 11563.4 996.28 32
-3 2 11 16782.1 1088.86 32
-3 2 12 24.4269 198.637 32
-3 2 12 517.155 193.918 23
-3 3 -3 11816.4 683.227 36
-3 3 4 79165.2 2476.08 36
-3 3 5 5998.91 562.515 26
-3 3 5 5881 512.072 36
-3 3 6 36322.9 1569.05 32
-3 3 6 34616.3 1638.84 26
-3 3 6 37210.2 1750.56 5
-3 3 7 202079 5775.58 32
-3 3 7 211133 5902.2 26
-3 3 8 4492.2 607.044 32
-3 3 8 4820.86 637.846 26
-3 3 9 68859.1 2691.78 32
-3 3 9 61748.9 2600.09 26
-3 3 10 219.093 281.05 32
-3 3 11 3478.49 463.096 32
-3 4 -4 53376.4 1911.4 36
-3 4 -3 123239 3564.31 36
-3 4 -2 28210.1 1256.27 36
-3 4 -1 508545 12127.8 36
-3 4 0 73089.9 2378.56 36
-3 4 2 300776 7538.25 36
-3 4 3 414428 10118.1 36
-3 4 4 17409.3 1020.25 36
-3 4 5 29682.1 1392.18 36
-3 4 5 30109.5 1486.66 22
-3 4 5 30522.2 1530 5
-3 4 6 69980.8 2698.4 22
-3 4 6 73444.4 2662.68 26
-3 4 6 65071.8 2410.88 32
-3 4 6 70188.6 2527.98 27
-3 4 7 3116.99 484.95 32
-3 4 7 2457.63 433.371 27
-3 4 7 3638.89 547.308 26
-3 4 8 12933 1038.25 26
-3 4 8 11089.2 942.533 32
-3 4 9 566.099 293.95 32
-3 4 9 299.75 163.923 24
-3 4 10 -104.344 242.162 32
-3 4 11 6279.99 482.76 32
-3 5 -4 13052.5 897.919 36
-3 5 -3 50344.1 2001.55 36
-3 5 -2 147626 4316.69 36
-3 5 -1 137134 4068.82 36
-3 5 0 3199.08 430.108 36
-3 5 1 195612 5464.98 36
-3 5 2 390480 9876.87 36
-3 5 3 1402.61 336.812 36
-3 5 4 53406.8 2106.91 22
-3 5 4 55461.6 2220.99 5
-3 5 4 53306.5 2213.82 36
-3 5 5 64275.6 2526.44 22
-3 5 5 63545.1 2539.38 5
-3 5 6 10634.7 954.457 22
-3 5 6 9994.64 811.51 32
-3 5 6 11223.4 932.422 26
-3 5 6 10787.2 900.349 27
-3 5 7 19727.2 1223.85 32
-3 5 7 21872.5 1443.51 5
-3 5 7 19579.9 1280.24 27
-3 5 7 20429.2 1314.5 26
-3 5 8 5834.4 662.991 32
-3 5 9 719.189 220.44 24
-3 5 9 1205.4 349.729 32
-3 6 -4 -44.5961 143.001 36
-3 6 -3 42868.5 1981.18 36
-3 6 -2 131787 4214.38 36
-3 6 -1 29710.9 1604.3 36
-3 6 1 207861 6052.97 36
-3 6 2 34439.9 1819.28 36
-3 6 3 181839 5538.87 36
-3 6 4 10960.2 901.124 22
-3 6 4 11760.3 986.25 36
-3 6 4 11288.4 957.249 5
-3 6 5 4017.79 577.15 22
-3 6 6 29418.9 1639.15 27
-3 6 6 29506.6 1692.32 22
-3 6 6 27004.7 1561.52 26
-3 6 6 29496.6 1685.53 5
-3 6 7 11849.8 971.379 27
-3 6 7 10971.6 980.563 5
-3 6 9 7056.33 565.114 24
-3 7 -5 58229.6 2409.71 37
-3 7 -4 104940 3707.58 36
-3 7 -3 169389 5312.9 36
-3 7 -2 12252.1 1061.24 36
-3 7 -1 40387.9 2081.45 36
-3 7 1 53780.7 2523.37 36
-3 7 2 31868.1 1870.59 36
-3 7 3 7859.25 862.569 36
-3 7 3 6132.07 739.918 5
-3 7 4 537.699 244.279 37
-3 7 4 47.189 114.42 22
-3 7 5 10314.3 951.236 22
-3 7 5 12247.8 1036.05 27
-3 7 6 19688.6 1313.05 22
-3 7 6 21430.3 1358.57 27
-3 7 6 23295.8 1438.2 5
-3 7 7 -43.6194 158.596 5
-3 7 7 -41.3941 132.734 27
-3 7 8 6996.12 590.536 24
-3 8 -5 31089.3 1691.9 37
-3 8 -4 46632.4 2278.17 37
-3 8 -4 49193.1 2315.35 36
-3 8 -3 1516.9 417.327 36
-3 8 -2 33224.9 1946.88 36
-3 8 -1 59147 2756.88 36
-3 8 0 8967.58 995.324 36
-3 8 1 24700.2 1677.08 36
-3 8 2 40703.5 2191.44 36
-3 8 2 43514.9 2272.42 37
-3 8 3 328.355 239.247 37
-3 8 4 28664.7 1657.63 5
-3 8 5 37279.2 1742.87 22
-3 8 5 39853.8 1920.9 5
-3 8 5 39370.6 1912.66 27
-3 8 6 120.544 168.803 5
-3 8 6 563.94 229.062 27
-3 8 7 10454.3 726.971 24
-3 9 -5 55711.9 2350.53 37
-3 9 -4 28597.5 1689.56 37
-3 9 -3 35027.3 1965.48 37
-3 9 -2 38913.3 2140.19 37
-3 9 0 10663.7 1084.1 37
-3 9 1 41839.1 2192.04 37
-3 9 2 106.471 182.501 37
-3 9 3 11954.2 1003.03 5
-3 9 4 42709.2 1951.4 27
-3 9 4 43864.1 1949.96 5
-3 9 5 1846.34 351.95 27
-3 9 5 1841.06 340.653 5
-3 10 -5 27987.4 1405.01 37
-3 10 -4 11045.2 913.874 37
-3 10 -3 18506.9 1270.65 37
-3 10 -2 52.5887 168.63 37
-3 10 0 52038.3 2311.94 37
-3 10 1 2935.71 479.365 37
-3 10 2 27929.6 1452.36 5
-3 10 2 25740.1 1374.12 27
-3 10 3 21592.7 1156.86 5
-3 10 4 3907.51 404.738 5
-3 11 -5 5771.76 458.202 37
-3 11 -4 29330.3 1304.7 37
-3 11 -3 946.748 257.264 37
-3 11 -2 13203.5 885.501 37
-3 11 -1 23916.5 1220.39 5
-3 11 -1 22716.3 1191.31 37
-3 11 0 1316.45 257.772 37
-3 11 0 1191.68 249.279 27
-3 11 1 5302.05 460.08 27
-3 11 1 6498.53 538.389 5
-3 11 2 3957.53 354.979 5
-3 11 2 3824.68 343.856 27
-2 -9 2 17570 860.206 4
-2 -9 3 17052 909.738 38
-2 -9 3 16862.8 923.365 4
-2 -9 4 14178.5 855.873 4
-2 -9 4 13300.5 796.118 38
-2 -9 5 54546.2 1870.02 38
-2 -9 6 3284.56 373.025 4
-2 -8 -2 13616.1 724.455 38
-2 -8 -1 12191.7 796.487 38
-2 -8 0 34690.1 1560.48 38
-2 -8 0 31636.4 1324.18 4
-2 -8 1 38035.4 1721.57 4
-2 -8 1 38765.7 1769.41 38
-2 -8 2 11408.8 936.488 4
-2 -8 3 3968.46 571.765 4
-2 -8 3 3212.4 494.979 38
-2 -8 4 60118.5 2418.16 38
-2 -8 4 62585.1 2548.32 4
-2 -8 5 12065.4 931.55 38
-2 -8 6 653.072 237.896 38
-2 -8 6 744.666 256.117 4
-2 -8 7 25791.4 1276.32 38
-2 -8 7 23066 1217.05 4
-2 -8 8 692.82 188.263 9
-2 -8 9 14121.5 720.338 9
-2 -8 10 6121.56 376.679 9
-2 -7 0 132855 4293.32 4
-2 -7 4 28595.3 1661.56 38
-2 -7 5 9837.76 928.928 38
-2 -7 6 40441.8 1982.71 38
-2 -7 7 6718.43 712.478 38
-2 -7 7 5747.87 661.216 4
-2 -7 7 5619.43 594.707 33
-2 -7 8 33179.2 1581.41 38
-2 -7 8 29383.8 1417.5 33
-2 -7 9 21787.6 1169.25 9
-2 -7 10 5830.58 517.576 9
-2 -7 10 5705.3 522.662 30
-2 -7 11 5824.17 434.665 9
-2 -7 11 5622.75 431.653 30
-2 -6 0 42500.1 2206.56 1
-2 -6 1 57837.3 2746.84 1
-2 -6 2 27085.7 1796.59 1
-2 -6 3 21768 1574.02 1
-2 -6 4 22684.3 1455.16 38
-2 -6 5 19622.5 1447.84 1
-2 -6 5 23434 1468.79 38
-2 -6 6 16974.4 1244.51 38
-2 -6 6 18555.5 1209.43 33
-2 -6 6 18430.9 1334.64 1
-2 -6 7 52386.5 2291.17 1
-2 -6 7 52462 2328.02 38
-2 -6 7 50523.3 2208.71 33
-2 -6 8 101044 3492.92 38
-2 -6 8 98661.7 3414.38 33
-2 -6 9 13186.5 969.232 38
-2 -6 9 13191.7 973.452 33
-2 -6 10 2982.84 440.975 30
-2 -6 10 3139.15 445.96 9
-2 -6 11 16967.5 934.614 30
-2 -6 11 17408.6 952.009 9
-2 -6 12 2222.75 263.953 32
-2 -6 12 2208.56 253.444 30
-2 -5 -1 43936.5 2156.37 1
-2 -5 0 4471.69 679.461 1
-2 -5 1 41287.7 2195.55 1
-2 -5 2 54522.6 2569.08 1
-2 -5 3 14152.1 1197.4 1
-2 -5 4 49134.2 2202.24 38
-2 -5 4 52294.3 2423.1 1
-2 -5 5 88472.8 3274.43 38
-2 -5 5 96473.8 3494.26 1
-2 -5 6 29705.1 1630.07 38
-2 -5 6 28952.2 1631.68 1
-2 -5 6 27300.5 1583.25 28
-2 -5 6 26385 1504.16 33
-2 -5 7 120398 4021.91 1
-2 -5 7 121395 4090.79 33
-2 -5 7 127901 4196.74 28
-2 -5 7 129658 4191.71 38
-2 -5 8 8357.02 846.206 33
-2 -5 8 7942.59 831.803 28
-2 -5 8 9144.23 870.229 38
-2 -5 9 559.653 252.988 38
-2 -5 9 397.206 225.388 33
-2 -5 10 40951.1 1817.01 38
-2 -5 10 42091.7 1901.47 30
-2 -5 11 3036.37 422.322 30
-2 -5 12 8089.02 576.493 9
-2 -5 12 7156.6 513.417 8
-2 -5 12 7660.35 544.816 30
-2 -4 -1 2498.33 465.687 1
-2 -4 0 112034 3899.49 1
-2 -4 1 90006 3360.62 1
-2 -4 2 240684 6854.14 1
-2 -4 4 54089.6 2323.74 1
-2 -4 5 14868.7 1084.67 1
-2 -4 5 15410.4 1061.37 38
-2 -4 6 348719 9116.35 1
-2 -4 6 363613 9118.7 28
-2 -4 6 338225 9070.16 33
-2 -4 6 348603 9147.05 38
-2 -4 7 22268.3 1383.87 33
-2 -4 7 20410.6 1307.09 23
-2 -4 7 23016 1402.63 38
-2 -4 7 23452.3 1401.33 28
-2 -4 7 22844.3 1279.76 1
-2 -4 8 989.358 334.759 33
-2 -4 8 1575.36 390.228 23
-2 -4 8 981.491 304.174 28
-2 -4 8 898.155 303.275 38
-2 -4 9 35027.4 1864.83 33
-2 -4 9 36559.6 1830.57 38
-2 -4 9 30515.1 1688.65 28
-2 -4 9 33874.9 1831.67 23
-2 -4 10 13029.5 1006.07 9
-2 -4 10 12939 992.891 30
-2 -4 10 12883.2 988.2 38
-2 -4 11 23890.6 1285.98 30
-2 -4 11 24574.4 1321.18 9
-2 -4 12 7693.44 598.439 9
-2 -4 12 7498.34 642.005 32
-2 -4 13 1860.05 234.547 8
-2 -3 -2 49115.5 2013.43 1
-2 -3 -1 40540.1 1864.03 1
-2 -3 0 33577.7 1662.81 1
-2 -3 1 70801.1 2620.09 1
-2 -3 2 750266 17875.6 1
-2 -3 4 1633.5 326.448 1
-2 -3 5 228613 6206.94 1
-2 -3 5 230565 6217.83 38
-2 -3 6 96056.1 3149.06 28
-2 -3 6 92641.5 3170.25 38
-2 -3 6 92263.8 3160.5 33
-2 -3 6 92085.7 3035.13 1
-2 -3 7 21724.6 1354.43 23
-2 -3 7 22319.9 1361.61 38
-2 -3 7 22275 1376.99 33
-2 -3 7 24794.4 1207.49 1
-2 -3 7 25653.7 1382.27 28
-2 -3 8 3611.57 568.167 33
-2 -3 8 2484.67 470.177 38
-2 -3 8 3096.42 482.367 28
-2 -3 8 3949.96 595.032 23
-2 -3 9 5989.08 726.423 38
-2 -3 9 5181.49 643.696 28
-2 -3 9 5164.8 700.763 23
-2 -3 10 25450.1 1597.04 23
-2 -3 10 24884.1 1456.58 9
-2 -3 10 25713.4 1452.13 30
-2 -3 11 30109.2 1477.36 30
-2 -3 11 28739.4 1586.15 32
-2 -3 11 28381.4 1464.17 9
-2 -3 11 28994.8 1639.71 23
-2 -3 12 427.994 198.286 32
-2 -3 12 390.403 165.808 9
-2 -3 13 1118.34 210.843 8
-2 -3 13 674.521 176.151 32
-2 -2 -2 79628.6 2633.77 1
-2 -2 -1 171614 4799.99 1
-2 -2 0 1149.15 256.546 1
-2 -2 1 887207 20566.7 1
-2 -2 2 54361.6 1948.51 1
-2 -2 3 11626.9 753.25 1
-2 -2 4 159604 4366.25 1
-2 -2 5 151446 4204.24 1
-2 -2 6 207016 5470.71 1
-2 -2 6 204848 5769.84 38
-2 -2 6 217535 5671.58 28
-2 -2 7 37539.2 1835.04 23
-2 -2 7 39073.1 1827.61 38
-2 -2 7 39001.2 1724.9 28
-2 -2 7 40010.7 1881.83 33
-2 -2 8 6233.48 751.885 23
-2 -2 8 7951.92 730.875 28
-2 -2 8 5713.47 696.5 38
-2 -2 9 1968.84 451.087 23
-2 -2 9 1749.83 365.587 28
-2 -2 9 1682.51 373.843 30
-2 -2 9 1398.9 368.97 9
-2 -2 9 2401.2 465.012 38
-2 -2 10 52527.7 2465.87 23
-2 -2 10 50733.9 2190.57 9
-2 -2 10 48460.6 2120.38 28
-2 -2 10 54815.5 2234.2 30
-2 -2 10 54697 2422.24 32
-2 -2 11 15600.5 1184.05 23
-2 -2 11 13896.5 966.007 9
-2 -2 11 16032.1 1156.85 32
-2 -2 12 158.698 179.943 23
-2 -2 12 121.892 106.581 31
-2 -2 12 225.196 164.042 32
-2 -2 13 12946.2 726.003 32
-2 -1 -2 43477.6 1586.17 1
-2 -1 -1 5273.33 460.397 1
-2 -1 0 835765 19186.9 1
-2 -1 1 256128 6320.15 1
-2 -1 3 113645 3169.23 1
-2 -1 3 119305 3281.82 26
-2 -1 4 191324 5089.17 26
-2 -1 4 193143 4899.25 1
-2 -1 5 95887.3 2776.24 1
-2 -1 5 100777 2892.05 28
-2 -1 6 85072 2458.57 1
-2 -1 6 88097.6 2724.71 28
-2 -1 6 85985.3 2923.32 26
-2 -1 7 5417.35 541.345 28
-2 -1 7 4992.6 601.931 38
-2 -1 8 7849.06 698.284 28
-2 -1 8 7060.83 761.094 38
-2 -1 8 8713.49 745.348 30
-2 -1 9 131679 4022.27 30
-2 -1 9 122472 3905.23 28
-2 -1 9 127066 3996.85 9
-2 -1 10 30055.8 1706.65 32
-2 -1 10 26694.4 1433.93 9
-2 -1 10 25478 1656.14 23
-2 -1 10 26562 1432.67 30
-2 -1 11 1522 305.637 31
-2 -1 11 1301.8 370.462 32
-2 -1 12 15457.6 1022.57 23
-2 -1 12 14701.6 985.87 32
-2 -1 13 4453.7 405.962 32
-2 -1 13 4203.12 365.638 8
-2 0 -3 157355 3972.08 1
-2 0 -2 58213.6 1782.84 1
-2 0 1 26006.8 896.087 26
-2 0 2 7133.05 427.106 26
-2 0 3 4463.03 368.218 26
-2 0 4 2337.74 250.916 28
-2 0 4 2706.51 258.257 1
-2 0 5 511300 11762.3 1
-2 0 5 507052 11933.9 28
-2 0 5 516658 12178.7 26
-2 0 6 2039 344.275 26
-2 0 6 1158.53 220.435 28
-2 0 7 33442.6 1430.84 30
-2 0 7 31965.3 1386.92 28
-2 0 7 33680.5 1597.79 26
-2 0 7 31089.1 1612.32 38
-2 0 8 81022.8 2710.28 28
-2 0 8 80507.4 2741.35 30
-2 0 8 85442.4 3081.95 32
-2 0 8 87476 3071.58 26
-2 0 9 42460.4 2081.79 32
-2 0 9 37600.2 1721.97 9
-2 0 10 1674.41 407.535 32
-2 0 11 1993.91 428.176 23
-2 0 11 3084.24 516.635 32
-2 0 12 6198.88 611.481 23
-2 0 12 6779.5 633.006 32
-2 0 13 1977.25 265.062 32
-2 1 0 93738.1 2259.08 26
-2 1 1 438773 9980.18 26
-2 1 2 1770.7 189.762 26
-2 1 3 21171.2 851.201 26
-2 1 3 21388.8 696.206 28
-2 1 4 454371 10401.7 28
-2 1 5 409268 9402.46 28
-2 1 5 407923 9760.63 26
-2 1 5 397429 9267.96 1
-2 1 6 42182.1 1693.73 26
-2 1 6 39927.6 1425.96 28
-2 1 7 98242.9 3327.78 32
-2 1 7 102924 3297.51 26
-2 1 7 97824.8 2950.37 28
-2 1 8 120111 4029.05 32
-2 1 8 121100 3915.13 26
-2 1 9 6334.84 709.554 26
-2 1 9 6169.48 756.118 32
-2 1 10 4198.13 619.729 32
-2 1 11 1590.44 358.514 32
-2 1 11 1478.49 368.746 23
-2 1 12 1525.67 285.97 23
-2 1 12 1133.84 306.143 32
-2 2 -3 97420.1 2558.77 36
-2 2 4 580408 13292.3 36
-2 2 4 573393 13041.8 28
-2 2 4 591027 13490 26
-2 2 5 41743.3 1332.53 36
-2 2 5 44902.8 1646.18 26
-2 2 6 450941 11345.8 22
-2 2 6 450326 11263.5 32
-2 2 6 457100 11389.9 5
-2 2 6 481919 11263.9 26
-2 2 7 44311.9 1867.83 27
-2 2 7 46328.4 2031.72 32
-2 2 7 47437.3 1978.91 26
-2 2 7 48591.7 2121.4 17
-2 2 8 37079.5 1721.19 24
-2 2 8 36197.8 1866.25 32
-2 2 8 35795.4 1749.22 26
-2 2 9 15373.8 1196.53 32
-2 2 9 16197.7 1080.66 24
-2 2 10 1878.27 337.196 24
-2 2 10 1924.29 422.818 32
-2 2 11 37.7927 129.552 23
-2 2 11 -194.322 294.15 32
-2 2 12 13536.7 748.983 32
-2 3 -4 320969 7689.63 36
-2 3 -3 104709 2901.73 36
-2 3 -2 6511.62 454.378 36
-2 3 -1 619693 14290.7 36
-2 3 0 176235 4471.47 36
-2 3 2 267912 6564.56 36
-2 3 3 358029 8574.63 36
-2 3 4 2941.19 338.117 36
-2 3 5 10361.6 598.274 36
-2 3 5 12573.5 792.153 26
-2 3 6 18214.1 1111.15 32
-2 3 6 19840 1215.85 22
-2 3 6 19805.2 1130.82 27
-2 3 6 17429.5 1149.73 5
-2 3 6 18389.5 1162.82 17
-2 3 6 20100.7 1126.89 26
-2 3 7 1217.63 329.75 5
-2 3 7 1099.76 321.704 22
-2 3 7 1404.91 348.414 32
-2 3 7 1052.21 294.252 27
-2 3 7 930.779 260.914 26
-2 3 8 26476.3 1490.26 24
-2 3 8 28465.9 1617.53 32
-2 3 9 51.3924 264.28 32
-2 3 9 259.236 181.432 24
-2 3 10 1471.98 296.773 24
-2 3 10 1268.74 383.588 32
-2 3 11 20905.3 1086.44 32
-2 4 -4 26248.4 1175.69 36
-2 4 -3 1461.23 270.265 36
-2 4 -2 654243 15294.9 36
-2 4 -1 376440 9145.24 36
-2 4 0 48843.6 1754.45 36
-2 4 1 159098 4349.44 36
-2 4 2 461918 11148.2 36
-2 4 3 3021.52 401.028 36
-2 4 4 19666.4 1051.23 36
-2 4 5 32460.2 1583.68 22
-2 4 5 33883.4 1504.62 32
-2 4 5 30961.1 1562.81 5
-2 4 6 516.903 239.503 27
-2 4 6 920.371 300.556 5
-2 4 6 40.7646 288.299 32
-2 4 6 493.744 210.993 17
-2 4 6 711.283 257.26 22
-2 4 6 810.696 238.836 26
-2 4 7 100548 3522.15 27
-2 4 7 99734.1 3552.87 17
-2 4 7 105003 3637.5 5
-2 4 7 97849.9 3346.15 26
-2 4 7 98497.6 3484.76 32
-2 4 7 107418 3734.5 22
-2 4 8 7232.58 767.679 24
-2 4 8 6802.74 776.016 32
-2 4 9 269.619 261.423 32
-2 4 9 741.909 259.804 24
-2 4 10 14436 858.634 24
-2 4 10 15011.7 961.24 32
-2 5 -5 24481.7 1220.84 36
-2 5 -4 33356.2 1524.81 36
-2 5 -3 167553 4750.11 36
-2 5 -2 330304 8418.44 36
-2 5 -1 2435.08 388.667 36
-2 5 1 168988 4870.85 36
-2 5 2 27967.5 1452.21 36
-2 5 3 93407.9 3178.01 36
-2 5 4 5634.54 632.714 5
-2 5 4 6102.35 612.308 36
-2 5 4 6595.84 617.021 32
-2 5 4 6194.99 639.844 22
-2 5 5 272.457 213.24 27
-2 5 5 458.261 215.195 5
-2 5 5 326.302 187.479 22
-2 5 5 76.7146 223.035 32
-2 5 6 57903.5 2495.48 22
-2 5 6 54829.4 2242.62 26
-2 5 6 57014.9 2429.08 27
-2 5 6 56213.1 2428.2 5
-2 5 6 54526.1 2285.19 32
-2 5 7 44085.2 2209.94 22
-2 5 7 46051.8 2087.3 32
-2 5 7 47115.7 2190.88 27
-2 5 7 48022 2203.39 5
-2 5 8 1502.95 354.963 24
-2 5 8 1479.28 426.394 32
-2 5 9 9347.95 748.696 24
-2 5 9 10661.8 808.236 32
-2 5 10 11638.9 631.46 24
-2 6 -5 120.708 129.026 36
-2 6 -5 41.2059 122.335 37
-2 6 -4 42856.2 1943.07 36
-2 6 -3 312361 8292.7 36
-2 6 -2 9177.97 836.049 36
-2 6 -1 60096.5 2466.82 36
-2 6 1 2992.05 502.725 36
-2 6 2 61569.2 2578.16 36
-2 6 3 3749.25 514.176 22
-2 6 3 4197.36 581.71 36
-2 6 4 2071.89 427.467 5
-2 6 4 1983.09 403.048 22
-2 6 5 56687.8 2411.68 5
-2 6 5 53682.6 2399.4 22
-2 6 5 52304.6 2389.59 27
-2 6 6 73248.2 2968.34 22
-2 6 6 72698.5 2908.95 27
-2 6 6 72552.3 2875.71 5
-2 6 7 2893.31 490.217 27
-2 6 7 3330.7 543.183 22
-2 6 8 13007.3 922.607 24
-2 6 9 11874.9 711.108 24
-2 7 -5 35717.1 1808.36 36
-2 7 -5 37582.8 1868.78 37
-2 7 -4 171041 5385.43 37
-2 7 -4 179134 5377.63 36
-2 7 -3 7297.81 802.123 36
-2 7 -2 63601.5 2710.54 36
-2 7 0 26922.7 1660.52 36
-2 7 1 138861 4673.18 36
-2 7 2 49078.4 2374.96 37
-2 7 2 47771.4 2065.59 22
-2 7 2 50125.8 2357.09 36
-2 7 3 4110.51 612.416 5
-2 7 3 3034.55 530.197 37
-2 7 3 2912.15 499.624 36
-2 7 3 3342.01 519.352 22
-2 7 4 37717.6 1973.26 27
-2 7 4 39604.1 1945.87 22
-2 7 4 36079.3 1896.24 5
-2 7 5 86488 3284.99 27
-2 7 5 88188.8 3218.13 5
-2 7 5 85792.1 3249.11 22
-2 7 6 346.642 210.174 5
-2 7 6 388.851 228.26 22
-2 7 6 240.469 202.035 27
-2 7 8 4956.41 460.88 24
-2 8 -6 33502.7 1675.98 37
-2 8 -5 52911.4 2340.89 37
-2 8 -5 46760.2 2216.16 36
-2 8 -4 31729.7 1838.75 37
-2 8 -4 35440 1896.54 36
-2 8 -3 40561.9 2105.84 36
-2 8 -3 37526.1 2063.98 37
-2 8 -2 24139.3 1618.62 37
-2 8 -2 22133.8 1535.69 36
-2 8 0 35305.2 2017.72 36
-2 8 0 36854.3 2098.89 37
-2 8 1 122935 4384.04 36
-2 8 1 128469 4493.96 37
-2 8 2 4220.64 558.884 22
-2 8 2 3846.47 608.125 37
-2 8 2 4011.64 610.508 36
-2 8 3 33487.8 1712.06 22
-2 8 3 34546.2 1831.25 5
-2 8 4 33052.7 1720.29 5
-2 8 4 32750.5 1676.07 22
-2 8 5 2205.25 394.255 5
-2 8 5 2739.31 440.839 22
-2 8 5 2335.88 445.471 27
-2 8 7 1438.52 241.134 24
-2 9 -6 14088.9 981.776 37
-2 9 -5 4374.54 606.395 37
-2 9 -4 38265.1 1987.73 37
-2 9 -3 59324.5 2674.01 37
-2 9 -2 12078.4 1114.25 37
-2 9 -1 44725.2 2304.42 37
-2 9 0 92384.8 3559.9 37
-2 9 1 592.341 269.4 37
-2 9 2 31342.9 1673.46 5
-2 9 2 29989.8 1645.56 27
-2 9 3 21497.2 1303.95 27
-2 9 3 20334.4 1227.47 5
-2 9 4 7037.16 625.645 5
-2 10 -6 4313.57 460.994 37
-2 10 -5 17131.6 1082.83 37
-2 10 -4 30961.3 1605.59 37
-2 10 -3 4147.05 576.277 37
-2 10 -1 18058.9 1219.91 37
-2 10 0 2594.08 448.101 5
-2 10 0 2469.48 435.319 37
-2 10 1 9489.9 783.99 5
-2 10 1 9872.99 773.329 27
-2 10 2 15176.8 918.534 27
-2 10 2 15641.1 923.426 5
-2 10 3 1176.82 239.12 27
-2 11 -5 22856.4 995.24 37
-2 11 -4 579.822 181.14 37
-2 11 -3 28519 1287.9 37
-2 11 -2 27659.6 1250.81 5
-2 11 -1 11144.7 706.884 5
-2 11 -1 9545.46 656.291 37
-2 11 0 8849.94 573.568 5
-1 -10 3 4120.12 382.322 4
-1 -10 4 40754.4 1463.18 4
-1 -10 6 123.379 83.6331 4
-1 -9 0 16607.9 829.786 4
-1 -9 1 39398.5 1656.56 4
-1 -9 1 38154.8 1656.41 38
-1 -9 2 15800.6 1006.3 38
-1 -9 2 14441 1003.1 4
-1 -9 3 5357.39 626.667 4
-1 -9 3 5963.35 611.101 38
-1 -9 4 36573.9 1618.1 38
-1 -9 4 35666.4 1716.51 4
-1 -9 5 39.1011 134.037 4
-1 -9 6 9165.13 722.922 4
-1 -8 0 104990 3566.26 4
-1 -8 1 30232.6 1717.63 4
-1 -8 2 4550.97 678.303 4
-1 -8 3 81577.7 3245.57 4
-1 -8 3 80441.7 3067.02 38
-1 -8 4 291.704 204.212 38
-1 -8 5 26899.5 1583.52 4
-1 -8 5 24722.4 1438.43 38
-1 -8 6 22469.9 1300.27 38
-1 -8 6 23796.2 1403.28 4
-1 -8 6 22990.3 1309.12 33
-1 -8 7 3763.35 499.501 33
-1 -8 7 4317.97 525.96 4
-1 -8 7 3397.92 435.836 9
-1 -8 8 39436.7 1600.82 9
-1 -8 8 40318 1695.4 33
-1 -8 9 13293.5 837.525 30
-1 -8 9 13717.8 796.701 9
-1 -8 10 129.505 104.718 30
-1 -8 10 259.594 114.663 9
-1 -7 -1 60248.2 2522.84 4
-1 -7 0 21293.2 1465.48 4
-1 -7 1 6078.28 811.142 1
-1 -7 2 46101.4 2420.03 1
-1 -7 3 3129.29 595.28 1
-1 -7 4 79589.3 3040.6 38
-1 -7 4 75023 3184.4 1
-1 -7 5 97589 3455.57 38
-1 -7 5 94834.9 3592.99 1
-1 -7 5 93603.5 3435.76 28
-1 -7 6 24844.2 1460.04 38
-1 -7 6 25938.5 1533.3 4
-1 -7 6 23305 1464.9 28
-1 -7 7 52199.3 2184 38
-1 -7 7 51074.8 2176.6 4
-1 -7 7 51535.8 2292.55 33
-1 -7 8 35731 1778.83 33
-1 -7 9 7813.76 731.892 33
-1 -7 9 8238.04 716.458 9
-1 -7 10 555.813 198.403 9
-1 -7 11 15812.8 829.377 30
-1 -7 11 15336.8 789.953 32
-1 -7 11 16652.3 831.924 9
-1 -6 -1 9818.02 958.275 1
-1 -6 0 1511.65 415.882 1
-1 -6 1 14760.2 1241.65 1
-1 -6 2 61094.3 2751.71 1
-1 -6 3 124303 4348.33 1
-1 -6 4 104572 3590.07 38
-1 -6 4 102021 3769.97 1
-1 -6 5 13603.5 1047.65 38
-1 -6 5 13097.5 1097.03 1
-1 -6 5 14773.9 1098.88 28
-1 -6 6 14348.9 1063.2 38
-1 -6 6 13601 1063.47 28
-1 -6 7 153432 4693.06 38
-1 -6 7 159910 4953.03 33
-1 -6 7 148831 4596.02 4
-1 -6 7 150144 4822.78 28
-1 -6 8 4180.41 618.53 33
-1 -6 8 4093.97 542.335 38
-1 -6 9 8372.95 833.964 33
-1 -6 9 7766.55 767.147 9
-1 -6 10 21088 1113.91 8
-1 -6 10 21857.7 1249.75 9
-1 -6 10 21557.6 1249.5 30
-1 -6 11 215.038 129.645 8
-1 -6 11 245.154 157.687 9
-1 -6 11 582.215 196.608 30
-1 -6 11 213.418 152.473 32
-1 -6 12 16335.5 772.565 32
-1 -5 -2 33136.8 1652.78 1
-1 -5 -1 168671 5171.3 1
-1 -5 0 53269.9 2387.5 1
-1 -5 1 57343.4 2517.01 1
-1 -5 2 143715 4637.45 1
-1 -5 4 31821.4 1677.19 1
-1 -5 4 29798.5 1520.19 38
-1 -5 5 811.576 256.337 38
-1 -5 5 1057.88 300.861 1
-1 -5 6 203327 5751.28 38
-1 -5 6 200063 5733.56 1
-1 -5 7 9872.84 848.599 38
-1 -5 7 9042.5 770.25 1
-1 -5 7 10728.7 924.462 28
-1 -5 7 10283.9 953.606 33
-1 -5 8 31614.3 1794.02 33
-1 -5 8 33316 1759.86 28
-1 -5 8 35330.7 1721.29 38
-1 -5 9 18134.4 1301.21 33
-1 -5 9 18801.3 1254.62 9
-1 -5 9 15264.7 1143.31 28
-1 -5 9 16775.4 1099.28 38
-1 -5 10 4237.83 569.987 30
-1 -5 10 4472.72 584.172 9
-1 -5 11 24972.3 1333.11 32
-1 -5 11 27798.3 1367.62 30
-1 -5 12 10210 680.611 32
-1 -5 12 10406.5 666.99 8
-1 -4 -2 116112 3629.42 1
-1 -4 -1 255326 6931.74 1
-1 -4 0 111590 3665.93 1
-1 -4 1 74072.4 2726.65 1
-1 -4 2 445253 11167.8 1
-1 -4 4 10786.4 837.434 1
-1 -4 5 44748.8 1854.19 38
-1 -4 5 48163.7 1939.58 1
-1 -4 6 5793.42 611.855 38
-1 -4 6 5697.6 623.355 28
-1 -4 6 6017.35 576.838 1
-1 -4 6 6006.1 668.862 23
-1 -4 7 61890.1 2606.44 23
-1 -4 7 61532.5 2605.59 33
-1 -4 7 65733.5 2219.85 1
-1 -4 7 67368.5 2579.51 28
-1 -4 7 64709 2479.02 38
-1 -4 8 40057.6 1882.58 38
-1 -4 8 38176.5 1903.46 28
-1 -4 8 44997.8 2141.18 33
-1 -4 8 41669.1 2089.7 23
-1 -4 9 621.894 299.689 23
-1 -4 9 738.916 316.648 33
-1 -4 9 1634.54 362.022 38
-1 -4 9 1226.99 342.593 30
-1 -4 9 1771.92 382.76 28
-1 -4 10 34421.5 1763.14 9
-1 -4 10 36302.2 1782.99 30
-1 -4 11 38388.3 1743.88 9
-1 -4 11 38238.7 1798.36 32
-1 -4 11 38284.4 1727.47 30
-1 -4 12 1007.9 243.744 32
-1 -4 13 1529.77 214.185 8
-1 -3 -2 461774 11155.5 1
-1 -3 -1 4854.34 507.104 1
-1 -3 0 72616.6 2486.03 1
-1 -3 1 641568 15205.3 1
-1 -3 2 142243 4059.8 1
-1 -3 3 200881 5362.38 1
-1 -3 4 101727 3087.98 1
-1 -3 5 25070.9 1222.62 28
-1 -3 5 25319.6 1183.18 1
-1 -3 6 31899.8 1489.52 38
-1 -3 6 29152.6 1541.46 33
-1 -3 6 32770 1515.34 28
-1 -3 6 34851 1356.59 1
-1 -3 7 42826.4 2036.49 23
-1 -3 7 44002.7 2049.44 33
-1 -3 7 46238.7 1944.84 28
-1 -3 7 46481.2 1953.04 38
-1 -3 8 41827.8 2103.12 23
-1 -3 8 41991.7 2099.52 33
-1 -3 8 43869.1 1955.37 38
-1 -3 8 44946.7 1988.23 28
-1 -3 9 5977.26 758.859 23
-1 -3 9 5875.37 688.759 9
-1 -3 9 6852.33 733.005 30
-1 -3 9 5674.13 666.955 28
-1 -3 10 89748.4 3219.07 30
-1 -3 10 94543.9 3477.33 23
-1 -3 10 88107.4 3206.42 9
-1 -3 11 2154.3 392.695 9
-1 -3 12 1465.2 264.319 31
-1 -3 12 905.568 241.84 32
-1 -3 13 2146.43 260.527 32
-1 -2 -3 745845 17009.6 1
-1 -2 -2 75304.2 2287.74 1
-1 -2 -1 3197.19 351.723 1
-1 -2 0 477420 11281.8 1
-1 -2 1 244771 6096.11 1
-1 -2 3 3871.6 372.465 1
-1 -2 4 17435.3 835.602 1
-1 -2 5 173519 4424.69 1
-1 -2 5 170107 4614.92 28
-1 -2 6 280853 6982.29 28
-1 -2 6 265817 6456.74 1
-1 -2 7 61168.5 2480.25 23
-1 -2 7 60818.8 2328.94 38
-1 -2 7 62050 2289.37 28
-1 -2 7 61234.8 2477.57 33
-1 -2 8 11350.3 1015.73 23
-1 -2 8 10709.3 863.603 28
-1 -2 8 9833.71 851.52 30
-1 -2 8 11784.7 927.032 38
-1 -2 8 10944.1 887.27 9
-1 -2 9 167538 4995.81 9
-1 -2 9 169520 5002.68 30
-1 -2 9 155003 4855.98 28
-1 -2 10 7682.89 774.133 28
-1 -2 10 7230.88 745.21 9
-1 -2 10 8729.42 823.289 30
-1 -2 11 2557.37 475.719 23
-1 -2 11 2080.8 379.809 31
-1 -2 12 2989.24 365.287 31
-1 -2 13 1322.82 195.733 8
-1 -1 -3 214460 5060.53 1
-1 -1 -2 7669.74 439.747 1
-1 -1 -1 16474.6 700.46 1
-1 -1 0 63190.9 1794.28 1
-1 -1 1 71655 1974.1 1
-1 -1 2 495313 11194.6 1
-1 -1 2 479497 11271 26
-1 -1 3 1410.43 183.561 1
-1 -1 4 313269 7324.55 1
-1 -1 4 312908 7500.51 28
-1 -1 4 309259 7584.75 26
-1 -1 5 356888 8131.75 1
-1 -1 5 349252 8513.76 28
-1 -1 5 344779 8619.98 26
-1 -1 6 27450.4 1238.87 28
-1 -1 6 28678.6 1333.83 26
-1 -1 7 2140.07 376.555 38
-1 -1 7 2262.46 354.875 28
-1 -1 7 2815.87 404.283 30
-1 -1 7 1794.65 332.916 9
-1 -1 8 68938.7 2694 32
-1 -1 8 69477.1 2537.09 30
-1 -1 8 63152.6 2465.67 9
-1 -1 8 64684.6 2433.32 28
-1 -1 9 30012.7 1575.12 9
-1 -1 9 33628.2 1821.49 32
-1 -1 9 30704.4 1617.33 30
-1 -1 9 33273.9 1861.94 23
-1 -1 9 30217.8 1596.11 28
-1 -1 10 14609.3 1160.64 32
-1 -1 10 11800.7 1064.29 23
-1 -1 11 9244.5 750.505 31
-1 -1 11 10614.4 920.784 23
-1 -1 11 11224.6 945.888 32
-1 -1 12 2885.22 400.892 23
-1 -1 12 2611.68 387.752 32
-1 -1 12 2882.45 382.304 8
-1 0 -3 63940.1 1566 1
-1 0 -2 197897 4624.92 1
-1 0 0 2913.93 151.187 26
-1 0 1 293826 6706 26
-1 0 2 337793 7784.54 26
-1 0 3 115363 2741.6 1
-1 0 3 117256 2873.55 28
-1 0 4 589815 13190.6 1
-1 0 4 589594 13489.5 28
-1 0 4 584039 13578.9 26
-1 0 5 177123 4537.91 28
-1 0 5 177672 4628.79 26
-1 0 6 9364.13 633.571 28
-1 0 6 9431.97 678.94 26
-1 0 7 26121.5 1433.8 32
-1 0 7 26709.5 1446.14 17
-1 0 7 27027.8 1305.65 30
-1 0 7 27792.7 1340.94 26
-1 0 7 25218.7 1250.64 28
-1 0 8 25953.2 1370.18 24
-1 0 8 25746.3 1359.48 28
-1 0 8 24330.3 1321.1 9
-1 0 9 24080 1349.17 24
-1 0 9 25469.4 1583.9 32
-1 0 9 25198.1 1402.73 31
-1 0 10 14296.4 991.159 31
-1 0 10 15612.3 1211.6 23
-1 0 10 14963.7 988.442 24
-1 0 10 14859.7 1174.7 32
-1 0 11 1911.2 396.668 32
-1 0 11 2417.59 435.7 23
-1 0 12 7337.02 627.173 32
-1 1 -3 5872.66 254.496 36
-1 1 2 59292.5 1452.2 28
-1 1 4 181404 4227.34 36
-1 1 4 185218 4482.22 28
-1 1 4 192591 4627.15 26
-1 1 5 207186 5128.56 28
-1 1 5 205578 5259.28 26
-1 1 6 11951.6 849.582 32
-1 1 6 12581.6 740.717 28
-1 1 6 12641 781.425 26
-1 1 7 45654.9 1909.53 24
-1 1 7 45100 2013.61 22
-1 1 7 49042.2 2086.01 32
-1 1 7 45085.9 2030.53 17
-1 1 7 46844.3 1842.15 26
-1 1 7 46372.8 1823.64 31
-1 1 8 8351.31 775.115 24
-1 1 8 7291.17 686.079 31
-1 1 8 8438.13 842.422 17
-1 1 8 8549.47 855.067 32
-1 1 8 6994.7 621.909 10
-1 1 9 31713.1 1659.27 24
-1 1 9 37010.5 1956.51 32
-1 1 10 2224.46 451.833 23
-1 1 10 2582.9 493.917 32
-1 1 10 2830.59 442.86 24
-1 1 11 2657.04 345.882 24
-1 1 11 2880.54 483.018 32
-1 1 12 17485.3 893.425 32
-1 2 -4 230643 5434.14 36
-1 2 -3 32966.2 1063.94 36
-1 2 -2 50183.9 1453.68 36
-1 2 -1 999999 22444.3 36
-1 2 0 244633 5775.51 36
-1 2 1 38165.6 1188.52 36
-1 2 2 66899.9 1856.1 36
-1 2 2 65356 1550.26 10
-1 2 3 132432 3328.37 36
-1 2 3 129586 3105.88 10
-1 2 4 58599.7 1675.42 10
-1 2 4 64403.8 1687.06 36
-1 2 5 13339.3 645.395 10
-1 2 5 15579.8 815.496 26
-1 2 6 927.237 258.678 5
-1 2 6 926.96 252.545 22
-1 2 6 1188.59 300.259 17
-1 2 6 492.69 195.478 32
-1 2 6 571.09 198.829 27
-1 2 6 939.567 221.482 26
-1 2 6 522.788 140.831 10
-1 2 7 20070.3 1299.8 17
-1 2 7 20271.4 1288.56 32
-1 2 7 19547.9 1088.74 26
-1 2 8 119157 4100.95 32
-1 2 8 118571 3962.65 24
-1 2 8 122473 4145.14 17
-1 2 9 5616.8 657.021 24
-1 2 9 6110.06 735.613 32
-1 2 10 1444.27 314.159 24
-1 2 10 1605.81 425.79 32
-1 2 11 14976.7 787.378 24
-1 2 11 15781.4 969.518 32
-1 3 -4 46188.3 1532.52 36
-1 3 -3 55532.8 1775.99 36
-1 3 -2 522218 12162.3 36
-1 3 -1 631306 14569.5 36
-1 3 1 7709.2 529.644 36
-1 3 2 385122 9231.26 36
-1 3 3 12108.5 692.108 36
-1 3 4 254741 6172.81 36
-1 3 5 614.987 207.264 32
-1 3 5 358.492 179.401 22
-1 3 5 562.478 200.075 27
-1 3 5 348.35 141.891 26
-1 3 6 1106.07 298.898 5
-1 3 6 1136.2 311.193 32
-1 3 6 712.135 259.859 17
-1 3 6 1015.69 289.258 22
-1 3 6 994.966 239.588 26
-1 3 7 120798 4055.15 32
-1 3 7 121822 4102.49 17
-1 3 7 121342 4115.53 22
-1 3 7 122438 4049.86 27
-1 3 8 30390.9 1728.17 32
-1 3 8 32261.5 1717.53 24
-1 3 8 28613.5 1687.99 17
-1 3 9 1497.15 361.718 24
-1 3 9 1095.61 396.84 32
-1 3 10 8846.58 778.295 32
-1 3 10 7233.66 644.039 24
-1 3 11 8003.3 472.894 24
-1 3 11 12954.4 717.94 32
-1 4 -5 63773 2085.75 36
-1 4 -4 4452.62 445.882 36
-1 4 -3 776888 18072.1 36
-1 4 -2 518788 12366.7 36
-1 4 -1 243563 6281.77 36
-1 4 1 74197.5 2486.31 36
-1 4 2 6775.93 602.086 36
-1 4 3 141110 4010.78 36
-1 4 4 33556.5 1487.31 32
-1 4 4 31503.4 1484.96 5
-1 4 4 31386.1 1506.98 22
-1 4 4 33362.3 1302.03 36
-1 4 5 5453.14 621.843 32
-1 4 5 6092.53 663.479 27
-1 4 5 5155.07 604.537 17
-1 4 5 5354.27 601.423 5
-1 4 5 5993.97 651.791 22
-1 4 6 104856 3617.66 22
-1 4 6 103410 3517.42 32
-1 4 6 100440 3548.25 17
-1 4 6 105155 3599.01 27
-1 4 6 94582 3138.97 26
-1 4 6 104322 3490.44 5
-1 4 7 52067 2402.68 22
-1 4 7 49582.9 2324.91 17
-1 4 7 51941.1 2311.64 32
-1 4 7 56714 2433.47 27
-1 4 8 3316.95 536.418 24
-1 4 8 4605.9 646.265 32
-1 4 8 3434.05 552.52 17
-1 4 8 4081.3 617.259 22
-1 4 9 18250.8 1136.63 24
-1 4 9 17109.3 1127.33 32
-1 4 10 8204.21 589.079 24
-1 5 -5 9416.39 728.559 36
-1 5 -4 83961.5 2827.14 36
-1 5 -3 167320 4782.09 36
-1 5 -2 12889.6 901.38 36
-1 5 -1 54414.2 2161.72 36
-1 5 0 10388.5 829.326 36
-1 5 1 164.646 172.847 36
-1 5 2 270597 7233.88 36
-1 5 3 103706 3232.8 32
-1 5 3 99655.3 3262.62 36
-1 5 4 34030.7 1626.99 5
-1 5 4 28641.7 1563.28 22
-1 5 4 33683.8 1607.55 32
-1 5 4 29895.8 1618.65 27
-1 5 5 86359 3158.34 22
-1 5 5 81640 2994.01 5
-1 5 5 81020.6 2982.24 32
-1 5 5 83168.7 3150.13 27
-1 5 6 97028.3 3505.26 17
-1 5 6 101287 3675.55 22
-1 5 6 102575 3559.68 32
-1 5 6 105892 3717.9 27
-1 5 6 102369 3521.43 5
-1 5 7 275.823 184.971 17
-1 5 7 381.252 247.121 22
-1 5 7 856.161 395.286 32
-1 5 8 13497.4 1002.02 24
-1 5 9 1098.59 253.055 24
-1 6 -5 51892.3 2177.09 37
-1 6 -5 50616.7 2122.46 36
-1 6 -4 135333 4331.81 37
-1 6 -4 140649 4327.17 36
-1 6 -3 68023.5 2676.25 37
-1 6 -3 68550.7 2654.87 36
-1 6 -2 273676 7476.96 36
-1 6 0 1729.61 416.417 37
-1 6 0 2847.34 482.971 36
-1 6 1 132906 4474.13 37
-1 6 1 139446 4437.72 36
-1 6 2 155796 4926.52 21
-1 6 2 166687 5133.84 37
-1 6 2 174215 5111.29 36
-1 6 3 11724.3 939.839 5
-1 6 3 10800.6 911.132 37
-1 6 3 11454 900.059 36
-1 6 4 34057.2 1808.2 22
-1 6 4 34353.5 1745.11 5
-1 6 5 54397.9 2446.42 22
-1 6 5 58592.9 2539.78 27
-1 6 5 51891 2260.47 5
-1 6 6 125.232 143.098 5
-1 6 6 -52.6626 201.832 27
-1 6 6 53.181 170.528 22
-1 6 7 14383.2 1042.51 24
-1 6 7 12316.4 999.941 22
-1 6 8 1167.8 260.71 24
-1 7 -6 39410.6 1855.01 36
-1 7 -6 40064.6 1886.9 37
-1 7 -5 18302.5 1265.18 36
-1 7 -5 21868 1383.17 37
-1 7 -4 3440.99 547.757 36
-1 7 -4 2742.58 517.634 37
-1 7 -3 90785.2 3450.1 37
-1 7 -3 89088.4 3362.37 36
-1 7 -2 87142.9 3425.94 37
-1 7 -2 91919 3432.59 36
-1 7 -1 22001.5 1508.9 37
-1 7 -1 21607.8 1457.06 36
-1 7 0 117317 4326.49 37
-1 7 0 130624 4360.11 36
-1 7 1 111845 3991.73 36
-1 7 1 114251 4084.46 37
-1 7 2 3771.21 593.655 37
-1 7 2 3870.48 580.176 36
-1 7 3 60309.7 2579.37 22
-1 7 3 60925.8 2522.16 5
-1 7 3 61122.6 2646.82 27
-1 7 4 18716.2 1323.19 22
-1 7 4 21684.9 1317.28 5
-1 7 5 750.122 297.374 22
-1 7 6 23674.9 1356.31 22
-1 7 7 3676.34 435.089 24
-1 8 -6 29784 1610.64 37
-1 8 -5 1053.46 326.759 36
-1 8 -5 1722.76 423.812 37
-1 8 -4 77964.1 3169.24 37
-1 8 -4 79891 3148.62 36
-1 8 -3 103241 3841.6 37
-1 8 -3 99802.9 3740.57 36
-1 8 -2 13647.4 1196.94 37
-1 8 -1 87871.7 3538.71 37
-1 8 -1 87210.8 3451.08 36
-1 8 0 91088.3 3612.2 37
-1 8 0 92621 3554.11 36
-1 8 1 5702.36 740.311 36
-1 8 1 6945.45 816.994 37
-1 8 2 36907.9 1852.28 22
-1 8 2 38980.8 1901.78 5
-1 8 2 36347 1906.54 27
-1 8 3 7486.13 774.076 22
-1 8 3 8016.04 761.569 5
-1 8 3 7806.69 809.537 27
-1 8 4 1669.04 370.975 22
-1 8 4 585.33 256.782 27
-1 8 5 3816.17 476.168 22
-1 9 -7 8913.31 684.93 37
-1 9 -6 7853.51 739.283 37
-1 9 -5 18175.3 1240.45 37
-1 9 -4 23568 1502.29 37
-1 9 -3 5067.17 692.165 37
-1 9 -1 58653.4 2601.58 37
-1 9 0 2031.89 439.751 37
-1 9 1 38450.3 1804.42 5
-1 9 1 37690 1661.13 22
-1 9 1 36218.9 1753.24 27
-1 9 2 6163.69 592.663 22
-1 9 2 5872.69 633.266 27
-1 9 3 57.7837 92.6514 22
-1 9 3 67.7808 142.288 27
-1 9 4 12701.9 756.947 24
-1 9 4 11085.4 646.696 22
-1 10 -6 22659.2 1111.25 37
-1 10 -5 47546 1924.67 37
-1 10 -4 4892.86 574.967 37
-1 10 -3 23869.4 1344.64 37
-1 10 -2 21471.6 1264.11 37
-1 10 -1 4284.52 534.992 37
-1 11 -4 13365.3 716.587 37
-1 11 -3 9805.41 575.936 5
-1 11 -2 270.966 119.756 37
0 -10 1 17781.9 918.373 4
0 -10 2 495.709 191.771 4
0 -10 3 8916.63 717.694 4
0 -10 5 1586.94 244.1 33
0 -10 5 1724.69 306.897 4
0 -10 6 14151.9 724.543 33
0 -10 6 15613.1 816.122 4
0 -10 8 1167.97 173.68 18
0 -9 -1 13960.1 824.975 4
0 -9 0 58684.9 2301.25 4
0 -9 1 240.485 233.224 4
0 -9 2 11128.8 897.759 38
0 -9 2 10643.3 959.678 4
0 -9 3 24453.4 1502.94 4
0 -9 3 25279.2 1389.08 38
0 -9 5 45563.1 2036.26 4
0 -9 6 19492.8 1161.1 4
0 -9 7 388.818 186.926 33
0 -9 8 31005 1362.73 33
0 -9 9 14753.4 781.325 33
0 -8 -1 45822.1 2094.58 4
0 -8 0 796.098 330.977 4
0 -8 1 23461.6 1583.69 4
0 -8 2 81299.3 3340.52 4
0 -8 3 3969.21 649.226 4
0 -8 3 4639.61 626.06 38
0 -8 4 113571 3712.65 38
0 -8 4 103330 3583.66 28
0 -8 4 110713 3970.75 4
0 -8 5 29029.9 1518.26 38
0 -8 5 28279.9 1655.69 4
0 -8 6 19738 1277.8 4
0 -8 6 17330.8 1051.05 9
0 -8 7 3354.23 534.284 33
0 -8 7 3989.86 514.531 4
0 -8 7 3749.38 479.932 9
0 -8 8 26952.2 1312.39 9
0 -8 8 27830.9 1494.44 33
0 -8 9 1995.2 359.695 33
0 -8 9 1867.28 305.086 9
0 -8 9 1942.26 335.856 30
0 -8 10 2174.36 300.169 18
0 -8 10 1600.11 259.79 30
0 -8 10 1779.64 261.869 9
0 -7 -2 9859.14 872.448 4
0 -7 -1 7283.11 821.083 4
0 -7 0 68912.5 2955.14 4
0 -7 1 64151.7 2865.56 4
0 -7 2 3272.22 590.228 1
0 -7 4 163150 4881.53 38
0 -7 4 158304 5149.43 1
0 -7 4 157379 5138.96 4
0 -7 4 160578 4884.36 28
0 -7 5 13613.8 1009.77 38
0 -7 5 15707.2 1189.71 4
0 -7 5 15449.9 1116.07 28
0 -7 6 27860.2 1438.1 38
0 -7 6 24892.7 1484.64 4
0 -7 6 26942.9 1543.22 28
0 -7 7 67140.8 2512.16 4
0 -7 7 66604.1 2669.9 28
0 -7 7 67266.5 2588.41 9
0 -7 8 211.057 192.024 33
0 -7 8 686.412 260.101 9
0 -7 9 26220.8 1390.99 9
0 -7 9 26700.3 1427.12 30
0 -7 9 27585.8 1524.14 33
0 -7 10 16556.6 991.436 9
0 -7 10 18625.5 1008.02 18
0 -7 10 19308 1131.44 33
0 -6 -2 11510.1 949.219 4
0 -6 -1 131098 4346.71 4
0 -6 0 196832 5935.54 1
0 -6 1 32506.3 1829.48 1
0 -6 2 54901 2480.16 1
0 -6 4 10592.2 846.979 38
0 -6 4 10771.6 865.674 28
0 -6 4 10792.2 950.44 1
0 -6 5 31230.3 1528.32 38
0 -6 5 32215.1 1678.26 1
0 -6 5 29745.5 1578.78 28
0 -6 6 64897.1 2422.24 38
0 -6 6 65415.4 2609.18 28
0 -6 6 63874.8 2504.49 4
0 -6 7 224.625 157.213 38
0 -6 7 98.6923 146.533 28
0 -6 8 42647.3 2148.8 33
0 -6 8 43747.5 2029.23 9
0 -6 8 43297.2 2050.11 28
0 -6 9 15769.7 1072.92 8
0 -6 9 18157.7 1203.7 9
0 -6 9 18471.5 1284.68 33
0 -6 10 799.003 257.339 8
0 -6 10 1362.79 315.375 9
0 -6 10 971.15 286.57 30
0 -6 10 577.75 218.755 18
0 -6 11 17361.2 945.95 8
0 -6 11 17773 999.422 30
0 -6 11 18318.6 1007.72 9
0 -6 12 4469.66 355.68 8
0 -6 12 5490.68 419.381 31
0 -5 -1 178914 5212.57 1
0 -5 0 42839.5 1968.69 1
0 -5 1 68625.3 2631.98 1
0 -5 2 193158 5568.81 1
0 -5 3 588.226 216.43 1
0 -5 4 21821.4 1259.97 1
0 -5 5 130478 3917.36 38
0 -5 5 132904 4023.39 34
0 -5 5 134990 4086.75 1
0 -5 5 138091 4120.69 28
0 -5 6 7033.92 646.984 38
0 -5 6 7654.53 735.968 34
0 -5 6 7264.68 675.025 4
0 -5 6 7924.61 756.396 28
0 -5 7 158391 4535.42 38
0 -5 7 154577 4797.79 34
0 -5 7 152533 4940.73 33
0 -5 8 42259.8 2125.93 33
0 -5 8 42412 2024.23 9
0 -5 9 9100.01 901.207 33
0 -5 9 6525.75 731.11 28
0 -5 9 6403.26 731.464 30
0 -5 9 7225.9 767.87 9
0 -5 10 36047.2 1748.27 9
0 -5 10 34362.6 1707.71 32
0 -5 10 31812.6 1508.81 18
0 -5 10 35421.1 1749.14 30
0 -5 11 23648.6 1261.89 30
0 -5 11 25306.9 1293.51 8
0 -5 11 23586.9 1243.82 32
0 -5 12 2000.66 303.158 8
0 -5 12 1971.67 288.066 31
0 -4 -2 445632 10820.2 1
0 -4 -1 71895.3 2479.4 1
0 -4 0 74932.3 2572.24 1
0 -4 1 360866 9070.07 1
0 -4 3 6507.83 590.241 1
0 -4 4 14731.2 892.906 28
0 -4 4 16218 948.768 1
0 -4 5 82936.4 2672.04 1
0 -4 6 98124.1 3410.21 23
0 -4 6 100810 3120.93 38
0 -4 6 99515.3 3342.97 34
0 -4 7 126813 4327.93 23
0 -4 7 133607 4366.13 33
0 -4 7 137958 4291.73 34
0 -4 7 136355 4198.34 28
0 -4 7 131243 3945.75 38
0 -4 8 5636.77 720.845 23
0 -4 8 6100.04 611.176 38
0 -4 8 6964.73 743.798 30
0 -4 8 5676.13 678.026 9
0 -4 8 5494.29 660.537 28
0 -4 9 13465.8 1059.97 30
0 -4 9 11704.4 984.317 28
0 -4 9 12089.7 912.009 18
0 -4 10 31948.5 1656.29 30
0 -4 10 29193.3 1616.58 32
0 -4 11 311.045 182.628 32
0 -4 12 743.817 197.484 11
0 -4 12 551.547 180.237 32
0 -4 12 724.41 224.374 8
0 -4 12 475.101 160.901 31
0 -3 -2 38120.9 1393.44 1
0 -3 -1 40426 1494.08 1
0 -3 0 17138.7 895.445 1
0 -3 1 3686.06 397.207 1
0 -3 3 129095 3569.68 1
0 -3 4 235686 5931.22 1
0 -3 5 199091 5011.12 1
0 -3 5 195487 5279.01 28
0 -3 6 577817 14125.5 34
0 -3 6 585681 13990.9 28
0 -3 7 4420.54 541.222 28
0 -3 7 3732.19 470.003 38
0 -3 8 1650.02 366.105 28
0 -3 8 1495.62 360.131 30
0 -3 8 1916.14 364.607 29
0 -3 8 1598.98 375.555 9
0 -3 9 48294.2 2199.78 28
0 -3 9 51089.8 2272.07 9
0 -3 9 48099.3 1980.8 18
0 -3 9 52398.1 2286.04 30
0 -3 9 52215.6 2338.83 32
0 -3 9 53288 2420.49 23
0 -3 10 2081.59 451.603 23
0 -3 10 2930.51 515.34 32
0 -3 10 2633.02 488.606 30
0 -3 10 2558.7 462.766 9
0 -3 11 12190.9 930.652 32
0 -3 11 12682.5 917.602 31
0 -3 12 3625.85 428.171 8
0 -3 12 3553.3 413.209 32
0 -3 12 3491.61 388.45 31
0 -2 -2 10933.2 526.141 1
0 -2 -1 273100 6526.09 1
0 -2 0 37509.9 1259.45 1
0 -2 1 780030 17753.2 1
0 -2 2 177547 4432.5 1
0 -2 3 15766.6 735.946 28
0 -2 3 15858.5 700.771 1
0 -2 4 78655.3 2044.34 1
0 -2 4 64896.3 2168.58 28
0 -2 5 416806 10060.7 28
0 -2 6 35870 1681.71 33
0 -2 6 38478 1718.72 34
0 -2 6 38698.6 1607.17 28
0 -2 7 8089.03 678.835 24
0 -2 7 8345.41 731.149 28
0 -2 7 7524.55 784.648 23
0 -2 7 8947.2 827.735 33
0 -2 7 8140.43 782.268 34
0 -2 7 8330.33 748.102 9
0 -2 7 9649.07 794.998 30
0 -2 7 9989.3 811.735 29
0 -2 8 71158.7 2597.07 24
0 -2 8 74799.3 2939.58 23
0 -2 8 72748.8 2752.1 9
0 -2 8 71463.2 2808.15 32
0 -2 8 76197.6 2778.97 29
0 -2 8 72656.6 2753.98 30
0 -2 8 64431 2612.01 28
0 -2 9 7913.13 801.306 9
0 -2 9 7616.3 786.649 30
0 -2 9 7529.93 723.165 24
0 -2 9 6756.78 797.319 23
0 -2 9 7076.72 801.826 32
0 -2 9 7394.23 772.748 28
0 -2 10 32289.2 1757.33 23
0 -2 10 30216.8 1709.44 32
0 -2 11 7052.1 694.391 23
0 -2 11 6042.25 603.18 11
0 -2 11 6906.35 702.421 32
0 -2 11 6421.12 638.257 31
0 -2 12 1026.72 224.777 8
0 -2 12 1064.64 229.659 32
0 -1 -3 11512.5 338.516 25
0 -1 -2 4884.32 232.125 1
0 -1 -1 263345 6055.62 1
0 -1 0 13567.2 502.498 1
0 -1 2 58097.8 1543.9 1
0 -1 2 61250.7 1632.19 28
0 -1 3 13505.2 634.961 26
0 -1 3 13243.1 625.638 28
0 -1 4 400857 9361.14 28
0 -1 4 392516 9342.18 26
0 -1 5 58346.8 1932.57 28
0 -1 6 58106.4 2053.83 28
0 -1 7 25617.9 1296.59 28
0 -1 7 22085.2 1223.8 24
0 -1 7 22514.1 1252.88 9
0 -1 7 21779.1 1322.34 29
0 -1 7 20385.3 1264.97 32
0 -1 7 22486.3 1302.66 17
0 -1 7 22462.5 1262.43 30
0 -1 8 14792.6 1038.37 24
0 -1 8 14090.9 1132.48 23
0 -1 8 13635 1014.5 9
0 -1 8 15839.1 1141.54 17
0 -1 8 16638.9 1182.49 32
0 -1 8 14842.7 1060.52 28
0 -1 8 16388.7 1191.68 29
0 -1 9 77232.6 2836.32 24
0 -1 9 77469.2 2908.82 31
0 -1 9 69440.2 2757.49 10
0 -1 9 76249.9 3036.77 23
0 -1 9 77564 3054.9 32
0 -1 10 62297.6 2360.83 24
0 -1 10 60263.2 2505.91 23
0 -1 10 56870.5 2307.17 11
0 -1 10 59512.2 2547.26 32
0 -1 10 58180.7 2379.1 31
0 -1 11 41.445 132.93 32
0 -1 11 321.813 178.704 8
0 -1 12 5788.75 509.722 32
0 0 1 115095 2664.5 28
0 0 2 301918 6821.56 28
0 0 2 293409 6766.19 26
0 0 3 91041.3 2368.91 28
0 0 3 89745.6 2311.64 26
0 0 4 202235 5062.49 28
0 0 4 208686 5011.19 26
0 0 5 32252.2 1261.56 28
0 0 5 31928.6 1191.17 26
0 0 6 7762.9 641.497 30
0 0 6 8467.32 772.112 29
0 0 6 9692.98 687.838 28
0 0 6 8552.39 592.252 26
0 0 7 19200.6 1181.37 24
0 0 7 18274.7 1107.86 28
0 0 7 19738.3 1132.47 9
0 0 7 20452.1 1318.6 29
0 0 7 18959.4 1253.09 13
0 0 8 56153.2 2319.56 24
0 0 8 53896.5 2241.48 31
0 0 8 50537.7 2110.39 10
0 0 9 76678.1 2892.31 24
0 0 9 69861.1 2670.72 10
0 0 9 78157.4 3000.11 23
0 0 9 81311.8 2904.92 31
0 0 9 73922.6 2734.22 11
0 0 10 1032.12 283.866 24
0 0 10 1220.15 313.193 23
0 0 10 671.576 332.409 31
0 0 11 174.043 257.674 31
0 0 11 684.62 196.635 24
0 0 12 5024.21 438.214 32
0 1 -4 348170 7763.34 35
0 1 -3 13385.4 463.143 36
0 1 -2 59779.3 1556.2 36
0 1 -1 630021 14160.8 36
0 1 1 287070 6365.65 10
0 1 1 272604 6473.52 36
0 1 2 4656.91 250.047 10
0 1 2 4471.31 232.469 36
0 1 3 10613.1 321.251 35
0 1 3 12787.6 558.932 28
0 1 4 160685 4161.56 28
0 1 4 164934 4056.78 26
0 1 5 186663 4917.72 10
0 1 5 199204 4866.8 26
0 1 6 6369.43 628.621 24
0 1 6 6225.25 622.554 22
0 1 6 5439.09 605.449 17
0 1 6 6695.76 662.03 32
0 1 6 6424.85 696.492 29
0 1 6 6605.96 587.635 31
0 1 6 5788.47 646.239 13
0 1 6 5803.13 471.498 26
0 1 6 6434.54 538.633 10
0 1 7 21222.1 1321.26 24
0 1 7 19704.6 1122.72 11
0 1 7 21656.9 1337.4 22
0 1 7 20994.2 1330.11 32
0 1 7 24227.2 1282.89 31
0 1 7 22040.8 1360.05 17
0 1 7 19996.5 1109.13 10
0 1 7 20971.1 1366.62 13
0 1 8 127010 3994.15 24
0 1 8 110349 3536.03 11
0 1 8 105676 3468.55 10
0 1 8 117731 4015.19 17
0 1 8 117225 3724.44 31
0 1 8 109227 3934.83 32
0 1 9 21626.6 1438.85 17
0 1 9 22048.1 1377.55 24
0 1 9 19024.4 1267.06 23
0 1 9 21248 1259.49 31
0 1 10 873.381 268.547 24
0 1 10 826.116 352.294 31
0 1 11 9259.09 626.253 24
0 2 -4 68088.8 1896.77 36
0 2 -3 16437.7 701.681 36
0 2 -2 199274 4890.49 36
0 2 -1 918147 20778.7 36
0 2 1 289305 6911.14 36
0 2 2 11284.6 554.107 36
0 2 3 18397.7 677.244 36
0 2 3 17214.9 688.418 10
0 2 4 244600 5932.09 10
0 2 5 10775.6 800.065 32
0 2 5 10212.3 771.062 22
0 2 5 9853.89 612.394 10
0 2 5 10524.7 796.461 27
0 2 5 11839.5 647.393 26
0 2 6 16194.8 886.869 10
0 2 6 16872 1121.27 22
0 2 6 16166.8 1100.61 32
0 2 6 16842.4 1130.04 27
0 2 6 17170.5 1185.56 13
0 2 6 16771.4 1131.48 17
0 2 6 16510.3 996.854 31
0 2 7 110380 3750.97 24
0 2 7 107121 3731.42 22
0 2 7 110849 3758.01 32
0 2 7 105816 3758.55 17
0 2 7 104386 3428.01 31
0 2 7 109255 3810.14 13
0 2 8 38778.5 1956.34 24
0 2 8 37937.8 1965.27 22
0 2 8 35787.2 1684.17 31
0 2 8 38646.6 1977.62 32
0 2 8 35851.9 1940.59 17
0 2 9 5980.61 686.417 24
0 2 9 4338.13 622.319 17
0 2 9 4252.71 640.519 32
0 2 10 8053.68 690.283 24
0 2 10 8666.97 770.68 32
0 2 11 3641.59 403.866 32
0 2 11 2495.12 273.349 24
0 3 -5 207450 5204.83 36
0 3 -4 254197 6295.65 36
0 3 -3 140810 3789.77 36
0 3 -2 436185 10390.2 36
0 3 -1 4835.63 439.868 36
0 3 0 19214.3 953.005 36
0 3 1 40035.1 1508.6 36
0 3 2 40369.6 1480.68 36
0 3 3 471312 11021.7 36
0 3 4 21744.4 1147.63 32
0 3 4 19891.2 1152.09 21
0 3 5 19535.9 1042.78 31
0 3 5 22083.7 1248.91 32
0 3 5 19051.7 1183.08 17
0 3 5 19274.4 1217 27
0 3 5 19041.9 925.04 26
0 3 5 19773.5 1117.32 5
0 3 6 139445 4142.66 31
0 3 6 145337 4579.24 17
0 3 6 145842 4594.26 27
0 3 6 138772 4482.38 13
0 3 6 148868 4545.24 32
0 3 7 54165.7 2394.52 32
0 3 7 52686.1 2393.48 24
0 3 7 51499.3 2375.51 22
0 3 7 54017.9 2423.71 17
0 3 8 11802.3 1014 24
0 3 8 12681.7 1057.76 22
0 3 8 12774.8 1062.32 32
0 3 8 10474.4 972.196 17
0 3 9 8124.74 751.011 24
0 3 9 8717.79 816.03 32
0 3 9 7064.98 726.774 17
0 3 10 2350.99 335.766 24
0 3 10 2323.46 388.991 32
0 4 -5 87518.3 2732.81 36
0 4 -4 16021.3 917.594 36
0 4 -3 4986.78 503.585 36
0 4 -2 3395.1 423.628 36
0 4 0 81714.5 2715.45 36
0 4 1 74214.2 2533.54 36
0 4 2 437778 10680 36
0 4 3 194622 5082.72 36
0 4 3 200866 5321.89 32
0 4 4 4501.75 590.779 21
0 4 4 5806.75 623.522 32
0 4 4 4369.44 504.575 5
0 4 5 70371 2743.86 17
0 4 5 71711 2818.5 27
0 4 5 73073 2736.64 32
0 4 5 69006.1 2732.46 22
0 4 5 66939.7 2521.77 5
0 4 6 23705.4 1487.09 22
0 4 6 23508.9 1465.22 32
0 4 6 20866.8 1406.17 17
0 4 6 22677.9 1475.34 27
0 4 7 17041.3 1242.67 24
0 4 7 15817.8 1203.82 17
0 4 7 17168.3 1241.02 32
0 4 8 5836.76 713.271 32
0 4 8 4737.41 606.674 17
0 4 8 5153.62 648.432 24
0 4 9 358.896 177.014 24
0 4 10 1475.5 196.418 24
0 5 -5 142505 4178.01 36
0 5 -5 137393 4205.01 37
0 5 -4 23903.7 1288.88 36
0 5 -4 22610.1 1297.75 37
0 5 -3 371.579 173.59 37
0 5 -3 511.389 208.025 36
0 5 -2 197449 5563.78 36
0 5 -2 192830 5573.67 37
0 5 -1 65086.5 2566.48 37
0 5 0 42037.1 1962.26 37
0 5 0 43892.1 1941.74 36
0 5 1 173834 5211.89 37
0 5 1 177522 5150.2 36
0 5 2 153413 4580.16 36
0 5 2 155739 4690.43 21
0 5 2 154279 4658.94 37
0 5 3 23799.9 1277.97 5
0 5 3 22426.9 1414 21
0 5 3 22872.6 1389.91 27
0 5 4 40840.1 1997.75 22
0 5 4 42902.9 1978.9 32
0 5 4 41170.6 2044.41 27
0 5 4 41093.7 1824.16 5
0 5 5 22220.6 1393.01 17
0 5 5 21004.4 1410.73 22
0 5 5 23576.8 1433.97 32
0 5 5 21416.2 1250.01 5
0 5 6 1518.19 372.484 17
0 5 6 1873.76 431.954 22
0 5 7 31242.7 1657.68 24
0 5 7 28904.6 1619.97 22
0 5 7 28872.3 1509.52 17
0 5 8 492.054 208.958 24
0 5 9 992.78 184.956 24
0 6 -6 66805.5 2584.74 37
0 6 -5 32578.7 1664.9 36
0 6 -5 31978.3 1687.43 37
0 6 -4 11405.4 966.661 37
0 6 -4 10349.7 897.282 36
0 6 -3 302546 8233.36 37
0 6 -3 298774 8157.3 36
0 6 -2 55440.5 2478.85 37
0 6 -2 58345.1 2476.77 36
0 6 -1 39145.1 2012.33 37
0 6 -1 36106.9 1879.38 36
0 6 0 185467 5419.89 21
0 6 0 202575 5836.59 36
0 6 0 191321 5865.85 37
0 6 1 123101 4027.31 21
0 6 1 123590 4125.77 36
0 6 1 122937 4203.29 37
0 6 2 10282.4 916.193 37
0 6 2 9713.1 933.499 21
0 6 3 37972.4 1768.11 5
0 6 3 34741.6 1908.24 27
0 6 4 22804.9 1451.46 22
0 6 4 20964.5 1438.66 27
0 6 4 20275.4 1217.44 5
0 6 5 5368.43 687.095 22
0 6 5 6332.93 753.143 27
0 6 6 51434 2240.06 22
0 6 7 1685.52 333.086 22
0 6 8 3390.91 334.708 24
0 7 -7 72464.1 2667.69 37
0 7 -6 27747.5 1575.6 37
0 7 -5 15297.7 1183.6 37
0 7 -4 171682 5372.39 37
0 7 -4 165977 5282.35 36
0 7 -3 104290 3832.94 36
0 7 -3 112113 3976.62 37
0 7 -1 60901.3 2725.59 36
0 7 -1 63444.9 2843.75 37
0 7 0 64973.6 2569.61 21
0 7 0 65678.1 2882.03 37
0 7 1 7924.84 827.43 21
0 7 1 8300.23 889.12 37
0 7 2 10868 902.53 5
0 7 2 10960.9 937.989 37
0 7 2 11123.6 1001.89 27
0 7 3 7107.28 786.753 22
0 7 3 6928.04 790.364 27
0 7 4 1234.42 355.167 22
0 7 4 1339.96 351.86 27
0 7 5 22702.6 1314.24 24
0 7 5 24523.2 1364.43 22
0 7 6 13622.2 853.709 24
0 7 6 12957.7 856.378 22
0 8 -7 4313.83 533.524 37
0 8 -6 19642.5 1286.63 37
0 8 -5 31055.5 1757.63 37
0 8 -4 121020 4245.32 37
0 8 -3 4158.21 660.924 37
0 8 -1 22872.1 1553.53 37
0 8 0 284.099 228.44 37
0 8 0 181.348 164.907 27
0 8 1 40213.3 1850.15 5
0 8 1 41123.7 1940.12 27
0 8 1 42805.8 2004.68 37
0 8 2 7211.82 757.568 22
0 8 2 9624.71 847.445 27
0 8 3 2989.82 456.304 22
0 8 3 2148.89 395.697 27
0 8 4 23372 1179.21 24
0 8 4 22004.7 1184.28 22
0 8 5 47040.3 1654.96 22
0 9 -7 363.411 172.338 37
0 9 -6 19928.8 1196.15 37
0 9 -5 46629.9 2080.37 37
0 9 -4 847.559 308.666 37
0 9 -3 25958.1 1538.26 37
0 9 -2 10583.4 946.235 37
0 9 -1 522.577 257.745 37
0 9 0 51327.6 2002.86 22
0 9 1 13424.2 871.299 22
0 9 2 14664.4 848.409 22
0 9 3 25437.3 1027.99 22
0 10 -6 15213.5 830.568 37
0 10 -5 2196.15 345.443 37
0 10 -4 15965.5 969.92 37
0 10 -2 498.618 185.354 37
1 -11 3 9596.42 605.38 4
1 -10 0 11443 794.541 4
1 -10 1 3465.53 486.51 4
1 -10 2 22361 1296.42 4
1 -10 3 22870.1 1318.98 4
1 -10 5 47371.3 1897.49 4
1 -10 6 24697 1231.41 33
1 -10 7 692.33 202.115 33
1 -10 8 13395.4 716.132 33
1 -10 8 15677.3 733.653 18
1 -9 -1 39205.7 1826.35 4
1 -9 0 1657.02 413.143 4
1 -9 1 61419 2692.8 4
1 -9 2 22101.8 1296 38
1 -9 2 22364.6 1497.8 4
1 -9 3 4956.14 688.709 4
1 -9 4 22855.5 1467.91 4
1 -9 5 18000.1 1213.53 4
1 -9 6 7296.93 691.396 4
1 -9 7 10640.9 883.537 33
1 -9 8 20584.7 1157.1 33
1 -9 9 8220.24 619.32 33
1 -9 10 8697.86 468.974 18
1 -8 -6 418.806 142.521 3
1 -8 -2 41186.6 1914.27 4
1 -8 -1 4723.5 658.545 25
1 -8 -1 6104.58 754.334 4
1 -8 0 88498.8 3467.63 25
1 -8 0 96324.1 3626.91 4
1 -8 1 87879.6 3475.68 4
1 -8 1 82905.3 3337.59 25
1 -8 2 14394.7 1237 4
1 -8 3 93456 3217.16 38
1 -8 4 79169.4 2700.36 38
1 -8 4 77630.1 3084.61 4
1 -8 4 68204.8 2639.26 28
1 -8 4 73376.3 2961.26 25
1 -8 5 892.024 318.451 4
1 -8 5 680.478 231.18 28
1 -8 5 903.878 285.991 25
1 -8 6 26027.9 1333.5 9
1 -8 6 27240.4 1496.68 4
1 -8 7 44553.6 1838.56 9
1 -8 7 43425.6 1911.79 30
1 -8 8 2662.97 419.995 30
1 -8 8 3317.16 523.515 33
1 -8 8 2448.5 388.156 9
1 -8 9 17649.8 962.003 9
1 -8 9 20016.7 1156.05 33
1 -8 9 18043.1 1046.85 18
1 -8 9 17242.7 996.036 30
1 -8 10 13841.8 766.62 18
1 -8 10 13775.9 760.142 30
1 -7 -2 3140.43 504.719 25
1 -7 -2 3504.53 539.146 4
1 -7 -1 105798 3771.56 4
1 -7 -1 103328 3681.13 25
1 -7 0 119649 4202.98 4
1 -7 1 21059.3 1470.53 4
1 -7 2 83518.8 2847.22 28
1 -7 2 86700.7 3350.84 4
1 -7 3 80548 3173.62 4
1 -7 3 78531.4 2786.66 28
1 -7 4 3267.11 445.299 38
1 -7 4 2848.7 538.036 4
1 -7 4 3600.51 494.58 28
1 -7 5 18879.4 1233.04 25
1 -7 5 17815.1 1240.82 4
1 -7 5 17918.9 1175.99 28
1 -7 5 17853.3 1118.46 34
1 -7 5 18435.2 1129.24 9
1 -7 6 37769.8 1841.44 28
1 -7 6 39071.3 1831.22 4
1 -7 6 39134.5 1823.41 34
1 -7 6 38599.4 1795.17 9
1 -7 6 35828.1 1732.59 25
1 -7 7 4210.37 580.281 28
1 -7 7 5593.84 645.436 9
1 -7 8 55543.9 2179.75 8
1 -7 8 58806.8 2338.92 9
1 -7 8 54934.7 2313.86 30
1 -7 8 57295 2515.45 33
1 -7 9 12587.8 915.319 9
1 -7 9 12679.6 924.552 18
1 -7 9 12246.4 854.956 8
1 -7 9 12050.2 910.06 30
1 -7 10 908.036 243.602 9
1 -7 10 736.161 211.839 18
1 -7 10 994.872 226.435 8
1 -7 10 580.333 199.99 30
1 -7 11 15387.3 782.531 31
1 -7 11 14039 682.317 8
1 -6 -2 168726 4966.8 4
1 -6 -2 162900 4856.06 25
1 -6 -1 129595 4198.81 4
1 -6 0 1993.84 423.187 4
1 -6 1 11503.7 977.184 4
1 -6 3 60606 2540.72 4
1 -6 3 65810.4 2346.89 28
1 -6 4 128646 3881.95 34
1 -6 4 128225 3929.18 28
1 -6 4 128198 4129.14 4
1 -6 5 50488.7 2075.46 34
1 -6 5 44707 2013.56 4
1 -6 5 46950.1 2017.97 28
1 -6 6 3358.32 474.269 4
1 -6 6 4652.86 605.028 34
1 -6 6 3588.44 522.902 28
1 -6 6 3211.02 495.434 9
1 -6 6 3832.58 482.564 25
1 -6 6 4067.93 535.696 8
1 -6 7 159750 4896.66 9
1 -6 7 164119 4966.09 34
1 -6 7 157877 4803.66 8
1 -6 7 153713 4856.61 28
1 -6 8 31753.8 1696.34 9
1 -6 8 31612.7 1664.06 8
1 -6 8 32044.8 1714.7 30
1 -6 8 31190.4 1688.47 28
1 -6 9 16141.4 1181 33
1 -6 9 14250.2 1065.55 9
1 -6 9 16748.8 1106.73 18
1 -6 9 14750.9 1066.83 8
1 -6 9 14860 1091.06 30
1 -6 10 934.176 259.44 9
1 -6 10 1084.73 274.113 18
1 -6 10 1210.86 308.523 8
1 -6 11 17510 941.602 8
1 -6 12 14.9836 70.3307 11
1 -6 12 14.8735 67.4464 31
1 -6 12 -13.9147 63.0988 8
1 -5 -3 98500.5 3009.19 25
1 -5 0 8205.78 721.906 1
1 -5 1 49292.6 2018.27 1
1 -5 3 150563 4479.1 1
1 -5 3 156007 4304.37 28
1 -5 4 78494.6 2647.35 28
1 -5 5 8144.71 741.285 34
1 -5 5 7529.01 689.54 28
1 -5 6 144551 4085.57 25
1 -5 6 150398 4531.24 9
1 -5 6 148661 4581.73 34
1 -5 6 146210 4472.82 28
1 -5 7 54903.2 2350.3 30
1 -5 7 57709.4 2404.42 9
1 -5 7 55149.4 2401.11 34
1 -5 7 57232.7 2516.39 33
1 -5 7 52852.6 2306.18 28
1 -5 8 797.429 302.785 34
1 -5 8 1068.47 320.961 9
1 -5 8 611.447 278.398 33
1 -5 8 997.596 302.842 28
1 -5 9 1384.77 344.15 32
1 -5 9 2102.05 438.775 9
1 -5 9 1763.56 411.095 33
1 -5 9 1335.45 327.89 18
1 -5 10 52576.8 2128.44 32
1 -5 10 54350.2 2266.58 8
1 -5 10 56003.7 2276.44 9
1 -5 11 2146.93 354.712 31
1 -5 11 1444.99 307.193 8
1 -5 12 23028.8 973.507 11
1 -5 12 23172.1 971.811 31
1 -4 -3 146029 3883.1 25
1 -4 -1 72247.8 2343.33 1
1 -4 0 75740.8 2443.06 1
1 -4 1 217741 5696.99 1
1 -4 2 455293 10982.2 1
1 -4 3 723109 16782 28
1 -4 4 3178.89 396.265 28
1 -4 5 59831.2 2280.31 34
1 -4 5 56464.1 1908.09 25
1 -4 6 180701 5332.83 34
1 -4 6 178632 5018.03 29
1 -4 6 185578 5254.06 9
1 -4 7 2589.57 492.343 23
1 -4 7 4199.82 596.453 33
1 -4 7 3418.87 545.986 34
1 -4 7 2921.53 443.074 29
1 -4 8 8015.88 816.948 9
1 -4 8 7137.61 801.902 33
1 -4 8 7533.54 741.668 18
1 -4 8 6067.62 655.852 29
1 -4 8 5341.71 675.829 30
1 -4 8 5611.8 673.398 28
1 -4 9 24588 1451.9 32
1 -4 9 22964.3 1311.67 18
1 -4 9 25214.7 1503.21 30
1 -4 9 21679.4 1272.13 29
1 -4 9 24025.8 1474.17 28
1 -4 10 482.691 261.641 8
1 -4 10 85.1303 126.41 32
1 -4 11 36535.4 1627.39 11
1 -4 11 41151.1 1713.84 31
1 -4 12 1900.34 255.079 11
1 -4 12 1656.89 269.026 31
1 -3 -3 14014.8 633.622 25
1 -3 0 10532 597.693 1
1 -3 2 455767 10625.8 1
1 -3 2 450088 10539.7 28
1 -3 3 51821.4 1711.26 28
1 -3 4 37005.6 1252.49 25
1 -3 5 427766 9918.96 25
1 -3 6 345.809 222.341 23
1 -3 6 41.7516 134.007 34
1 -3 6 307.595 168.117 9
1 -3 6 147.44 134.148 29
1 -3 6 457.954 225.723 33
1 -3 7 35298.6 1807.3 23
1 -3 7 33315.1 1744.71 34
1 -3 7 32857.6 1692.16 30
1 -3 7 34510.3 1683.63 29
1 -3 7 30558.4 1596.67 28
1 -3 7 33073.4 1587.75 18
1 -3 7 35221.2 1783.11 33
1 -3 7 35933.2 1698.6 13
1 -3 7 33749.8 1568.07 12
1 -3 7 35966.4 1669.99 24
1 -3 8 11169.7 1015.94 23
1 -3 8 13041.8 1064.17 34
1 -3 8 11503 901.29 18
1 -3 8 12381 1011.74 32
1 -3 8 13902.3 1078.14 30
1 -3 8 12123.3 981.254 29
1 -3 8 11286.7 970.58 28
1 -3 9 424.403 231.936 23
1 -3 9 756.204 273.343 32
1 -3 9 734.148 235.524 18
1 -3 9 51.3964 176.34 9
1 -3 9 141.036 171.091 29
1 -3 9 622.753 251.692 28
1 -3 10 32721.2 1730.43 8
1 -3 10 33940.6 1717.37 31
1 -3 10 31859.8 1657.11 32
1 -3 11 12876.9 867.634 11
1 -3 11 14030.7 930.82 8
1 -3 11 12605.4 851.359 32
1 -3 11 12701.1 873.502 31
1 -3 12 2535.98 293.966 8
1 -3 12 1305.99 262.965 31
1 -2 -4 67380.5 1714.99 25
1 -2 -3 150285 3615.47 25
1 -2 -2 66431.4 1761.19 25
1 -2 1 908989 20355.5 28
1 -2 2 43172 1321.28 28
1 -2 3 28085.6 904.446 25
1 -2 4 187950 4995.4 28
1 -2 4 198848 4598.42 25
1 -2 5 9594.9 680.462 28
1 -2 6 173114 4885.98 30
1 -2 6 169828 4877.41 9
1 -2 6 169023 4794.56 28
1 -2 6 172175 4993.23 34
1 -2 6 175950 5022.83 29
1 -2 6 171378 4935.3 33
1 -2 6 167694 4890.06 13
1 -2 7 102092 3355.1 24
1 -2 7 99693.3 3464.93 23
1 -2 7 97362.1 3369.62 9
1 -2 7 100624 3380.31 30
1 -2 7 100995 3436.64 34
1 -2 7 93879.2 3118.42 18
1 -2 7 97490.2 3358.27 32
1 -2 7 97467 3331.79 17
1 -2 7 98822.7 3453.19 29
1 -2 7 99775.5 3345.65 28
1 -2 7 96689.1 3384.36 13
1 -2 7 95720.8 3300.1 12
1 -2 8 1438.57 357.075 24
1 -2 8 2270.49 447.713 23
1 -2 8 1250.32 285.626 18
1 -2 8 1052.86 317.278 32
1 -2 8 1502.88 358.762 17
1 -2 8 1516.68 371.617 9
1 -2 8 1454.2 373.691 29
1 -2 8 1527.14 354.597 28
1 -2 8 1282.07 358.407 13
1 -2 9 76122.5 2871.18 24
1 -2 9 77039.6 2949.1 23
1 -2 9 75756.1 2938.93 31
1 -2 9 76188.4 2964.17 32
1 -2 9 79015.6 3002.07 29
1 -2 9 66634.3 2790.89 10
1 -2 10 43804.4 1979.7 11
1 -2 10 48064.7 2106.65 8
1 -2 10 48664.8 2113.59 32
1 -2 10 43364.7 1997.18 31
1 -2 11 1953.45 323.189 11
1 -2 11 1441.96 298.307 31
1 -2 11 1726.24 313.242 32
1 -2 11 2027.08 346.589 8
1 -1 -2 62609 1568.49 25
1 -1 -1 467343 10513.6 25
1 -1 0 571232 12437.7 28
1 -1 0 534104 12546.2 25
1 -1 1 115671 2754.07 25
1 -1 2 4482.99 224.914 25
1 -1 3 5582.59 377.066 28
1 -1 3 4859.75 223.894 25
1 -1 4 83320.4 2441.97 28
1 -1 5 271259 6860.89 28
1 -1 6 84160.3 2873.09 24
1 -1 6 79255.8 2822.63 34
1 -1 6 83285.2 2832.27 17
1 -1 6 85924 2853.63 30
1 -1 6 82480.4 2843.15 32
1 -1 6 80360.8 2778.74 9
1 -1 6 85776.8 3041.7 29
1 -1 6 84901 2823.09 28
1 -1 6 83459.2 2927.56 12
1 -1 7 16025.5 1123.79 24
1 -1 7 15876.1 1130.08 23
1 -1 7 14416.2 1045.54 34
1 -1 7 16239.1 1141.93 32
1 -1 7 16001.3 1124.85 17
1 -1 7 16797.6 1214.54 29
1 -1 7 16475.9 1103.26 28
1 -1 7 17623.1 1205.95 13
1 -1 7 16386.2 1079.61 10
1 -1 7 15285.8 1128.91 12
1 -1 8 42121.7 1983.53 24
1 -1 8 38852.8 1933.39 23
1 -1 8 40656.1 2004.15 32
1 -1 8 37989.5 1951.55 17
1 -1 8 39579.9 1931.27 31
1 -1 8 39528.9 2048.6 29
1 -1 8 40573 2026.64 13
1 -1 8 37195.8 1843.81 10
1 -1 9 42582.9 2015.94 24
1 -1 9 46239.7 2041.1 23
1 -1 9 40870.7 1951.73 11
1 -1 9 40130.7 1922.21 10
1 -1 9 41107.1 2054.84 32
1 -1 9 43977.3 2120.76 17
1 -1 9 43006.6 2021.78 31
1 -1 10 203.319 163.564 24
1 -1 10 377.692 214.786 11
1 -1 10 277.667 166.643 8
1 -1 10 492.639 223.873 32
1 -1 10 124.19 194.403 31
1 -1 11 553.447 253.877 31
1 -1 11 662.976 239.872 32
1 0 -3 116528 2796.81 35
1 0 -2 357480 8122.89 35
1 0 -1 308815 7045.62 35
1 0 1 134102 3292.78 10
1 0 1 141521 3251.49 35
1 0 2 207024 4348.65 35
1 0 2 209177 4574.67 28
1 0 3 70815.5 1957.91 28
1 0 3 63858.9 1640.32 26
1 0 4 215256 5157.95 28
1 0 4 194466 4718.39 26
1 0 5 162450 4353.73 10
1 0 5 154153 4682.19 29
1 0 6 39418.1 1806.28 24
1 0 6 40521.5 1729.35 22
1 0 6 38127 1642.36 10
1 0 6 39987.5 1791.76 32
1 0 6 38034.4 1715.74 31
1 0 6 37120.8 1878.54 29
1 0 6 37765.5 1818.74 13
1 0 6 37889.7 1866 12
1 0 7 9681.9 878.882 24
1 0 7 8887.98 830.055 23
1 0 7 9367.68 796.697 11
1 0 7 8988.03 823.244 22
1 0 7 9946.06 959.901 29
1 0 7 8588.1 834.347 32
1 0 7 9190.79 823.925 31
1 0 7 9188.14 780.729 10
1 0 7 8162.37 857.305 13
1 0 8 114831 3922.1 24
1 0 8 112046 3711.04 11
1 0 8 113510 3772.87 23
1 0 8 103794 3617.01 10
1 0 8 117050 3976.07 32
1 0 8 114313 3826.38 31
1 0 8 120321 4078.85 13
1 0 9 8015.87 816.794 24
1 0 9 8350.69 753.094 11
1 0 9 7598.99 728.328 8
1 0 9 8090.82 840.329 32
1 0 9 8116.72 808.924 31
1 0 10 1428.56 325.13 24
1 0 10 823.609 324.386 32
1 0 10 1107.54 346.778 31
1 0 11 6337.52 536.295 32
1 1 -5 347973 8000.93 35
1 1 -4 306468 7183.33 35
1 1 2 7836.79 433.795 10
1 1 2 8359.66 403.854 35
1 1 3 206572 5257.93 10
1 1 3 221616 4984.37 35
1 1 3 212036 4990.01 26
1 1 4 343470 8050.01 10
1 1 4 327250 7635.91 26
1 1 5 32838.8 1561.24 24
1 1 5 31448.5 1346.4 10
1 1 5 34556.8 1549.49 32
1 1 5 34130.6 1466.11 31
1 1 5 30814.3 1624.04 29
1 1 5 31597.5 1566.44 13
1 1 5 31036.3 1629.67 12
1 1 6 17191.7 1163.21 24
1 1 6 15129.8 977.516 11
1 1 6 16713.2 1093.38 22
1 1 6 17229.6 1010.22 10
1 1 6 16677.5 1129.4 32
1 1 6 16777.9 1135.67 17
1 1 6 17163.1 1081.14 31
1 1 6 14727.7 1167.31 29
1 1 6 16818.7 1186.79 13
1 1 6 15944.4 1215.23 12
1 1 7 105606 3759.98 24
1 1 7 100374 3416.51 11
1 1 7 111509 3715.72 22
1 1 7 99571.1 3378.35 10
1 1 7 107070 3740.76 32
1 1 7 108909 3612.21 31
1 1 7 106334 3838.24 13
1 1 8 11707.9 1026.64 24
1 1 8 9726.95 803.695 11
1 1 8 9140.02 920.35 32
1 1 8 9506.16 943.638 17
1 1 8 10616.8 913.128 31
1 1 8 11146.1 1011.14 13
1 1 9 12010.1 982.511 24
1 1 9 12616.8 1048.99 17
1 1 9 13494.2 964.415 31
1 1 9 12818.3 1021.49 32
1 1 10 5526.91 562.928 24
1 1 10 6234.53 623.194 32
1 1 11 1121.65 229.196 32
1 2 -5 156494 4089.28 35
1 2 -3 2818.28 301.308 36
1 2 -2 172195 4419.43 36
1 2 0 480978 11245.5 36
1 2 3 753809 17082.9 35
1 2 4 56668.8 1947.38 31
1 2 4 47476.9 2025.65 29
1 2 5 19066.4 1038.09 11
1 2 5 22153.2 1235.61 22
1 2 5 20065 1133.4 31
1 2 5 21267 1238.59 21
1 2 5 19086.7 1265.1 29
1 2 5 19187.7 1242.11 13
1 2 5 20519 1340.96 12
1 2 6 50861.6 1981.7 11
1 2 6 50284.3 2295.94 24
1 2 6 52666.1 2258.86 22
1 2 6 52764.5 2309.58 17
1 2 6 51679.5 2118.44 31
1 2 6 52412.3 2350.24 13
1 2 7 30972.8 1756.54 24
1 2 7 29397.3 1666.66 22
1 2 7 32088 1614.69 31
1 2 7 27249.4 1661.03 13
1 2 7 31718.2 1767.98 17
1 2 8 32276 1759.3 24
1 2 8 30142.8 1673.2 22
1 2 8 32515.1 1790.38 17
1 2 8 33623.6 1610.6 31
1 2 9 10152.1 843.019 24
1 2 9 9817.37 847.82 17
1 2 9 8808.94 799.926 32
1 2 10 571.428 178.912 24
1 2 10 1513.41 330.184 32
1 3 -6 29012.6 1275.78 35
1 3 -4 100198 2988.56 36
1 3 -3 206939 5420.52 36
1 3 -2 142255 3986.95 36
1 3 0 71934.8 2358.05 36
1 3 3 42210.1 1780.96 21
1 3 3 41350.3 1474.84 35
1 3 3 40046.3 1774.41 27
1 3 4 81498.8 2706.11 31
1 3 4 80581.7 2968.72 27
1 3 5 4525 587.773 22
1 3 5 3295.15 534.144 13
1 3 5 3922.53 573.248 21
1 3 6 1881.89 433.605 17
1 3 6 1521.47 365.24 22
1 3 6 1363.08 358.403 13
1 3 7 19417.3 1358.61 24
1 3 7 19421.4 1308.43 22
1 3 7 20355.9 1377.6 17
1 3 8 28079.8 1535.19 24
1 3 8 25077.8 1436.25 22
1 3 8 26119.7 1497.82 17
1 3 9 842.345 233.034 24
1 3 10 4637.6 347.857 24
1 4 -4 11835.8 843.413 36
1 4 -3 64363.5 2354.83 36
1 4 -2 444993 11025.2 36
1 4 -1 65743.8 2420.86 36
1 4 0 101655 3291.5 36
1 4 2 108479 3571.91 21
1 4 2 112055 3442.49 37
1 4 2 108804 3370.01 16
1 4 2 110278 3548.48 27
1 4 3 23154.4 1291.36 32
1 4 3 19071.7 1170.76 16
1 4 3 19371.5 1268.92 27
1 4 3 19346.6 1261.74 21
1 4 4 24248 1524.4 21
1 4 4 28994.8 1568.87 32
1 4 4 26847.3 1598.74 27
1 4 5 5895.16 762.789 32
1 4 5 5569.28 708.854 17
1 4 6 7233.09 789.688 22
1 4 6 5742.63 768.893 32
1 4 6 6227.76 748.254 17
1 4 7 49447.1 2152.92 22
1 4 7 46454.6 2117.61 17
1 4 8 1293.62 300.428 24
1 4 8 1778.88 329.65 17
1 4 9 4664.47 398.556 24
1 5 -6 195529 5604.04 37
1 5 -5 631.037 221.129 7
1 5 -5 494.305 237.721 37
1 5 -4 32090.1 1660.5 37
1 5 -4 28864.5 1453.43 7
1 5 -3 459970 11888.4 37
1 5 -3 475296 11815.5 36
1 5 -1 51843.4 2332.88 37
1 5 -1 51262.6 2251.02 36
1 5 0 43375.1 2086.27 37
1 5 1 140327 4455.9 21
1 5 1 137199 4122 16
1 5 1 147054 4414.27 27
1 5 1 144432 4533.97 37
1 5 2 29834.4 1524.37 37
1 5 2 27507.7 1516.91 35
1 5 2 26950.2 1587.88 21
1 5 2 27124.9 1433.68 16
1 5 2 30431.5 1639.32 27
1 5 3 81505.8 3273.24 21
1 5 3 91826.4 3375.71 27
1 5 4 478.871 232.733 22
1 5 4 352.261 225.244 21
1 5 4 627.655 276.805 27
1 5 5 16557.3 1246.96 24
1 5 5 14950.3 1130.47 17
1 5 6 76888.3 2837.63 24
1 5 6 65116.3 2583.38 17
1 5 7 5441.36 584.056 24
1 5 7 4593.24 528.497 22
1 5 7 4509.46 486.279 17
1 6 -7 149739 4574.32 37
1 6 -6 13306.4 1055.27 37
1 6 -5 13159.9 1088.03 37
1 6 -4 106867 3840.1 37
1 6 -3 127618 4404.91 37
1 6 -1 13758.7 1182.9 37
1 6 -1 13550.8 1014.64 21
1 6 0 2095.69 474.991 37
1 6 0 1872.12 415.632 21
1 6 0 1643.85 363.447 27
1 6 1 8497.35 873.152 37
1 6 1 9057.37 900.077 21
1 6 1 9321.8 877.431 27
1 6 1 8200.21 892.025 35
1 6 2 58914.1 2604.38 21
1 6 2 55808.3 2293.02 37
1 6 2 55617 2469.27 27
1 6 3 3638.27 605.509 21
1 6 3 4245.96 624.932 27
1 6 4 12173.5 1026.4 22
1 6 4 12481.6 943.363 17
1 6 5 77605.3 2835.43 24
1 6 5 74489.8 2800.93 22
1 6 5 74292.2 2552.3 17
1 6 6 15514.9 946.841 24
1 6 7 2928.7 293.477 24
1 7 -7 51257.6 2192.09 37
1 7 -6 22816.1 1525.29 35
1 7 -6 26473.9 1556.49 37
1 7 -5 98286.3 3643.77 37
1 7 -4 76759.5 3187.85 37
1 7 -3 2131.01 488.652 37
1 7 -2 49752.8 2477.93 37
1 7 -1 5817.67 777.156 37
1 7 -1 4397.35 581.914 21
1 7 -1 5051.75 591.786 27
1 7 0 22884.3 1400.94 21
1 7 0 22040.7 1477.06 37
1 7 0 17164.3 1389.08 35
1 7 0 18122.2 1203.16 27
1 7 1 55592.6 2418.4 21
1 7 1 51749.4 2255.7 27
1 7 1 52211.7 2306.49 37
1 7 2 63902.7 2559.49 27
1 7 3 16420.9 1144.87 22
1 7 4 42088.8 1759.28 24
1 7 4 42101.5 1832.44 22
1 7 5 11146.7 749.087 22
1 8 -7 3748.45 503.159 37
1 8 -6 24318.6 1441.84 37
1 8 -5 26823.6 1597.61 37
1 8 -4 224.682 235.872 37
1 8 -2 3954.28 619.578 37
1 8 -1 27025.1 1607.75 37
1 8 0 93976.1 3300.17 37
1 8 2 15444.8 1000.52 22
1 8 3 37753.7 1546.02 22
1 8 4 19226.9 855.063 22
1 9 -7 14978.9 853.046 37
1 9 -6 10247.7 779.218 37
1 9 -5 79.2008 151.779 37
1 9 -4 35003.6 1690.09 37
1 9 -2 13968.6 976.392 37
1 9 0 19474.3 992.91 22
1 9 1 1405.15 232.857 22
1 10 -5 10460.7 624.16 37
1 10 -4 40569.7 1471.27 37
1 10 -3 3812.75 365.335 37
2 -11 5 25993.6 1121.01 33
2 -11 6 2666.84 296.488 33
2 -10 -4 8206.87 519.813 3
2 -10 0 3462.62 512.351 4
2 -10 1 18854.4 1251.76 4
2 -10 2 14009.5 1083.02 4
2 -10 4 30017.5 1556.56 4
2 -10 5 17195.1 1051.61 4
2 -10 6 4263.03 460.413 18
2 -10 7 20909.2 1093.63 33
2 -10 7 21442.4 1025.17 18
2 -10 8 17151 839.509 33
2 -10 8 15371.8 764.243 18
2 -9 -5 14239.2 874.87 3
2 -9 -2 31483.2 1575.93 4
2 -9 -1 206.197 187.48 4
2 -9 0 90864.4 3484.27 4
2 -9 1 49354.4 2419.74 4
2 -9 2 10793.4 1040.92 4
2 -9 4 37513.3 1938.15 4
2 -9 5 3650.49 549.97 4
2 -9 6 12690.2 907.131 4
2 -9 7 21799.7 1316.05 33
2 -9 8 10039.2 740.837 18
2 -9 9 24758.2 1118.44 33
2 -8 -6 21451.3 1179.61 3
2 -8 -2 4016.42 596.915 4
2 -8 -2 3608.03 570.464 25
2 -8 -1 117730 4158.12 4
2 -8 -1 117261 4139.25 25
2 -8 0 35899.9 2024.32 4
2 -8 0 37170.8 2028.89 25
2 -8 1 -62.8663 186.629 4
2 -8 1 121.578 180.463 25
2 -8 2 24024.2 1607.86 4
2 -8 3 36937.7 2018.13 4
2 -8 3 36556.9 1970.91 25
2 -8 4 30419.5 1750.24 4
2 -8 4 28907.9 1687.45 25
2 -8 5 47832.6 2006.74 34
2 -8 5 47744.7 2169.19 4
2 -8 5 43565.4 1912.95 30
2 -8 5 46541.8 2147.97 25
2 -8 6 31487.3 1583.76 4
2 -8 6 31550.2 1596.65 34
2 -8 6 32028.7 1568.99 30
2 -8 7 2557.04 439.84 34
2 -8 7 2146.98 371.321 9
2 -8 7 2129.17 395.67 30
2 -8 8 56653.4 2128.27 9
2 -8 8 63422.3 2457.27 33
2 -8 8 58528.7 2190.95 30
2 -8 9 14279.1 932.302 33
2 -8 9 13531.8 882.258 18
2 -8 10 17.343 81.4236 11
2 -8 10 204.925 116.503 18
2 -7 -7 10108.1 778.586 3
2 -7 -3 3203.8 498.895 4
2 -7 -2 50618.1 2260.4 4
2 -7 -2 48946 2212.59 25
2 -7 -1 127667 4313.19 4
2 -7 -1 129709 4253.97 25
2 -7 0 27764.6 1663.21 4
2 -7 0 28110.9 1619.04 25
2 -7 1 53597.8 2465.59 4
2 -7 1 53478.5 2389.77 25
2 -7 2 54615.8 1994.5 28
2 -7 3 7841.89 838.104 4
2 -7 3 7021.17 641.224 28
2 -7 3 8746.97 859.262 25
2 -7 4 164277 4950.74 4
2 -7 4 148644 4520.33 28
2 -7 4 154203 4649.82 34
2 -7 4 156380 4840.69 25
2 -7 5 34660.8 1638.77 9
2 -7 5 34432 1753.52 34
2 -7 5 32762.9 1644.56 28
2 -7 5 35940.9 1784.09 4
2 -7 5 35776.2 1758.6 25
2 -7 6 17508.5 1114.07 4
2 -7 6 18516.5 1181.82 9
2 -7 6 19908.8 1202.29 8
2 -7 6 17275.9 1226.04 34
2 -7 6 19009.2 1220.48 30
2 -7 6 14417.7 1080.45 28
2 -7 7 25604.9 1447.29 9
2 -7 7 24934.6 1502.86 34
2 -7 7 28698.1 1672.01 33
2 -7 7 25842 1436.8 8
2 -7 7 26023.1 1474.27 30
2 -7 7 21509.9 1355.4 28
2 -7 8 25951.3 1500.77 33
2 -7 8 20255 1257.35 8
2 -7 8 25330 1453.49 18
2 -7 8 22963.4 1346.76 30
2 -7 8 23302.7 1347.64 9
2 -7 8 22455.1 1400.63 34
2 -7 9 41.5743 142.512 33
2 -7 9 36.1238 131.34 8
2 -7 9 -37.6253 144.199 30
2 -7 9 -38.415 139.671 18
2 -7 10 2897.46 364.291 18
2 -7 10 2344.35 340.388 31
2 -7 10 1877.58 305.746 8
2 -7 11 3226.69 305.929 11
2 -7 11 3529.21 310.985 31
2 -6 -8 12499.1 816.716 3
2 -6 -3 3785.35 484.019 25
2 -6 -2 58139.8 2305.23 4
2 -6 -2 56981.7 2264.38 25
2 -6 -1 1575.11 358.518 4
2 -6 -1 2694.06 425.042 25
2 -6 0 24676.9 1420.54 4
2 -6 0 25170.2 1389.25 25
2 -6 1 55475.1 2309.62 4
2 -6 1 52701.4 1803.4 28
2 -6 2 7591.19 776.807 4
2 -6 2 8232.19 616.469 28
2 -6 2 8843.83 779.922 25
2 -6 3 267712 7480.5 4
2 -6 3 273326 7115.91 28
2 -6 3 293145 7433.29 25
2 -6 4 38391.7 1804.02 4
2 -6 4 36705.8 1663.41 28
2 -6 4 39413.7 1781.74 25
2 -6 5 93.2434 149.504 34
2 -6 5 159.185 127.619 4
2 -6 5 84.5158 153.653 8
2 -6 5 163.32 156.492 9
2 -6 5 41.1689 99.8051 28
2 -6 5 38.676 93.7636 25
2 -6 6 50738 2232.16 8
2 -6 6 52638.5 2241.61 9
2 -6 6 51537.9 2228.85 30
2 -6 6 50712.7 2314.54 34
2 -6 6 53289.9 2238.56 28
2 -6 7 106731 3661.09 9
2 -6 7 107130 3806.76 33
2 -6 7 104756 3669.14 8
2 -6 7 106722 3645.7 30
2 -6 7 105262 3749.14 34
2 -6 7 95923.4 3506.82 28
2 -6 8 10901.9 971.44 34
2 -6 8 9473.42 892.95 9
2 -6 8 9380.63 910.119 33
2 -6 8 10098.1 924.787 8
2 -6 8 9570.17 886.477 18
2 -6 8 9398.32 878.307 30
2 -6 9 44504.5 1996.81 33
2 -6 9 41985.8 1892.78 18
2 -6 9 43040.2 1976.01 8
2 -6 10 50163.3 1974.46 8
2 -6 10 48234.6 1932.86 31
2 -6 11 4561.42 421.419 11
2 -6 11 3696.54 389.389 8
2 -5 -8 619.137 215.345 3
2 -5 -4 6939.93 559.863 25
2 -5 -3 98672.2 3028.54 25
2 -5 -2 29993.5 1351.24 25
2 -5 -1 161490 4516.09 25
2 -5 0 396742 9343.89 28
2 -5 0 410979 9912.67 25
2 -5 1 1845.24 240.618 28
2 -5 2 302593 7404.53 28
2 -5 2 303033 7680.56 25
2 -5 3 136545 3978.89 28
2 -5 3 151728 4143.82 25
2 -5 4 27106.8 1327.87 28
2 -5 4 30891.4 1389.5 25
2 -5 5 24277 1325.16 9
2 -5 5 23556.1 1345.95 8
2 -5 5 22102.2 1260.67 30
2 -5 5 21242 1202.28 29
2 -5 5 22574.4 1259.26 28
2 -5 5 24047.3 1174.99 25
2 -5 6 74135.6 2852.17 34
2 -5 6 72274.3 2737.52 9
2 -5 6 65705.9 2633.96 30
2 -5 6 69622 2580.69 29
2 -5 6 71260.9 2786.38 8
2 -5 6 69294.2 2660.51 28
2 -5 7 3721.13 594.156 34
2 -5 7 4024.95 594.211 9
2 -5 7 5011.16 661.951 33
2 -5 7 4498.39 643.682 8
2 -5 7 3856.76 580.285 18
2 -5 7 5778.09 682.266 30
2 -5 7 4450.85 577.565 29
2 -5 7 5423.11 655.802 28
2 -5 8 55925.9 2418.05 33
2 -5 8 55070.7 2232.43 32
2 -5 8 55461.6 2355.36 18
2 -5 8 54806.2 2462.93 8
2 -5 8 52817.5 2371.32 30
2 -5 8 51592.6 2197.33 29
2 -5 8 54505.5 2422.45 9
2 -5 8 54514.7 2393.95 28
2 -5 9 14173.5 997.44 18
2 -5 9 11449.8 997.472 8
2 -5 9 12464.5 905.239 29
2 -5 10 26510.1 1398.2 11
2 -5 10 27567 1444.12 8
2 -5 11 30046.5 1267.8 11
2 -5 11 29220.9 1281.57 8
2 -5 11 28955.2 1251.96 31
2 -4 -8 8042.51 756.097 3
2 -4 -4 21834.9 954.779 25
2 -4 -3 3155.1 337.845 25
2 -4 -2 452950 10745.2 25
2 -4 -1 128867 3129.54 28
2 -4 -1 150928 3716.08 25
2 -4 0 43673.6 1273.01 28
2 -4 0 46172.5 1623.82 25
2 -4 1 325201 7648.22 28
2 -4 2 565978 12964.5 28
2 -4 2 551658 13164.6 25
2 -4 3 687.293 182.149 28
2 -4 3 536.469 167.711 25
2 -4 4 21336.4 1100.32 28
2 -4 4 23091.9 1063.68 25
2 -4 5 73847.1 2659.25 9
2 -4 5 74313.1 2640.97 30
2 -4 5 78369.7 2703.81 29
2 -4 5 71260.5 2591.38 28
2 -4 5 77410.2 2266.03 25
2 -4 6 15649.9 1082.35 30
2 -4 6 15281.4 1098.99 9
2 -4 6 15608.1 1106.93 33
2 -4 6 16455.5 1103.12 29
2 -4 6 15277.1 1040.65 28
2 -4 6 14960.2 993.868 13
2 -4 6 15265.7 960.231 12
2 -4 7 44736.1 2080.99 30
2 -4 7 43017.2 2080.72 9
2 -4 7 41966.3 1906.11 32
2 -4 7 46146 2068.86 18
2 -4 7 44052.4 2119.92 34
2 -4 7 43739.1 2034.49 29
2 -4 7 44939.4 2079.54 33
2 -4 7 41601 2010.75 28
2 -4 7 43991.4 1970.78 13
2 -4 7 41647.6 1835.21 12
2 -4 8 18231.1 1306.02 34
2 -4 8 21279.6 1439.28 8
2 -4 8 17057.8 1181.64 18
2 -4 8 17937.7 1233.14 29
2 -4 8 17319.2 1173.84 32
2 -4 9 6077.1 638.455 18
2 -4 9 5570.5 635.551 32
2 -4 9 7197.59 772.92 31
2 -4 9 7923.11 772.978 29
2 -4 10 43060.2 1902.28 31
2 -4 11 10109.3 687.707 11
2 -4 11 9773.19 682.158 31
2 -4 11 9492.28 682.012 8
2 -3 -7 1170.02 317.934 3
2 -3 -4 3234.27 287.386 25
2 -3 -3 360634 8493.38 25
2 -3 -2 276099 6636.18 25
2 -3 -1 67549.2 1976.89 25
2 -3 0 168924 3910.54 28
2 -3 0 166320 4261.63 25
2 -3 1 564617 12799.5 28
2 -3 1 562358 13025.2 25
2 -3 2 6346.62 415.473 28
2 -3 2 5708.12 421.204 25
2 -3 3 92769.7 2734.32 28
2 -3 3 99530.1 2695.75 25
2 -3 4 276641 7013.64 28
2 -3 4 279477 6675.24 25
2 -3 5 905.871 243.141 30
2 -3 5 937.491 259.835 29
2 -3 5 564.608 189.532 28
2 -3 6 207482 5851.38 24
2 -3 6 202734 5871.1 23
2 -3 6 208009 5877.91 9
2 -3 6 208619 5926.84 34
2 -3 6 197500 5622.42 32
2 -3 6 202000 5719.18 18
2 -3 6 204008 5614.22 17
2 -3 6 213377 5962.23 29
2 -3 6 210499 5798.75 33
2 -3 6 202839 5758.62 13
2 -3 6 201361 5689.89 12
2 -3 7 42324.4 2005.49 24
2 -3 7 45830.8 2113.44 9
2 -3 7 40551.6 1905.69 18
2 -3 7 43429.7 1925.97 17
2 -3 7 40527.4 1942.16 33
2 -3 7 45511.9 2117.26 34
2 -3 7 45610.2 2117.36 29
2 -3 7 46277.2 2080.32 13
2 -3 7 41342.7 1935.03 12
2 -3 7 40894.2 1912.47 32
2 -3 8 9276.29 891.78 34
2 -3 8 8148.79 768.18 18
2 -3 8 8224.36 810.125 32
2 -3 8 8530.32 908.415 8
2 -3 8 10237 955.787 29
2 -3 8 8883.01 883.497 28
2 -3 8 8070.95 839.671 13
2 -3 9 37699.9 1915.23 11
2 -3 9 42706.7 2052.74 8
2 -3 9 36442.7 1799.82 32
2 -3 9 37978.5 1927.03 31
2 -3 9 39268.2 1926.46 29
2 -3 10 28336.1 1463.3 11
2 -3 10 27527.1 1458.73 31
2 -3 10 29107.9 1507.15 8
2 -3 11 124.704 120.926 11
2 -3 11 328.08 149.854 8
2 -3 11 -132.446 203.051 31
2 -2 -4 621656 14123.7 25
2 -2 -3 343720 7989.45 25
2 -2 -2 16779.3 670.828 25
2 -2 -1 1912.34 203.035 25
2 -2 0 198438 4687.01 10
2 -2 0 205806 4649.78 28
2 -2 1 66636.9 1772.15 28
2 -2 1 66934.2 1860.5 25
2 -2 2 248179 5902.56 28
2 -2 2 245030 5864.77 25
2 -2 3 83948.3 2401.99 28
2 -2 3 80597.5 2194.73 25
2 -2 4 98228.3 2509.13 25
2 -2 5 314498 8295.06 29
2 -2 6 39948 1863.1 24
2 -2 6 38980.5 1810.11 23
2 -2 6 39026.3 1772.36 32
2 -2 6 42090.2 1816.22 17
2 -2 6 43723 1938.01 34
2 -2 6 42443.5 2009.26 29
2 -2 6 34477.2 1730.97 28
2 -2 6 42418 1785.54 18
2 -2 6 39849.8 1878.03 13
2 -2 6 40803.9 1889.51 12
2 -2 7 197.597 207.431 12
2 -2 7 147.593 168.692 24
2 -2 7 229.608 176.04 23
2 -2 7 -48.0859 116.624 10
2 -2 7 271.936 182.221 32
2 -2 7 704.197 254.48 34
2 -2 7 98.1673 145.767 31
2 -2 7 184.519 185.464 17
2 -2 7 257.271 197.239 13
2 -2 8 17657.5 1255.42 24
2 -2 8 18782.1 1294.63 11
2 -2 8 18919.7 1325.45 8
2 -2 8 17094.6 1210.67 32
2 -2 8 18197.2 1255.35 17
2 -2 8 17260 1256.53 31
2 -2 8 18143.6 1332.56 29
2 -2 8 16978.9 1222.91 10
2 -2 9 70087.9 2747.66 11
2 -2 9 72092.2 2798.25 8
2 -2 9 66942.8 2659.63 32
2 -2 9 73675.5 2881.23 29
2 -2 9 68245.9 2748.77 31
2 -2 9 72678.3 2780.92 24
2 -2 10 615.838 215.589 11
2 -2 10 747.644 236.791 8
2 -2 10 655.712 234.197 31
2 -2 11 4187.18 423.073 31
2 -1 -3 20149.8 758.323 35
2 -1 -3 21579.6 767.862 25
2 -1 -2 2049.34 202.542 35
2 -1 -2 2139.99 206.929 25
2 -1 -1 455994 10499.7 35
2 -1 -1 461166 10490.5 25
2 -1 0 99784.7 2479.62 10
2 -1 1 390235 8952.66 10
2 -1 1 392766 8925.68 35
2 -1 1 381112 8943.56 25
2 -1 2 15380.3 683.548 10
2 -1 2 14440.1 607.786 25
2 -1 3 114599 3151.96 10
2 -1 4 160736 4379.22 28
2 -1 5 274871 7325.15 24
2 -1 5 282060 7153.3 32
2 -1 5 278703 7221.23 31
2 -1 5 279288 7168.27 10
2 -1 5 286479 7339.91 13
2 -1 6 5122.9 625.497 24
2 -1 6 4449.54 558.401 11
2 -1 6 4878.11 526.838 22
2 -1 6 4723.99 560.4 10
2 -1 6 3966.68 524.722 34
2 -1 6 4235.81 545.038 32
2 -1 6 2991.34 481.853 31
2 -1 6 5516.99 627.001 17
2 -1 6 5295.44 674.08 29
2 -1 6 4286.09 584.733 13
2 -1 7 1021.56 298.736 10
2 -1 7 1395.62 371.377 24
2 -1 7 665.457 265.059 11
2 -1 7 1315.82 345.215 8
2 -1 7 1334 342.425 32
2 -1 7 1243.24 357.353 17
2 -1 7 1029.84 320.945 31
2 -1 7 939.056 334.479 29
2 -1 7 1146.02 356.962 13
2 -1 8 70227.8 2747.36 24
2 -1 8 59836.3 2523.98 11
2 -1 8 54740.2 2427.85 10
2 -1 8 58863.7 2487.51 8
2 -1 8 63659.5 2614.66 31
2 -1 8 58962.2 2523.96 32
2 -1 8 62500.5 2627.39 17
2 -1 8 61761.3 2732.22 29
2 -1 8 65744.7 2736.05 13
2 -1 9 -47.0539 150.88 24
2 -1 9 127.968 163.481 11
2 -1 9 91.9958 167.242 31
2 -1 9 -39.9573 145.279 8
2 -1 9 -264.622 370.321 32
2 -1 9 96.0622 174.634 17
2 -1 10 12774.9 860.356 31
2 0 -5 539636 12341.3 35
2 0 -4 1644.65 201.633 35
2 0 -3 4341.95 330.765 35
2 0 -2 6075.8 395.216 35
2 0 -1 25606.2 934.097 35
2 0 0 734200 16644.9 35
2 0 1 229616 5496.46 10
2 0 1 227248 5452.73 35
2 0 2 60039.7 1678.06 35
2 0 3 143656 3843.86 10
2 0 4 511070 11987.6 10
2 0 4 518854 12087.1 31
2 0 5 2544.21 459.862 12
2 0 5 2254.21 375.882 11
2 0 5 2498.42 374.289 10
2 0 5 2899.71 427.643 31
2 0 5 2349.15 400.146 32
2 0 5 1895.52 407.281 29
2 0 5 2446.32 424.833 13
2 0 6 13747.7 1072.53 24
2 0 6 12061.2 935.746 11
2 0 6 14592.1 983.436 22
2 0 6 12028.8 916.015 10
2 0 6 11900.9 899.471 8
2 0 6 13432.6 1009.88 32
2 0 6 13396.2 1006.17 31
2 0 6 13856.5 1045.59 17
2 0 6 13347.8 1120.99 29
2 0 6 11342.6 999.478 13
2 0 6 15019.6 1172.64 12
2 0 7 47005.1 2202.07 24
2 0 7 42564.2 1974.76 11
2 0 7 45034.9 1981.63 22
2 0 7 41814.5 1942.12 10
2 0 7 41601.7 1877.47 8
2 0 7 43166.5 2051.1 32
2 0 7 43275.1 2121.07 17
2 0 7 41607 2017.79 31
2 0 7 41377.3 2142.27 13
2 0 7 45646.2 2265.92 12
2 0 8 1908.11 427.373 24
2 0 8 1488.55 341.347 11
2 0 8 1447.91 380.398 17
2 0 8 1129.95 378.011 32
2 0 8 1695.76 372.834 31
2 0 8 1388.72 376.281 13
2 0 9 47084.7 2041.23 24
2 0 9 42865 1921.5 32
2 0 9 47369.6 2084.45 17
2 0 9 43784.8 1912.42 31
2 0 10 9347.1 683.002 24
2 1 -6 86184.7 2437.23 35
2 1 -5 97486.4 2761.9 35
2 1 -4 184549 4750.35 35
2 1 -3 110416 3094.06 35
2 1 -2 4952.47 421.202 35
2 1 0 815439 18639.2 35
2 1 1 5049.73 394.152 35
2 1 2 42863.2 1388.15 35
2 1 3 393920 9121.8 35
2 1 4 68702.8 2584.3 24
2 1 4 71015.3 2395.43 11
2 1 4 71136.4 2427.9 21
2 1 4 72370.9 2477.8 31
2 1 4 70939.1 2474.04 16
2 1 4 68936.8 2634.67 29
2 1 4 67971.3 2435.74 32
2 1 4 67634.1 2660.71 12
2 1 5 68745.9 2479.48 11
2 1 5 76076.4 2591.15 22
2 1 5 70873.9 2598.55 32
2 1 5 67806.1 2547.26 31
2 1 5 66261 2754.19 29
2 1 5 70983.6 2739.11 13
2 1 5 62168.4 2445.54 21
2 1 5 66727.9 2785.64 12
2 1 6 16727.5 1103.9 11
2 1 6 17915.7 1170.37 22
2 1 6 17779.3 1218.55 32
2 1 6 18429.2 1275.71 17
2 1 6 17088 1162.75 31
2 1 6 17259.8 1309.69 29
2 1 6 15948.8 1226.31 13
2 1 6 17070 1326.31 12
2 1 7 4086.04 628.234 24
2 1 7 3321.85 498.713 11
2 1 7 4288.16 581.594 22
2 1 7 4017.43 609.203 32
2 1 7 3826.72 595.739 17
2 1 7 4710.26 626.63 31
2 1 7 4946.14 674.084 13
2 1 8 43425.6 2057.42 24
2 1 8 40871.8 2012.25 17
2 1 8 45259.3 1953.6 31
2 1 8 42680.9 2049.5 13
2 1 8 37473 1884.66 32
2 1 9 21719.4 1226.3 24
2 1 9 21587.5 1185.01 32
2 2 -6 185823 4936.32 35
2 2 -5 140727 3985.62 35
2 2 -4 145593 4113.11 35
2 2 -3 11382.9 767.986 35
2 2 -2 52150.3 1924.13 35
2 2 0 827.177 214.746 35
2 2 1 171332 4584.24 35
2 2 2 76374.5 2339.63 35
2 2 3 5828.38 591.86 21
2 2 3 7164.55 467.893 35
2 2 3 7335.16 649.848 32
2 2 3 6105.36 588.398 16
2 2 3 7492.97 665.704 31
2 2 3 6576.14 625.898 29
2 2 3 6825.96 672.97 27
2 2 4 66721.6 2659.23 24
2 2 4 70796.1 2551.62 32
2 2 4 68311 2466.43 31
2 2 4 66737.6 2535.15 16
2 2 4 67562.1 2593.81 29
2 2 4 65896.3 2521.11 21
2 2 4 66787.3 2615.11 13
2 2 4 65276.8 2689.6 12
2 2 5 16909.2 1258.04 24
2 2 5 19098.3 1213.78 22
2 2 5 17758.2 1199.31 21
2 2 5 16000.9 1145.95 32
2 2 5 16136.7 1215.35 13
2 2 5 17789.6 1312.93 12
2 2 6 3253 510.386 22
2 2 6 3625.53 603.759 32
2 2 6 3151.58 536.416 17
2 2 6 2383.59 490.452 13
2 2 7 55451.2 2332.52 22
2 2 7 53270.5 2352.02 32
2 2 7 61229 2573.64 17
2 2 7 58486.7 2481.31 13
2 2 8 62929.9 2464.18 24
2 2 8 61183.7 2448.64 17
2 2 8 56916.2 2296.59 32
2 2 9 58.4824 117.541 24
2 2 9 30.1901 109.77 17
2 3 -6 84524.2 2860.5 35
2 3 -5 217174 5983.2 35
2 3 -4 1640.75 333.387 35
2 3 0 31040.2 1512.54 35
2 3 1 33664.5 1536.86 35
2 3 2 45121.2 1738.08 35
2 3 2 44264.7 1833.26 32
2 3 2 43609.8 1803.09 16
2 3 2 40603.7 1862.46 27
2 3 3 20660.4 1237.47 32
2 3 3 20110.7 1213.42 16
2 3 3 18763.1 1264.36 27
2 3 4 42761.6 2103.93 24
2 3 4 43683.1 1974.67 32
2 3 4 40053.8 1973.26 21
2 3 4 39290.3 1930.81 13
2 3 5 920.393 320.061 24
2 3 5 876.218 289.66 22
2 3 5 734.844 285.139 21
2 3 5 660.803 254.729 13
2 3 6 43122 2138.14 24
2 3 6 40487.7 1954.48 22
2 3 6 39310.2 1971.32 32
2 3 6 43129.5 2086.33 17
2 3 6 41926.9 1963.05 13
2 3 7 67997.9 2678.97 24
2 3 7 63592 2482.64 22
2 3 7 70308.4 2686.09 17
2 3 8 2789.73 403.836 17
2 4 -7 21439.1 1249.1 35
2 4 -7 20223.2 1168.91 7
2 4 -6 333866 8820.45 35
2 4 -6 329509 8576.43 7
2 4 -6 342980 8787.45 37
2 4 -5 15089.5 1076.51 37
2 4 -5 13681.3 1063.29 35
2 4 -5 15212.9 1009.08 7
2 4 -4 52240.9 2091.27 7
2 4 -4 48891.9 2173.29 37
2 4 -3 131984 4235.61 37
2 4 -3 131967 4070.3 7
2 4 -2 216588 6011.9 7
2 4 -1 82082.7 3064.65 37
2 4 0 97095.3 3361.32 37
2 4 0 90885.2 3343.53 35
2 4 1 1620.75 359.241 35
2 4 1 1340.92 324.761 37
2 4 1 1226.38 290.19 16
2 4 1 1830.98 372.003 27
2 4 2 72112.9 2896.95 21
2 4 2 78171.8 2702.27 35
2 4 2 76291.1 2793.62 16
2 4 2 77405.9 2934.56 27
2 4 3 114274 3846.76 16
2 4 3 117671 4033.99 21
2 4 4 284.506 206.901 24
2 4 4 50.5891 137.123 22
2 4 5 11405.5 1015.21 24
2 4 5 10337.7 922.692 22
2 4 5 11283.5 985.879 17
2 4 6 62556.8 2513.71 24
2 4 6 58563 2363.91 22
2 4 6 59033.9 2417.67 17
2 4 7 11144.9 813.074 24
2 4 7 10174.7 741.923 22
2 4 7 10543 781.318 17
2 4 8 4286.61 366.674 24
2 5 -7 117017 3987.54 35
2 5 -7 123280 3832.8 7
2 5 -7 127554 4032.58 37
2 5 -6 28427 1603.49 37
2 5 -6 26772.8 1607.43 35
2 5 -6 27243.5 1466.94 7
2 5 -5 92643.8 3402.47 37
2 5 -5 92106.2 3468.23 35
2 5 -5 88019.3 3158.92 7
2 5 -4 50586 2341.2 37
2 5 -4 46504.5 2327.95 35
2 5 -4 51255.8 2200.07 7
2 5 -3 14692 1183.47 37
2 5 -2 48086.2 2332.27 37
2 5 -2 47208.5 2376.62 35
2 5 -1 37201.6 1983.25 37
2 5 -1 32117.7 1917.39 35
2 5 0 2594.49 509.535 35
2 5 0 3156.95 464.088 16
2 5 0 2929.96 531.588 37
2 5 0 3100.48 469.202 27
2 5 1 36245.6 1849.67 37
2 5 1 38460.2 1972.94 21
2 5 1 35624.5 1868.67 35
2 5 1 35483.8 1729.17 16
2 5 1 36104 1810.87 27
2 5 2 184357 5636.16 21
2 5 2 176829 5327.34 16
2 5 2 177882 5474.4 27
2 5 3 5787.26 710.336 24
2 5 3 3987.93 627.549 21
2 5 4 18962.1 1289.32 24
2 5 4 16431 1189.78 22
2 5 5 43930.1 1977.73 24
2 5 5 47021.2 2005.59 22
2 5 5 43394 1922.75 17
2 5 6 19045 1049.6 24
2 5 6 17475.6 1015.56 22
2 5 6 18792.4 999.639 17
2 6 -7 44834.2 2164.87 35
2 6 -7 50681.5 2209.12 37
2 6 -6 17965.9 1292.56 37
2 6 -6 15830 1262.16 35
2 6 -5 26096 1606.26 37
2 6 -5 19585 1481.74 35
2 6 -4 22215.6 1531.45 37
2 6 -4 18416.8 1445.48 35
2 6 -2 28764.4 1793.1 37
2 6 -2 24608.1 1742.52 35
2 6 -1 53392.7 2541.22 37
2 6 -1 54793.9 2379.83 21
2 6 -1 48496.5 2524.26 35
2 6 -1 50846.3 2092.81 16
2 6 0 42835.8 2144.27 37
2 6 0 43131 2111.57 21
2 6 0 36662.8 2067.54 35
2 6 0 41326.1 1855.34 16
2 6 1 146675 4720.69 37
2 6 1 162127 5058.72 21
2 6 1 159074 4682.91 16
2 6 1 151262 4675.5 27
2 6 2 3626.42 531.86 24
2 6 2 3454.79 578.355 21
2 6 3 23232.4 1395.34 22
2 6 3 22604.8 1276.09 17
2 6 4 23236.1 1164.97 17
2 6 5 8475.42 654.78 22
2 7 -8 30568.7 1436.07 37
2 7 -7 5717.85 664.579 37
2 7 -6 37968.7 1943.94 37
2 7 -5 8990.57 928.965 37
2 7 -4 27201.2 1710.76 37
2 7 -3 154489 4562.6 21
2 7 -2 9771.38 990.031 37
2 7 -2 9223.74 824.685 21
2 7 -1 34506.2 1895.81 37
2 7 -1 35327.8 1759.35 21
2 7 0 123644 4160.45 37
2 7 0 136907 4250.54 21
2 7 1 53160.7 2261 21
2 7 2 8878.56 781.602 22
2 7 3 11083 786.455 22
2 7 4 4160.48 400.474 22
2 8 -8 869.619 200.313 37
2 8 -7 25729.7 1299.9 37
2 8 -6 584.072 242.827 37
2 8 -5 11865.3 966.183 37
2 8 -4 59567.1 2494.33 37
2 8 -3 3674.99 553.473 37
2 8 -2 10434.7 898.179 37
2 8 1 11018.8 748.148 22
2 8 2 13688.9 736.257 22
2 9 -7 11753.7 628.773 37
2 9 -6 3585.45 397.903 37
2 9 -5 53876.2 1939.27 37
2 9 -3 15868.8 897.272 37
2 9 -1 9043.96 519.074 22
3 -10 0 53540.7 2331.95 4
3 -10 1 16252.5 1204.89 4
3 -10 2 155.236 208.022 4
3 -10 3 18287.9 1241.7 4
3 -10 4 8149.77 669.975 18
3 -10 5 26338.5 1283.61 18
3 -10 6 25793 1227.21 18
3 -10 7 6210.43 544.317 33
3 -10 7 5587.97 490.958 18
3 -10 8 3172.91 312.607 18
3 -10 8 3070.59 315.345 33
3 -9 -6 8752.81 641.266 3
3 -9 -5 1829.3 370.881 3
3 -9 -1 40339.7 2081.67 4
3 -9 0 9402.34 984.563 4
3 -9 1 13396.1 1195.77 4
3 -9 1 12580.5 1186.34 25
3 -9 3 31532.2 1818.81 4
3 -9 4 27558.3 1608.44 4
3 -9 5 52064.9 2028.89 34
3 -9 6 25845.9 1304.91 34
3 -9 6 25424.8 1410.23 18
3 -9 7 358.626 199.246 33
3 -9 7 298.799 181.206 18
3 -9 8 26859.6 1253.03 33
3 -9 8 26822.4 1249.18 18
3 -8 -7 11388 783.126 3
3 -8 -6 363.025 226.895 3
3 -8 -2 41200.1 2071.11 4
3 -8 -2 41732.7 2094.51 25
3 -8 -1 22171.2 1526.02 4
3 -8 -1 23045.1 1562.29 25
3 -8 0 10428.2 1029.62 4
3 -8 0 9312.5 979.479 25
3 -8 1 54362.5 2601.01 4
3 -8 1 55121 2606 25
3 -8 2 29278.1 1789.5 25
3 -8 3 1532.05 429.204 4
3 -8 3 897.118 325.109 25
3 -8 4 46700.3 2192.74 4
3 -8 4 41072.6 1958.33 34
3 -8 4 44438.9 2156.72 25
3 -8 5 28570.4 1569.27 4
3 -8 5 28111 1578.74 34
3 -8 5 26620.6 1516.24 25
3 -8 6 146.211 177.239 34
3 -8 6 204.571 214.746 18
3 -8 7 29572.2 1559.44 34
3 -8 7 26432.7 1523.43 33
3 -8 7 27274.2 1521.61 18
3 -8 8 2533.55 362.571 11
3 -8 8 3026.02 443.076 33
3 -8 9 1880.28 266.967 11
3 -8 9 1957.52 317.113 18
3 -7 -8 7578.93 617.803 3
3 -7 -7 44.9435 163.41 3
3 -7 -3 7352.25 755.821 4
3 -7 -3 8328.8 793.441 25
3 -7 -2 33840.3 1795.41 4
3 -7 -2 34405.4 1818.47 25
3 -7 -1 54390.3 2426.25 4
3 -7 -1 54012.3 2401.3 25
3 -7 0 114985 4035.6 4
3 -7 0 117217 3977.39 25
3 -7 1 35553.4 1919.01 4
3 -7 1 37980.1 1947.15 25
3 -7 2 10401.3 985.643 4
3 -7 2 11624.3 873.485 29
3 -7 2 12725.2 1061.87 25
3 -7 3 151486 4897.72 4
3 -7 3 157833 4935.14 25
3 -7 4 98057.9 3380.38 4
3 -7 4 85292.6 2945.26 30
3 -7 4 82435.3 2904.77 28
3 -7 4 102289 3432.61 25
3 -7 5 55109.5 2398.37 34
3 -7 5 54495.7 2259.69 8
3 -7 5 48500.9 2085.06 30
3 -7 5 45772.2 2006.96 28
3 -7 5 54136 2193.64 25
3 -7 6 93330.7 3202.47 9
3 -7 6 94235.2 3450.59 34
3 -7 6 94444.3 3305.7 8
3 -7 6 97795.2 3467.25 18
3 -7 6 88040.6 3140.28 30
3 -7 7 87475.5 3272.33 34
3 -7 7 85662.5 3136.55 8
3 -7 7 84203.7 3211.21 18
3 -7 7 84682.8 3054.87 30
3 -7 7 87578.5 3205.33 33
3 -7 8 13723.2 1061.97 34
3 -7 8 14922.2 1046.91 8
3 -7 8 16114.5 1069.79 33
3 -7 8 13985.4 1041.48 18
3 -7 9 12161.2 822.678 11
3 -7 9 12306.6 844.272 18
3 -7 9 10108.8 746.25 31
3 -7 10 6054.17 470.914 11
3 -6 -8 1184.94 294.128 3
3 -6 -7 11271.4 992.837 3
3 -6 -4 11439.8 827.926 25
3 -6 -3 185783 5332.94 4
3 -6 -3 189770 5342.6 25
3 -6 -2 35552 1736.28 4
3 -6 -2 40529.5 1818.05 25
3 -6 -1 199583 5819.98 4
3 -6 -1 212694 5887.99 25
3 -6 0 47333.4 2103.11 4
3 -6 0 49355 2116.88 25
3 -6 2 117313 3800.25 4
3 -6 2 116917 3563.79 29
3 -6 2 125779 3862.36 25
3 -6 3 41684.2 1908.42 4
3 -6 3 38209.7 1705.65 8
3 -6 3 38018.4 1737.94 29
3 -6 3 35843.8 1523.31 28
3 -6 3 40883.1 1893.64 25
3 -6 4 42.3974 125.907 4
3 -6 4 262.311 205.235 8
3 -6 4 220.764 154.508 30
3 -6 4 332.848 207.931 29
3 -6 4 105.46 112.768 28
3 -6 4 165.829 158.92 25
3 -6 5 83688.1 2955.42 9
3 -6 5 85143.2 3094.45 8
3 -6 5 79304.9 2881.22 30
3 -6 5 83046.3 2968.45 29
3 -6 5 83608.1 2779.96 25
3 -6 6 49107 2147.35 9
3 -6 6 45708.1 2213.01 34
3 -6 6 43262.5 2087.55 33
3 -6 6 45884.4 2176.12 8
3 -6 6 46972.4 2210.4 18
3 -6 6 41396 1987.29 30
3 -6 6 44073.4 2012.18 29
3 -6 6 38361.1 1925.88 28
3 -6 7 148618 4720.33 34
3 -6 7 136489 4551.6 8
3 -6 7 144664 4502.45 33
3 -6 7 139030 4551.4 18
3 -6 7 139405 4447.97 30
3 -6 7 140988 4371.21 29
3 -6 7 131761 4383.26 28
3 -6 7 127530 4351.76 10
3 -6 8 54064.3 2356.1 8
3 -6 8 51400.6 2173.19 33
3 -6 8 50219.7 2227.05 18
3 -6 8 50479.7 2095.02 29
3 -6 9 6025.18 630.725 11
3 -6 9 6815.74 701.59 8
3 -6 9 5840.35 603.753 18
3 -6 9 6577.73 580.67 29
3 -6 9 6663.47 653.592 31
3 -6 10 27.7573 125.881 11
3 -6 10 107.235 112.562 31
3 -6 11 13517 606.726 11
3 -5 -10 13712.3 775.136 6
3 -5 -9 993.465 254.775 3
3 -5 -8 6403.63 710.297 3
3 -5 -7 21942.5 1430.94 3
3 -5 -4 59779 2098.71 25
3 -5 -3 833.556 222.117 25
3 -5 -2 418740 10325.3 25
3 -5 -1 219393 5896.32 25
3 -5 0 3760.72 468.316 25
3 -5 1 118562 2990.43 10
3 -5 1 113610 2992.48 28
3 -5 2 123594 3487.49 28
3 -5 2 150367 4093.34 25
3 -5 3 41688.1 1798.09 29
3 -5 3 39365.5 1569.74 28
3 -5 3 44793.5 1799.22 25
3 -5 4 10207.2 800.773 9
3 -5 4 11405.1 913.219 8
3 -5 4 10333.7 791.727 30
3 -5 4 11048 887.13 29
3 -5 4 10203.9 761.907 28
3 -5 4 9968.68 744.691 25
3 -5 5 42465 1778.48 12
3 -5 5 46116.2 2129.86 8
3 -5 5 42998.5 2055.87 18
3 -5 5 45118.5 2009.94 9
3 -5 5 44181.1 1954.46 30
3 -5 5 45244.1 2039.63 29
3 -5 5 46832.8 1975.16 28
3 -5 6 1072.75 269.069 12
3 -5 6 704.535 254.655 33
3 -5 6 310.425 234.704 18
3 -5 6 553.913 292.691 8
3 -5 6 290.525 194.741 30
3 -5 6 296.333 207.452 29
3 -5 6 286.994 183.434 28
3 -5 6 38.6116 114.811 13
3 -5 7 95510.5 3448.85 10
3 -5 7 96104.8 3555.1 34
3 -5 7 92509.9 3540.41 8
3 -5 7 97229.4 3483.36 18
3 -5 7 95815.8 3329.25 33
3 -5 7 99219.9 3464.19 29
3 -5 7 89930.2 3371.91 28
3 -5 7 89754.4 3159.66 13
3 -5 7 88929.1 3075.12 12
3 -5 8 9215.34 903.558 34
3 -5 8 9918.33 964.519 8
3 -5 8 9285.66 864.128 18
3 -5 8 10713.4 937.899 31
3 -5 8 10282.8 900.831 29
3 -5 9 438.871 232.168 11
3 -5 9 554.015 274.386 8
3 -5 9 1114.44 298.669 31
3 -5 9 381.441 207.103 29
3 -5 10 15696.1 939.407 11
3 -5 10 15835.3 934.686 31
3 -5 11 5787.15 404.84 11
3 -4 -10 66.8866 114.65 6
3 -4 -9 621.612 235.824 3
3 -4 -8 12973.3 1029.77 3
3 -4 -7 3404.08 538.951 3
3 -4 -4 18678.2 920.995 25
3 -4 -3 422107 10079.9 25
3 -4 -2 288629 7178.09 25
3 -4 -1 102.675 116.422 25
3 -4 0 66210.6 1734.3 10
3 -4 0 66430.6 1674.93 28
3 -4 0 69594.9 2231.53 25
3 -4 1 460494 10722.2 10
3 -4 1 462945 10662.1 28
3 -4 1 477189 11169.6 25
3 -4 2 23296.2 965.683 28
3 -4 2 23887.1 1127.86 25
3 -4 3 96586.5 2974.82 28
3 -4 3 106810 3052.29 25
3 -4 4 44619.4 1970.6 8
3 -4 4 43879.5 1907.63 18
3 -4 4 45869 1834.55 30
3 -4 4 44700.7 1967.61 29
3 -4 4 44589.2 1801.08 28
3 -4 4 47242.7 1670.33 25
3 -4 5 1059.98 272.733 12
3 -4 5 977.408 260.889 33
3 -4 5 1171.38 340.844 8
3 -4 5 1906.94 370.158 30
3 -4 5 1175.4 323.43 29
3 -4 5 1278.59 326.115 18
3 -4 5 1017.2 284.524 28
3 -4 5 1465.83 313.419 13
3 -4 6 191814 5488.07 10
3 -4 6 183005 5292.16 33
3 -4 6 181364 5481.32 18
3 -4 6 184101 5675.34 8
3 -4 6 191212 5629.96 29
3 -4 6 177994 5403.59 28
3 -4 6 178983 5348.2 13
3 -4 6 177121 5298.07 12
3 -4 7 32325.5 1805.12 34
3 -4 7 32683.1 1751.67 18
3 -4 7 32684.4 1792.76 10
3 -4 7 31761.9 1756.34 31
3 -4 7 33048.3 1817.07 29
3 -4 7 33398.9 1750.87 13
3 -4 7 31478.5 1651.65 12
3 -4 8 -86.9336 158.039 12
3 -4 8 -53.3244 204.366 11
3 -4 8 249.286 226.087 34
3 -4 8 52.3669 155.459 31
3 -4 8 103.467 188.095 29
3 -4 8 432.641 217.988 13
3 -4 9 15761.4 1117.71 11
3 -4 9 16363.8 1143.31 8
3 -4 9 14832.9 1055.9 29
3 -4 10 22712.6 1173.31 8
3 -4 11 526.291 141.09 11
3 -4 11 361.336 190.165 31
3 -3 -10 511.368 218.756 6
3 -3 -8 4761.35 616.041 3
3 -3 -7 214554 6077.28 3
3 -3 -6 39359.1 1779.14 3
3 -3 -5 6386.81 459.151 25
3 -3 -4 85326.6 2474.49 25
3 -3 -3 205694 5169.13 25
3 -3 -2 13686.2 710.961 25
3 -3 -1 53666.6 1742.08 25
3 -3 0 217813 5151.58 10
3 -3 1 429060 9946.63 10
3 -3 1 430429 9885.75 28
3 -3 1 424325 10151.6 25
3 -3 2 556961 12530.6 10
3 -3 2 516267 12469.3 28
3 -3 2 542112 12552.1 25
3 -3 3 9859.18 671.571 10
3 -3 3 9670.81 609.694 25
3 -3 4 701.382 202.767 10
3 -3 4 634.322 235.186 29
3 -3 4 871.237 228.366 28
3 -3 4 393.975 126.932 25
3 -3 5 156842 4897.99 24
3 -3 5 156211 4779.25 12
3 -3 5 164923 4832.28 18
3 -3 5 158931 4961.52 8
3 -3 5 162079 4564.88 17
3 -3 5 166396 4843.44 10
3 -3 5 166398 5031.47 29
3 -3 5 168861 4777.56 28
3 -3 5 162617 4786.79 13
3 -3 6 139654 4567.79 24
3 -3 6 143218 4572.76 34
3 -3 6 139086 4466.16 18
3 -3 6 138321 4649.72 8
3 -3 6 135212 4190.98 32
3 -3 6 142478 4315.53 17
3 -3 6 147077 4571.12 31
3 -3 6 148332 4560.28 10
3 -3 6 151316 4767.2 29
3 -3 6 145456 4554.76 13
3 -3 6 144039 4532.06 12
3 -3 7 8981.48 894.142 11
3 -3 7 8986.89 879.754 10
3 -3 7 9103.25 878.065 34
3 -3 7 7908.5 883.916 8
3 -3 7 9367.18 806.458 32
3 -3 7 9879.48 845.278 17
3 -3 7 8536.2 897.532 29
3 -3 7 9390.43 914.909 13
3 -3 7 8669.53 867.17 12
3 -3 7 7909.07 849.284 24
3 -3 8 13392.9 1005.94 34
3 -3 8 12873.5 1090.09 8
3 -3 8 11556.8 923.427 17
3 -3 8 14342.7 1141.29 29
3 -3 8 12540.5 1051.42 13
3 -3 8 12321.3 1009.68 12
3 -3 9 25438.9 1428.87 8
3 -3 9 24569.2 1411.26 31
3 -3 9 27226.6 1484.82 29
3 -3 10 1484.24 291.514 11
3 -3 10 1196.87 256.647 31
3 -2 -10 11123.4 887.538 6
3 -2 -8 252051 6894.02 3
3 -2 -7 88877.8 3052.3 3
3 -2 -4 470478 10997.2 25
3 -2 -3 18789.2 825.991 25
3 -2 -2 77742.5 2240.29 25
3 -2 -1 8390.71 513.751 25
3 -2 0 64481.5 1760.59 10
3 -2 0 59276.8 1876.23 25
3 -2 1 405885 9352.82 10
3 -2 1 392270 9434.89 25
3 -2 2 151421 3945.17 10
3 -2 2 146802 3887.64 25
3 -2 3 7399.59 575.701 10
3 -2 4 35854.2 1696.94 24
3 -2 4 36756.7 1618.62 11
3 -2 4 38167.2 1613.81 10
3 -2 4 37492.5 1612.65 31
3 -2 4 35214 1575.1 14
3 -2 5 160515 5007.23 12
3 -2 5 170216 4952.58 11
3 -2 5 167963 4924.21 10
3 -2 5 165356 4984.37 8
3 -2 5 161617 4654.45 32
3 -2 5 162638 4898.46 31
3 -2 5 170879 4820.83 17
3 -2 5 171715 5208.05 29
3 -2 5 167188 4975.99 13
3 -2 6 2710.42 498.245 12
3 -2 6 2648.69 468.239 34
3 -2 6 3604.46 574.789 8
3 -2 6 3264.92 475.432 32
3 -2 6 2857.04 463.483 17
3 -2 6 2955.19 552.864 29
3 -2 6 3028.2 525.046 13
3 -2 7 15386.6 1191.58 24
3 -2 7 16221.7 1188.45 10
3 -2 7 17546.8 1155 34
3 -2 7 16053.6 1207.37 8
3 -2 7 17943.2 1219.23 17
3 -2 7 16169.3 1201.18 31
3 -2 7 13419.9 1022.2 32
3 -2 7 17644 1328.65 29
3 -2 7 15834.8 1218.48 12
3 -2 8 18158.9 1275.41 11
3 -2 8 19356.2 1277.83 8
3 -2 8 21880.8 1339.36 17
3 -2 8 19987.9 1327.48 31
3 -2 8 20770.7 1402.7 29
3 -2 8 20577.8 1354.75 24
3 -2 9 1672.4 349.889 11
3 -2 9 1623.84 340.452 31
3 -2 10 36037.7 1454.89 31
3 -1 -10 3364.27 500.572 6
3 -1 -9 18958.8 1257.03 6
3 -1 -7 2090.03 383.912 3
3 -1 -4 99.611 93.5375 35
3 -1 -3 309191 7732.17 35
3 -1 -3 333182 7714.2 25
3 -1 -2 37480.3 1344.79 35
3 -1 -2 39333.8 1345.72 25
3 -1 0 642428 14569.9 35
3 -1 0 622296 14580.5 25
3 -1 1 612317 14191.3 10
3 -1 1 618802 14171.7 35
3 -1 2 266.678 126.465 10
3 -1 3 62634.7 2136.08 10
3 -1 4 234694 6486.48 24
3 -1 4 238170 6118.63 32
3 -1 4 226064 6602.65 29
3 -1 4 237190 6350.8 14
3 -1 5 -51.1249 163.932 12
3 -1 5 48.8765 145.097 24
3 -1 5 -42.7495 126.908 11
3 -1 5 40.6611 120.709 8
3 -1 5 72.9052 108.215 32
3 -1 5 -41.4403 112.303 10
3 -1 5 220.039 210.825 29
3 -1 5 46.8897 160.733 13
3 -1 6 44538.1 2086.05 11
3 -1 6 46694.8 2084.37 10
3 -1 6 39848.8 1942.51 8
3 -1 6 42121.1 1940.05 32
3 -1 6 48238.4 2142.29 17
3 -1 6 44900.9 2100.11 31
3 -1 6 45505.6 2260.39 29
3 -1 6 47074.5 2217.57 13
3 -1 6 47051.6 2263.01 12
3 -1 7 23286.4 1509.86 24
3 -1 7 25030.8 1485 11
3 -1 7 22840 1372.76 32
3 -1 7 24341.6 1484.8 17
3 -1 7 23360 1468.52 31
3 -1 7 23652.2 1376.19 8
3 -1 7 24010.8 1558.16 13
3 -1 7 24316.6 1570.65 12
3 -1 8 49.7976 190.925 24
3 -1 8 224.269 188.386 11
3 -1 8 284.881 190.925 17
3 -1 8 427.785 244.459 31
3 -1 8 312.71 209.561 13
3 -1 9 43155 1824.81 17
3 -1 9 43701.6 1820.2 31
3 0 -9 95653.5 3348.12 6
3 0 -8 6414.6 694.856 6
3 0 -7 21356.8 1256.16 6
3 0 -6 66648.4 2103.86 35
3 0 -5 10185.1 654.721 35
3 0 -4 204745 5291.22 35
3 0 -3 185156 4828.05 35
3 0 -2 693.478 170.001 35
3 0 0 612092 14206.3 35
3 0 1 84789.1 2474.4 35
3 0 2 110363 3017.95 35
3 0 3 133433 4167.09 29
3 0 3 133639 3942.25 14
3 0 4 322.611 193.51 24
3 0 4 336.364 192.192 11
3 0 4 59.8406 88.8705 22
3 0 4 32.0161 77.6581 21
3 0 4 239.668 181.16 19
3 0 4 306.118 278.264 31
3 0 4 75.0801 120.408 16
3 0 4 344.234 223.018 29
3 0 4 82.2073 140.929 14
3 0 5 61555.1 2611.7 24
3 0 5 54940.5 2352.12 11
3 0 5 61458.2 2251.6 22
3 0 5 57956.2 2202.5 8
3 0 5 61453.1 2384.6 32
3 0 5 61970 2472.36 31
3 0 5 64947.8 2711.64 29
3 0 5 61417.2 2285.88 21
3 0 5 65753.6 2640.04 13
3 0 5 60795.7 2675.85 12
3 0 6 18979.2 1361.85 24
3 0 6 20547.5 1296.58 11
3 0 6 20264.7 1170.47 22
3 0 6 18970.2 1248.14 32
3 0 6 20942 1371.19 17
3 0 6 19764.6 1317.99 31
3 0 6 19045.9 1407.43 29
3 0 6 20073.2 1397.51 13
3 0 6 19532.8 1431.04 12
3 0 7 11257.7 945.535 11
3 0 7 11458 947.724 32
3 0 7 12665.3 1048.68 17
3 0 7 11969.7 1012.12 31
3 0 7 12769.3 1096.37 29
3 0 7 12322.8 1087.32 13
3 0 7 12472.9 1093.89 12
3 0 8 63372.5 2551.83 17
3 0 8 68418.4 2543.05 31
3 0 8 66483.1 2626.81 13
3 0 9 11699.3 797.398 17
3 0 9 10954 784.166 24
3 1 -9 38656.6 1836.19 6
3 1 -8 28105.2 1526.82 6
3 1 -7 21968.5 1286.2 6
3 1 -6 6644.46 573.349 35
3 1 -5 147127 4166.53 35
3 1 -4 310957 7856.97 35
3 1 -3 13491.5 851.757 35
3 1 -2 282864 7228.56 35
3 1 -1 360759 8886.54 35
3 1 0 5884.53 510.423 35
3 1 1 54207.8 1868.91 35
3 1 2 49567.1 1829.12 32
3 1 2 49117 1885.15 31
3 1 2 50930 1732.31 35
3 1 3 8219.22 801.165 12
3 1 3 8540.35 797.374 24
3 1 3 7860.61 683.741 21
3 1 3 7259.32 755.482 19
3 1 3 7624.03 674.959 32
3 1 3 8842.9 758.935 31
3 1 3 6831.49 692.309 29
3 1 3 7528.31 705.377 14
3 1 4 177934 5537.74 24
3 1 4 194043 5240.69 22
3 1 4 181738 5250.5 32
3 1 4 191627 5348.3 31
3 1 4 182066 5490.47 29
3 1 4 176255 5407.79 14
3 1 4 182948 5654.13 12
3 1 4 184388 5272.94 21
3 1 5 65626.4 2821.77 24
3 1 5 68983.9 2542.09 22
3 1 5 63700.5 2534.81 21
3 1 5 66171.3 2611.25 32
3 1 5 70364.9 2690.08 31
3 1 5 67305.4 2797.42 29
3 1 5 68243 2823.2 13
3 1 5 69520.7 2937.15 12
3 1 6 472.522 258.694 12
3 1 6 514.65 268.981 24
3 1 6 688.031 250.722 22
3 1 6 883.742 394.985 32
3 1 6 906.687 322.607 13
3 1 7 30916.5 1703.49 24
3 1 7 29868.1 1562.59 32
3 1 7 31989.1 1717.19 13
3 2 -9 43773.5 1953.42 6
3 2 -8 24372.7 1397.19 6
3 2 -7 1927.93 332.588 35
3 2 -7 1458.43 330.901 6
3 2 -6 172542 4929.14 35
3 2 -6 179025 5071.39 6
3 2 -6 167411 4931.48 37
3 2 -5 456467 11289.6 35
3 2 -4 512.692 191.52 35
3 2 -3 24108.8 1318.86 35
3 2 -1 26037.9 1352.76 35
3 2 0 4734.21 526.067 35
3 2 1 18806.5 1045.14 35
3 2 1 17660.5 1039.08 37
3 2 2 11690.3 929.015 24
3 2 2 13441.1 813.829 35
3 2 2 12134.6 1051.43 19
3 2 2 13692.8 927.462 16
3 2 2 12072.6 880.917 14
3 2 2 13336.4 973.45 12
3 2 3 205186 6101.48 24
3 2 3 215700 5886.7 32
3 2 3 217521 5971.26 16
3 2 3 205834 5771.63 29
3 2 3 203972 5939.91 14
3 2 3 208251 5948.29 21
3 2 3 210637 6106.95 12
3 2 4 69734 2900.56 24
3 2 4 71788.8 2658.4 22
3 2 4 68645 2709.59 21
3 2 4 69159.6 2683.12 32
3 2 4 66996.7 2717.78 16
3 2 4 68947.9 2812.61 13
3 2 4 72540 2917.34 12
3 2 5 115.515 156.538 24
3 2 5 261.755 167.211 22
3 2 5 47.78 153.223 21
3 2 5 -54.4436 147.558 13
3 2 6 24543.1 1533.84 24
3 2 6 25563.8 1376.15 22
3 2 6 25778.2 1533.77 17
3 2 6 25270 1508.09 13
3 2 7 76730 2819.05 24
3 2 7 76102.6 2812.79 17
3 2 7 78850.4 2721.44 13
3 2 8 1445.93 270.794 24
3 2 8 927.442 236.995 17
3 3 -7 46632.2 2014.46 37
3 3 -7 44732.8 1966.97 35
3 3 -6 165875 5077.64 37
3 3 -6 164138 5063.66 35
3 3 -6 178240 4935.82 2
3 3 -5 38916.9 1919.59 37
3 3 -5 40737.8 1966.04 35
3 3 -5 43533.8 1851.56 2
3 3 -4 53796.2 2322.24 37
3 3 -4 53688 2354.88 35
3 3 -4 54957.7 2217.66 7
3 3 -4 54419.4 2194 2
3 3 -3 181820 5622.77 37
3 3 -3 178714 5651.88 35
3 3 -3 196918 5520.14 7
3 3 -2 13553 1058.66 37
3 3 -1 142518 4465.83 37
3 3 -1 139576 4475.62 35
3 3 -1 142086 4413.66 19
3 3 -1 137881 4256.26 7
3 3 0 50746.4 2195.13 35
3 3 0 53098.3 2354.59 19
3 3 0 52353.4 2226.22 37
3 3 1 -41.283 100.068 24
3 3 1 163.986 140.533 37
3 3 1 -57.2962 138.881 19
3 3 1 280.892 168.468 35
3 3 1 79.5958 107.854 16
3 3 2 63984.9 2613.38 24
3 3 2 66056.1 2559.42 16
3 3 2 63681.1 2466.45 14
3 3 3 136988 4536.35 24
3 3 3 135983 4471.2 21
3 3 3 139306 4435.35 16
3 3 3 136257 4378.55 13
3 3 4 4052.47 624.212 24
3 3 4 3888.46 559.815 22
3 3 4 4340.87 601.593 13
3 3 4 4049.81 590.432 21
3 3 5 22584.1 1445.95 24
3 3 5 21795.6 1292.96 22
3 3 5 21499.8 1301.26 13
3 3 6 46797.9 2030.12 24
3 3 6 41915.2 1793.46 22
3 3 6 46823.6 2023.36 17
3 3 7 523.634 186.664 24
3 3 7 155.513 136.054 17
3 4 -9 283.046 160.562 7
3 4 -8 50582.5 2117.38 7
3 4 -7 118061 3968.13 37
3 4 -7 118724 3987.72 35
3 4 -7 120520 3894.01 7
3 4 -6 4070.57 598.635 37
3 4 -6 4141.1 620.069 35
3 4 -6 5035.94 620.51 7
3 4 -5 51890.4 2406.76 37
3 4 -5 53566.7 2464.4 35
3 4 -5 52919.9 2264.28 7
3 4 -4 23867.5 1547.22 37
3 4 -4 24916.5 1596.49 35
3 4 -4 22582.9 1396.95 7
3 4 -3 18636.6 1379.79 37
3 4 -3 18531.1 1394.36 35
3 4 -3 20375.5 1311.31 7
3 4 -2 89488.5 3441.92 37
3 4 -2 87444.4 3456.46 35
3 4 -1 110191 3974.08 37
3 4 -1 113335 4041.91 35
3 4 0 425.972 241.564 37
3 4 0 269.587 184.964 35
3 4 1 52316 2264.13 24
3 4 1 60059.8 2410.56 37
3 4 1 59675.8 2557.94 21
3 4 1 54375.1 2311.27 35
3 4 1 58893.1 2390.97 16
3 4 2 161432 5080.18 24
3 4 2 172212 5312.75 21
3 4 2 168685 5124.5 16
3 4 3 11501.8 997.731 24
3 4 3 11108.3 977.29 16
3 4 4 1872.11 402.894 24
3 4 4 3057.58 483.719 22
3 4 4 3308.52 542.992 21
3 4 5 25115.8 1343.06 24
3 4 5 24274.7 1282.89 22
3 4 5 23646 1344.48 17
3 4 6 13023.4 826.725 17
3 5 -8 25533.8 1424.8 37
3 5 -8 27861.4 1423.05 7
3 5 -7 17979.9 1295.33 35
3 5 -7 18853.9 1226.22 7
3 5 -6 6606.74 798.643 37
3 5 -6 7298.85 855.501 35
3 5 -6 6458.93 733.691 7
3 5 -5 1959.23 470.671 37
3 5 -5 1481.71 407.282 35
3 5 -5 1537.79 389.622 7
3 5 -4 71076.8 3105.84 37
3 5 -4 73988.6 3194.22 35
3 5 -2 199789 6192.73 37
3 5 -2 189353 6190.08 35
3 5 -1 10553.5 1047.55 37
3 5 -1 9597.24 1012.02 35
3 5 0 54637.1 2534.06 35
3 5 0 57434.9 2404.11 16
3 5 0 61151.9 2632.62 37
3 5 1 118842 4094.4 21
3 5 1 110292 3781.03 16
3 5 2 13716.8 1035.57 16
3 5 2 12241.8 1073.31 21
3 5 3 15011.9 1052.31 22
3 5 3 12530.9 1033.14 21
3 5 4 28849.2 1406.63 22
3 5 4 28387.7 1398.75 17
3 5 5 4589.48 436.609 22
3 5 5 4938.4 446.432 17
3 6 -8 25529.2 1365.71 37
3 6 -7 26871.3 1547.85 37
3 6 -6 87746.6 3357.06 37
3 6 -5 4772.24 703.51 37
3 6 -4 38226.1 2111.94 37
3 6 -4 36456.2 2105.46 35
3 6 -3 196868 6287.98 35
3 6 -2 13276.1 1186.7 37
3 6 -2 14988.8 1025.91 16
3 6 -1 23209.8 1528.35 37
3 6 -1 26231.8 1547.85 21
3 6 -1 22628 1304.95 16
3 6 0 42569.3 1883.42 16
3 6 0 44325.1 2104.97 21
3 6 1 21182 1347.79 21
3 6 2 17788.9 1159.38 21
3 6 3 5305.28 527.737 22
3 6 3 4973.48 453.517 17
3 6 4 537.854 141.273 22
3 7 -8 8349.99 655.991 37
3 7 -7 31350.6 1541.57 37
3 7 -6 4424.45 591.964 37
3 7 -5 12829.7 1058.62 37
3 7 -4 75792 2989.58 37
3 7 -4 73319.1 2499.16 21
3 7 -3 24342 1516.5 37
3 7 -3 26082.5 1314.05 21
3 7 -2 42669.6 2033.2 37
3 7 -2 46291.9 1903.72 21
3 7 -1 34405.3 1597.19 21
3 7 0 13493.6 912.388 21
3 7 1 11128.7 774.352 22
3 8 -7 907.092 208.945 37
3 8 -6 22899.9 1155.03 37
3 8 -5 33480.4 1506.9 37
3 8 -3 4597.18 498.306 37
3 8 0 5410.39 402.126 22
4 -11 5 12357.5 721.936 33
4 -10 -4 25406.3 1299.72 3
4 -10 -3 3088.37 478.325 3
4 -10 -2 952.603 302.191 3
4 -10 4 12553.7 833.335 18
4 -10 5 22799.8 1150.16 18
4 -10 6 4196.46 464.733 33
4 -10 6 4178.6 439.266 18
4 -10 7 269.902 123.412 18
4 -9 -7 6400.04 468.26 3
4 -9 -6 388.591 191.661 3
4 -9 -5 27277.6 1532.97 3
4 -9 0 19705.3 1469.47 25
4 -9 1 20561.6 1511.29 25
4 -9 3 15372.8 1071.53 18
4 -9 4 46089 2081.29 18
4 -9 4 48666.5 2048.06 34
4 -9 5 1939.13 379.289 34
4 -9 5 1419.07 354.332 18
4 -9 6 75.5787 129.57 34
4 -9 6 275.228 196.494 33
4 -9 6 120.632 161.655 18
4 -9 7 15554.8 940.478 34
4 -9 7 16895.1 992.447 18
4 -9 8 1926.09 289.033 18
4 -8 -8 1491.3 245.129 3
4 -8 -7 894.821 275.643 3
4 -8 -6 12159.2 1036.66 3
4 -8 -3 23356 1450.49 25
4 -8 -2 21972.1 1463.9 25
4 -8 -1 44851.8 2279.28 4
4 -8 -1 44097.6 2250.64 25
4 -8 0 85341.2 3440.84 4
4 -8 0 84004.3 3409.99 25
4 -8 1 73137.4 2787.51 29
4 -8 2 44373.1 2260.32 4
4 -8 2 38801.1 1869.18 18
4 -8 2 40791.8 1938.2 29
4 -8 2 44832.9 2249.97 25
4 -8 3 135375 4351.45 18
4 -8 3 129266 4197.45 29
4 -8 3 135206 4507.75 25
4 -8 4 59831.3 2538.15 18
4 -8 4 56427.8 2320.61 29
4 -8 4 56290.5 2438.54 25
4 -8 5 5234.2 688.501 18
4 -8 5 4213.21 544.924 29
4 -8 5 4448.26 640.016 34
4 -8 6 21553.6 1365.33 34
4 -8 6 18664.9 1217.75 33
4 -8 6 17917.2 1259.98 18
4 -8 7 7723.43 747.482 34
4 -8 7 6486.08 678.293 18
4 -8 8 13366.1 738.802 11
4 -8 8 16156.7 970.788 34
4 -7 -8 4406.64 537.261 3
4 -7 -7 3029.3 521.192 3
4 -7 -6 42870.9 2220.56 3
4 -7 -4 35517.3 1714.34 25
4 -7 -3 20876.4 1323.27 25
4 -7 -2 2778.23 486.858 25
4 -7 -1 109589 3883.39 4
4 -7 -1 109084 3851.61 25
4 -7 0 15398.2 1214.37 4
4 -7 0 16679.9 1252.69 25
4 -7 1 4775.96 608.016 29
4 -7 2 202593 5990.38 4
4 -7 2 185074 5570.34 18
4 -7 2 202082 5745.91 29
4 -7 2 194149 5900.42 25
4 -7 3 38780.4 1941.91 18
4 -7 3 40064.5 1938.85 29
4 -7 3 40229.3 1993.42 25
4 -7 4 193614 5852.08 18
4 -7 4 195835 5733.77 29
4 -7 4 188777 5633.26 25
4 -7 5 56822.9 2550.46 18
4 -7 5 55758.8 2405.88 29
4 -7 6 12098.5 937.184 11
4 -7 6 13173.3 1112.78 34
4 -7 6 12883.3 993.049 33
4 -7 6 15115.3 1173.58 18
4 -7 6 10553.5 860.77 31
4 -7 6 11642.3 957.184 29
4 -7 7 11969.6 902.663 11
4 -7 7 10536.1 961.736 34
4 -7 7 11971.7 985.663 18
4 -7 7 11241.2 873.779 29
4 -7 8 34946 1541.78 11
4 -7 8 35369.9 1684.27 34
4 -7 8 36132.5 1653.18 18
4 -7 8 33657.1 1448.49 29
4 -7 9 11323.5 682.657 11
4 -6 -10 3684.81 367.931 6
4 -6 -9 680.861 226.224 3
4 -6 -8 7333.02 771.789 3
4 -6 -7 24127.4 1559.62 3
4 -6 -6 17608.4 1354.33 3
4 -6 -4 52083.9 2095.2 25
4 -6 -3 619.269 224.178 25
4 -6 -2 207029 5874.83 25
4 -6 -1 56908.4 2351.25 25
4 -6 0 1459.96 366.943 4
4 -6 0 1517.25 366.865 25
4 -6 1 18511 1080.92 18
4 -6 1 19437.2 1253.65 25
4 -6 2 34644 1660.34 18
4 -6 2 32834.8 1688.58 29
4 -6 2 35258.7 1758.55 25
4 -6 3 10044.7 733.289 10
4 -6 3 9358.24 873.498 18
4 -6 3 12170.4 986.344 29
4 -6 3 9135.07 686.632 28
4 -6 3 10229.3 878.799 25
4 -6 4 54397.9 2149.39 10
4 -6 4 56400.6 2425.12 8
4 -6 4 51810.8 2365.1 18
4 -6 4 54171.9 2366.08 29
4 -6 4 46407 2005.84 28
4 -6 4 56072.9 2202.63 25
4 -6 5 12838.7 898.838 12
4 -6 5 10964.8 930.852 11
4 -6 5 11471.5 938.744 10
4 -6 5 10743.9 1022.45 8
4 -6 5 12249.6 1065.61 18
4 -6 5 12088.2 1035.18 29
4 -6 5 10544.5 890.041 28
4 -6 6 14786.8 1113.2 11
4 -6 6 12507.9 1020.12 10
4 -6 6 13830.3 1163.73 8
4 -6 6 13354.3 993.546 33
4 -6 6 14365.1 1169.27 18
4 -6 6 13508.4 1039.43 31
4 -6 6 14411.3 1120.45 29
4 -6 6 11463.7 861.808 12
4 -6 7 55264.3 2332.44 11
4 -6 7 56879.7 2477.7 8
4 -6 7 49306 2184.25 31
4 -6 7 50952.5 2262.26 29
4 -6 8 9643.19 823.641 11
4 -6 8 12183.3 940.468 34
4 -6 8 9572.97 796.511 31
4 -6 8 10582.1 835.804 29
4 -6 9 478.913 185.089 11
4 -6 9 27.9214 257.796 31
4 -6 9 490.994 171.667 29
4 -6 10 9561.7 535.589 11
4 -5 -10 2057.74 363.483 6
4 -5 -9 3336.21 484.414 3
4 -5 -8 8638.17 865.018 3
4 -5 -7 2587.06 508.702 3
4 -5 -6 138803 4621.43 3
4 -5 -5 49894.2 1908.41 25
4 -5 -4 932.122 242.946 25
4 -5 -3 145973 4250.92 25
4 -5 -2 180324 5060.34 25
4 -5 -1 7331.69 669.078 25
4 -5 1 62699.5 1897.05 10
4 -5 1 62389.9 2355.18 25
4 -5 2 28272.8 1233.11 10
4 -5 2 30631 1478.13 18
4 -5 2 30392.2 1563.38 29
4 -5 2 29278.9 1195.87 28
4 -5 2 33660.4 1554.01 25
4 -5 3 203615 5498.59 11
4 -5 3 205424 5457.52 10
4 -5 3 207078 5783.37 18
4 -5 3 206348 5855.47 29
4 -5 3 192327 5473.4 15
4 -5 3 190440 5321.41 28
4 -5 3 200288 5777.39 8
4 -5 3 201917 5575.94 25
4 -5 4 43975.3 1941.28 11
4 -5 4 45627.4 1939.76 10
4 -5 4 41639.2 2050.69 8
4 -5 4 43778.1 2064.92 18
4 -5 4 46869.4 2145.13 29
4 -5 4 40779.4 1821.95 28
4 -5 4 41468.6 1760.05 13
4 -5 4 43043.2 1781.74 25
4 -5 5 1508.48 352.738 12
4 -5 5 2338.94 451.581 11
4 -5 5 1497.78 333.433 33
4 -5 5 1821.37 412.613 18
4 -5 5 2793.09 475.88 10
4 -5 5 2448.78 499.35 8
4 -5 5 1546.19 367.834 31
4 -5 5 1913.52 446.329 29
4 -5 5 1691.72 347.558 13
4 -5 6 97672.4 3488.72 11
4 -5 6 92476 3388.96 10
4 -5 6 94955.9 3605.57 8
4 -5 6 85193.1 3269.61 31
4 -5 6 100949 3584.53 29
4 -5 6 94199.1 3246.13 13
4 -5 6 87869.2 3199.72 12
4 -5 7 26865 1590.97 11
4 -5 7 29085.3 1711.27 8
4 -5 7 29177.6 1658.42 34
4 -5 7 24447.6 1490.81 31
4 -5 7 26653.3 1601.12 29
4 -5 7 26525 1454.23 13
4 -5 7 26530.4 1439.7 12
4 -5 8 182.93 192.131 11
4 -5 8 343.142 187.565 34
4 -5 8 346.327 209.986 31
4 -5 8 486.856 245.914 29
4 -5 9 13510.7 884.816 11
4 -5 9 11911.2 821.33 31
4 -5 9 13872.2 867.703 29
4 -5 10 6748.17 474.392 11
4 -5 10 6471.91 468.312 31
4 -4 -11 -45.248 116.333 6
4 -4 -10 23590.5 1323.02 6
4 -4 -9 5619.69 671.378 3
4 -4 -8 365.638 210.113 3
4 -4 -7 96238 3514.12 3
4 -4 -6 35984.9 1843.78 3
4 -4 -5 10173 878.423 3
4 -4 -5 10096.4 705.844 25
4 -4 -4 74447.8 2457.54 25
4 -4 -3 177614 4826.1 25
4 -4 -2 294479 7451.87 25
4 -4 -1 179072 4889.08 25
4 -4 1 51118.6 1690.84 10
4 -4 1 52646.7 1958.72 25
4 -4 2 242783 6229.93 10
4 -4 2 237886 6653.29 29
4 -4 2 253177 6438.68 25
4 -4 3 126540 3801.22 11
4 -4 3 125813 3755.8 10
4 -4 3 127068 4009.86 8
4 -4 3 132072 3970.33 18
4 -4 3 120263 3678.19 31
4 -4 3 126598 4100.77 29
4 -4 3 119455 3807.6 15
4 -4 3 131124 3751.68 25
4 -4 4 35653.2 1726.95 11
4 -4 4 36868.4 1701.34 10
4 -4 4 32136.6 1540.72 20
4 -4 4 36049.8 1848.23 8
4 -4 4 37882.2 1818.59 18
4 -4 4 34828.7 1650.62 31
4 -4 4 37787.2 1891.72 29
4 -4 4 32673.2 1423.31 25
4 -4 5 106508 3678.66 11
4 -4 5 105097 3618.18 10
4 -4 5 99090.5 3538.51 31
4 -4 5 108839 3853.27 29
4 -4 5 107248 3587.3 13
4 -4 6 36659.4 1924.53 11
4 -4 6 35487.1 1866.18 10
4 -4 6 37793 1946.99 34
4 -4 6 33486.1 1928.47 8
4 -4 6 33393 1812.79 31
4 -4 6 40237.7 2050.89 29
4 -4 6 36182.3 1843.61 13
4 -4 6 33360.6 1789.89 12
4 -4 7 2018.01 426.44 12
4 -4 7 1952.48 433.491 11
4 -4 7 2041.28 429.158 34
4 -4 7 2001.75 467.265 8
4 -4 7 2271.71 457.87 31
4 -4 7 2289.67 494.892 29
4 -4 7 2138.47 441.212 13
4 -4 8 14128.4 1057.37 11
4 -4 8 10295.9 893.289 31
4 -4 8 13863.1 1041.72 29
4 -4 8 13140.3 971.763 13
4 -4 8 10981.2 875.812 12
4 -4 9 15190 952.567 11
4 -4 9 14289.2 915.414 31
4 -4 9 15717.3 963.892 29
4 -4 10 16489.8 770.634 31
4 -3 -11 49172.3 1851.53 6
4 -3 -10 4544.23 593.961 6
4 -3 -9 1035.55 308.055 3
4 -3 -8 40028.2 1978.75 3
4 -3 -7 106640 3685.19 3
4 -3 -6 10706.7 900.443 3
4 -3 -5 16671.2 1096.46 3
4 -3 -5 16692.5 910.656 25
4 -3 -4 53938.1 1901.58 25
4 -3 -3 4703.67 454.257 25
4 -3 -2 91063.8 2769.81 25
4 -3 -1 25853.3 1177.05 25
4 -3 0 3100.07 376.211 25
4 -3 1 192860 4927.13 10
4 -3 1 189991 5122.77 25
4 -3 2 124356 3556.27 10
4 -3 2 123996 3596.08 25
4 -3 3 1377.42 291.52 11
4 -3 3 947.121 243.975 10
4 -3 3 1316.52 300.108 18
4 -3 3 1160.62 296.227 8
4 -3 3 1475.59 292.134 31
4 -3 3 1030.87 277.309 15
4 -3 3 1225.85 267.662 14
4 -3 4 96479.6 3247.11 11
4 -3 4 92445.9 3153.92 10
4 -3 4 86558.2 2991.4 20
4 -3 4 91130.8 3284.46 8
4 -3 4 93333.8 3137.01 31
4 -3 4 91247.9 3137.22 14
4 -3 4 95082.9 3354.71 24
4 -3 5 75089.7 2954.98 12
4 -3 5 75529.1 2942.59 11
4 -3 5 80706.2 2952.21 10
4 -3 5 75409.9 2986.94 8
4 -3 5 70431 2604.62 17
4 -3 5 72536.8 2830.83 31
4 -3 5 82075.1 3169.5 29
4 -3 5 74831.9 2904.47 13
4 -3 5 73565.8 2983.55 24
4 -3 6 9489.45 940.85 11
4 -3 6 10210 950.425 10
4 -3 6 8809.49 866.97 34
4 -3 6 10999.6 1017.91 8
4 -3 6 10172.7 845.67 17
4 -3 6 9772.54 927.949 31
4 -3 6 11075.9 1051.71 29
4 -3 6 11448.1 1013.25 13
4 -3 6 10800.9 979.26 12
4 -3 7 43064.9 2092.22 11
4 -3 7 40260.5 2047.31 8
4 -3 7 40652.7 1864.99 34
4 -3 7 40500.8 1811.64 17
4 -3 7 39565.5 1994.8 31
4 -3 7 45251.7 2178.74 29
4 -3 7 40302 2029.61 13
4 -3 7 42178.7 2032.43 12
4 -3 8 20900.1 1306.59 29
4 -3 8 17842.1 1196.69 13
4 -2 -11 6836.38 642.472 6
4 -2 -10 47.7477 153.107 6
4 -2 -9 9096.35 894.578 6
4 -2 -8 51887.9 2283.86 3
4 -2 -7 1791.28 395.589 3
4 -2 -6 29144.4 1520.74 3
4 -2 -4 1952.55 293.6 25
4 -2 -3 438447 10517.8 25
4 -2 -2 193982 5085.18 25
4 -2 0 360835 8827.82 25
4 -2 2 1334.95 329.185 29
4 -2 2 1504.45 271.182 10
4 -2 3 27884.8 1521.21 24
4 -2 3 29879.2 1451.41 11
4 -2 3 31312.3 1443.62 10
4 -2 3 26902.6 1401.88 20
4 -2 3 26849.9 1397.83 8
4 -2 3 29523.7 1411.29 31
4 -2 3 29028.4 1614.36 29
4 -2 3 30389.4 1441.77 14
4 -2 4 93902.9 3408.16 24
4 -2 4 97724.4 3316.84 11
4 -2 4 96931.6 3262.62 10
4 -2 4 92671.2 3142.17 20
4 -2 4 94004.6 3282.31 8
4 -2 4 93509.1 3229.44 31
4 -2 4 96167.9 3542.66 29
4 -2 4 96892.7 3301.81 14
4 -2 5 16691.9 1248.55 24
4 -2 5 16625.4 1200.48 11
4 -2 5 17480 1206.22 10
4 -2 5 15632.2 1158.56 8
4 -2 5 15184.5 1135.2 31
4 -2 5 17653.5 1144.49 17
4 -2 5 16718.4 1306.33 29
4 -2 5 17005.1 1231.21 13
4 -2 6 56729.5 2541.52 24
4 -2 6 54822.8 2325.56 17
4 -2 6 55757.5 2443.85 31
4 -2 6 54455 2384.4 8
4 -2 7 9312.7 829.45 17
4 -2 8 810.113 303.936 11
4 -2 8 2221.07 426.846 31
4 -2 9 50070.7 1819.28 31
4 -1 -11 360.41 180.271 6
4 -1 -10 5198.41 646.611 6
4 -1 -9 54208.5 2199.46 2
4 -1 -9 51884.3 2360.99 6
4 -1 -8 -50.7239 162.65 6
4 -1 -7 14968.6 1107.65 6
4 -1 -6 33684.9 1667.61 6
4 -1 -5 301.391 150.751 35
4 -1 -4 336325 8393.49 35
4 -1 -3 154678 4307.77 35
4 -1 -2 68046.9 2282.72 35
4 -1 -1 256405 6525.3 35
4 -1 0 317464 7865.36 35
4 -1 1 20975.3 1012.69 35
4 -1 2 17312.6 1001.64 11
4 -1 2 17197.7 981.654 31
4 -1 2 16810.9 1123.08 29
4 -1 2 16180.1 983.769 14
4 -1 3 53154.6 2308.03 24
4 -1 3 59952.6 2262.18 11
4 -1 3 58594.6 2305.25 20
4 -1 3 53121.9 2230.51 19
4 -1 3 57093.3 2189.42 31
4 -1 3 58364 2144.97 16
4 -1 3 52946.5 2365.35 29
4 -1 3 57211.5 2241.23 14
4 -1 4 60541.1 2591.04 24
4 -1 4 64018.8 2690.26 12
4 -1 4 60871.5 2419.93 20
4 -1 4 59245.2 2382.54 19
4 -1 4 61436.5 2446.03 31
4 -1 4 63209.4 2709.96 29
4 -1 4 62648.7 2520.21 14
4 -1 5 161786 5119.73 24
4 -1 5 148099 4511.1 32
4 -1 5 161456 5160.51 29
4 -1 5 159651 5068.82 13
4 -1 5 160415 5158.37 12
4 -1 6 8633.57 893.735 24
4 -1 6 7992.97 819.067 11
4 -1 6 8547.86 829.304 17
4 -1 6 7651.7 862.567 29
4 -1 6 8038.5 875.625 13
4 -1 6 8131.23 889.611 12
4 -1 7 668.101 271.781 12
4 -1 7 594.812 268.947 24
4 -1 7 265.715 178.449 17
4 -1 7 611.381 283.235 29
4 -1 7 463.16 257.459 13
4 -1 8 48112.8 1902.13 17
4 -1 8 50539.6 2056.84 13
4 0 -11 1304.23 294.287 6
4 0 -10 17837 1209.57 6
4 0 -9 102.792 206.602 6
4 0 -8 52071.3 2194.02 2
4 0 -8 55095.4 2380.18 6
4 0 -7 31452.6 1573.04 2
4 0 -7 30128.2 1637.05 6
4 0 -6 1104.33 262.77 35
4 0 -6 1528.05 333.633 2
4 0 -6 1392.51 334.787 6
4 0 -5 402418 9985.82 35
4 0 -4 212259 5770.6 35
4 0 -3 16686.6 1003.57 35
4 0 -1 231722 6064.21 35
4 0 0 300.534 150.322 35
4 0 1 152064 4499.62 20
4 0 1 151773 4202.19 35
4 0 1 151964 4220.79 31
4 0 1 146177 4259.72 14
4 0 2 70387.3 2658.19 24
4 0 2 69423.4 2697.21 20
4 0 2 74455.1 2340.93 35
4 0 2 70893.9 2768.04 19
4 0 2 73627.3 2544.1 31
4 0 2 73316.3 2528.74 16
4 0 2 68917.7 2649.42 29
4 0 2 74466 2611.88 14
4 0 3 3387.58 535.8 24
4 0 3 3923.28 476.733 21
4 0 3 4271.73 599.092 19
4 0 3 4426.57 544.411 32
4 0 3 3893.28 503.109 16
4 0 3 3723.73 556.492 29
4 0 3 3725.46 527.505 14
4 0 4 150500 4857.39 24
4 0 4 140840 4626.34 19
4 0 4 145007 4375.11 32
4 0 4 152182 4617.5 16
4 0 4 152168 4407.38 21
4 0 4 152265 4825.22 29
4 0 4 146358 4717.86 14
4 0 4 152128 4964.31 12
4 0 5 11643.5 1067.75 24
4 0 5 11338.9 920.834 32
4 0 5 10990 1015.73 29
4 0 5 12753.5 1091.05 13
4 0 5 11871.1 1106.36 12
4 0 6 3271.48 554.849 24
4 0 6 2992.92 505.385 17
4 0 6 3701.66 564.35 29
4 0 6 4252.03 629.582 13
4 0 6 4245.3 634.071 12
4 0 7 1097.02 320.128 24
4 0 7 1201.38 306.487 17
4 0 7 1213.65 332.374 13
4 0 8 33426.4 1421.2 17
4 0 8 34489 1457.75 13
4 1 -10 1300.07 331.727 6
4 1 -9 88926.4 3269.89 6
4 1 -8 60063.2 2357.27 2
4 1 -8 55952.3 2449.28 6
4 1 -7 113.512 112.421 35
4 1 -7 338.612 198.727 2
4 1 -7 439.094 229.051 6
4 1 -6 63905.9 2505.03 2
4 1 -6 67913.1 2527.36 35
4 1 -6 65670.5 2598.54 6
4 1 -6 65180.3 2532.04 37
4 1 -5 158828 4664.72 2
4 1 -5 150232 4685 37
4 1 -5 156502 4675.52 35
4 1 -5 156982 4727.63 6
4 1 -4 1254.25 323.821 37
4 1 -4 787.504 252.064 35
4 1 -3 10830 857.612 35
4 1 -3 10201.1 855.987 37
4 1 -2 69702 2611.93 37
4 1 -1 13844.9 979.532 37
4 1 -1 14483.5 970.569 35
4 1 0 306522 7957.76 37
4 1 0 306923 8212.85 19
4 1 0 303999 7768.71 14
4 1 0 306414 7910.03 35
4 1 1 11880.5 824.425 35
4 1 1 11574.1 1008.39 19
4 1 1 11118.6 824.154 37
4 1 1 11547.9 849.405 14
4 1 2 2874.38 482.418 24
4 1 2 3372.76 409.372 35
4 1 2 3561.24 589.541 19
4 1 2 3544.32 476.732 29
4 1 2 4055.76 535.706 14
4 1 3 153190 4901.31 24
4 1 3 153891 4660.82 21
4 1 3 150803 5003.92 19
4 1 3 151828 4661.46 29
4 1 3 163099 4895.73 14
4 1 3 158931 5013.74 12
4 1 4 144692 4800.41 24
4 1 4 141191 4289.12 22
4 1 4 144384 4476.29 21
4 1 4 152510 4611 29
4 1 4 151769 4887.6 12
4 1 5 608.135 276.321 12
4 1 5 164.12 239.126 24
4 1 5 163.401 198.121 13
4 1 6 14252.4 1083.53 24
4 1 6 13876.1 1045.52 17
4 1 6 15314.2 1113.67 13
4 1 7 72033.2 2506.41 24
4 1 7 69883.7 2495.99 17
4 1 7 72558.4 2485.58 13
4 1 8 79.0289 86.3513 17
4 2 -9 43753.7 2043.45 6
4 2 -8 497.061 224.843 2
4 2 -8 657.803 281.295 6
4 2 -7 32018.7 1659.98 35
4 2 -7 34787.3 1806.75 6
4 2 -7 34120.1 1731.19 37
4 2 -7 34701 1709.66 2
4 2 -6 249207 7007.43 37
4 2 -6 237180 6908.56 35
4 2 -6 261352 7071.46 6
4 2 -6 249017 6893.94 2
4 2 -5 2096.32 440.147 37
4 2 -5 1870.75 395.2 2
4 2 -5 1741.69 393.067 35
4 2 -4 51027.6 2328.82 37
4 2 -4 52482.5 2334.33 35
4 2 -4 55935.6 2295.79 2
4 2 -3 36126.8 1879.6 37
4 2 -3 36101.8 1862.4 35
4 2 -3 36107.4 1696.02 19
4 2 -3 38982.2 1794.11 7
4 2 -3 39036.9 1838.64 2
4 2 -2 1449.82 370.173 37
4 2 -2 1523.68 349.484 2
4 2 -2 1476.12 359.465 35
4 2 -2 1704.36 360.879 19
4 2 -2 1672.4 347.774 7
4 2 -1 150895 4624.89 35
4 2 -1 148455 4668.09 19
4 2 -1 146983 4402.44 7
4 2 -1 149169 4659.8 37
4 2 -1 142299 4247.7 14
4 2 0 65444.3 2557.99 37
4 2 0 67589.5 2551.08 35
4 2 0 65745.2 2760.98 19
4 2 0 58951.9 2319.43 14
4 2 1 1132.21 283.026 37
4 2 1 1636.22 331.786 35
4 2 1 1149.26 293.272 16
4 2 1 1487.37 329.64 14
4 2 2 104495 3677.93 24
4 2 2 112263 3762.74 21
4 2 2 108925 4064.74 19
4 2 2 111845 3716.94 16
4 2 2 109549 3713.79 14
4 2 2 114417 3767.63 12
4 2 3 149320 4857.9 24
4 2 3 156891 4811 21
4 2 3 156444 4847.21 16
4 2 3 147074 4795.71 14
4 2 3 159527 4869.2 12
4 2 4 1930.09 410.989 12
4 2 4 1571.2 398.081 24
4 2 4 2488.6 409.761 22
4 2 4 1519.22 359.13 21
4 2 4 1134.98 326.944 13
4 2 5 16588.3 1163.09 24
4 2 5 17630 1185.71 13
4 2 6 6963.46 644.248 24
4 2 6 6723.44 650.598 17
4 2 6 7850.58 647.743 13
4 2 7 807.803 197.594 17
4 3 -10 62204.7 2270.99 7
4 3 -9 1872.45 384.715 7
4 3 -8 18364.2 1187.38 37
4 3 -8 18587.3 1232.63 7
4 3 -8 17601.9 1125.79 2
4 3 -7 54437.1 2402.14 37
4 3 -7 53440.4 2355.61 35
4 3 -7 55695.9 2369.02 7
4 3 -7 51796.6 2229.42 2
4 3 -6 8647.1 899.991 37
4 3 -6 9231.28 911.675 35
4 3 -6 8980.87 867.745 7
4 3 -6 9975.96 895.339 2
4 3 -5 57633 2645.01 37
4 3 -5 56575 2612.95 35
4 3 -5 65086.7 2594.71 7
4 3 -5 62209.5 2540.46 2
4 3 -4 14573.9 1229.73 37
4 3 -4 14246.6 1206.1 35
4 3 -4 15722.2 1031.91 19
4 3 -4 16507.4 1174.92 7
4 3 -4 18157.2 1242.21 2
4 3 -3 312.587 171.28 19
4 3 -2 139222 4650.99 37
4 3 -2 129398 4532.34 35
4 3 -2 134389 4403.69 19
4 3 -2 139889 4384.68 7
4 3 -2 131851 3984.33 14
4 3 -1 172083 5337.46 37
4 3 -1 162862 5230 35
4 3 -1 173877 5359.87 19
4 3 -1 160716 4747.8 14
4 3 0 205.561 176.237 37
4 3 0 200.297 148.744 35
4 3 0 744.743 300.907 19
4 3 0 159.818 160.684 14
4 3 1 18672.4 1179.82 37
4 3 1 15379.3 1074.75 35
4 3 1 18522.8 1228.89 16
4 3 1 16092.8 1103.58 14
4 3 2 104237 3617.5 24
4 3 2 110388 3883.74 21
4 3 2 116036 3869.19 16
4 3 2 117615 3768.2 14
4 3 3 14243.9 1016.69 22
4 3 3 14026.7 1085.84 16
4 3 3 14741.9 1112.34 21
4 3 3 15847.7 1108.09 13
4 3 4 19471.3 1134.87 22
4 3 4 20444.3 1260.77 21
4 3 4 20116.6 1166.62 13
4 3 5 7104.62 677.331 17
4 3 6 837.665 207.195 17
4 4 -10 312.291 150.136 7
4 4 -9 3067.47 457.962 7
4 4 -8 807.447 277.719 7
4 4 -8 721.37 256.839 37
4 4 -7 70928.1 2837.17 37
4 4 -7 63748.1 2721.23 35
4 4 -7 65211.4 2655.3 7
4 4 -6 78098.6 3154.89 37
4 4 -6 71437.5 3050 35
4 4 -6 73148.6 2916.61 7
4 4 -5 74106.6 3154.03 37
4 4 -5 69112 3081.22 35
4 4 -5 77395.1 2995.15 7
4 4 -4 20367 1510.8 37
4 4 -4 18115.1 1448.79 35
4 4 -4 20373.8 1384.41 7
4 4 -3 110920 4192.07 35
4 4 -2 165981 5446.06 37
4 4 -2 161325 5407.82 35
4 4 -1 121.116 194.188 37
4 4 -1 59.7825 125.504 35
4 4 0 18476 1284.01 37
4 4 0 17851.9 1269.14 35
4 4 0 16860.9 1193.56 16
4 4 1 117230 4060.28 21
4 4 1 115609 3905.42 16
4 4 2 20829.1 1315 16
4 4 3 64207.9 2378.17 22
4 4 3 64554.4 2525.31 21
4 4 4 11812.4 842.152 17
4 4 5 892.719 196.039 17
4 5 -8 16723.7 1107.07 37
4 5 -8 17833 1107.46 7
4 5 -7 38461 1945.17 37
4 5 -7 38628.8 1849.34 7
4 5 -6 109362 3959.64 37
4 5 -5 254.004 255.308 37
4 5 -4 30882.6 1913.88 37
4 5 -3 96598.7 3788.4 37
4 5 -2 5882.87 784.312 37
4 5 -1 24686.5 1553.49 37
4 5 -1 25269.4 1430.77 16
4 5 0 13783.5 1090.68 21
4 5 0 12041.2 950.695 16
4 5 1 93.6316 150.147 21
4 5 1 201.573 169.282 16
4 5 2 25186.4 1278.41 22
4 5 2 24732.7 1359.97 21
4 5 3 11517.5 743.484 17
4 6 -8 14941.7 929.449 37
4 6 -7 60049.4 2375.41 37
4 6 -6 393.941 238.876 37
4 6 -5 52638.5 2390.22 37
4 6 -3 16962.6 1238.95 37
4 6 -3 16331.6 1014.7 16
4 6 -2 19430 1279.81 37
4 6 -2 20532 1233.19 21
4 6 -2 20313.7 1137.75 16
4 6 -1 14535.7 999.922 21
4 6 -1 12897.3 856.852 16
4 6 0 699.856 228.15 21
4 6 1 11568.5 762.571 22
4 6 1 13739 853.454 21
4 6 2 18879.2 851.06 22
4 7 -7 2978.65 381.393 37
4 7 -6 8470.81 696.008 37
4 7 -5 24512.3 1287.82 37
4 7 -4 11619.6 670.689 21
4 7 -3 15198.3 811.234 21
4 7 -3 16006.2 966.121 37
4 7 -2 8496.31 580.527 21
4 7 -1 140.75 94.4307 21
4 7 0 13953 679.796 22
5 -10 -5 9423.53 690.674 3
5 -10 -4 109.226 152.874 3
5 -10 -3 6352.97 666.865 3
5 -10 4 17495.3 935.184 18
5 -10 5 116.056 112.552 34
5 -9 -7 743.541 204.421 3
5 -9 -6 12020.2 900.8 3
5 -9 -4 20453.1 1403.05 3
5 -9 -3 18172.9 1341.05 3
5 -9 -2 34875.5 1891.44 3
5 -9 -1 2253.27 438.751 29
5 -9 -1 1436.59 372.159 3
5 -9 0 63298.7 2561.75 29
5 -9 1 34259.8 1731.7 29
5 -9 2 977.111 290.67 29
5 -9 3 31485.7 1564.69 18
5 -9 3 30916.2 1561.31 29
5 -9 4 399.205 221.795 34
5 -9 4 209.748 176.304 18
5 -9 4 578.257 219.155 29
5 -9 5 14517.2 1015.93 34
5 -9 5 14240.9 986.769 18
5 -9 6 13797.2 920.258 34
5 -9 6 13322.4 886.619 18
5 -9 7 4641.43 455.807 34
5 -8 -8 1213 268.355 3
5 -8 -7 7274.14 727.785 3
5 -8 -6 2193.52 467.734 3
5 -8 -4 24597.7 1674.74 3
5 -8 -3 13621.2 1223.86 3
5 -8 -3 12324.7 1064.99 25
5 -8 -2 1047.04 373.853 3
5 -8 -2 939.11 326.702 25
5 -8 -1 174910 5444.1 3
5 -8 -1 174504 5595.08 25
5 -8 0 23109.4 1460.45 29
5 -8 0 20778.1 1514.75 25
5 -8 1 81846.5 3191.18 29
5 -8 1 86851.8 3438.69 25
5 -8 2 71504.5 2754.35 18
5 -8 2 80041.8 3029.04 29
5 -8 2 72719.4 3056.02 25
5 -8 3 1241.42 336.005 18
5 -8 3 1186.09 348.872 29
5 -8 3 985.329 325.967 25
5 -8 4 23096.6 1452.45 18
5 -8 4 23771.3 1436.06 29
5 -8 5 26847.1 1593.66 34
5 -8 5 29110.9 1615.66 18
5 -8 5 26745.4 1469.56 29
5 -8 6 25399.2 1431.68 34
5 -8 6 24131.1 1381.27 18
5 -8 6 22620.6 1237.15 29
5 -8 7 5899.88 590.403 34
5 -8 7 4501.6 445.105 29
5 -7 -9 4604.22 486.25 6
5 -7 -8 9919.29 850.619 3
5 -7 -7 12172.3 1055.57 3
5 -7 -6 17117 1352.57 3
5 -7 -4 21788.2 1567.29 3
5 -7 -4 18786 1259.72 25
5 -7 -3 128.448 220.211 3
5 -7 -3 309.308 197.635 25
5 -7 -2 52795.6 2466.43 3
5 -7 -2 48475.5 2316.12 25
5 -7 -1 2625.65 506.779 3
5 -7 -1 1371.66 387.788 25
5 -7 0 1928.13 333.249 15
5 -7 1 26758.9 1410.42 18
5 -7 1 27260.6 1621.77 29
5 -7 1 26013 1314.8 15
5 -7 1 30012.8 1741.66 25
5 -7 2 2162.69 428.709 18
5 -7 2 2094.88 474.525 29
5 -7 2 1809.54 424.801 25
5 -7 3 81956.7 3179.41 18
5 -7 3 86471.9 3298.69 29
5 -7 3 85037.3 3202.15 25
5 -7 4 43640 2142.39 18
5 -7 4 40094.9 2067.85 29
5 -7 5 27826.7 1641.06 18
5 -7 5 25766.9 1552.06 29
5 -7 6 8246.7 718.537 11
5 -7 6 9281.07 902.615 34
5 -7 6 8838.5 832.433 29
5 -7 7 34747.1 1515.12 11
5 -7 7 39909.6 1691.92 29
5 -7 8 3422.53 355.404 11
5 -7 8 3379.46 413.518 34
5 -7 8 4066.13 403.179 29
5 -6 -10 2714.17 282.62 2
5 -6 -10 3793.1 419.563 6
5 -6 -9 14253.8 977.509 3
5 -6 -8 13264.4 1077.52 3
5 -6 -7 3061.83 576.883 3
5 -6 -6 84559.4 3454.47 3
5 -6 -5 25784.6 1391.48 25
5 -6 -4 2102.82 498.538 3
5 -6 -4 1457.66 332.012 25
5 -6 -3 34400 1925.73 3
5 -6 -3 35336.3 1765.42 25
5 -6 -2 21475.8 1431.93 3
5 -6 -2 23255.5 1399.83 25
5 -6 -1 24123.4 1462.08 3
5 -6 -1 29433.6 1602.86 25
5 -6 1 60557.5 2293.93 18
5 -6 1 57884.7 2492.59 29
5 -6 1 55739.6 2192.88 15
5 -6 1 58624.4 2497.31 25
5 -6 2 53935.6 2287.1 18
5 -6 2 57337.1 2490.85 29
5 -6 2 50765.3 2120.66 15
5 -6 2 54899.8 2367.71 25
5 -6 3 111546 3797.46 18
5 -6 3 107954 3868.01 29
5 -6 3 102283 3600.66 25
5 -6 4 29413.3 1714.61 18
5 -6 4 31367.5 1776.42 29
5 -6 5 1149.39 301.889 12
5 -6 5 1860.21 391.3 11
5 -6 5 1535.35 414.273 18
5 -6 5 444.24 290.66 31
5 -6 5 1359.59 383.094 29
5 -6 6 57793.4 2386.41 11
5 -6 6 59362.8 2550.81 34
5 -6 6 58803.2 2521.86 29
5 -6 7 4474 557.246 11
5 -6 7 4312.01 562.272 34
5 -6 7 4571.67 580.309 29
5 -6 8 7229.35 597.027 11
5 -6 8 6050.21 556.697 34
5 -6 8 6805.62 594.572 29
5 -5 -11 2127.9 264.111 6
5 -5 -10 14395.4 844.008 2
5 -5 -10 15455.4 990.801 6
5 -5 -9 4103.25 570.712 3
5 -5 -8 1279.25 370.286 3
5 -5 -7 72266.5 3050.6 3
5 -5 -6 37053.7 2041.55 3
5 -5 -5 35619.3 1653.33 25
5 -5 -4 59641.6 2601.21 3
5 -5 -4 59105.4 2321.71 25
5 -5 -3 19889 1346.6 3
5 -5 -3 20855.3 1236.69 25
5 -5 -2 100841 3520.43 3
5 -5 -2 102420 3396.97 25
5 -5 -1 64106.3 2497.54 25
5 -5 0 94127.3 3255.44 25
5 -5 1 2447.61 397.477 18
5 -5 1 1958.26 359.876 15
5 -5 1 2075.87 422.211 29
5 -5 1 2604.76 444.93 25
5 -5 2 234090 6533.46 18
5 -5 2 235858 6804.22 29
5 -5 2 230190 6453.18 15
5 -5 2 241617 6580.96 25
5 -5 3 16655.2 1082.34 11
5 -5 3 15757.2 1035.84 10
5 -5 3 16582.9 1196.54 18
5 -5 3 15393.5 1220.41 29
5 -5 3 15455.7 987.42 14
5 -5 3 14788.5 1037.82 25
5 -5 4 234.906 180.322 11
5 -5 4 507.87 216.936 10
5 -5 4 424.966 212.581 20
5 -5 4 273.121 198.846 18
5 -5 4 413.919 237.884 29
5 -5 5 43607.6 2052.03 12
5 -5 5 42374.8 2059.46 11
5 -5 5 41701.8 2028.73 10
5 -5 5 41363.7 1949.82 31
5 -5 5 48889.4 2319.98 29
5 -5 5 43419.3 1972.93 13
5 -5 6 20725.7 1339.68 11
5 -5 6 21140.6 1381.23 34
5 -5 6 18079.8 1229.18 31
5 -5 6 21841.2 1440.52 29
5 -5 6 18263.8 1192.41 13
5 -5 6 20495.2 1284.33 12
5 -5 7 44182.6 1958.66 11
5 -5 7 41872 1878.74 34
5 -5 7 39323 1798.27 31
5 -5 7 39506.5 1782.1 12
5 -5 8 13288.1 869.941 11
5 -5 8 12491.2 817.094 31
5 -5 8 14626.4 918.011 29
5 -4 -11 12214.7 779.969 6
5 -4 -10 6865.57 628.168 2
5 -4 -10 7451.75 735.255 6
5 -4 -9 5678.89 704.314 3
5 -4 -9 4138.39 623.614 6
5 -4 -8 29656.2 1745.66 3
5 -4 -7 23642.5 1549.87 3
5 -4 -6 6623.85 803.849 3
5 -4 -5 3135.18 531.283 3
5 -4 -5 2914.79 423.513 25
5 -4 -4 10854.3 956.437 3
5 -4 -4 12364 874.213 25
5 -4 -3 62242.1 2531.67 3
5 -4 -3 62975 2344.25 25
5 -4 -2 103015 3331.35 25
5 -4 0 2426.13 442.607 29
5 -4 0 3755.64 493.102 25
5 -4 1 325849 8599.19 15
5 -4 1 335651 8346.27 14
5 -4 1 343587 8656.48 25
5 -4 2 71642.5 2476.74 11
5 -4 2 66356.8 2283.16 31
5 -4 2 69600.4 2618.79 15
5 -4 2 66721 2397.41 14
5 -4 2 65698.3 2507.58 25
5 -4 3 169.592 170.636 11
5 -4 3 490.708 235.818 20
5 -4 3 587.038 284.851 31
5 -4 3 512.162 197.053 14
5 -4 4 58754.7 2428.5 11
5 -4 4 56460.2 2360.52 10
5 -4 4 54338.6 2241.69 20
5 -4 4 50797.5 2211.5 31
5 -4 5 41112.2 2060.75 12
5 -4 5 44110.1 2108.87 11
5 -4 5 40641.4 1974.25 31
5 -4 5 44027.9 2228.74 29
5 -4 5 40582.4 1991.84 13
5 -4 6 47630.2 2178.36 11
5 -4 6 43154.1 2015.87 34
5 -4 6 39471.5 1961.25 31
5 -4 6 48867.5 2291.94 29
5 -4 6 42049.6 2018.66 13
5 -4 6 42758.9 2060.62 12
5 -4 7 25876.1 1445.2 11
5 -4 7 23617.5 1355.47 31
5 -4 7 28068.1 1541.23 29
5 -4 7 25444.5 1399.98 13
5 -4 7 25649.2 1407.29 12
5 -4 8 1431.89 306.98 29
5 -4 8 1828.33 316.859 13
5 -3 -11 5392.49 559.632 6
5 -3 -10 294.933 161.134 2
5 -3 -10 47.8371 142.054 6
5 -3 -9 7053.31 803.048 6
5 -3 -8 33641.7 1861.86 3
5 -3 -7 6018.86 753.987 3
5 -3 -6 48483.8 2264.83 3
5 -3 -5 65982 2679.44 3
5 -3 -4 18904.9 1233.7 3
5 -3 -4 16289.6 1018.83 25
5 -3 -3 351090 8877.7 25
5 -3 -2 96658.1 3135.94 25
5 -3 0 86104 3174.85 29
5 -3 0 100626 3148.73 25
5 -3 1 108863 3243.42 11
5 -3 1 101210 3434.24 20
5 -3 1 100959 3037.57 31
5 -3 1 102474 3594.26 29
5 -3 1 107448 3252.39 14
5 -3 2 35176.7 1610.83 11
5 -3 2 33823.2 1698.17 20
5 -3 2 33040.2 1484.47 31
5 -3 2 33414.7 1814.87 29
5 -3 2 34086.9 1583.05 14
5 -3 3 26279 1458.6 11
5 -3 3 26624.5 1491.24 20
5 -3 3 24896.6 1370.85 31
5 -3 3 28467.1 1696.45 29
5 -3 3 25817.9 1431.46 14
5 -3 4 17734 1248.07 11
5 -3 4 19527.8 1219.59 20
5 -3 4 17928.1 1074.27 17
5 -3 4 17300.2 1188.65 31
5 -3 4 18655.4 1388.74 29
5 -3 4 18262 1229.35 14
5 -3 5 28656.3 1652.31 11
5 -3 5 25712.5 1355.06 17
5 -3 5 27392.2 1564.93 31
5 -3 5 27784.2 1727.29 29
5 -3 5 27348.5 1612.56 13
5 -3 6 104145 3624.79 11
5 -3 6 95390.9 3456.64 31
5 -3 6 106534 3652.07 13
5 -3 6 96552.9 3570.66 12
5 -3 7 15521.2 1060.87 31
5 -3 7 13378.7 1005.37 13
5 -3 7 14693 1042.23 12
5 -3 8 268.393 149.135 13
5 -2 -12 7628.56 495.513 6
5 -2 -11 37.3677 150.204 6
5 -2 -10 305.322 179.229 2
5 -2 -10 199.126 181.084 6
5 -2 -9 17858.3 1224.34 2
5 -2 -9 20913.3 1409.89 6
5 -2 -8 7923.14 868.923 6
5 -2 -7 78056.8 3086.05 6
5 -2 -5 6966.36 747.678 6
5 -2 -4 360692 9332.8 6
5 -2 -1 25967.4 1310.68 20
5 -2 -1 21240.1 1243.55 29
5 -2 0 135650 4083 15
5 -2 0 140115 3899.01 14
5 -2 1 137045 4357.21 20
5 -2 1 140110 3998.72 31
5 -2 1 146057 3971.81 16
5 -2 1 139524 4464.32 29
5 -2 1 138932 4370.45 15
5 -2 1 143010 4162.89 14
5 -2 2 90879.3 3302.92 20
5 -2 2 93484.1 3069.91 31
5 -2 2 97598.5 3013.53 16
5 -2 2 94232.8 3402.19 15
5 -2 2 91093.4 3426.46 29
5 -2 2 98070.7 3226.18 14
5 -2 3 12698.1 1009.48 11
5 -2 3 12719.9 1024.6 20
5 -2 3 13426.8 1025.34 19
5 -2 3 13062.3 986.981 31
5 -2 3 13456.5 915.15 16
5 -2 3 14471.7 1165.86 29
5 -2 3 11585.4 960.621 14
5 -2 3 12803.9 1055.42 24
5 -2 4 9842.72 975.193 12
5 -2 4 9618.45 900.167 11
5 -2 4 8094.19 795.032 20
5 -2 4 7622.32 743.547 19
5 -2 4 9821.46 886.161 31
5 -2 4 9300.01 968.592 29
5 -2 4 9864.82 955.837 24
5 -2 5 177578 5168.36 17
5 -2 5 165810 5244.27 31
5 -2 5 176691 5567.19 29
5 -2 5 186203 5614.26 12
5 -2 6 15464.9 1040.88 17
5 -2 6 17498.1 1239.29 29
5 -2 6 17019.7 1240.29 12
5 -2 7 283.562 196.407 12
5 -2 7 79.8683 145.232 29
5 -1 -12 360.652 145.914 6
5 -1 -11 3643.16 496.217 6
5 -1 -10 9777.96 799.457 2
5 -1 -10 9816.58 905.772 6
5 -1 -9 1529.01 370.033 2
5 -1 -9 1831.91 432.335 6
5 -1 -8 151879 4792.6 2
5 -1 -8 154734 4982.67 6
5 -1 -7 25023.1 1493.23 2
5 -1 -7 26508.2 1594.69 6
5 -1 -6 2821.94 484.53 2
5 -1 -6 2989.99 535.728 6
5 -1 -5 135599 4429.74 2
5 -1 -5 150351 4384.55 35
5 -1 -5 143761 4537.2 6
5 -1 -4 153480 4553.75 35
5 -1 -4 148263 4618.92 6
5 -1 -3 2354.96 392.256 35
5 -1 -3 1553.16 351.291 2
5 -1 -2 40521.8 1734.4 20
5 -1 -1 123846 3882.13 20
5 -1 -1 128609 3865.43 35
5 -1 -1 122491 3837.79 15
5 -1 0 33546.9 1535.94 35
5 -1 0 29322.4 1524.54 29
5 -1 0 34073.9 1654.9 15
5 -1 0 33986.7 1531.52 14
5 -1 1 139751 4393.07 20
5 -1 1 139732 4010.97 16
5 -1 1 130305 4333.63 15
5 -1 1 131936 4268.56 29
5 -1 1 139477 4171.35 14
5 -1 2 1673.4 375.088 24
5 -1 2 2426 473.133 20
5 -1 2 2659.68 496.149 19
5 -1 2 1861.08 344.21 16
5 -1 2 2342.26 458.711 29
5 -1 2 2278.11 410.868 14
5 -1 3 51.6414 140.099 24
5 -1 3 567.672 250.262 20
5 -1 3 411.896 225.078 19
5 -1 3 331.975 174.338 16
5 -1 3 435.789 238.124 29
5 -1 3 441.196 222.393 14
5 -1 4 24881.8 1570.83 24
5 -1 4 24478.3 1604.34 12
5 -1 4 24947.4 1458.25 19
5 -1 4 29988.3 1633.94 31
5 -1 4 26796 1625.39 29
5 -1 4 25349.6 1556.02 14
5 -1 5 48083.1 2126.92 17
5 -1 5 50192.2 2271.41 29
5 -1 5 50531.3 2334.27 13
5 -1 5 51341.2 2376.14 12
5 -1 5 45072.4 2195.81 24
5 -1 6 1286.79 351.968 12
5 -1 6 1084.03 278.384 17
5 -1 6 649.327 252.482 29
5 -1 6 1000.64 327.352 13
5 -1 7 24503.2 1274.91 13
5 0 -11 3336.03 466.171 6
5 0 -10 826.259 306.62 6
5 0 -9 66464.9 2598.18 2
5 0 -9 66854.1 2777.9 6
5 0 -8 22023.1 1382.84 2
5 0 -8 21622.5 1446.92 6
5 0 -7 3735.71 566.946 2
5 0 -7 3399.22 497.603 35
5 0 -7 3056.7 538.549 6
5 0 -6 1810.13 378.921 35
5 0 -6 1257.66 343.574 2
5 0 -6 1725.29 412.086 6
5 0 -5 105387 3611.9 2
5 0 -5 106711 3618.1 35
5 0 -5 100154 3612.07 6
5 0 -4 939.901 311.976 37
5 0 -4 747.475 222.379 20
5 0 -4 705.229 273.78 35
5 0 -4 699.29 265.538 6
5 0 -3 100477 3420.36 2
5 0 -3 96785 3436.23 37
5 0 -3 98647.9 3216.79 20
5 0 -3 99291.7 3407.58 35
5 0 -3 95896.9 3356.18 6
5 0 -2 9835.73 875.168 37
5 0 -2 10899.5 864.162 20
5 0 -2 9786.54 778.414 15
5 0 -2 9476.1 839.342 35
5 0 -2 9844.8 855.81 2
5 0 -1 33211.2 1664.18 20
5 0 -1 34314.3 1648.79 35
5 0 -1 29666 1418.55 7
5 0 -1 33050.9 1598 15
5 0 -1 30994.4 1578.95 2
5 0 0 271332 7107.72 35
5 0 0 266962 7267.89 15
5 0 0 282063 7120.11 14
5 0 1 75304.8 3042.19 20
5 0 1 79505.3 2732.64 35
5 0 1 77859 3144.34 19
5 0 1 79881.1 2799.54 16
5 0 1 83122.8 2939.32 14
5 0 2 362.748 212.917 24
5 0 2 464.72 253.906 19
5 0 2 128.104 171.742 16
5 0 2 130.977 175.589 29
5 0 2 524.12 251.777 14
5 0 3 79807.9 3203.74 12
5 0 3 77425.1 3017.49 24
5 0 3 78987.4 2764.34 21
5 0 3 76471.2 3117.14 19
5 0 3 75958.4 2895.07 16
5 0 3 80078.3 2957.3 29
5 0 3 86949.6 3158.44 14
5 0 4 185717 5621.93 24
5 0 4 181379 5452.31 29
5 0 4 195597 5851.65 12
5 0 5 500.703 258.048 12
5 0 5 876.199 296.258 24
5 0 5 928.562 279.005 17
5 0 5 953.713 304.674 13
5 0 6 22644.8 1214.96 17
5 0 6 23074.4 1297.66 13
5 0 7 7258.57 528.53 17
5 0 7 7858.92 577.895 13
5 1 -10 34540.3 1739.12 6
5 1 -9 86755.5 3236.79 6
5 1 -9 83348.2 3002.21 2
5 1 -8 192.376 184.336 2
5 1 -8 55.1086 176.722 6
5 1 -7 9668.1 888.672 35
5 1 -7 11211.8 1007.03 6
5 1 -7 10006 919.198 2
5 1 -6 79136.9 3114.09 37
5 1 -6 74275.4 2994.85 35
5 1 -6 82719.2 3143.24 6
5 1 -6 75721 2992.44 2
5 1 -5 168.94 152.637 37
5 1 -5 54.3887 147.422 35
5 1 -5 202.461 184.052 2
5 1 -4 59606 2626.24 37
5 1 -4 60613.4 2601.86 35
5 1 -4 60177.7 2544.53 2
5 1 -3 9923.4 863.342 7
5 1 -3 8483.77 833.897 2
5 1 -2 1014.07 323.734 37
5 1 -2 483.395 248.961 2
5 1 -2 722.303 265.665 35
5 1 -2 545.277 227.783 7
5 1 -1 259854 7328.75 37
5 1 -1 262467 7289.26 35
5 1 -1 278229 7546.58 19
5 1 -1 252352 6961.11 7
5 1 -1 263565 7052.08 14
5 1 0 116296 3836.38 35
5 1 0 118799 4202.17 19
5 1 0 117085 3815.69 14
5 1 1 8507.99 744.814 35
5 1 1 9245.44 827.163 16
5 1 1 8344.88 813.84 14
5 1 2 65753.7 2588.16 21
5 1 2 66996.8 2955.98 19
5 1 2 64919.7 2623.13 16
5 1 2 66520.8 2707.74 14
5 1 2 70699.8 2812.39 12
5 1 3 41774.6 1969.01 16
5 1 3 38615.4 1966.37 14
5 1 3 40225.2 1850.26 21
5 1 3 44673.6 2097.9 12
5 1 4 10695 951.553 13
5 1 4 12765.1 996.851 12
5 1 5 14881.9 1003.16 17
5 1 5 14809.9 1027.22 13
5 1 6 10755.7 723.375 17
5 1 6 9164.41 652.326 13
5 2 -11 10540.3 711.61 7
5 2 -10 41435.4 1814.24 7
5 2 -9 78.0649 156.903 2
5 2 -8 8289.71 794.45 2
5 2 -7 13075 1103.52 37
5 2 -7 12137.4 1050.57 35
5 2 -7 12931 1041.57 2
5 2 -6 779.337 348.59 37
5 2 -6 103.616 208.496 2
5 2 -6 1115.27 341.325 35
5 2 -5 95180.4 3721.58 37
5 2 -5 92989.5 3650.7 35
5 2 -5 103998 3626.45 2
5 2 -4 34867.5 2009.78 37
5 2 -4 33717.2 1939.65 35
5 2 -4 34176.6 1710.58 19
5 2 -4 37597.1 1897.78 7
5 2 -4 33273.7 1830.54 2
5 2 -3 1738.67 380.993 19
5 2 -3 247.768 208.45 7
5 2 -2 97313.7 3714.57 37
5 2 -2 97752.4 3669.73 35
5 2 -2 102924 3675.63 19
5 2 -2 99063.7 3441.91 7
5 2 -2 93578.2 3263.01 14
5 2 -1 131699 4416.02 37
5 2 -1 129151 4366.96 35
5 2 -1 135453 4564.51 19
5 2 -1 124191 4060.71 14
5 2 0 2410.91 440.537 35
5 2 0 2237.84 516.758 19
5 2 0 2560.91 452.044 16
5 2 0 2403.29 432.508 14
5 2 1 24880.3 1461.3 14
5 2 2 43674.1 2025.59 21
5 2 2 43719.6 2034.63 14
5 2 3 3752.8 512.007 21
5 2 3 4045.8 554.838 13
5 2 4 28744.1 1423.59 13
5 2 5 4084.74 392.751 13
5 3 -11 3286.54 345.905 7
5 3 -10 14160.5 913.089 7
5 3 -9 16457 1090.82 7
5 3 -8 20792.2 1320.19 7
5 3 -7 3589.13 597.516 37
5 3 -7 2949.46 528.092 35
5 3 -7 3166.1 534.381 7
5 3 -7 4601.62 611.394 2
5 3 -6 126282 4546.35 37
5 3 -6 126087 4524.52 35
5 3 -6 139496 4455.01 7
5 3 -6 135500 4381.65 2
5 3 -5 47363.1 2422.49 37
5 3 -5 43192.4 2307.45 35
5 3 -5 47786.8 2253.12 7
5 3 -4 2930.05 616.832 37
5 3 -4 3089.18 602.574 35
5 3 -4 3254.68 511.436 19
5 3 -4 4056.39 605.226 7
5 3 -3 40485.9 2265.33 37
5 3 -3 38554.1 2194.96 35
5 3 -3 43158.5 2083.41 19
5 3 -3 45216.6 2134.6 7
5 3 -3 43917.4 1887.59 14
5 3 -2 238214 7030.39 37
5 3 -2 238109 6836.56 19
5 3 -2 234133 6364.17 14
5 3 -1 12777.7 1106.08 37
5 3 -1 12858.9 1155.26 19
5 3 -1 11538.6 1055.33 35
5 3 -1 13963 993.82 14
5 3 0 64964.5 2640.2 16
5 3 0 66767.3 2526.22 14
5 3 1 29460.2 1638.58 21
5 3 1 30468.2 1631.13 16
5 3 1 30156.7 1517.35 14
5 3 2 1951.76 385.261 21
5 3 2 1915.37 386.652 16
5 3 2 2167.24 366.351 13
5 3 3 39642.7 1701.3 21
5 3 4 2870.24 382.086 17
5 4 -10 15458.3 849.381 7
5 4 -9 15936.7 991.147 7
5 4 -8 418.79 215.533 7
5 4 -7 53777 2380.69 37
5 4 -7 51434 2248.59 7
5 4 -6 44856 2269.42 37
5 4 -6 46466.8 2152.23 7
5 4 -5 898.341 339.862 37
5 4 -5 1360.99 370.726 7
5 4 -3 58939 2728.44 37
5 4 -2 1067.99 360.311 37
5 4 -1 24253.8 1485.38 37
5 4 -1 26588.4 1469.34 16
5 4 0 7974.85 755.629 16
5 4 1 2052.03 375.185 16
5 4 2 69084.8 2416.5 21
5 4 3 18314.1 920.777 17
5 5 -7 82625.1 2955.1 37
5 5 -6 593.602 275.042 37
5 5 -5 13803.8 1110.04 37
5 5 -3 4014.56 590.035 37
5 5 -3 3090.74 457.06 16
5 5 -2 16555.3 1127.73 37
5 5 -2 16202.9 1088.49 21
5 5 -2 16591.1 1035.25 16
5 5 -1 9098.68 773.913 21
5 5 -1 8897.38 715.331 16
5 5 0 270.962 159.091 21
5 5 0 264.612 142.653 16
5 5 1 39250.4 1535.82 21
5 6 -6 16391.2 991.298 37
5 6 -5 6285.68 614.84 37
5 6 -5 5538.81 481.075 21
5 6 -5 5508.96 461.977 16
5 6 -4 1982.06 352.811 37
5 6 -4 1573.28 269.993 21
5 6 -4 1369.28 242.007 16
5 6 -3 29929 1270.05 21
5 6 -3 28272.8 1159.5 16
5 6 -2 16855.1 865.483 21
5 6 -2 14046.1 718.985 16
5 6 -1 437.843 138.739 21
6 -10 -5 3554.53 410.38 3
6 -10 -4 1185.23 239.248 29
6 -10 -3 13722.2 860.55 29
6 -10 -2 18874.8 1069.55 29
6 -10 -1 5379.88 570.539 29
6 -10 0 16582.3 1010.26 29
6 -10 1 194.75 136.337 29
6 -10 2 2597.88 361.334 29
6 -10 3 18956.5 984.682 34
6 -10 4 97.4948 110.548 34
6 -10 5 13832 711.607 34
6 -9 -7 3339.91 399.922 3
6 -9 -7 2961.21 346.503 6
6 -9 -5 8761 842.222 3
6 -9 -4 60552.5 2572.52 3
6 -9 -3 22526.7 1443.83 3
6 -9 -1 56747.5 2426.68 29
6 -9 0 1592.71 397.109 29
6 -9 1 4068.99 585.123 29
6 -9 2 19882.7 1263.78 29
6 -9 3 7755.29 730.601 29
6 -9 4 20749.3 1236.21 34
6 -9 4 21143.9 1164.31 29
6 -9 5 17381.4 1033.63 34
6 -9 5 16799 909.593 29
6 -9 6 3467.29 392.211 34
6 -8 -8 6880.48 588.054 6
6 -8 -7 8581.42 793.681 3
6 -8 -5 25482.6 1657.47 3
6 -8 -4 128.501 190.758 3
6 -8 -3 251.267 263.781 3
6 -8 -2 23041.2 1515.22 3
6 -8 -2 21896.3 1527.41 25
6 -8 -1 5186.77 714.508 29
6 -8 -1 5119.31 748.505 25
6 -8 0 50567.3 2380.81 29
6 -8 1 16655.9 1272.2 29
6 -8 1 18162.2 1384.15 25
6 -8 2 26504 1612.1 29
6 -8 3 46622.4 2183.47 29
6 -8 4 33453.5 1715.27 29
6 -8 5 8138.04 780.287 34
6 -8 5 8730.47 754.907 29
6 -8 6 518.269 217.849 34
6 -8 6 464.115 182.986 29
6 -7 -9 11293.2 773.495 6
6 -7 -8 8166.34 771.399 3
6 -7 -7 55.3519 189.745 3
6 -7 -5 2511.54 554.633 3
6 -7 -4 273.559 274.958 3
6 -7 -4 258.029 165.575 25
6 -7 -3 41878.7 2264.84 3
6 -7 -3 42992.7 2143.65 25
6 -7 -2 18422.7 1375.97 3
6 -7 -2 16911.7 1307.3 25
6 -7 -1 72288 2825.19 3
6 -7 -1 68426.9 2977.32 25
6 -7 0 33137.4 1880.15 29
6 -7 0 30671.4 1555.8 15
6 -7 0 32240.7 1889.96 25
6 -7 1 25880.6 1655.94 29
6 -7 1 24040.6 1372.53 15
6 -7 1 29101.1 1748.09 25
6 -7 2 7715.13 874.812 29
6 -7 2 7053.38 705.911 15
6 -7 2 6653.59 804.916 25
6 -7 3 77044.1 3131.19 29
6 -7 4 2803.75 450.872 20
6 -7 4 2967.29 526.906 29
6 -7 5 1926.23 408.838 29
6 -7 6 30599.2 1532.51 34
6 -7 6 31898.4 1515.25 29
6 -7 7 1388.32 260.717 34
6 -7 7 1455.24 259.922 29
6 -6 -10 12813.9 693.935 2
6 -6 -10 15649.4 867.575 6
6 -6 -9 4643.07 579.763 6
6 -6 -8 2723.21 503.351 3
6 -6 -7 34077.6 1953.54 3
6 -6 -5 19351.8 1495.32 3
6 -6 -5 19437.6 1246.4 25
6 -6 -4 9620.31 1031.42 3
6 -6 -4 8900.17 868.433 25
6 -6 -3 28587.5 1803.73 3
6 -6 -3 29827.2 1691.98 25
6 -6 -2 25803.7 1637.4 3
6 -6 -2 28644 1670.45 25
6 -6 -1 120542 4013.95 3
6 -6 0 14135 1180.32 29
6 -6 0 12452.4 980.358 15
6 -6 0 14121.9 1160.86 25
6 -6 1 1775.29 388.576 15
6 -6 1 2249.68 490.694 29
6 -6 1 1952.34 447.688 25
6 -6 2 96914.3 3677.97 29
6 -6 2 93213.4 3343.98 15
6 -6 2 95910.2 3499.09 25
6 -6 3 11095.4 975 20
6 -6 3 10924.5 1042.88 29
6 -6 4 22417.4 1285.45 11
6 -6 4 23742.3 1338.82 20
6 -6 4 23937.3 1560.48 29
6 -6 5 23516.3 1432.46 29
6 -6 5 18830.5 1177.98 12
6 -6 6 2616.44 431.432 34
6 -6 6 2986 469.322 29
6 -6 7 25021.6 1200.6 29
6 -5 -11 10062.5 608.212 6
6 -5 -10 2533.15 357.983 2
6 -5 -10 2619.83 415.21 6
6 -5 -9 48.9432 156.94 6
6 -5 -8 3034.44 563.416 3
6 -5 -7 633.504 334.956 3
6 -5 -6 34467.4 2019.69 3
6 -5 -5 8091.84 942.861 3
6 -5 -5 8135.35 783.671 25
6 -5 -4 27590.2 1749.51 3
6 -5 -4 27443.1 1540.14 25
6 -5 -3 35921.9 1968.81 3
6 -5 -3 30915 1703.87 6
6 -5 -3 33698.8 1760.99 25
6 -5 -2 258643 7382.17 3
6 -5 -2 262787 7265.36 25
6 -5 -1 33034.6 1838.98 29
6 -5 0 3648.01 615.873 29
6 -5 0 3291.3 509.665 15
6 -5 0 2999.56 397.175 14
6 -5 0 3187.27 539.441 25
6 -5 1 109581 3764.3 15
6 -5 1 109631 3435.75 14
6 -5 1 118426 3956.65 25
6 -5 2 20509.2 1396.84 20
6 -5 2 20766.9 1346.34 15
6 -5 2 20160.3 1169.96 14
6 -5 3 41679.1 2024.77 20
6 -5 4 19114.8 1244.12 11
6 -5 4 18525 1185.38 20
6 -5 4 18139.2 1363.43 29
6 -5 4 20889.9 1260.43 13
6 -5 5 1435.67 360.213 12
6 -5 5 814.939 309.793 29
6 -5 5 1138.13 292.453 13
6 -5 6 28393 1517.64 29
6 -5 6 26453 1379.77 12
6 -5 7 19086.1 1049.29 29
6 -5 8 6199.78 427.807 29
6 -4 -11 5362.44 512.465 6
6 -4 -10 307.671 194.378 2
6 -4 -10 127.828 154.983 6
6 -4 -9 3531.87 529.521 2
6 -4 -9 2562.5 492.977 6
6 -4 -8 20019.1 1419.41 6
6 -4 -7 25145.9 1660.52 3
6 -4 -6 67965.5 3026.26 3
6 -4 -6 76132 3109.59 6
6 -4 -5 26203.7 1644.75 6
6 -4 -4 417.535 270.573 3
6 -4 -4 264.236 192.27 6
6 -4 -3 133237 4335.16 6
6 -4 -3 142348 4398.93 25
6 -4 -2 29924.3 1637.17 2
6 -4 -2 30858.7 1641.51 25
6 -4 -1 3569.14 505.167 2
6 -4 -1 4879.72 673.742 29
6 -4 -1 4826.54 514.223 14
6 -4 0 47836.9 2326.97 29
6 -4 0 50044.1 1962.69 14
6 -4 1 12722.1 1070.66 20
6 -4 1 12293.8 1107.36 29
6 -4 1 13811.3 949.549 14
6 -4 2 66202.2 2741.79 20
6 -4 2 63022.3 2707.66 15
6 -4 2 66837.9 2935.4 29
6 -4 2 66505 2533.52 14
6 -4 3 63244 2651.94 20
6 -4 3 65067.1 2425.05 31
6 -4 3 67697 2945.23 29
6 -4 3 68697 2635.01 14
6 -4 4 20559 1259.55 20
6 -4 4 21724 1294.9 31
6 -4 4 22613.6 1522.16 29
6 -4 4 20392.3 1319.9 13
6 -4 5 17968.2 1153.45 31
6 -4 5 17793.6 1273.97 29
6 -4 5 15843.6 1121.6 13
6 -4 5 16523.2 1182.43 12
6 -4 6 49093.7 2024.34 13
6 -4 6 52955.1 2114.28 12
6 -4 7 6776.39 550.862 13
6 -4 7 7998.94 610.801 12
6 -3 -11 2200.03 359.237 6
6 -3 -10 4297.93 526.278 2
6 -3 -10 3892.75 554.871 6
6 -3 -9 5943.73 699.793 2
6 -3 -9 5654.39 719.317 6
6 -3 -8 6286.94 757.667 2
6 -3 -8 5698.33 763.509 6
6 -3 -6 13722.1 1166.25 6
6 -3 -5 1782.45 428.76 6
6 -3 -4 100450 3609.53 2
6 -3 -4 100126 3259.49 20
6 -3 -4 97820.4 3551.32 6
6 -3 -3 65532.9 2674.84 2
6 -3 -3 66758.4 2517.59 20
6 -3 -3 64159.7 2579.8 6
6 -3 -2 54556.4 2295.52 2
6 -3 -2 50582.5 2183.61 20
6 -3 -2 48798.7 2234.54 29
6 -3 -1 31096.6 1595.18 2
6 -3 -1 33751.9 1761.13 20
6 -3 -1 32395.6 1774.19 29
6 -3 0 24140.2 1543.1 29
6 -3 0 23845.5 1450.6 15
6 -3 0 24754.3 1320.55 14
6 -3 1 48618 2288.82 20
6 -3 1 47723.7 2339.84 29
6 -3 1 52785.8 2350.4 15
6 -3 1 52113.7 2140.54 14
6 -3 2 146915 4806.13 20
6 -3 2 147522 4948.27 29
6 -3 2 153952 4651.57 14
6 -3 3 10995.7 982.537 20
6 -3 3 10988.4 933.826 19
6 -3 3 14223.3 1052.91 31
6 -3 3 13284.9 1165.56 29
6 -3 3 12998.1 1035.66 14
6 -3 4 9262.36 931.614 12
6 -3 4 9413.05 837.207 20
6 -3 4 9345.11 950.792 29
6 -3 5 89950.3 3245.45 29
6 -3 5 84296.8 3128.33 13
6 -3 5 86052.6 3202.82 12
6 -3 6 8707.71 749.13 29
6 -3 6 7851.36 718.208 13
6 -3 7 912.91 214.531 29
6 -3 7 948.901 219.197 13
6 -2 -12 1256.96 208.956 6
6 -2 -11 13225.9 900.264 6
6 -2 -10 3809.67 499.277 2
6 -2 -10 4313 593.221 6
6 -2 -9 5865.87 698.686 2
6 -2 -9 5314.89 715.377 6
6 -2 -8 94911.8 3485.65 2
6 -2 -8 93337.1 3581.13 6
6 -2 -7 21158.6 1426.31 2
6 -2 -6 554.724 260.785 2
6 -2 -6 813.995 315.467 6
6 -2 -5 44497.1 2199.08 6
6 -2 -4 74145.4 2982.78 2
6 -2 -4 78274.6 2730.42 20
6 -2 -4 77210.5 2997.04 6
6 -2 -3 32883.8 1752.55 2
6 -2 -3 33213.5 1616.53 20
6 -2 -3 29415.3 1543.46 29
6 -2 -3 30010 1615.78 6
6 -2 -2 19985.9 1304.36 2
6 -2 -2 21050.7 1286.5 20
6 -2 -2 21163.1 1278.69 29
6 -2 -2 18718.9 1145.76 6
6 -2 -1 2026.9 428.012 20
6 -2 -1 1773.26 371.536 2
6 -2 -1 1919.65 417.633 15
6 -2 -1 1860.96 393.055 29
6 -2 -1 2315.58 397.492 14
6 -2 0 46629.9 1828.09 16
6 -2 0 49488.7 2220.74 29
6 -2 0 45190 2175.67 15
6 -2 0 47747.4 2032.63 14
6 -2 1 36801.7 1968.39 20
6 -2 1 39150.6 1672.99 16
6 -2 1 42005.1 2100.41 15
6 -2 1 39768.3 2009.61 29
6 -2 1 39298 1873.82 14
6 -2 2 23216 1495.11 20
6 -2 2 23823 1509.09 19
6 -2 2 20621.7 1187.01 16
6 -2 2 21994.9 1465.8 29
6 -2 3 1400.78 373.878 20
6 -2 3 1960.29 413.209 19
6 -2 3 1827.39 426.116 29
6 -2 4 122241 4077.73 12
6 -2 4 110602 3563.03 17
6 -2 4 112405 3885.91 29
6 -2 5 17330.5 1135.1 29
6 -2 5 18466.3 1222.16 12
6 -2 6 12538.4 865.814 12
6 -1 -11 141.27 135.39 6
6 -1 -10 1437.25 316.326 2
6 -1 -10 1985.54 410.757 6
6 -1 -9 24725.9 1447.76 2
6 -1 -9 22269 1477.84 6
6 -1 -8 24271.5 1517.36 2
6 -1 -8 25347.1 1609.27 6
6 -1 -7 604.475 274.919 2
6 -1 -6 30268.9 1729.99 2
6 -1 -6 27608.3 1697.87 6
6 -1 -5 28871.4 1420.69 20
6 -1 -5 28035.7 1644.88 35
6 -1 -5 28528.4 1707.98 6
6 -1 -4 65718.4 2717.17 2
6 -1 -4 61319 2401.12 20
6 -1 -4 62442.9 2647.49 35
6 -1 -4 63035.2 2644.07 6
6 -1 -3 83917.4 3216.99 2
6 -1 -3 87446.4 3087.55 20
6 -1 -3 86193.1 3233.11 35
6 -1 -3 87848.4 3168.52 6
6 -1 -2 30539.1 1632.8 20
6 -1 -2 32253.3 1698.89 35
6 -1 -2 26840.8 1416.55 7
6 -1 -2 30864.4 1632.28 15
6 -1 -2 26191.7 1549.92 2
6 -1 -1 2459.72 436.315 2
6 -1 -1 2571.9 486.334 20
6 -1 -1 2326.54 452.65 15
6 -1 -1 3211.64 481.955 14
6 -1 0 163288 4742.07 16
6 -1 0 165810 5172.15 15
6 -1 0 157119 4796.47 29
6 -1 0 168472 4979.73 14
6 -1 1 165838 5294.81 20
6 -1 1 164923 5346.6 19
6 -1 1 165766 4837.62 16
6 -1 1 160539 4931.99 29
6 -1 1 169472 5079.28 14
6 -1 2 10797.6 1021.67 19
6 -1 2 8897.04 796.422 16
6 -1 2 9908.74 884.642 29
6 -1 2 9657.3 905.125 14
6 -1 3 81154.5 3192.17 12
6 -1 3 75462 2981.83 19
6 -1 3 83310.6 3096.71 14
6 -1 4 21779.6 1368.22 13
6 -1 4 22273.5 1403.11 12
6 -1 5 16423.1 1091.23 13
6 -1 5 18773.8 1137.76 12
6 -1 6 7409.06 596.524 13
6 0 -12 5117.1 386.802 7
6 0 -10 13449.6 1013.31 6
6 0 -10 12999 896.03 2
6 0 -9 40169.9 2018.41 6
6 0 -9 39702 1890.47 2
6 0 -8 1185.42 348.903 2
6 0 -8 1367.45 385.485 6
6 0 -7 3873.78 598.572 2
6 0 -7 4560.18 667.289 6
6 0 -6 13300.6 1131.58 2
6 0 -6 14296.4 1167.28 35
6 0 -6 16012.8 1241.07 6
6 0 -5 6334.69 777.963 35
6 0 -5 5691.61 733.2 6
6 0 -5 7358.07 837.273 2
6 0 -4 155142 4665.39 20
6 0 -4 147879 4932.08 35
6 0 -4 151453 4552.56 15
6 0 -4 153320 4947.82 2
6 0 -3 22325.3 1380.91 20
6 0 -3 21174.9 1330.61 7
6 0 -3 22700.2 1328.71 15
6 0 -3 23174.5 1477.53 2
6 0 -2 14322.2 1121.89 20
6 0 -2 14135.2 1124.52 35
6 0 -2 11785.6 931.79 7
6 0 -2 13605 1034.58 15
6 0 -2 12775.2 1052.66 2
6 0 -1 218681 6418.67 20
6 0 -1 213802 6234.8 35
6 0 -1 227063 6628.32 19
6 0 -1 199583 5767.5 7
6 0 -1 219676 6261.28 15
6 0 -1 219813 6158.23 14
6 0 0 36167.7 1740.85 16
6 0 0 35485 1821.59 14
6 0 1 18431.4 1400.64 19
6 0 1 18041.1 1177 16
6 0 1 18364.6 1263.54 14
6 0 2 14869.6 1153.79 12
6 0 2 14065 950.112 21
6 0 2 16562.1 1262.6 19
6 0 2 14191.7 1037.31 16
6 0 2 15203.8 1139.04 14
6 0 3 44221.3 2055.95 12
6 0 4 19842.3 1154.48 17
6 0 4 21640.1 1276.83 13
6 0 4 21900 1237.13 12
6 0 5 38266.6 1500.38 17
6 0 5 38587 1598.58 13
6 1 -12 101.409 67.0018 7
6 1 -11 3003.93 379.258 7
6 1 -10 18473.6 1022.64 2
6 1 -9 1285.76 326.999 2
6 1 -8 11952 990.646 2
6 1 -7 6992.21 802.598 35
6 1 -7 6689.45 770.766 2
6 1 -6 1713.77 425.395 2
6 1 -6 1681.22 419.701 35
6 1 -5 117568 4266.26 35
6 1 -5 116705 3841.48 19
6 1 -5 118347 4082.74 7
6 1 -5 125082 4209.8 2
6 1 -4 25558.3 1690.85 35
6 1 -4 28725.3 1599.84 19
6 1 -4 27708.3 1612.07 7
6 1 -3 386.704 241.473 2
6 1 -3 310.298 212.818 35
6 1 -3 108.648 147.34 19
6 1 -3 534.997 235.854 7
6 1 -2 77375 3135.51 35
6 1 -2 81466.6 3205.22 19
6 1 -2 74095.7 2813.71 7
6 1 -2 76182.6 2897.61 14
6 1 -1 77068.8 3022.79 35
6 1 -1 79599 3244.96 19
6 1 -1 75930.3 2924.93 14
6 1 0 9792.89 1025.62 19
6 1 0 9965.16 882.171 16
6 1 0 10394.3 917.802 14
6 1 1 9714.83 838.033 21
6 1 1 7283.29 886.992 19
6 1 1 10173 870.665 16
6 1 1 8707.85 832.344 14
6 1 1 9347.6 817.105 12
6 1 2 14049.7 963.301 21
6 1 2 16001.7 1080.78 16
6 1 2 15918.1 1116.62 14
6 1 2 16453.3 1048.45 12
6 1 3 15152.7 1015.37 13
6 1 3 12162.3 815.899 12
6 1 4 53508.2 1957.43 17
6 1 4 52911 1945.08 13
6 1 5 2235.42 262.171 17
6 2 -11 15113.3 787.195 7
6 2 -10 1317.13 286.473 7
6 2 -9 40448.5 1819.13 7
6 2 -9 38433.6 1692.35 2
6 2 -8 1971.18 395.937 2
6 2 -8 1828.51 395.899 7
6 2 -7 1870.09 402.383 2
6 2 -7 2022.7 435.459 7
6 2 -6 73325.9 2929.26 2
6 2 -5 109059 4192.42 35
6 2 -5 113674 3749.43 19
6 2 -5 120084 4073.43 7
6 2 -4 4701.42 625.607 19
6 2 -4 5199.63 672.772 7
6 2 -3 62974.7 2876.38 35
6 2 -3 69009.8 2787.07 19
6 2 -3 66601.6 2672.09 7
6 2 -3 63891.8 2546.29 14
6 2 -2 86507.8 3368.08 19
6 2 -2 84723.8 3065.33 14
6 2 -1 11079.5 1060.39 19
6 2 -1 12316.3 956.554 14
6 2 0 22377.4 1318.99 14
6 2 1 564.157 224.238 21
6 2 1 712.4 240.237 14
6 2 2 4944.53 522.725 21
6 2 2 5184.03 545.688 13
6 2 3 45066 1594.07 13
6 2 4 12884.3 675.254 17
6 3 -10 29289.5 1254.03 7
6 3 -9 1636.48 319.426 7
6 3 -8 1701.8 345.792 7
6 3 -7 43725.1 1999.07 7
6 3 -5 9407.15 876.769 7
6 3 -5 9276.34 758.26 14
6 3 -4 15251.6 989.676 14
6 3 -3 27418.6 1379.06 14
6 3 -2 5987.38 665.158 16
6 3 -2 4194.55 505.87 14
6 3 -1 75646.6 2791.78 16
6 3 -1 76783.7 2582.03 14
6 3 0 4883.73 569.027 21
6 3 0 4903.37 562.136 16
6 3 1 799.047 226.685 21
6 3 1 961.962 251.794 16
6 4 -3 146.68 160.271 16
6 4 -2 63746.3 2389.81 21
6 4 -2 63364.3 2303.63 16
6 4 -1 8094.88 655.989 16
6 4 0 4645.81 465.028 21
6 5 -5 2896.66 341.32 16
6 5 -4 128.061 107.612 21
6 5 -4 280.772 123.678 16
6 5 -3 35759.1 1396.88 21
6 5 -3 35092.7 1337.89 16
6 5 -2 43695.4 1519.28 21
6 5 -2 41183 1428.95 16
6 5 -1 1663.43 221.711 21
7 -10 -4 14881.8 837.176 29
7 -10 -3 270.764 141.34 29
7 -10 -2 940.053 239.865 29
7 -10 -1 9884.36 752.34 29
7 -10 0 127.756 139.593 29
7 -10 1 9627.27 704.715 29
7 -10 2 15005.4 816.003 34
7 -10 2 14402.5 810.409 29
7 -10 3 636.09 172.955 34
7 -10 3 640.858 149.527 29
7 -9 -7 202.848 115.396 2
7 -9 -3 7595.42 765.638 29
7 -9 -2 10314.1 916.478 29
7 -9 -1 2080.46 425.322 29
7 -9 0 37988.3 1860.03 29
7 -9 1 20382.1 1259.59 29
7 -9 2 11661.1 898.215 29
7 -9 3 4153.42 498.429 29
7 -9 4 30544 1340.08 34
7 -9 4 27609.6 1230.18 29
7 -9 5 904.039 192.733 34
7 -8 -8 1179.78 235.774 2
7 -8 -8 1007.89 219.513 6
7 -8 -7 440.345 201.346 6
7 -8 -6 18539 1260.49 3
7 -8 -5 776.547 301.121 3
7 -8 -4 13249.6 1126.38 3
7 -8 -3 10333.4 967.939 3
7 -8 -2 4389.44 667.757 29
7 -8 -2 3946.2 504.493 15
7 -8 -1 26624.2 1657.73 29
7 -8 -1 24446 1301.32 15
7 -8 0 34070.8 1885.55 29
7 -8 1 8302.21 877.33 29
7 -8 2 8737.21 854.542 29
7 -8 3 33422.6 1561.82 20
7 -8 3 35000.5 1719.03 29
7 -8 4 -36.8073 141.066 29
7 -8 5 7892.35 612.835 29
7 -8 6 10522.5 579.244 34
7 -7 -9 140.23 116.87 2
7 -7 -9 283.529 139.771 6
7 -7 -8 455.087 195.257 6
7 -7 -7 5220.97 650.159 6
7 -7 -6 964.982 387.101 3
7 -7 -6 577.554 292.032 6
7 -7 -5 20119.6 1475.26 3
7 -7 -5 15636.5 1208.78 6
7 -7 -4 30017 1861.62 3
7 -7 -2 22681.9 1626.52 29
7 -7 -2 27200.9 1696.5 25
7 -7 -1 55267.1 2613.94 29
7 -7 -1 53359.6 2262.94 15
7 -7 0 11746.5 1111.37 29
7 -7 0 11344.4 925.313 15
7 -7 1 10190 1009.9 29
7 -7 1 9620.82 848.492 15
7 -7 2 34065.6 1824.09 20
7 -7 2 36878.5 1958.16 29
7 -7 3 538.969 246.608 20
7 -7 3 928.648 331.193 29
7 -7 4 20308.2 1255.62 29
7 -7 5 29718.6 1394.55 34
7 -7 5 30953.6 1435.43 29
7 -7 6 1747.53 265.488 29
7 -6 -10 245.245 112.52 2
7 -6 -10 370.022 153.647 6
7 -6 -9 2184.72 357.572 2
7 -6 -8 762.137 289.135 6
7 -6 -7 4977.11 689.004 6
7 -6 -6 29435.5 1776.74 6
7 -6 -5 52423 2466.76 6
7 -6 -4 21048.7 1407.68 6
7 -6 -3 3087.94 551.181 25
7 -6 -2 85657.3 3211.92 2
7 -6 -2 91887.5 3577.08 29
7 -6 -2 85258.8 3415.28 25
7 -6 -1 4567.87 720.361 29
7 -6 -1 5381.96 676.923 15
7 -6 -1 5082.4 728.982 25
7 -6 0 8248.95 835.274 15
7 -6 0 7124.76 855.237 25
7 -6 1 33528.9 1885.88 20
7 -6 1 31207.9 1714.51 15
7 -6 2 3178.89 545.574 20
7 -6 3 42050.1 1928.24 20
7 -6 4 7242.84 685.493 12
7 -6 4 8511.15 830.688 29
7 -6 5 12380.8 892.215 29
7 -6 5 11721.9 785.037 12
7 -6 6 18116.2 926.73 29
7 -5 -11 1322.03 196.59 6
7 -5 -10 2906.84 364.096 2
7 -5 -10 2284.57 369.305 6
7 -5 -9 3281.16 477.384 2
7 -5 -8 7935.41 828.751 2
7 -5 -8 8040.33 850.382 6
7 -5 -7 10668.6 1038.29 6
7 -5 -6 43590.6 2255.01 6
7 -5 -5 8798.29 768.341 20
7 -5 -5 7747.09 886.676 6
7 -5 -4 4536.6 592.76 20
7 -5 -4 2398.44 486.253 6
7 -5 -3 76608.3 3106.81 2
7 -5 -3 75248.4 2550.93 14
7 -5 -2 551.677 251.004 2
7 -5 -2 574.609 328.584 29
7 -5 -2 722.772 211.157 14
7 -5 -1 19355.4 1392.43 20
7 -5 -1 20320 1483.25 29
7 -5 -1 17244.3 1268.66 15
7 -5 -1 16196.8 1016.19 14
7 -5 0 41783.5 2217.44 29
7 -5 0 40608.3 2037.73 15
7 -5 0 39621.9 1740.92 14
7 -5 1 8977.52 950.513 20
7 -5 1 9512.26 999.042 29
7 -5 1 9939.28 952.762 15
7 -5 1 8722.69 755.007 14
7 -5 2 56845.3 2468.22 20
7 -5 2 58614.4 2632.11 29
7 -5 3 32125.6 1649.89 20
7 -5 3 32049.7 1804.25 29
7 -5 3 29291.3 1497.09 13
7 -5 4 18018.4 1160.5 12
7 -5 4 18207 1238.25 29
7 -5 5 9506.34 772.88 29
7 -5 5 7065.23 644.411 12
7 -5 6 32495.2 1300.38 29
7 -5 6 29657.5 1197.51 12
7 -4 -11 4697.98 437.809 6
7 -4 -10 9711.14 719.231 2
7 -4 -10 10318.8 807.313 6
7 -4 -9 3687.86 521.582 2
7 -4 -8 10025.6 944.658 2
7 -4 -8 10241.2 988.07 6
7 -4 -7 64111.1 2804.33 2
7 -4 -7 63971.8 2812.86 6
7 -4 -6 16246.4 1301.11 6
7 -4 -5 2965.56 449.816 20
7 -4 -5 3182.97 604.382 2
7 -4 -5 3463.3 596.426 6
7 -4 -4 45927 2302.57 2
7 -4 -4 47219 2063.17 20
7 -4 -4 41388.8 2106.59 6
7 -4 -3 5652.94 738.937 2
7 -4 -3 6044.62 703.699 20
7 -4 -3 5204.39 724.044 29
7 -4 -3 5738.28 666.089 6
7 -4 -2 27336.6 1591.71 2
7 -4 -2 30508 1721.57 20
7 -4 -2 26984.6 1719.7 29
7 -4 -2 31025.2 1502.85 14
7 -4 -1 50939.6 2388.88 20
7 -4 -1 47344 2397.98 29
7 -4 -1 48121.6 2322.4 15
7 -4 -1 51611.9 2090.19 14
7 -4 0 10309.2 1036.49 29
7 -4 0 11616.9 1031.84 15
7 -4 0 9393.02 813.983 14
7 -4 1 70992.6 3003.88 20
7 -4 1 79480 3083.07 15
7 -4 1 73939 3080.95 29
7 -4 1 69545.1 2690.38 14
7 -4 2 86526.7 3307.33 20
7 -4 2 89346.7 3435.76 29
7 -4 2 88199.4 3111.9 14
7 -4 3 7496.39 763.232 20
7 -4 3 7603.69 835.064 29
7 -4 4 1502.06 371.604 29
7 -4 4 1568.54 341.086 13
7 -4 5 26475.5 1289.37 29
7 -4 5 22856.3 1164.03 13
7 -4 6 1899.89 263.147 29
7 -4 6 2728.55 315.25 12
7 -3 -11 12443.7 756.706 6
7 -3 -11 9094.64 552.687 2
7 -3 -10 2101.43 353.388 2
7 -3 -10 2290.19 410.238 6
7 -3 -9 134.686 180.508 2
7 -3 -9 252.19 193.349 6
7 -3 -8 40178.7 2035.32 2
7 -3 -7 12028.5 1084.17 2
7 -3 -7 11725.1 1099.1 6
7 -3 -6 2701.32 544.949 6
7 -3 -5 9834.99 1006.72 2
7 -3 -5 9776.31 814.591 20
7 -3 -5 10590.9 1019.99 6
7 -3 -4 896.956 288.598 20
7 -3 -4 1488.06 415.088 2
7 -3 -4 905.84 305.885 29
7 -3 -4 1328.92 370.851 6
7 -3 -3 79998.5 3177.09 2
7 -3 -3 85352.8 3106.21 20
7 -3 -3 80684.1 3104.7 29
7 -3 -3 78258.4 2923.42 6
7 -3 -2 3874.99 581.266 2
7 -3 -2 4974.35 672.471 20
7 -3 -2 3505.38 582.627 29
7 -3 -2 4261 642.493 15
7 -3 -2 3948.86 537.974 14
7 -3 -1 15035.7 1202.6 20
7 -3 -1 12536.8 1081.21 29
7 -3 -1 14113.5 1160.3 15
7 -3 -1 12542.1 972.802 14
7 -3 -1 12009.6 919.455 2
7 -3 0 6583.17 792.014 29
7 -3 0 7542.36 861.303 15
7 -3 0 7389.34 745.793 14
7 -3 1 189206 5822.89 20
7 -3 1 187861 5741.49 29
7 -3 1 186463 5519.92 14
7 -3 2 8142.06 857.582 20
7 -3 2 7705.54 801.056 19
7 -3 2 8171.3 851.837 29
7 -3 2 8691.64 826.417 14
7 -3 3 5391.6 684.269 12
7 -3 3 4377.21 591.299 29
7 -3 4 33238.2 1606.77 13
7 -3 4 34843.6 1694.31 12
7 -3 5 2464.12 357.17 13
7 -3 5 3699.67 444.631 12
7 -3 6 8587.83 508.896 13
7 -2 -11 1172.77 205.797 2
7 -2 -11 1051.29 249.552 6
7 -2 -10 1353.81 288.233 2
7 -2 -10 934.329 283.941 6
7 -2 -9 25917.8 1463.82 2
7 -2 -9 26923.4 1566.91 6
7 -2 -8 11805.6 1036.68 2
7 -2 -7 17035.4 1294.5 2
7 -2 -7 18056.3 1362.27 6
7 -2 -6 9293.07 961.125 6
7 -2 -5 17721 1342.32 2
7 -2 -5 18988.3 1160.67 20
7 -2 -5 15420.8 1236.63 6
7 -2 -4 19814.9 1427.09 2
7 -2 -4 21763.1 1323.46 20
7 -2 -4 21106.2 1398.08 6
7 -2 -3 53884.1 2365.99 20
7 -2 -3 56347.7 2466.81 15
7 -2 -3 52686.3 2435.95 2
7 -2 -2 86683.9 3302.18 20
7 -2 -2 90331.2 3354.88 15
7 -2 -2 87266.5 3135.19 14
7 -2 -2 82404.6 3143.25 2
7 -2 -1 6849.76 804.486 20
7 -2 -1 6314.96 612.378 16
7 -2 -1 7343.18 735.977 29
7 -2 -1 7754.59 858.173 15
7 -2 -1 8444.94 818.077 14
7 -2 -1 7812.82 737.499 2
7 -2 0 189692 5238.9 16
7 -2 1 9907 968.033 20
7 -2 1 9678.55 970.931 19
7 -2 2 13807.6 1079.27 19
7 -2 3 9316.11 858.809 12
7 -2 4 1729.68 347.584 12
7 -2 5 29335.1 1228.21 12
7 -1 -11 17.1555 85.7265 2
7 -1 -10 2781.19 442.786 6
7 -1 -10 3273.19 427.749 2
7 -1 -9 12222.4 991.069 6
7 -1 -9 11909.4 937.993 2
7 -1 -8 8645.85 850.593 2
7 -1 -7 14688.5 1181.72 2
7 -1 -7 15466.3 1234.22 6
7 -1 -6 6162.82 779.236 6
7 -1 -6 7156.91 835.259 2
7 -1 -5 32567 1599.83 20
7 -1 -5 29006.9 1761.51 2
7 -1 -4 199268 5826.34 20
7 -1 -4 208164 5929.76 15
7 -1 -4 194474 6095.53 2
7 -1 -3 6139.57 737.256 20
7 -1 -3 5642.94 645.571 7
7 -1 -3 6082.33 718.999 15
7 -1 -3 5714.03 722.068 2
7 -1 -2 13130 1091.74 20
7 -1 -2 12123.3 1034.1 15
7 -1 -2 13413.7 1044.88 14
7 -1 -2 11351.2 973.28 2
7 -1 -1 68687.2 2904.65 20
7 -1 -1 71018.8 3028.93 19
7 -1 -1 68485.1 2565.65 16
7 -1 -1 74438.9 2837.81 14
7 -1 0 53935.8 2171.76 16
7 -1 0 56311.5 2389.57 14
7 -1 1 21195.1 1441.7 19
7 -1 1 22335.2 1236.83 16
7 -1 1 23222.1 1399.61 14
7 -1 2 26297.7 1480.18 12
7 -1 2 24781.1 1451.11 19
7 -1 2 24832.7 1418.75 14
7 -1 3 6222.13 643.425 13
7 -1 3 6306.71 638.145 12
7 -1 4 17854 986.508 13
7 -1 4 16639.9 898.403 12
7 -1 5 26314.9 998.481 13
7 0 -11 625.658 182.527 7
7 0 -10 6481.47 569.224 2
7 0 -9 6094.26 627.939 2
7 0 -8 25122.3 1452.57 2
7 0 -7 1407.04 385.426 2
7 0 -6 1266.77 373.276 2
7 0 -6 1869.2 365.56 19
7 0 -5 105839 3709.54 19
7 0 -5 121115 3962.62 7
7 0 -4 22351.9 1565.01 35
7 0 -4 24176.1 1493.53 19
7 0 -4 24829 1458.81 7
7 0 -4 25508.3 1569.27 2
7 0 -3 2573.4 510.773 19
7 0 -3 2099.06 403.103 7
7 0 -3 3742.15 574.358 2
7 0 -3 2837.65 492.484 14
7 0 -2 8909.18 926.809 19
7 0 -2 10653.3 927.032 14
7 0 -1 34244.2 1939.7 19
7 0 -1 33315.5 1639.42 16
7 0 -1 30469.4 1663.42 14
7 0 0 29067.7 1511.23 12
7 0 0 28410.4 1485.82 16
7 0 0 28516.1 1568.66 14
7 0 1 29553.1 1658.68 19
7 0 1 29343.2 1460.94 16
7 0 1 32054.5 1613.81 14
7 0 1 30285.6 1487.49 12
7 0 2 1306.68 281.955 12
7 0 3 17284.7 980.786 13
7 0 4 49305.5 1583.78 13
7 1 -11 936.144 181.285 7
7 1 -10 2778.69 374.111 7
7 1 -9 27287.8 1369.67 7
7 1 -9 25665.9 1290.07 2
7 1 -8 16069.3 1096.22 7
7 1 -8 16571.4 1087.4 2
7 1 -7 2841.29 486.369 2
7 1 -6 89256 3276.52 7
7 1 -6 95309.5 3371.64 2
7 1 -5 55612.7 2292.12 19
7 1 -5 61890.2 2489.44 7
7 1 -4 12111.6 997.518 19
7 1 -4 12686.3 980.126 7
7 1 -4 12162.5 962.945 14
7 1 -3 8338.49 838.848 19
7 1 -3 7567.75 752.945 14
7 1 -2 2405.11 483.447 19
7 1 -2 2909.6 465.024 16
7 1 -2 2173.28 402.331 14
7 1 -1 19090.5 1306.33 19
7 1 -1 15435.8 1054.32 16
7 1 -1 16133 1098.49 14
7 1 0 35569.2 1604.38 21
7 1 0 39856.8 1918.46 19
7 1 0 36943.9 1691.69 16
7 1 0 38849.1 1744.37 14
7 1 1 7161.28 627.345 16
7 1 2 8314.31 617 13
7 2 -10 27643.6 1147.71 7
7 2 -9 11350.7 764.219 7
7 2 -8 5795.96 592.141 7
7 2 -6 38167.4 1784.22 7
7 2 -5 8679.69 711.997 19
7 2 -5 10661.3 867.362 7
7 2 -5 9518.83 768.583 14
7 2 -4 22764.1 1280.09 19
7 2 -4 23354.1 1256.86 14
7 2 -3 4193.17 550.863 19
7 2 -3 4092.82 494.958 14
7 2 -2 3717.26 493.89 16
7 2 -2 3677.18 466.677 14
7 2 -1 63368.8 2324.55 21
7 2 -1 64622.1 2346.56 16
7 2 -1 64911.7 2244.66 14
7 2 0 9994.88 688.269 21
7 2 0 9809.44 712.785 16
7 3 -8 603.608 132.649 14
7 3 -7 11070.4 628.811 14
7 3 -6 592.422 154.408 14
7 3 -5 20399 940.604 14
7 3 -4 196.299 143.098 16
7 3 -4 357.712 137.471 14
7 3 -3 9060.35 695.842 16
7 3 -2 67150.8 2269.49 21
7 3 -2 66070.2 2243.47 16
7 3 -1 18786.6 918.141 21
7 3 -1 18211.2 917.795 16
7 4 -6 21706.1 936.763 16
7 4 -5 10002.9 600.335 16
7 4 -4 3327.79 341.433 21
7 4 -4 3104.56 323.348 16
7 4 -3 43880.3 1444.28 21
7 4 -3 40619.9 1389.3 16
8 -10 -3 5772.89 438.587 20
8 -10 -3 5938.66 492.005 29
8 -10 -2 11131.1 697.243 20
8 -10 -2 11292.4 715.452 29
8 -10 -1 775.732 208.276 20
8 -10 -1 765.528 205.842 29
8 -10 0 6351.53 512.678 29
8 -10 1 11999 669.539 20
8 -10 1 10170.2 611.99 29
8 -9 -6 2704.86 338.125 29
8 -9 -5 288.705 150.705 29
8 -9 -4 7251.2 554.44 20
8 -9 -4 7831.36 706.091 29
8 -9 -3 10721.8 788.997 20
8 -9 -3 11333.4 880.287 29
8 -9 -2 4642.07 574.669 29
8 -9 -1 19064.8 1156.44 20
8 -9 -1 18869.8 1158.67 29
8 -9 0 14565.2 979.203 29
8 -9 1 1097.56 266.914 20
8 -9 1 1624.85 324.326 29
8 -9 2 7360.7 561.257 20
8 -9 2 7674.69 609.256 29
8 -9 3 12245.2 695.106 34
8 -9 3 11225.8 656.668 29
8 -8 -7 6560.73 555.271 2
8 -8 -7 6704.78 585.199 29
8 -8 -6 34.444 138.452 2
8 -8 -6 38.6892 140.67 29
8 -8 -5 15714.1 827.548 20
8 -8 -4 12449.8 873.581 20
8 -8 -4 13785.6 887.951 15
8 -8 -3 13168.5 979.239 20
8 -8 -3 13200.9 888.469 15
8 -8 -2 18724.8 1233.94 20
8 -8 -2 18139.7 1271.57 29
8 -8 -2 16162 1003.64 15
8 -8 -1 18938.9 1268.32 20
8 -8 -1 20570.3 1347.61 29
8 -8 0 434.107 241.215 29
8 -8 1 5384.61 618.961 20
8 -8 1 6355.62 682.039 29
8 -8 2 34337.5 1506.39 20
8 -8 2 33106.7 1569.5 29
8 -8 3 1049.89 247.653 29
8 -8 4 11534.5 660.068 34
8 -8 4 12494 685.075 29
8 -7 -7 4327.43 540.35 2
8 -7 -6 12998.7 1008.56 2
8 -7 -5 21050.1 1353.78 2
8 -7 -5 21919.5 1121.85 20
8 -7 -5 19408.7 1347.48 29
8 -7 -4 4842.04 630.019 2
8 -7 -4 4360.97 563.1 20
8 -7 -4 4161.67 653.279 29
8 -7 -3 7559.96 777.803 20
8 -7 -3 5419.48 752.905 29
8 -7 -3 6281.74 691.533 15
8 -7 -2 32224.9 1743.67 20
8 -7 -2 29190.1 1767.98 29
8 -7 -2 28745 1555.57 15
8 -7 -1 11200.9 1000.69 20
8 -7 -1 11299.9 1043.06 29
8 -7 -1 9224.13 826.907 15
8 -7 0 9258.62 807.892 15
8 -7 1 7138.68 745.007 20
8 -7 2 1356.22 320.998 20
8 -7 4 20233.4 948.269 34
8 -6 -9 4606.62 445.04 2
8 -6 -9 3427.82 397.663 6
8 -6 -8 3414.34 475.275 2
8 -6 -8 3238.63 461.182 6
8 -6 -7 12377.5 976.79 2
8 -6 -7 9319.07 834.269 6
8 -6 -6 30841.2 1721.81 2
8 -6 -5 211.822 154.421 20
8 -6 -5 495.916 306.103 2
8 -6 -5 462.532 252.736 29
8 -6 -4 1228.51 323.879 20
8 -6 -4 1912.28 436.949 2
8 -6 -3 31963.2 1720.04 20
8 -6 -3 31154 1872.17 29
8 -6 -3 30779.6 1724.54 15
8 -6 -2 162.72 197.219 20
8 -6 -2 102.591 175.849 15
8 -6 -2 62.1426 225.95 29
8 -6 -1 25090.7 1590.71 20
8 -6 -1 26924.5 1683.77 29
8 -6 -1 26132.4 1541.77 15
8 -6 0 11736 1066.19 29
8 -6 0 10997.8 959.974 15
8 -6 1 13511.1 1066.75 20
8 -6 1 12823.9 1069.52 29
8 -6 2 38695.7 1780.26 20
8 -6 2 37713.7 1837 29
8 -6 3 30717.2 1419.08 12
8 -6 3 32291.1 1532.61 29
8 -6 4 1070.74 214.909 12
8 -6 4 844.628 215.039 29
8 -5 -10 7432.14 493.569 2
8 -5 -9 6163.7 570.424 2
8 -5 -9 4785.34 526.352 6
8 -5 -8 3128.05 476.883 2
8 -5 -8 2844.82 470.609 6
8 -5 -7 31822.3 1688.13 6
8 -5 -6 279.33 224.716 2
8 -5 -6 502.712 243.85 6
8 -5 -5 675.148 232.292 20
8 -5 -5 693.093 305.501 2
8 -5 -5 722.983 323.605 29
8 -5 -4 22587.2 1484.48 2
8 -5 -4 22297.5 1345.31 20
8 -5 -4 21105.5 1471.16 29
8 -5 -3 406.314 230.433 20
8 -5 -3 294.387 206.121 2
8 -5 -3 223.618 224.834 15
8 -5 -3 479.787 272.062 29
8 -5 -2 78585.7 3055.21 20
8 -5 -2 75320.7 3118.33 29
8 -5 -2 77831.4 3051.77 15
8 -5 -2 70535.4 2535.99 14
8 -5 -1 34568.2 1886.31 20
8 -5 -1 33682.2 1886.79 29
8 -5 -1 29970.3 1450.81 14
8 -5 0 7541.04 840.223 29
8 -5 1 19355.1 1316.38 20
8 -5 1 22568.5 1412.88 29
8 -5 2 34604.3 1683.41 20
8 -5 2 36702.5 1765.23 29
8 -5 3 2195.62 380.655 12
8 -5 3 2897.94 426.226 29
8 -5 4 1141.46 239.453 12
8 -4 -10 1391.61 244.548 2
8 -4 -9 139.919 152.853 2
8 -4 -9 -74.509 162.792 6
8 -4 -8 16693 1137.88 2
8 -4 -8 15287.9 1092.95 6
8 -4 -7 3200.95 534.395 6
8 -4 -6 22622.6 1496.06 2
8 -4 -6 20732 1377.03 6
8 -4 -5 809.231 256.331 20
8 -4 -5 754.344 306.984 2
8 -4 -5 679.5 270.065 6
8 -4 -4 3725.23 542.741 20
8 -4 -4 3346.43 571.33 2
8 -4 -4 3904.15 515.111 14
8 -4 -3 35748.4 1834.22 20
8 -4 -3 31938.6 1780.66 29
8 -4 -3 31942.7 1584.15 14
8 -4 -3 31930.5 1737.2 2
8 -4 -2 81685 3142.4 20
8 -4 -2 77749.2 3064.45 29
8 -4 -2 86262.6 3257.93 15
8 -4 -2 76126.5 2793.98 14
8 -4 -1 7382.71 833.996 20
8 -4 -1 6605.87 759.825 29
8 -4 -1 8081.98 869.92 15
8 -4 -1 7253.01 700.831 14
8 -4 0 10797.5 956.982 29
8 -4 0 10682.6 846.619 14
8 -4 1 67243.2 2647.44 20
8 -4 1 63844.8 2517.52 19
8 -4 1 58174.2 2302.9 14
8 -4 2 363.381 207.76 20
8 -4 3 2986.69 392.825 13
8 -4 3 3071.24 440.558 12
8 -4 4 11935.2 718.938 12
8 -3 -10 270.155 139.736 2
8 -3 -9 4494.36 531.144 2
8 -3 -9 4853.78 561.902 6
8 -3 -8 3284.97 494.864 2
8 -3 -8 2483.58 463.946 6
8 -3 -7 7728.76 813.933 6
8 -3 -6 1393.96 400.961 2
8 -3 -6 1387.39 359.059 6
8 -3 -5 38200.1 2001.02 2
8 -3 -5 36515.3 1691.16 20
8 -3 -4 2937.86 484.724 20
8 -3 -4 2405.43 499.745 2
8 -3 -4 3232.59 551.129 15
8 -3 -3 135653 4416.58 20
8 -3 -3 138764 4592.58 15
8 -3 -3 138170 4317.56 14
8 -3 -3 136325 4403.04 2
8 -3 -2 2809.06 518.124 20
8 -3 -2 2897.84 531.635 15
8 -3 -2 3277.01 504.957 14
8 -3 -1 9241.44 916.888 20
8 -3 -1 9142.31 923.988 15
8 -3 -1 8445.77 796.72 14
8 -3 0 32760 1782.59 19
8 -3 0 31698.2 1611.98 14
8 -3 1 887.154 284.524 19
8 -3 1 79.2194 151.912 14
8 -3 2 23227 1306.33 12
8 -3 3 14075.8 855.993 13
8 -3 3 16533.2 942.398 12
8 -3 4 1496.66 216.84 13
8 -3 4 1613.86 232.895 12
8 -2 -11 208.779 108.467 7
8 -2 -10 1336.8 247.252 2
8 -2 -9 2743.79 414.71 2
8 -2 -8 24920.1 1418.72 6
8 -2 -8 25204.5 1415.98 2
8 -2 -6 2604.09 497.529 2
8 -2 -6 2231.06 430.682 15
8 -2 -5 20754.6 1275.13 7
8 -2 -5 21780.5 1346.11 15
8 -2 -5 23038.2 1473.58 2
8 -2 -4 100647 3452.68 20
8 -2 -4 107221 3619.12 15
8 -2 -4 100495 3488.54 14
8 -2 -4 99003.8 3591.28 2
8 -2 -3 22380.9 1388.26 20
8 -2 -3 22561.2 1414.28 15
8 -2 -3 20298.7 1302.41 14
8 -2 -3 21332.5 1324.42 2
8 -2 -2 4615.67 633.867 20
8 -2 -2 3507.72 558.043 15
8 -2 0 2787.35 504.844 19
8 -2 1 26667.4 1399.08 12
8 -2 1 24574.6 1369.88 19
8 -2 2 14448.1 901.906 12
8 -2 3 166.121 112.606 12
8 -1 -11 637.034 134.368 7
8 -1 -10 654.551 172.1 2
8 -1 -10 463.722 167.776 7
8 -1 -9 8389.51 665.473 2
8 -1 -8 37365.3 1699.72 7
8 -1 -8 38146.4 1728.86 2
8 -1 -7 1525.08 370.476 2
8 -1 -7 1758.59 371.204 7
8 -1 -6 822.498 288.094 2
8 -1 -6 1054.25 276.017 19
8 -1 -6 1112.56 311.931 7
8 -1 -5 29912.9 1565.52 19
8 -1 -5 28606.2 1496.96 7
8 -1 -5 30107 1446.84 15
8 -1 -5 31483.6 1683.71 2
8 -1 -4 13190.1 1042.83 19
8 -1 -4 11886.9 889.392 15
8 -1 -4 12195.1 982.536 14
8 -1 -4 11988.4 976.394 2
8 -1 -3 10159.1 929.571 19
8 -1 -3 9155.69 843.667 14
8 -1 -2 18595.6 1278.14 19
8 -1 -2 16582.7 1136.27 14
8 -1 -1 1632.54 381.045 19
8 -1 -1 1762.16 365.063 14
8 -1 0 48952.9 1899.87 12
8 -1 0 48029.3 2097.23 19
8 -1 0 49000.3 2012.47 14
8 -1 1 38398.7 1609.48 14
8 -1 1 34651.1 1418.15 12
8 -1 2 4322.25 440.173 13
8 0 -10 81.7737 89.3505 7
8 0 -9 46607.4 1709.74 2
8 0 -8 10613.9 788.39 7
8 0 -8 12779.2 856.174 2
8 0 -7 2719.42 419.851 7
8 0 -7 2799.3 433.568 2
8 0 -6 15821.8 925.843 19
8 0 -6 18920 1119.51 7
8 0 -5 3172.63 453.094 19
8 0 -5 3477.39 469.02 7
8 0 -5 4089.27 527.914 14
8 0 -4 12365.5 929.51 19
8 0 -4 12121.2 921.301 14
8 0 -3 5472.19 637.706 19
8 0 -3 4594.08 516.107 16
8 0 -3 5430.2 609.445 14
8 0 -2 6869.34 613.376 16
8 0 -2 6494.86 654.882 14
8 0 -1 37481.9 1710.49 19
8 0 -1 32442 1530.62 14
8 0 0 55585.3 2018.6 14
8 0 1 5391.6 472.372 13
8 1 -10 20291.6 779.123 7
8 1 -10 16607.3 691.108 14
8 1 -8 3572.67 408.66 7
8 1 -7 8493.85 656.561 7
8 1 -7 7453.39 600.589 14
8 1 -6 6293.32 573.19 7
8 1 -6 6485.18 579.645 14
8 1 -5 5127.58 487.611 19
8 1 -5 6621.18 592.268 14
8 1 -4 14329.4 891.136 19
8 1 -4 13507.3 873.997 16
8 1 -4 14554.7 905.19 14
8 1 -3 2317.5 356.777 16
8 1 -3 2494.84 363.289 14
8 1 -2 8080.56 609.722 16
8 1 -2 8721.24 639.427 14
8 1 -1 49447.5 1715.17 16
8 1 -1 52568.3 1757.5 14
8 2 -7 1071.7 170.689 14
8 2 -6 10224.2 571.348 14
8 2 -5 32022.7 1252.8 16
8 2 -5 27209.6 1071.91 14
8 2 -4 1659.13 268.681 16
8 2 -4 1533.99 208.744 14
8 2 -3 2817.99 317.888 21
8 2 -3 2541.47 309.692 16
8 2 -2 50896 1603.89 16
9 -9 -3 183.944 94.6683 20
9 -9 -2 3781.85 382.716 20
9 -9 -1 12189.1 706.796 20
9 -9 -1 11168 706.398 29
9 -9 0 2805.76 326.282 29
9 -8 -5 7723.32 627.557 29
9 -8 -4 1141.71 214.071 20
9 -8 -4 1744 332.817 29
9 -8 -3 1980.74 319.191 20
9 -8 -3 2978.57 436.598 29
9 -8 -2 3771.32 463.124 20
9 -8 -2 4722.05 543.394 29
9 -8 -1 1098.89 267.37 20
9 -8 -1 1781.41 333.514 29
9 -8 0 18354.8 1010.49 29
9 -8 1 17981.2 877.445 20
9 -8 1 18798.5 937.522 29
9 -7 -7 1663.59 266.298 2
9 -7 -7 1908.22 282.156 15
9 -7 -6 9743.81 700.631 15
9 -7 -5 993.84 254.871 15
9 -7 -4 1709.92 300.767 20
9 -7 -4 1872.19 352.747 15
9 -7 -4 1982.01 378.709 29
9 -7 -3 6308.35 618.503 20
9 -7 -3 7850.6 741.554 29
9 -7 -3 6092.86 616.648 15
9 -7 -2 38.3773 147.084 20
9 -7 -2 35.4395 135.825 15
9 -7 -2 41.7226 143.023 29
9 -7 -1 28007.8 1431.52 20
9 -7 -1 28902.3 1466.08 29
9 -7 0 18436.6 1076.64 29
9 -7 1 1551.5 277.717 20
9 -7 1 1258.99 265.895 29
9 -7 2 9630.83 601.542 29
9 -6 -8 136.677 123.479 2
9 -6 -8 45.7113 107.297 15
9 -6 -7 9987.86 733.08 2
9 -6 -7 11124 767.991 15
9 -6 -6 1044.59 271.493 2
9 -6 -6 1398.91 313.422 15
9 -6 -5 11974.1 739.436 20
9 -6 -5 15272.9 1025.45 15
9 -6 -4 12406.8 851.431 20
9 -6 -3 544.442 235.96 20
9 -6 -2 36539.7 1725.6 20
9 -6 -1 11886 914.773 20
9 -6 1 9198.29 690.002 20
9 -6 2 15328.9 786.855 12
9 -5 -9 941.68 181.181 2
9 -5 -9 1199.26 187.593 15
9 -5 -7 174.451 158.254 2
9 -5 -7 138.947 157.558 15
9 -5 -6 11432.5 871.729 2
9 -5 -6 11232.4 876.059 15
9 -5 -5 13340.5 818.437 20
9 -5 -5 16887 1124.23 15
9 -5 -4 2888.92 428.27 20
9 -5 -4 3483.15 522.65 15
9 -5 -3 32181.8 1594.35 20
9 -5 -3 35080.1 1740.82 15
9 -5 -2 36629.1 1736.56 20
9 -5 -2 35203.1 1760.64 15
9 -5 -1 1927.81 379.071 20
9 -5 0 1313.41 290.056 19
9 -5 2 1418.77 247.624 12
9 -4 -9 146.936 119.428 2
9 -4 -9 293.721 110.224 15
9 -4 -8 5619.58 507.385 15
9 -4 -7 6163.18 595.243 15
9 -4 -7 5808.04 598.402 2
9 -4 -6 33866.1 1626.57 15
9 -4 -6 35037.3 1647.73 2
9 -4 -5 3215.63 404.471 20
9 -4 -5 3884.2 535.9 15
9 -4 -5 3081.7 462.648 2
9 -4 -4 24337.3 1273.13 20
9 -4 -4 26906.7 1468.95 15
9 -4 -4 22945.2 1196.67 14
9 -4 -3 31003.9 1526.66 20
9 -4 -3 31968.7 1637.16 15
9 -4 -3 27599.9 1345.55 14
9 -4 -2 875.691 282.112 20
9 -4 -2 1019.2 313.809 15
9 -4 -2 894.575 236.4 14
9 -4 -1 3492.69 499.474 20
9 -4 -1 3438.81 499.354 19
9 -4 -1 2765.89 379.715 14
9 -4 0 21317.9 1155.89 19
9 -4 1 -85.8005 120.087 12
9 -4 2 44943.2 1521.15 12
9 -3 -9 1259.73 224.674 2
9 -3 -9 1040.63 191.403 7
9 -3 -8 20808.7 934.364 15
9 -3 -7 31641.3 1336.88 15
9 -3 -7 30111.3 1321.18 14
9 -3 -7 33420.4 1485.75 2
9 -3 -6 7404.65 656.884 15
9 -3 -6 6871.18 613.884 14
9 -3 -6 8230.74 721.773 2
9 -3 -5 3206.25 464.867 15
9 -3 -5 3437.56 444.615 14
9 -3 -5 2989.78 449.404 2
9 -3 -4 41800.6 1806.24 15
9 -3 -4 35614.9 1627.22 14
9 -3 -3 88.1047 151.05 19
9 -3 -3 241.14 168.768 15
9 -3 -3 175.514 164.806 14
9 -3 -2 4313.52 551.614 19
9 -3 -2 3416.93 443.695 14
9 -3 -1 8827.78 758.011 19
9 -3 -1 7579.84 641.891 14
9 -3 0 1016.15 242.284 12
9 -3 0 1002.37 239.643 19
9 -3 0 1056.5 230.93 14
9 -3 1 26947.9 1142 13
9 -3 1 31433.6 1191.21 12
9 -2 -9 3932.04 346.006 7
9 -2 -9 3951.42 343.644 14
9 -2 -9 4639.85 388.696 2
9 -2 -8 14950.6 813.547 14
9 -2 -8 14753.7 840.031 2
9 -2 -7 1442.08 295.505 2
9 -2 -7 1049.93 243.783 14
9 -2 -6 813.313 250.336 2
9 -2 -6 785.038 206.155 19
9 -2 -6 747.707 184.904 15
9 -2 -6 583.567 204.794 14
9 -2 -5 22696 1196.64 19
9 -2 -5 23123.4 1104.93 15
9 -2 -5 23420.1 1226.99 14
9 -2 -5 25103.7 1249.89 2
9 -2 -4 183.941 178.394 19
9 -2 -4 208.743 163.359 14
9 -2 -3 29498.5 1474.33 19
9 -2 -2 10160.2 804.804 19
9 -2 -1 2260.6 294.418 12
9 -2 0 25079.8 1110.77 19
9 -1 -7 409.686 155.424 14
9 -1 -6 2070.43 255.65 19
9 -1 -6 3117.28 391.026 14
9 -1 -5 2940.06 360.761 19
9 -1 -5 4162.65 462.692 14
9 -1 -4 31774.1 1388.6 19
9 -1 -4 32615.3 1421.09 14
9 -1 -3 12663.4 823.193 19
9 -1 -3 11983 787.664 14
9 -1 -2 1455.12 284.805 19
9 -1 -2 1418.49 260.565 14
9 -1 -1 10351 631.949 14
9 0 -8 803.492 146.042 14
9 0 -7 694.979 154.328 14
9 0 -6 1999.55 273.109 14
9 0 -5 17461.2 862.57 14
9 0 -4 23732.3 1027.8 14
9 0 -3 3039.92 319.709 14
10 -6 -5 5982.24 478.543 15
10 -6 -4 2757.93 343.14 15
10 -6 -2 6438.59 481.423 19
10 -5 -6 5268.37 414.507 15
10 -5 -5 -21.4521 82.2156 19
10 -5 -5 45.5808 95.6811 15
10 -5 -4 2418.52 325.619 19
10 -5 -3 14665.7 819.936 19
10 -5 -2 690.665 176.132 19
10 -4 -5 194.978 103.092 19
10 -4 -4 7297.08 540.931 19
10 -4 -3 4226.58 412.184 19
10 -3 -4 53.8227 72.1244 19
10 -3 -3 16143.1 753.605 19
-8 10 -1 10473 637.268 37
-7 -3 6 661.599 192.475 38
-7 -3 7 14724.3 863.913 38
-7 -3 8 1185.1 236.179 38
-7 -3 9 291.069 123.607 38
-7 -2 6 40282.4 1773.96 38
-7 -2 7 27442.5 1406.76 38
-7 -2 8 5784.08 597.154 38
-7 -2 9 12420.5 826.67 38
-7 -1 6 92284.7 3221.53 38
-7 -1 7 2682.33 469.82 38
-7 -1 8 17664.1 1161.98 38
-7 0 3 2116.73 512.26 1
-7 0 4 23353.8 1659.72 1
-7 0 5 114384 4235.17 1
-7 0 6 1923.28 406.251 38
-7 0 7 1145.68 338.292 38
-7 0 8 23793.4 1423.23 38
-7 1 1 77210.9 3273.64 1
-7 1 2 12914.2 1218.43 1
-7 1 3 5797.87 814.809 1
-7 1 5 31640 1905.9 1
-7 1 6 6940.4 851.897 1
-7 2 0 220611 6710.72 1
-7 2 1 8243.17 976.153 1
-7 2 2 94717.6 3782.6 1
-7 2 3 59608 2796.3 1
-7 2 5 16172.9 1305.98 1
-7 2 6 8697.12 932.011 1
-7 3 0 8416.7 970.659 1
-7 3 1 15679.6 1327.47 1
-7 3 5 10387.6 973.07 26
-7 3 5 8825.22 954.887 1
-7 3 6 1855.07 443.765 1
-7 3 6 2202.35 468.046 26
-7 3 11 8259.44 541.367 23
-7 4 5 2577.02 491.613 26
-7 4 6 16134 1313.66 36
-7 4 6 14456.5 1199.82 26
-7 4 11 3451.53 339.544 23
-7 5 -1 9246.18 925.506 36
-7 5 0 41322.3 2133.4 36
-7 5 1 19760.4 1440.45 36
-7 5 2 824.982 326.809 36
-7 5 4 2413.52 528.14 36
-7 5 4 1557.91 379.806 26
-7 5 5 7071.8 818.992 26
-7 5 5 8521.46 976.217 36
-7 6 0 8681.55 951.489 36
-7 6 1 5113.73 752.744 36
-7 6 2 87879.5 3577.13 36
-7 6 3 4006.18 680.666 36
-7 6 4 22035.8 1626.18 36
-7 6 4 21052.2 1411.13 26
-7 9 4 6202.12 574.412 5
-7 10 -2 15878.8 932.255 37
-7 11 -1 1271.72 218.8 37
-7 11 0 8510.82 610.702 37
-7 11 1 2042.54 297.558 37
-6 -5 4 132.397 116.607 38
-6 -5 5 2436 326.556 38
-6 -5 6 19457.6 982.414 38
-6 -5 7 666.517 185.011 38
-6 -5 8 13087.5 726.742 38
-6 -4 3 99.4648 127.085 38
-6 -4 4 6962.32 670.521 38
-6 -4 5 4834.07 576.121 38
-6 -4 6 278.521 192.985 38
-6 -4 7 42764.2 1848.46 38
-6 -4 8 11685.7 840.412 38
-6 -4 9 445.313 187.214 38
-6 -4 10 16364.7 845.781 38
-6 -3 3 31441.7 1613.4 38
-6 -3 4 19291 1267.52 38
-6 -3 5 11857.9 989.31 38
-6 -3 6 73234.7 2868.62 38
-6 -3 7 48799.2 2192.78 38
-6 -3 8 1770.94 394.949 38
-6 -3 9 1244.71 312.797 38
-6 -3 10 31491.5 1445.76 38
-6 -2 2 95287.3 3829.69 1
-6 -2 3 72349.3 3251.93 1
-6 -2 3 74226.1 2838.98 38
-6 -2 4 5466.18 701.364 38
-6 -2 4 6425.09 877.938 1
-6 -2 5 134714 4381.28 38
-6 -2 5 123370 4593.08 1
-6 -2 6 73031 3203.47 1
-6 -2 6 81528.8 3138.01 38
-6 -2 7 2347.38 479.89 38
-6 -2 8 2158.08 458.046 38
-6 -2 9 40754.7 1960.01 38
-6 -2 10 1511.06 351.568 38
-6 -1 1 90855.3 3689.21 1
-6 -1 2 88112.6 3634.59 1
-6 -1 3 136.435 233.861 1
-6 -1 4 28542.6 1616.07 38
-6 -1 4 29779 1871.62 1
-6 -1 5 131028 4416.9 38
-6 -1 5 137914 4752.31 1
-6 -1 6 1973.96 490.409 1
-6 -1 6 2350.1 481.888 38
-6 -1 7 7728.17 891.499 1
-6 -1 7 8079.8 882.031 38
-6 -1 8 12556.1 1097.79 38
-6 -1 9 1335.73 361.733 38
-6 0 0 43161.8 2258.08 1
-6 0 1 243954 7287.54 1
-6 0 2 13487.4 1199.19 1
-6 0 3 22450 1565.8 1
-6 0 5 8427.33 840.765 38
-6 0 5 6647.85 822.602 1
-6 0 6 15290 1231.14 1
-6 0 6 14549.7 1161.83 38
-6 0 7 4589.8 665.532 1
-6 0 7 4644.03 691.884 38
-6 0 8 1695.93 426.891 38
-6 0 9 39414 2056.8 38
-6 0 11 50.437 96.6564 23
-6 1 -1 197819 6023.52 1
-6 1 0 189036 5905.61 1
-6 1 1 2930.82 555.838 1
-6 1 2 35768.2 1975.98 1
-6 1 3 95171.6 3595.65 1
-6 1 5 30253.2 1612.39 38
-6 1 5 33007.2 1834.89 1
-6 1 6 31065.8 1720.17 38
-6 1 6 31028.9 1772.05 1
-6 1 6 32915.9 1835.9 26
-6 1 7 1340.94 349.049 1
-6 1 7 1112.3 390.071 26
-6 1 7 1169.75 364.533 38
-6 1 10 1406.55 328.191 23
-6 1 11 192.811 160.635 23
-6 1 12 9722.62 596.882 23
-6 2 -1 44775.4 2198.89 1
-6 2 0 53640.7 2476.56 1
-6 2 4 84771.9 3045.31 26
-6 2 5 48680.4 2206.29 26
-6 2 5 48355.5 2259.12 1
-6 2 6 805.934 263.794 38
-6 2 6 778.78 286.485 26
-6 2 6 614.534 278.036 1
-6 2 7 22646.4 1393.92 1
-6 2 7 22628.7 1533.23 26
-6 2 8 97161.4 3752.29 26
-6 2 11 14563.8 953.257 23
-6 2 12 1341.16 237.185 23
-6 3 3 72124.2 2611.83 26
-6 3 4 102129 3456.69 26
-6 3 5 2132.24 435.908 26
-6 3 6 11979.8 1050.1 26
-6 3 7 122643 4292.59 26
-6 3 8 5741.98 778.052 26
-6 3 12 3185.24 335.87 23
-6 4 -2 76403.1 2846.57 36
-6 4 3 146452 4414.4 26
-6 4 4 637.794 259.35 26
-6 4 5 27251.9 1573.33 26
-6 4 6 64166.3 2729.48 26
-6 4 6 65112.3 2750.79 36
-6 4 7 23272.8 1547.91 26
-6 5 -2 23570.3 1460.87 36
-6 5 -1 127611 4268.15 36
-6 5 0 2942.03 522.675 36
-6 5 1 40554 2050.74 36
-6 5 2 259354 7211.64 36
-6 5 2 244568 6708.54 26
-6 5 3 31877.5 1641.9 26
-6 5 3 35758.5 1932.12 36
-6 5 4 30006.8 1786.18 36
-6 5 4 26512.3 1529.71 26
-6 5 5 7286.11 800.632 26
-6 5 5 6895.41 846.142 36
-6 5 5 6469.98 692.611 5
-6 5 6 30185.6 1767.3 26
-6 5 6 31346.9 1803.08 36
-6 5 7 823.772 311.372 26
-6 6 -2 107211 3838.21 36
-6 6 -1 2834.45 542.113 36
-6 6 0 15066.9 1233.76 36
-6 6 1 124320 4374.09 36
-6 6 2 26066.3 1454.77 26
-6 6 3 28597.4 1599.67 26
-6 6 3 30026.5 1851.65 36
-6 6 4 8404.78 793.352 5
-6 6 4 9197.98 892.797 26
-6 6 4 9514.13 1028.1 36
-6 6 5 20776.6 1512.17 36
-6 6 5 17943.7 1219.96 5
-6 6 5 17646.5 1299.2 26
-6 6 6 2402.59 487.61 26
-6 6 6 1950.57 426.944 5
-6 7 -2 7354.08 873.404 36
-6 7 -1 28152.2 1780.18 36
-6 7 0 32987.6 1981.22 36
-6 7 1 69715 3094.1 36
-6 7 2 18214.9 1259.58 26
-6 7 2 18263.5 1464.92 36
-6 7 3 38744.2 1849.96 5
-6 7 3 38875 1983.26 26
-6 7 3 41567.4 2305.77 36
-6 7 4 278.417 202.518 26
-6 7 4 347.499 252.74 36
-6 7 4 143.386 163.915 5
-6 7 5 1830 408.546 5
-6 7 6 24153.7 1457.64 5
-6 8 0 53981.5 2691.43 36
-6 8 2 22534.3 1355.37 5
-6 8 3 143.152 182.905 5
-6 8 4 193.306 194.299 5
-6 8 5 20965.6 1325.16 5
-6 8 6 3263.33 499.793 5
-6 8 6 3214.49 395.69 27
-6 9 1 53570 2208.18 5
-6 9 2 32947.7 1663.55 5
-6 9 3 20872.2 1280.77 5
-6 9 4 53410.7 2212.72 5
-6 9 5 7692.01 717.526 5
-6 9 5 7311.82 618.144 27
-6 10 -3 21098.3 1164.71 37
-6 10 0 17418.2 1013.29 5
-6 10 1 5987.98 606.084 5
-6 10 2 19429.2 1133.56 5
-6 10 2 21034.1 1319.59 37
-6 10 3 12568.5 867.133 5
-6 10 4 942.504 239.361 5
-6 10 4 624.252 187.216 27
-6 11 -3 1987.43 261.991 37
-6 11 -2 597.948 192.524 37
-6 11 -1 7784.91 652.736 37
-6 11 0 4985.33 392.352 5
-6 11 1 2370.55 359.503 37
-6 11 1 2051.74 269.816 5
-6 11 2 6966.13 486.744 5
-5 -6 2 14877.7 791.045 4
-5 -6 2 15749.6 801.954 38
-5 -6 3 32798.4 1377.82 38
-5 -6 4 1396.54 281.904 38
-5 -6 5 6509.32 597.046 38
-5 -6 6 17939.4 1012.15 38
-5 -6 7 2948.11 388.135 38
-5 -6 8 35847.5 1422.31 38
-5 -5 1 9551.2 736.943 38
-5 -5 2 18814.2 1151.38 38
-5 -5 3 3966.1 552.444 38
-5 -5 4 30674 1609.09 38
-5 -5 5 13149.3 1010.49 38
-5 -5 6 716.973 287.807 38
-5 -5 7 86813.8 3064.36 38
-5 -5 8 44476.1 1900.47 38
-5 -5 9 233.306 156.528 38
-5 -5 11 8649.78 471.058 9
-5 -4 0 9342.52 782.073 38
-5 -4 1 30988.6 1625.84 38
-5 -4 2 1300.55 364.867 38
-5 -4 3 72907 2915.7 38
-5 -4 4 32704.6 1796.34 38
-5 -4 5 1569.86 405.905 38
-5 -4 6 52101 2365.59 38
-5 -4 7 59209.7 2550.32 38
-5 -4 8 642.81 287.749 38
-5 -4 9 17161.9 1146.95 38
-5 -4 11 11284.7 665.48 9
-5 -3 1 14557.7 1301.31 1
-5 -3 1 15690.4 1158.76 38
-5 -3 2 272483 7527.84 38
-5 -3 2 259910 7971.02 1
-5 -3 3 46988.3 2226.47 38
-5 -3 3 43946.6 2442.13 1
-5 -3 4 4828.23 762.461 1
-5 -3 4 4759.93 669.045 38
-5 -3 5 57617.9 2538.87 38
-5 -3 5 49679.5 2584.14 1
-5 -3 6 145119 4788.87 38
-5 -3 6 140079 4897.23 1
-5 -3 7 4365.47 654.026 38
-5 -3 7 2897.79 497.061 28
-5 -3 7 3901.65 640.38 1
-5 -3 8 22811.8 1490.99 38
-5 -3 9 16432 1210.74 38
-5 -3 10 15955.4 1121.3 38
-5 -3 11 3697.43 421.606 32
-5 -3 12 695.804 145.596 32
-5 -2 0 2879.72 570.006 1
-5 -2 1 152755 5211.65 1
-5 -2 1 153426 4744.63 38
-5 -2 2 109202 4224.43 1
-5 -2 2 119947 3927.4 38
-5 -2 3 607.075 281.497 38
-5 -2 3 1113.42 381.07 1
-5 -2 4 37722.3 1931.96 38
-5 -2 5 102730 3973.45 1
-5 -2 5 117456 3974.42 38
-5 -2 6 61.4716 149.006 1
-5 -2 6 56.6655 153.568 38
-5 -2 7 14723.2 1208.28 1
-5 -2 7 13392 1027.18 28
-5 -2 7 15709.1 1244.82 38
-5 -2 8 8358.83 901.923 38
-5 -2 9 113.905 218.284 38
-5 -2 10 38991.2 1951.44 38
-5 -2 11 12155.2 827.952 32
-5 -2 12 1234.52 216.893 32
-5 -1 -1 10648.2 1021.27 1
-5 -1 0 142208 4781.9 1
-5 -1 1 315700 8789.18 1
-5 -1 2 3525.27 582.776 1
-5 -1 3 9536.49 850.351 38
-5 -1 3 10075.4 974.256 1
-5 -1 4 65050.2 2611.22 38
-5 -1 5 252.401 202.992 38
-5 -1 5 274.997 188.622 1
-5 -1 6 83691.9 3257.71 38
-5 -1 6 85547.2 3259.26 1
-5 -1 7 10868.4 1023.89 38
-5 -1 7 11511.3 1015.34 1
-5 -1 8 -60.3369 219.379 38
-5 -1 9 84101.3 3336.93 38
-5 -1 9 81921.7 2953.29 23
-5 -1 10 33073.3 1635.38 23
-5 -1 11 35.7942 130.144 23
-5 -1 11 34.4894 118.229 32
-5 -1 12 996.292 222.375 23
-5 -1 12 1158.35 223.196 32
-5 0 -1 91719.1 3396.34 1
-5 0 0 319897 8709.77 1
-5 0 1 42078.8 2058 1
-5 0 2 10952.5 965.439 1
-5 0 3 110683 3781.9 1
-5 0 4 724.339 262.143 1
-5 0 4 624.846 242.569 38
-5 0 5 114525 3847.23 38
-5 0 5 118765 3934.77 1
-5 0 6 2214.88 446.907 1
-5 0 6 2062.6 435.527 38
-5 0 7 3450.29 582.783 38
-5 0 7 3560.74 537.295 1
-5 0 8 17725.4 1360.41 38
-5 0 9 62803.3 2816.74 38
-5 0 10 344.655 223.507 23
-5 0 10 588.179 227.939 32
-5 0 11 3681.26 519.906 23
-5 0 11 2759.94 408.991 32
-5 0 12 8461.5 672.131 23
-5 0 13 -31.4511 63.2137 23
-5 1 -1 155485 4814.23 1
-5 1 0 33975.9 1742.17 1
-5 1 3 2673.97 401.407 26
-5 1 4 158489 4737.53 38
-5 1 4 178939 4902.19 26
-5 1 5 153778 4697.6 26
-5 1 5 148630 4611.52 38
-5 1 5 158807 4709.16 1
-5 1 6 3235.62 528.101 26
-5 1 6 3012.74 511.349 38
-5 1 6 3204.21 483.118 1
-5 1 7 26163.2 1613.63 38
-5 1 7 25239.9 1599.41 26
-5 1 7 28154.5 1462.88 1
-5 1 8 161323 5294.71 26
-5 1 10 8719.67 771.909 32
-5 1 11 2876.15 483.347 23
-5 1 12 487.524 193.271 23
-5 1 13 5180.7 384.044 23
-5 2 -2 103641 3509.92 1
-5 2 2 10316.3 702.21 26
-5 2 3 112507 3409.8 26
-5 2 4 409891 10192.2 26
-5 2 5 7164.69 690.522 38
-5 2 5 7089.82 711.376 26
-5 2 6 17712.1 1218.4 26
-5 2 6 16963 1177.25 38
-5 2 7 81580.9 3148.03 26
-5 2 7 76940.7 2735.88 1
-5 2 9 20088.1 1473.88 26
-5 2 12 9689.92 719.223 23
-5 3 1 17854.7 890.03 26
-5 3 2 101542 3043.98 26
-5 3 3 344375 8634.03 26
-5 3 4 17512.6 1061.53 26
-5 3 5 66318.8 2532.1 26
-5 3 6 46172 2109.04 26
-5 3 7 5845.25 728.194 26
-5 3 9 8049.53 898.415 26
-5 3 12 8958.17 636.089 23
-5 4 -2 78474.9 2792.31 36
-5 4 1 50273.6 1800.42 26
-5 4 2 101392 3117.92 26
-5 4 3 60928.8 2237.7 26
-5 4 4 12140.1 852.83 5
-5 4 4 14669 983.391 26
-5 4 5 3028.83 486.515 26
-5 4 5 2818.65 453.394 5
-5 4 6 6015.14 689.683 36
-5 4 6 6510.25 713.92 5
-5 4 6 7496.31 782.519 26
-5 4 8 25385 1614.46 26
-5 5 -3 17590.8 1166.65 36
-5 5 -2 260459 7163.47 36
-5 5 -1 2922.42 480.405 36
-5 5 0 91615.9 3253.5 36
-5 5 1 65347 2605.93 36
-5 5 3 19729.1 1118.12 5
-5 5 3 20204.6 1324.52 36
-5 5 4 58488 2352.73 26
-5 5 4 60010 2311.79 5
-5 5 4 57491.1 2509.93 36
-5 5 5 36027.5 1888.61 36
-5 5 5 34760.3 1736.59 5
-5 5 5 35599.2 1811.12 26
-5 5 6 34803.3 1846.83 26
-5 5 6 33420.3 1778.22 5
-5 5 7 61264.3 2675.59 26
-5 5 7 63567.2 2687.38 5
-5 6 -3 119764 4053.02 36
-5 6 -2 61671.1 2618.25 36
-5 6 -1 69198.8 2820.88 36
-5 6 0 93772.5 3462.21 36
-5 6 1 26954.8 1621.38 36
-5 6 2 21792.1 1250.65 5
-5 6 2 26115.7 1591.32 36
-5 6 3 32199.5 1855.66 36
-5 6 3 32655.9 1623.25 5
-5 6 4 1521.7 367.924 5
-5 6 4 1438.12 412.114 36
-5 6 5 28855.9 1722 36
-5 6 5 26408.7 1556.23 5
-5 6 5 27363.5 1605.16 26
-5 6 6 74610.9 2961.65 5
-5 6 6 71709.3 2604.3 27
-5 6 7 2967.11 543.107 5
-5 7 -3 88118.7 3398.39 36
-5 7 -2 2610.07 518.158 36
-5 7 -1 32075.1 1895.74 36
-5 7 0 2028.62 487.975 36
-5 7 2 49060.4 2500.88 36
-5 7 2 51901.6 2234.68 5
-5 7 3 296.103 246.681 5
-5 7 3 269.028 230.634 36
-5 7 4 20029.3 1505.63 36
-5 7 4 20239.3 1353.23 5
-5 7 5 57826.6 2490.58 5
-5 7 5 51791.5 2416.66 26
-5 7 6 15124.1 1155.69 5
-5 7 6 11756.4 913.829 27
-5 7 7 10219.6 918.298 5
-5 7 7 8646.27 713.084 27
-5 8 -3 2001.67 467.027 36
-5 8 -2 78654.5 3308.94 36
-5 8 -1 83781 3493.23 36
-5 8 0 25682.3 1764.26 36
-5 8 1 182699 6012.04 36
-5 8 2 844.866 307.743 5
-5 8 2 1359.4 425.399 36
-5 8 3 13584.3 1115.53 5
-5 8 3 14838 1329.98 36
-5 8 4 23001.6 1473.01 5
-5 8 5 13873.9 1107.58 5
-5 8 6 2870.72 491.337 5
-5 8 6 2827.33 426.815 27
-5 8 7 4381.33 454.339 27
-5 9 -4 403.213 230.534 37
-5 9 1 949.074 338.782 5
-5 9 2 34027.9 1825.02 5
-5 9 3 18415.4 1273.46 5
-5 9 4 17394 1203.57 5
-5 9 5 1573.99 355.041 5
-5 9 5 1480.74 311.314 27
-5 9 6 8626.29 630.414 27
-5 9 6 7807.17 685.801 5
-5 10 -4 19379.9 1112.88 37
-5 10 -3 1911.16 401.696 37
-5 10 -2 5265.55 671.01 37
-5 10 -1 27079 1628.48 37
-5 10 0 35460.8 1750.2 5
-5 10 1 11328.4 997.453 37
-5 10 1 9221.31 842.48 5
-5 10 2 7705.71 759.813 5
-5 10 2 9337.49 862.847 37
-5 10 3 5824.25 634.181 5
-5 10 4 216.768 163.622 27
-5 10 4 103.365 132.09 5
-5 10 5 6723.91 508.3 27
-5 10 5 6930.01 567.707 5
-5 11 -4 3134.77 325.989 37
-5 11 -3 7702.9 610.9 37
-5 11 -3 5081.94 413.002 5
-5 11 -2 14671.9 935.449 37
-5 11 -2 13420.8 784.965 5
-5 11 -1 17606.3 969.973 5
-5 11 -1 17928.6 1079.95 37
-5 11 0 1587.06 332.83 37
-5 11 0 1508.67 292.241 5
-5 11 1 13506 857.253 37
-5 11 1 11783.1 790.414 5
-5 11 2 1777.45 292.452 5
-5 11 2 2093.73 320.004 27
-5 11 3 597.718 164.108 5
-5 11 3 544.254 156.932 27
-4 -8 5 3702.57 312.94 4
-4 -7 1 108.396 94.7625 38
-4 -7 2 8456.28 636.84 38
-4 -7 2 8078.95 598.608 4
-4 -7 3 18267.6 1023.66 38
-4 -7 3 17942 1034.99 4
-4 -7 4 14577.1 920.115 38
-4 -7 5 28254.5 1349.79 38
-4 -7 6 8520.31 676.232 38
-4 -7 7 2655.88 366.473 4
-4 -7 8 34850.6 1382.43 38
-4 -7 9 10470.2 555.732 9
-4 -7 9 9517.29 563.693 38
-4 -6 -1 14786.3 807.126 38
-4 -6 0 1145.12 268.853 38
-4 -6 1 14586.7 1011.82 38
-4 -6 2 22120.1 1323.08 38
-4 -6 3 18299.2 1214.61 38
-4 -6 4 84683.6 3107.98 38
-4 -6 5 56369.9 2373.12 38
-4 -6 6 1154.81 327.425 38
-4 -6 9 3601.26 452.409 38
-4 -6 10 4460.93 431.246 38
-4 -6 10 4235.85 417.502 9
-4 -6 11 5941.1 397.033 9
-4 -5 -2 29481 1338.64 38
-4 -5 -1 166.049 142.346 38
-4 -5 0 16070.6 1156.15 38
-4 -5 1 30731.4 1711.81 38
-4 -5 2 5618.37 709.959 38
-4 -5 3 103970 4050.9 1
-4 -5 3 104933 3745.64 38
-4 -5 4 35783.4 2120.63 1
-4 -5 4 38180.1 1975.16 38
-4 -5 5 553.054 268.217 38
-4 -5 5 200.565 229.3 1
-4 -5 6 112559 3940.41 38
-4 -5 7 39890 2009.28 38
-4 -5 9 26712 1476.17 38
-4 -5 10 9730.6 772.564 38
-4 -5 11 10703.8 625.938 30
-4 -5 11 9935.08 654.37 9
-4 -5 12 9140.01 476.595 9
-4 -4 0 19543.7 1459.42 1
-4 -4 1 488.502 293.18 1
-4 -4 2 195302 5959.16 38
-4 -4 2 203491 6442.12 1
-4 -4 3 134963 4840.52 1
-4 -4 3 133663 4472.94 38
-4 -4 4 21144.8 1420.71 38
-4 -4 4 19942.3 1534.65 1
-4 -4 5 73220.1 3220.51 1
-4 -4 5 78818 3087.3 38
-4 -4 6 78341.7 3138.12 38
-4 -4 6 79523.1 3279.85 1
-4 -4 7 66190.2 2860.72 1
-4 -4 7 68635.2 2799.27 28
-4 -4 7 69784.8 2885.41 38
-4 -4 10 267.922 195.213 38
-4 -4 11 20277.4 1061.39 9
-4 -4 11 19607.1 980.864 30
-4 -4 12 3210.46 353.201 32
-4 -3 0 64.9537 176.03 1
-4 -3 1 193018 6161.54 1
-4 -3 2 156821 4892.22 38
-4 -3 2 159791 5307.08 1
-4 -3 3 504.459 275.66 1
-4 -3 3 296.493 189.554 38
-4 -3 4 18537.9 1273.13 38
-4 -3 5 60752.2 2738.79 1
-4 -3 5 65294.6 2683.77 38
-4 -3 6 8927.94 935.126 1
-4 -3 6 9028.5 911.05 38
-4 -3 7 57183.1 2565.34 38
-4 -3 7 57515.7 2427.39 28
-4 -3 7 56606.8 2525.09 1
-4 -3 8 20224.3 1408.99 38
-4 -3 8 18587.5 1251.72 28
-4 -3 9 1411.29 329.296 23
-4 -3 10 65922.7 2706.43 38
-4 -3 11 27352.9 1257.15 30
-4 -3 11 31316.9 1410.35 9
-4 -3 12 138.775 130.314 32
-4 -2 -1 1453.9 390.633 1
-4 -2 0 72460.2 2974.7 1
-4 -2 1 166053 5263.58 1
-4 -2 2 2395.36 480.137 1
-4 -2 2 1553.64 343.762 38
-4 -2 3 39187.9 1840.26 38
-4 -2 3 41078.1 2024.55 1
-4 -2 4 57215 2350.55 38
-4 -2 5 1659.5 382.845 1
-4 -2 5 2138.42 429.109 38
-4 -2 6 274991 7543.16 1
-4 -2 6 268763 7568.56 38
-4 -2 7 38758.4 1989.03 38
-4 -2 7 33899.2 1771.41 1
-4 -2 7 36182.8 1746.81 28
-4 -2 8 694.459 297.904 38
-4 -2 8 537.353 224.21 23
-4 -2 8 740.474 253.564 28
-4 -2 9 38402.9 1895.49 23
-4 -2 10 37721.5 1859.76 23
-4 -2 10 36792 1652.84 30
-4 -2 11 1092.18 301.874 32
-4 -2 11 1176.29 306.162 23
-4 -2 11 694.514 224.089 9
-4 -2 12 4005.99 461.4 32
-4 -2 12 3672.47 450.512 23
-4 -2 13 2756.99 288.009 32
-4 -1 -1 15076.1 1109.5 1
-4 -1 0 344993 9104.66 1
-4 -1 1 15062.4 1084.22 1
-4 -1 2 83197.6 2988.24 1
-4 -1 3 10444.9 860.565 1
-4 -1 4 866.851 266.898 38
-4 -1 4 1329.91 315.41 1
-4 -1 5 157615 4857.17 38
-4 -1 5 169612 4871.64 1
-4 -1 6 69686.9 2781.71 38
-4 -1 6 72611.5 2666.75 1
-4 -1 7 106.334 182.318 38
-4 -1 7 257.76 148.095 28
-4 -1 7 282.123 169.278 1
-4 -1 8 59712 2636.2 38
-4 -1 8 57241.4 2221.42 28
-4 -1 9 93061.1 3397.47 23
-4 -1 9 84890.9 3439.94 38
-4 -1 10 1137.03 354.272 23
-4 -1 10 1145.79 290.164 9
-4 -1 11 7241.66 759.007 23
-4 -1 11 7079.74 720.497 32
-4 -1 12 4804.8 523.172 32
-4 -1 12 4294.45 524.639 23
-4 -1 13 915.474 173.203 32
-4 0 -2 83035.4 2915.19 1
-4 0 -1 167142 4922.52 1
-4 0 0 229.511 153.839 1
-4 0 1 235129 6348.84 1
-4 0 2 68616.5 2455.08 1
-4 0 3 19864.3 1067.98 26
-4 0 4 234017 6299.85 1
-4 0 4 237436 6314.01 26
-4 0 5 410765 10450.7 38
-4 0 5 413144 10357.7 1
-4 0 5 426021 10526 26
-4 0 6 1749.27 388.286 26
-4 0 6 1275.96 299.89 1
-4 0 6 1817.77 391.196 38
-4 0 6 1951.09 302.978 28
-4 0 7 33080.6 1506.28 1
-4 0 7 37794.5 1897.9 26
-4 0 7 32445.3 1777.69 38
-4 0 8 53945.3 2492.65 38
-4 0 10 17964.6 1252.76 32
-4 0 11 702.666 250.221 32
-4 0 11 879.422 320.132 23
-4 0 12 1747.45 320.448 32
-4 0 12 2289.48 398.621 23
-4 0 13 12309.8 709.134 23
-4 1 -2 17666 1070.29 1
-4 1 1 291862 7068.27 26
-4 1 2 74227.2 2293.98 26
-4 1 3 167470 4524.79 26
-4 1 4 344619 8607.1 26
-4 1 5 834.497 260.472 26
-4 1 5 529.12 136.121 28
-4 1 6 36410.4 1748.9 26
-4 1 6 37343.9 1559.53 1
-4 1 6 35015.5 1756.5 38
-4 1 7 16451 1205.51 38
-4 1 8 229.531 208.648 26
-4 1 8 44.3642 152.094 32
-4 1 9 54923.3 2372.15 32
-4 1 9 54431.7 2584.56 26
-4 1 10 4372.81 605.348 32
-4 1 11 539.657 230.858 32
-4 1 12 17781.6 1082.41 23
-4 1 12 16399 925.665 32
-4 1 13 8260.02 539.884 23
-4 2 0 382323 8861.37 26
-4 2 1 931.485 176.113 26
-4 2 2 202613 5143.05 26
-4 2 3 419437 10085.1 26
-4 2 4 1081.57 246.604 26
-4 2 5 52290.8 2044.06 26
-4 2 6 25463.6 1406.83 26
-4 2 8 42590 2148.62 26
-4 2 8 43350.2 1945.08 32
-4 2 9 7940.42 900.106 26
-4 2 9 9054.32 858.396 32
-4 2 10 -45.2465 134.325 32
-4 2 11 5744.61 589.707 32
-4 2 12 6818.16 515.838 32
-4 3 -3 1302.74 253.02 36
-4 3 3 4480.42 444.665 26
-4 3 4 52530.5 1946.92 26
-4 3 5 16268.9 1023.91 26
-4 3 6 9196.77 718.281 36
-4 3 6 10194.8 857.391 5
-4 3 7 98766.8 3498.32 26
-4 3 8 33305.4 1841.51 26
-4 3 8 32056 1601.35 32
-4 3 9 798.664 301.871 26
-4 3 9 783.962 264.497 32
-4 3 10 3799.42 502.65 32
-4 3 11 42877.4 1650.26 32
-4 3 12 3230.87 377.681 23
-4 4 -3 150165 4312.94 36
-4 4 -2 285443 7371.51 36
-4 4 -1 57215 2098.48 36
-4 4 3 177913 5004.15 36
-4 4 4 70125 2549.77 36
-4 4 5 10664.8 836.743 26
-4 4 5 10980.2 856.5 5
-4 4 5 9926.25 816.343 36
-4 4 6 30422 1627.93 26
-4 4 6 34168.1 1712.96 5
-4 4 7 86353.6 3239.99 26
-4 4 7 85751.8 3250.63 5
-4 4 8 439.818 231.015 26
-4 5 -3 236362 6454.73 36
-4 5 -2 37093.9 1711.02 36
-4 5 -1 73401.7 2653.32 36
-4 5 0 23128.4 1286.47 36
-4 5 2 179378 5206.29 36
-4 5 3 138752 4152.5 5
-4 5 3 147076 4391.48 36
-4 5 4 730.758 282.862 36
-4 5 4 952.389 268.425 5
-4 5 5 45692.6 2119 36
-4 5 5 58368.8 2307.06 5
-4 5 6 124410 3908.28 27
-4 5 6 125493 4154.51 26
-4 5 6 130796 4253.3 5
-4 5 7 2251.3 403.866 27
-4 5 7 1537.53 382.35 26
-4 5 7 1825.12 431.15 5
-4 5 8 5911.93 617.247 27
-4 6 -4 60108.1 2448.76 36
-4 6 -3 12169 991.721 36
-4 6 -2 42087.6 2018.8 36
-4 6 -1 20044.3 1309.34 36
-4 6 0 1912.02 422.253 36
-4 6 2 197982 5919.33 36
-4 6 3 707.409 288.165 36
-4 6 3 1120.41 296.114 5
-4 6 4 51621 2249.52 5
-4 6 4 52146.8 2395.64 36
-4 6 5 89346.5 3314.94 5
-4 6 6 15966.2 1193.39 26
-4 6 6 16392 1137.09 27
-4 6 6 17183.8 1261.78 5
-4 6 7 20294.6 1397 5
-4 6 7 20071.9 1240.84 27
-4 6 8 6829.39 644.606 27
-4 7 -4 207980 6167.27 36
-4 7 -3 46664.8 2264.07 36
-4 7 -2 200175 6118.14 36
-4 7 -1 4917.46 697.205 36
-4 7 0 17497.4 1332.11 36
-4 7 1 107147 3962.99 36
-4 7 2 2527.69 527.997 36
-4 7 3 17366.4 1371.02 36
-4 7 3 17900.7 1260.82 5
-4 7 4 33976 1852.16 5
-4 7 4 35515.6 1960.16 36
-4 7 5 22349.1 1435.76 26
-4 7 5 22429.8 1473.06 5
-4 7 6 38725.3 1989.31 5
-4 7 6 39501.4 1891.81 27
-4 7 7 2417.38 419.343 27
-4 7 8 3148.47 400.065 24
-4 8 -5 5592.3 657.784 37
-4 8 -4 63383.3 2720.87 36
-4 8 -3 150842 5040.72 36
-4 8 -2 44255.6 2331.09 36
-4 8 -1 81722.5 3417.82 36
-4 8 1 46684.4 2453.88 36
-4 8 2 21116.6 1573.11 36
-4 8 3 27293.2 1745.07 36
-4 8 3 25032.7 1585.97 5
-4 8 4 15111.2 1193.55 5
-4 8 5 6269.39 703.044 27
-4 8 5 4576.75 631.832 5
-4 8 6 9779.41 823.278 27
-4 8 7 733.276 219.662 27
-4 9 -5 1721.88 360.3 37
-4 9 -4 54053.7 2404.87 37
-4 9 -3 17069.4 1317.03 37
-4 9 2 19155.9 1417.46 37
-4 9 2 19589.6 1369.52 5
-4 9 3 317.091 221.984 5
-4 9 4 2899.98 492.583 27
-4 9 4 3114.25 503.882 5
-4 9 5 21748.7 1231.66 27
-4 9 6 126.391 138.12 5
-4 9 6 197.784 137.02 27
-4 10 -5 24959.3 1226.95 37
-4 10 -4 15266.5 1061.43 37
-4 10 -3 22227 1401.28 37
-4 10 -2 29653.6 1698.69 37
-4 10 -1 16997.4 1271.53 37
-4 10 0 8088.38 873.681 37
-4 10 1 28707.1 1612.16 5
-4 10 1 32126 1716.87 37
-4 10 2 1442.69 351.307 5
-4 10 3 2953.63 452.116 27
-4 10 3 3010.3 467.582 5
-4 10 4 21248.4 1109.62 27
-4 10 5 1306.25 228.233 27
-4 10 5 1427.23 247.404 5
-4 11 -4 2777.46 357.925 37
-4 11 -3 28900.6 1365.16 37
-4 11 -2 14433 954.966 37
-4 11 -1 412.463 199.986 5
-4 11 0 16958.8 1017.97 5
-4 11 0 17766.3 1040.69 37
-4 11 1 154.33 144.92 5
-4 11 2 9634.16 663.716 5
-4 11 3 13596 686.261 27
-3 -8 1 5407.65 467.636 38
-3 -8 2 19246 990.473 38
-3 -8 2 17604.2 923.121 4
-3 -8 3 4812.9 504.783 38
-3 -8 3 5071.26 518.027 4
-3 -8 4 19104.4 1089.04 4
-3 -8 5 34356.2 1486.25 38
-3 -8 6 25153.6 1185.28 38
-3 -8 6 22683.7 1153.11 4
-3 -8 7 799.864 206.366 4
-3 -8 7 780.483 209.912 38
-3 -8 8 33368 1117.1 9
-3 -7 -1 11848.6 785.715 38
-3 -7 0 11795 748.439 4
-3 -7 0 13999.5 937.653 38
-3 -7 1 33629.7 1618.37 4
-3 -7 1 31514.6 1605.78 38
-3 -7 2 47738.5 2098.97 38
-3 -7 3 27078.9 1525.44 38
-3 -7 4 86007.9 3140.8 38
-3 -7 6 4343.53 571.463 38
-3 -7 7 35318.4 1677.83 38
-3 -7 8 9292.02 748.737 38
-3 -7 10 6989.46 501.108 9
-3 -7 10 8084.56 545.85 30
-3 -6 -3 5715.7 515.702 38
-3 -6 2 14576 1164.71 38
-3 -6 3 221309 6556.14 38
-3 -6 3 226048 6901.83 1
-3 -6 4 37436.4 2146.63 1
-3 -6 4 40514 2045.12 38
-3 -6 5 5105.23 742.312 1
-3 -6 6 81750 3153.5 38
-3 -6 7 27895.9 1608.93 38
-3 -6 8 25527 1463.92 38
-3 -6 9 20002.5 1200.12 38
-3 -6 10 7797.28 646.583 9
-3 -6 11 6041.08 488.858 9
-3 -6 11 5482.76 457.194 30
-3 -5 0 68411.8 2973.03 1
-3 -5 1 13945.5 1261.71 1
-3 -5 2 232782 7167.28 1
-3 -5 3 85607.6 3244.85 38
-3 -5 3 79433.2 3419.44 1
-3 -5 4 78102.2 3076.17 38
-3 -5 5 2179.88 493.476 1
-3 -5 5 1904.37 454.295 38
-3 -5 6 6543.11 813.177 1
-3 -5 7 19553.5 1363.4 1
-3 -5 7 20136.6 1371.83 28
-3 -5 7 20085.7 1366.98 38
-3 -5 8 28169.3 1464.92 33
-3 -5 8 27766.4 1622.38 38
-3 -5 9 9413.61 872.902 38
-3 -5 10 3984.47 528.165 38
-3 -5 11 48861.2 1822.84 30
-3 -5 12 2666.97 285.32 30
-3 -5 12 3319.65 339.336 9
-3 -5 12 3435.63 363.498 32
-3 -4 -1 60503.1 2645.28 1
-3 -4 0 315.455 229.494 1
-3 -4 1 131816 4637.11 1
-3 -4 2 104078 3928.25 1
-3 -4 3 20827.8 1323.06 38
-3 -4 3 20592 1475.98 1
-3 -4 4 22740.3 1398.98 38
-3 -4 5 56787.8 2425.14 38
-3 -4 5 55301.3 2514.06 1
-3 -4 6 4600.35 644.67 1
-3 -4 7 121249 4130.31 28
-3 -4 7 122317 3957.08 33
-3 -4 7 124822 4122.92 1
-3 -4 7 128940 4258.72 38
-3 -4 8 50270.9 2214.24 33
-3 -4 8 52395.1 2396.81 38
-3 -4 8 52104.8 2309.36 28
-3 -4 9 -52.859 212.473 38
-3 -4 10 43955.2 2030.69 38
-3 -4 11 9537.15 731.651 30
-3 -4 11 8486.8 716.819 9
-3 -4 12 58.2933 106.029 32
-3 -4 12 171.264 125.85 9
-3 -4 12 295.215 117.163 30
-3 -4 13 2217.95 247.53 32
-3 -3 -1 -53.3744 182.966 1
-3 -3 0 59975.3 2617.64 1
-3 -3 1 165351 5185.1 1
-3 -3 2 16629.7 1204.08 1
-3 -3 3 209832 5797.97 38
-3 -3 3 201110 6022.97 1
-3 -3 4 54958.7 2265.89 38
-3 -3 4 58587 2434.4 1
-3 -3 5 44921.9 2015.72 38
-3 -3 5 43183.6 2020.21 1
-3 -3 6 190085 5584.51 1
-3 -3 7 45219.2 1998.29 1
-3 -3 7 42370.8 1973.22 33
-3 -3 7 46156.9 1986.81 23
-3 -3 7 47182.6 2066.62 28
-3 -3 8 239.216 183.484 23
-3 -3 8 328.809 180.149 28
-3 -3 8 379.448 236.965 38
-3 -3 9 60668.8 2561.44 23
-3 -3 9 58932 2438.69 28
-3 -3 9 62453.8 2647.01 38
-3 -3 10 20122.6 1333.44 38
-3 -3 10 18766.4 1291.8 23
-3 -3 10 19522.5 1210.02 30
-3 -3 11 5543.14 643.114 23
-3 -3 11 5548.07 594.071 9
-3 -3 11 5273.69 560.859 30
-3 -3 12 5433.68 557.219 32
-3 -3 13 2396.65 292.241 32
-3 -2 -2 14872.7 1039.02 1
-3 -2 -1 21711.1 1325.37 1
-3 -2 0 4716.63 586.182 1
-3 -2 1 29558.7 1525.85 1
-3 -2 2 163740 4782.41 1
-3 -2 4 787.991 228.045 1
-3 -2 5 477477 11963.9 38
-3 -2 5 490650 11942.8 1
-3 -2 6 191343 5262.72 1
-3 -2 6 179987 5179.36 33
-3 -2 6 185947 5419.13 38
-3 -2 7 1709.87 365.606 23
-3 -2 7 1343.48 295.4 1
-3 -2 7 1218.9 322.428 33
-3 -2 7 1460.72 326.004 28
-3 -2 8 26359.4 1425.75 28
-3 -2 8 27587.4 1624.47 38
-3 -2 8 24464 1493.02 23
-3 -2 9 45867.7 2220.36 38
-3 -2 9 45704.3 2221 23
-3 -2 9 42843 1946.51 28
-3 -2 10 14625.9 1043.16 9
-3 -2 10 14583.3 1180.97 23
-3 -2 10 14056.3 999.047 30
-3 -2 11 5590 570.568 30
-3 -2 11 6236.84 614.512 9
-3 -2 11 6207.68 698.427 32
-3 -2 11 5044.18 659.333 23
-3 -2 12 109.747 140.217 32
-3 -2 12 77.8312 149.159 23
-3 -2 13 1036.33 208.252 32
-3 -1 -2 54310.8 2094.29 1
-3 -1 -1 62319 2293.23 1
-3 -1 0 6269.32 590.156 1
-3 -1 1 383302 9493.37 1
-3 -1 2 322453 8089.37 1
-3 -1 4 340221 8560.85 1
-3 -1 4 351639 8721.63 26
-3 -1 5 161402 4508.94 1
-3 -1 5 165797 4760.05 26
-3 -1 6 6730.11 586.764 28
-3 -1 6 5635.84 640.499 38
-3 -1 6 7850.24 743.832 26
-3 -1 6 7219.83 596.279 1
-3 -1 7 21084.1 1149.92 28
-3 -1 7 19786.6 1021.52 1
-3 -1 8 27671.9 1644.73 38
-3 -1 8 29350.7 1434.89 28
-3 -1 9 37002.4 1712.06 30
-3 -1 9 38498 2011.88 38
-3 -1 10 39781.8 1815.03 9
-3 -1 10 41771.6 2153.26 23
-3 -1 10 39010.6 1752.75 30
-3 -1 11 1236.37 358.268 23
-3 -1 11 1708.41 389.241 32
-3 -1 12 1081.02 290.675 32
-3 -1 12 1599.74 349.154 23
-3 -1 13 10844 656.742 32
-3 -1 13 11861.4 718.7 23
-3 0 -2 113757 3366.72 1
-3 0 -1 88489 2749.93 1
-3 0 2 711.113 174.821 26
-3 0 3 196145 5078.31 26
-3 0 4 213518 5616.68 26
-3 0 4 217209 5526.4 1
-3 0 5 8479.7 693.745 26
-3 0 5 9103.23 589.598 28
-3 0 5 9285.27 620.964 1
-3 0 6 67619.6 2562.92 38
-3 0 6 68903 2234.35 28
-3 0 6 70864.3 2212.98 1
-3 0 7 23888.8 1408.14 26
-3 0 7 24219.7 1154.37 28
-3 0 7 23908.8 1421.98 38
-3 0 8 6338.08 582.441 28
-3 0 8 6832.86 781.522 26
-3 0 9 80684.5 2853.2 9
-3 0 9 94582.5 3352.24 32
-3 0 10 9256.71 913.051 32
-3 0 11 -54.3741 197.746 23
-3 0 11 628.749 255.541 32
-3 0 12 15350.5 978.358 32
-3 0 13 9636.6 576.949 32
-3 1 -3 65129.2 2101.03 1
-3 1 0 681477 15349.8 26
-3 1 1 72911.2 2011.8 26
-3 1 2 38286.8 1293.88 26
-3 1 3 327745 7882.84 26
-3 1 4 121.601 69.5846 28
-3 1 4 557.108 176.179 26
-3 1 5 60346.9 1782.6 28
-3 1 5 58941 2119.83 26
-3 1 6 1035.99 185.04 28
-3 1 6 656.726 158.195 1
-3 1 6 977.437 264.515 38
-3 1 6 1021.91 273.336 26
-3 1 7 3108.45 461.714 32
-3 1 7 3128.06 479.542 26
-3 1 8 130207 4293.98 32
-3 1 8 143259 4494.63 26
-3 1 9 17507.5 1259.59 32
-3 1 9 16508.2 1254.61 26
-3 1 10 4190.03 620.116 32
-3 1 11 2832.41 473.937 32
-3 1 12 10848.2 775.613 32
-3 1 12 13283.5 902.66 23
-3 1 13 464.804 127.653 23
-3 2 -1 389768 8815.24 26
-3 2 3 11929.9 324.91 28
-3 2 3 18477.2 792.172 26
-3 2 4 447882 10706.3 26
-3 2 6 6144.72 629.004 5
-3 2 6 7119.84 648.536 26
-3 2 6 4846.31 407.733 36
-3 2 7 81347.8 2881.03 32
-3 2 7 83755 2990.42 26
-3 2 8 242034 6747.31 32
-3 2 8 237079 6805.39 26
-3 2 9 5763.25 713.884 32
-3 2 9 6672.6 771.574 26
-3 2 10 11563.4 996.28 32
-3 2 11 16782.1 1088.86 32
-3 2 12 24.4269 198.637 32
-3 2 12 517.155 193.918 23
-3 3 -3 11816.4 683.227 36
-3 3 4 79165.2 2476.08 36
-3 3 5 5998.91 562.515 26
-3 3 5 5881 512.072 36
-3 3 6 36322.9 1569.05 32
-3 3 6 34616.3 1638.84 26
-3 3 6 37210.2 1750.56 5
-3 3 7 202079 5775.58 32
-3 3 7 211133 5902.2 26
-3 3 8 4492.2 607.044 32
-3 3 8 4820.86 637.846 26
-3 3 9 68859.1 2691.78 32
-3 3 9 61748.9 2600.09 26
-3 3 10 219.093 281.05 32
-3 3 11 3478.49 463.096 32
-3 4 -4 53376.4 1911.4 36
-3 4 -3 123239 3564.31 36
-3 4 -2 28210.1 1256.27 36
-3 4 -1 508545 12127.8 36
-3 4 0 73089.9 2378.56 36
-3 4 2 300776 7538.25 36
-3 4 3 414428 10118.1 36
-3 4 4 17409.3 1020.25 36
-3 4 5 29682.1 1392.18 36
-3 4 5 30109.5 1486.66 22
-3 4 5 30522.2 1530 5
-3 4 6 69980.8 2698.4 22
-3 4 6 73444.4 2662.68 26
-3 4 6 65071.8 2410.88 32
-3 4 6 70188.6 2527.98 27
-3 4 7 3116.99 484.95 32
-3 4 7 2457.63 433.371 27
-3 4 7 3638.89 547.308 26
-3 4 8 12933 1038.25 26
-3 4 8 11089.2 942.533 32
-3 4 9 566.099 293.95 32
-3 4 9 299.75 163.923 24
-3 4 10 -104.344 242.162 32
-3 4 11 6279.99 482.76 32
-3 5 -4 13052.5 897.919 36
-3 5 -3 50344.1 2001.55 36
-3 5 -2 147626 4316.69 36
-3 5 -1 137134 4068.82 36
-3 5 0 3199.08 430.108 36
-3 5 1 195612 5464.98 36
-3 5 2 390480 9876.87 36
-3 5 3 1402.61 336.812 36
-3 5 4 53406.8 2106.91 22
-3 5 4 55461.6 2220.99 5
-3 5 4 53306.5 2213.82 36
-3 5 5 64275.6 2526.44 22
-3 5 5 63545.1 2539.38 5
-3 5 6 10634.7 954.457 22
-3 5 6 9994.64 811.51 32
-3 5 6 11223.4 932.422 26
-3 5 6 10787.2 900.349 27
-3 5 7 19727.2 1223.85 32
-3 5 7 21872.5 1443.51 5
-3 5 7 19579.9 1280.24 27
-3 5 7 20429.2 1314.5 26
-3 5 8 5834.4 662.991 32
-3 5 9 719.189 220.44 24
-3 5 9 1205.4 349.729 32
-3 6 -4 -44.5961 143.001 36
-3 6 -3 42868.5 1981.18 36
-3 6 -2 131787 4214.38 36
-3 6 -1 29710.9 1604.3 36
-3 6 1 207861 6052.97 36
-3 6 2 34439.9 1819.28 36
-3 6 3 181839 5538.87 36
-3 6 4 10960.2 901.124 22
-3 6 4 11760.3 986.25 36
-3 6 4 11288.4 957.249 5
-3 6 5 4017.79 577.15 22
-3 6 6 29418.9 1639.15 27
-3 6 6 29506.6 1692.32 22
-3 6 6 27004.7 1561.52 26
-3 6 6 29496.6 1685.53 5
-3 6 7 11849.8 971.379 27
-3 6 7 10971.6 980.563 5
-3 6 9 7056.33 565.114 24
-3 7 -5 58229.6 2409.71 37
-3 7 -4 104940 3707.58 36
-3 7 -3 169389 5312.9 36
-3 7 -2 12252.1 1061.24 36
-3 7 -1 40387.9 2081.45 36
-3 7 1 53780.7 2523.37 36
-3 7 2 31868.1 1870.59 36
-3 7 3 7859.25 862.569 36
-3 7 3 6132.07 739.918 5
-3 7 4 537.699 244.279 37
-3 7 4 47.189 114.42 22
-3 7 5 10314.3 951.236 22
-3 7 5 12247.8 1036.05 27
-3 7 6 19688.6 1313.05 22
-3 7 6 21430.3 1358.57 27
-3 7 6 23295.8 1438.2 5
-3 7 7 -43.6194 158.596 5
-3 7 7 -41.3941 132.734 27
-3 7 8 6996.12 590.536 24
-3 8 -5 31089.3 1691.9 37
-3 8 -4 46632.4 2278.17 37
-3 8 -4 49193.1 2315.35 36
-3 8 -3 1516.9 417.327 36
-3 8 -2 33224.9 1946.88 36
-3 8 -1 59147 2756.88 36
-3 8 0 8967.58 995.324 36
-3 8 1 24700.2 1677.08 36
-3 8 2 40703.5 2191.44 36
-3 8 2 43514.9 2272.42 37
-3 8 3 328.355 239.247 37
-3 8 4 28664.7 1657.63 5
-3 8 5 37279.2 1742.87 22
-3 8 5 39853.8 1920.9 5
-3 8 5 39370.6 1912.66 27
-3 8 6 120.544 168.803 5
-3 8 6 563.94 229.062 27
-3 8 7 10454.3 726.971 24
-3 9 -5 55711.9 2350.53 37
-3 9 -4 28597.5 1689.56 37
-3 9 -3 35027.3 1965.48 37
-3 9 -2 38913.3 2140.19 37
-3 9 0 10663.7 1084.1 37
-3 9 1 41839.1 2192.04 37
-3 9 2 106.471 182.501 37
-3 9 3 11954.2 1003.03 5
-3 9 4 42709.2 1951.4 27
-3 9 4 43864.1 1949.96 5
-3 9 5 1846.34 351.95 27
-3 9 5 1841.06 340.653 5
-3 10 -5 27987.4 1405.01 37
-3 10 -4 11045.2 913.874 37
-3 10 -3 18506.9 1270.65 37
-3 10 -2 52.5887 168.63 37
-3 10 0 52038.3 2311.94 37
-3 10 1 2935.71 479.365 37
-3 10 2 27929.6 1452.36 5
-3 10 2 25740.1 1374.12 27
-3 10 3 21592.7 1156.86 5
-3 10 4 3907.51 404.738 5
-3 11 -5 5771.76 458.202 37
-3 11 -4 29330.3 1304.7 37
-3 11 -3 946.748 257.264 37
-3 11 -2 13203.5 885.501 37
-3 11 -1 23916.5 1220.39 5
-3 11 -1 22716.3 1191.31 37
-3 11 0 1316.45 257.772 37
-3 11 0 1191.68 249.279 27
-3 11 1 5302.05 460.08 27
-3 11 1 6498.53 538.389 5
-3 11 2 3957.53 354.979 5
-3 11 2 3824.68 343.856 27
-2 -9 2 17570 860.206 4
-2 -9 3 17052 909.738 38
-2 -9 3 16862.8 923.365 4
-2 -9 4 14178.5 855.873 4
-2 -9 4 13300.5 796.118 38
-2 -9 5 54546.2 1870.02 38
-2 -9 6 3284.56 373.025 4
-2 -8 -2 13616.1 724.455 38
-2 -8 -1 12191.7 796.487 38
-2 -8 0 34690.1 1560.48 38
-2 -8 0 31636.4 1324.18 4
-2 -8 1 38035.4 1721.57 4
-2 -8 1 38765.7 1769.41 38
-2 -8 2 11408.8 936.488 4
-2 -8 3 3968.46 571.765 4
-2 -8 3 3212.4 494.979 38
-2 -8 4 60118.5 2418.16 38
-2 -8 4 62585.1 2548.32 4
-2 -8 5 12065.4 931.55 38
-2 -8 6 653.072 237.896 38
-2 -8 6 744.666 256.117 4
-2 -8 7 25791.4 1276.32 38
-2 -8 7 23066 1217.05 4
-2 -8 8 692.82 188.263 9
-2 -8 9 14121.5 720.338 9
-2 -8 10 6121.56 376.679 9
-2 -7 0 132855 4293.32 4
-2 -7 4 28595.3 1661.56 38
-2 -7 5 9837.76 928.928 38
-2 -7 6 40441.8 1982.71 38
-2 -7 7 6718.43 712.478 38
-2 -7 7 5747.87 661.216 4
-2 -7 7 5619.43 594.707 33
-2 -7 8 33179.2 1581.41 38
-2 -7 8 29383.8 1417.5 33
-2 -7 9 21787.6 1169.25 9
-2 -7 10 5830.58 517.576 9
-2 -7 10 5705.3 522.662 30
-2 -7 11 5824.17 434.665 9
-2 -7 11 5622.75 431.653 30
-2 -6 0 42500.1 2206.56 1
-2 -6 1 57837.3 2746.84 1
-2 -6 2 27085.7 1796.59 1
-2 -6 3 21768 1574.02 1
-2 -6 4 22684.3 1455.16 38
-2 -6 5 19622.5 1447.84 1
-2 -6 5 23434 1468.79 38
-2 -6 6 16974.4 1244.51 38
-2 -6 6 18555.5 1209.43 33
-2 -6 6 18430.9 1334.64 1
-2 -6 7 52386.5 2291.17 1
-2 -6 7 52462 2328.02 38
-2 -6 7 50523.3 2208.71 33
-2 -6 8 101044 3492.92 38
-2 -6 8 98661.7 3414.38 33
-2 -6 9 13186.5 969.232 38
-2 -6 9 13191.7 973.452 33
-2 -6 10 2982.84 440.975 30
-2 -6 10 3139.15 445.96 9
-2 -6 11 16967.5 934.614 30
-2 -6 11 17408.6 952.009 9
-2 -6 12 2222.75 263.953 32
-2 -6 12 2208.56 253.444 30
-2 -5 -1 43936.5 2156.37 1
-2 -5 0 4471.69 679.461 1
-2 -5 1 41287.7 2195.55 1
-2 -5 2 54522.6 2569.08 1
-2 -5 3 14152.1 1197.4 1
-2 -5 4 49134.2 2202.24 38
-2 -5 4 52294.3 2423.1 1
-2 -5 5 88472.8 3274.43 38
-2 -5 5 96473.8 3494.26 1
-2 -5 6 29705.1 1630.07 38
-2 -5 6 28952.2 1631.68 1
-2 -5 6 27300.5 1583.25 28
-2 -5 6 26385 1504.16 33
-2 -5 7 120398 4021.91 1
-2 -5 7 121395 4090.79 33
-2 -5 7 127901 4196.74 28
-2 -5 7 129658 4191.71 38
-2 -5 8 8357.02 846.206 33
-2 -5 8 7942.59 831.803 28
-2 -5 8 9144.23 870.229 38
-2 -5 9 559.653 252.988 38
-2 -5 9 397.206 225.388 33
-2 -5 10 40951.1 1817.01 38
-2 -5 10 42091.7 1901.47 30
-2 -5 11 3036.37 422.322 30
-2 -5 12 8089.02 576.493 9
-2 -5 12 7156.6 513.417 8
-2 -5 12 7660.35 544.816 30
-2 -4 -1 2498.33 465.687 1
-2 -4 0 112034 3899.49 1
-2 -4 1 90006 3360.62 1
-2 -4 2 240684 6854.14 1
-2 -4 4 54089.6 2323.74 1
-2 -4 5 14868.7 1084.67 1
-2 -4 5 15410.4 1061.37 38
-2 -4 6 348719 9116.35 1
-2 -4 6 363613 9118.7 28
-2 -4 6 338225 9070.16 33
-2 -4 6 348603 9147.05 38
-2 -4 7 22268.3 1383.87 33
-2 -4 7 20410.6 1307.09 23
-2 -4 7 23016 1402.63 38
-2 -4 7 23452.3 1401.33 28
-2 -4 7 22844.3 1279.76 1
-2 -4 8 989.358 334.759 33
-2 -4 8 1575.36 390.228 23
-2 -4 8 981.491 304.174 28
-2 -4 8 898.155 303.275 38
-2 -4 9 35027.4 1864.83 33
-2 -4 9 36559.6 1830.57 38
-2 -4 9 30515.1 1688.65 28
-2 -4 9 33874.9 1831.67 23
-2 -4 10 13029.5 1006.07 9
-2 -4 10 12939 992.891 30
-2 -4 10 12883.2 988.2 38
-2 -4 11 23890.6 1285.98 30
-2 -4 11 24574.4 1321.18 9
-2 -4 12 7693.44 598.439 9
-2 -4 12 7498.34 642.005 32
-2 -4 13 1860.05 234.547 8
-2 -3 -2 49115.5 2013.43 1
-2 -3 -1 40540.1 1864.03 1
-2 -3 0 33577.7 1662.81 1
-2 -3 1 70801.1 2620.09 1
-2 -3 2 750266 17875.6 1
-2 -3 4 1633.5 326.448 1
-2 -3 5 228613 6206.94 1
-2 -3 5 230565 6217.83 38
-2 -3 6 96056.1 3149.06 28
-2 -3 6 92641.5 3170.25 38
-2 -3 6 92263.8 3160.5 33
-2 -3 6 92085.7 3035.13 1
-2 -3 7 21724.6 1354.43 23
-2 -3 7 22319.9 1361.61 38
-2 -3 7 22275 1376.99 33
-2 -3 7 24794.4 1207.49 1
-2 -3 7 25653.7 1382.27 28
-2 -3 8 3611.57 568.167 33
-2 -3 8 2484.67 470.177 38
-2 -3 8 3096.42 482.367 28
-2 -3 8 3949.96 595.032 23
-2 -3 9 5989.08 726.423 38
-2 -3 9 5181.49 643.696 28
-2 -3 9 5164.8 700.763 23
-2 -3 10 25450.1 1597.04 23
-2 -3 10 24884.1 1456.58 9
-2 -3 10 25713.4 1452.13 30
-2 -3 11 30109.2 1477.36 30
-2 -3 11 28739.4 1586.15 32
-2 -3 11 28381.4 1464.17 9
-2 -3 11 28994.8 1639.71 23
-2 -3 12 427.994 198.286 32
-2 -3 12 390.403 165.808 9
-2 -3 13 1118.34 210.843 8
-2 -3 13 674.521 176.151 32
-2 -2 -2 79628.6 2633.77 1
-2 -2 -1 171614 4799.99 1
-2 -2 0 1149.15 256.546 1
-2 -2 1 887207 20566.7 1
-2 -2 2 54361.6 1948.51 1
-2 -2 3 11626.9 753.25 1
-2 -2 4 159604 4366.25 1
-2 -2 5 151446 4204.24 1
-2 -2 6 207016 5470.71 1
-2 -2 6 204848 5769.84 38
-2 -2 6 217535 5671.58 28
-2 -2 7 37539.2 1835.04 23
-2 -2 7 39073.1 1827.61 38
-2 -2 7 39001.2 1724.9 28
-2 -2 7 40010.7 1881.83 33
-2 -2 8 6233.48 751.885 23
-2 -2 8 7951.92 730.875 28
-2 -2 8 5713.47 696.5 38
-2 -2 9 1968.84 451.087 23
-2 -2 9 1749.83 365.587 28
-2 -2 9 1682.51 373.843 30
-2 -2 9 1398.9 368.97 9
-2 -2 9 2401.2 465.012 38
-2 -2 10 52527.7 2465.87 23
-2 -2 10 50733.9 2190.57 9
-2 -2 10 48460.6 2120.38 28
-2 -2 10 54815.5 2234.2 30
-2 -2 10 54697 2422.24 32
-2 -2 11 15600.5 1184.05 23
-2 -2 11 13896.5 966.007 9
-2 -2 11 16032.1 1156.85 32
-2 -2 12 158.698 179.943 23
-2 -2 12 121.892 106.581 31
-2 -2 12 225.196 164.042 32
-2 -2 13 12946.2 726.003 32
-2 -1 -2 43477.6 1586.17 1
-2 -1 -1 5273.33 460.397 1
-2 -1 0 835765 19186.9 1
-2 -1 1 256128 6320.15 1
-2 -1 3 113645 3169.23 1
-2 -1 3 119305 3281.82 26
-2 -1 4 191324 5089.17 26
-2 -1 4 193143 4899.25 1
-2 -1 5 95887.3 2776.24 1
-2 -1 5 100777 2892.05 28
-2 -1 6 85072 2458.57 1
-2 -1 6 88097.6 2724.71 28
-2 -1 6 85985.3 2923.32 26
-2 -1 7 5417.35 541.345 28
-2 -1 7 4992.6 601.931 38
-2 -1 8 7849.06 698.284 28
-2 -1 8 7060.83 761.094 38
-2 -1 8 8713.49 745.348 30
-2 -1 9 131679 4022.27 30
-2 -1 9 122472 3905.23 28
-2 -1 9 127066 3996.85 9
-2 -1 10 30055.8 1706.65 32
-2 -1 10 26694.4 1433.93 9
-2 -1 10 25478 1656.14 23
-2 -1 10 26562 1432.67 30
-2 -1 11 1522 305.637 31
-2 -1 11 1301.8 370.462 32
-2 -1 12 15457.6 1022.57 23
-2 -1 12 14701.6 985.87 32
-2 -1 13 4453.7 405.962 32
-2 -1 13 4203.12 365.638 8
-2 0 -3 157355 3972.08 1
-2 0 -2 58213.6 1782.84 1
-2 0 1 26006.8 896.087 26
-2 0 2 7133.05 427.106 26
-2 0 3 4463.03 368.218 26
-2 0 4 2337.74 250.916 28
-2 0 4 2706.51 258.257 1
-2 0 5 511300 11762.3 1
-2 0 5 507052 11933.9 28
-2 0 5 516658 12178.7 26
-2 0 6 2039 344.275 26
-2 0 6 1158.53 220.435 28
-2 0 7 33442.6 1430.84 30
-2 0 7 31965.3 1386.92 28
-2 0 7 33680.5 1597.79 26
-2 0 7 31089.1 1612.32 38
-2 0 8 81022.8 2710.28 28
-2 0 8 80507.4 2741.35 30
-2 0 8 85442.4 3081.95 32
-2 0 8 87476 3071.58 26
-2 0 9 42460.4 2081.79 32
-2 0 9 37600.2 1721.97 9
-2 0 10 1674.41 407.535 32
-2 0 11 1993.91 428.176 23
-2 0 11 3084.24 516.635 32
-2 0 12 6198.88 611.481 23
-2 0 12 6779.5 633.006 32
-2 0 13 1977.25 265.062 32
-2 1 0 93738.1 2259.08 26
-2 1 1 438773 9980.18 26
-2 1 2 1770.7 189.762 26
-2 1 3 21171.2 851.201 26
-2 1 3 21388.8 696.206 28
-2 1 4 454371 10401.7 28
-2 1 5 409268 9402.46 28
-2 1 5 407923 9760.63 26
-2 1 5 397429 9267.96 1
-2 1 6 42182.1 1693.73 26
-2 1 6 39927.6 1425.96 28
-2 1 7 98242.9 3327.78 32
-2 1 7 102924 3297.51 26
-2 1 7 97824.8 2950.37 28
-2 1 8 120111 4029.05 32
-2 1 8 121100 3915.13 26
-2 1 9 6334.84 709.554 26
-2 1 9 6169.48 756.118 32
-2 1 10 4198.13 619.729 32
-2 1 11 1590.44 358.514 32
-2 1 11 1478.49 368.746 23
-2 1 12 1525.67 285.97 23
-2 1 12 1133.84 306.143 32
-2 2 -3 97420.1 2558.77 36
-2 2 4 580408 13292.3 36
-2 2 4 573393 13041.8 28
-2 2 4 591027 13490 26
-2 2 5 41743.3 1332.53 36
-2 2 5 44902.8 1646.18 26
-2 2 6 450941 11345.8 22
-2 2 6 450326 11263.5 32
-2 2 6 457100 11389.9 5
-2 2 6 481919 11263.9 26
-2 2 7 44311.9 1867.83 27
-2 2 7 46328.4 2031.72 32
-2 2 7 47437.3 1978.91 26
-2 2 7 48591.7 2121.4 17
-2 2 8 37079.5 1721.19 24
-2 2 8 36197.8 1866.25 32
-2 2 8 35795.4 1749.22 26
-2 2 9 15373.8 1196.53 32
-2 2 9 16197.7 1080.66 24
-2 2 10 1878.27 337.196 24
-2 2 10 1924.29 422.818 32
-2 2 11 37.7927 129.552 23
-2 2 11 -194.322 294.15 32
-2 2 12 13536.7 748.983 32
-2 3 -4 320969 7689.63 36
-2 3 -3 104709 2901.73 36
-2 3 -2 6511.62 454.378 36
-2 3 -1 619693 14290.7 36
-2 3 0 176235 4471.47 36
-2 3 2 267912 6564.56 36
-2 3 3 358029 8574.63 36
-2 3 4 2941.19 338.117 36
-2 3 5 10361.6 598.274 36
-2 3 5 12573.5 792.153 26
-2 3 6 18214.1 1111.15 32
-2 3 6 19840 1215.85 22
-2 3 6 19805.2 1130.82 27
-2 3 6 17429.5 1149.73 5
-2 3 6 18389.5 1162.82 17
-2 3 6 20100.7 1126.89 26
-2 3 7 1217.63 329.75 5
-2 3 7 1099.76 321.704 22
-2 3 7 1404.91 348.414 32
-2 3 7 1052.21 294.252 27
-2 3 7 930.779 260.914 26
-2 3 8 26476.3 1490.26 24
-2 3 8 28465.9 1617.53 32
-2 3 9 51.3924 264.28 32
-2 3 9 259.236 181.432 24
-2 3 10 1471.98 296.773 24
-2 3 10 1268.74 383.588 32
-2 3 11 20905.3 1086.44 32
-2 4 -4 26248.4 1175.69 36
-2 4 -3 1461.23 270.265 36
-2 4 -2 654243 15294.9 36
-2 4 -1 376440 9145.24 36
-2 4 0 48843.6 1754.45 36
-2 4 1 159098 4349.44 36
-2 4 2 461918 11148.2 36
-2 4 3 3021.52 401.028 36
-2 4 4 19666.4 1051.23 36
-2 4 5 32460.2 1583.68 22
-2 4 5 33883.4 1504.62 32
-2 4 5 30961.1 1562.81 5
-2 4 6 516.903 239.503 27
-2 4 6 920.371 300.556 5
-2 4 6 40.7646 288.299 32
-2 4 6 493.744 210.993 17
-2 4 6 711.283 257.26 22
-2 4 6 810.696 238.836 26
-2 4 7 100548 3522.15 27
-2 4 7 99734.1 3552.87 17
-2 4 7 105003 3637.5 5
-2 4 7 97849.9 3346.15 26
-2 4 7 98497.6 3484.76 32
-2 4 7 107418 3734.5 22
-2 4 8 7232.58 767.679 24
-2 4 8 6802.74 776.016 32
-2 4 9 269.619 261.423 32
-2 4 9 741.909 259.804 24
-2 4 10 14436 858.634 24
-2 4 10 15011.7 961.24 32
-2 5 -5 24481.7 1220.84 36
-2 5 -4 33356.2 1524.81 36
-2 5 -3 167553 4750.11 36
-2 5 -2 330304 8418.44 36
-2 5 -1 2435.08 388.667 36
-2 5 1 168988 4870.85 36
-2 5 2 27967.5 1452.21 36
-2 5 3 93407.9 3178.01 36
-2 5 4 5634.54 632.714 5
-2 5 4 6102.35 612.308 36
-2 5 4 6595.84 617.021 32
-2 5 4 6194.99 639.844 22
-2 5 5 272.457 213.24 27
-2 5 5 458.261 215.195 5
-2 5 5 326.302 187.479 22
-2 5 5 76.7146 223.035 32
-2 5 6 57903.5 2495.48 22
-2 5 6 54829.4 2242.62 26
-2 5 6 57014.9 2429.08 27
-2 5 6 56213.1 2428.2 5
-2 5 6 54526.1 2285.19 32
-2 5 7 44085.2 2209.94 22
-2 5 7 46051.8 2087.3 32
-2 5 7 47115.7 2190.88 27
-2 5 7 48022 2203.39 5
-2 5 8 1502.95 354.963 24
-2 5 8 1479.28 426.394 32
-2 5 9 9347.95 748.696 24
-2 5 9 10661.8 808.236 32
-2 5 10 11638.9 631.46 24
-2 6 -5 120.708 129.026 36
-2 6 -5 41.2059 122.335 37
-2 6 -4 42856.2 1943.07 36
-2 6 -3 312361 8292.7 36
-2 6 -2 9177.97 836.049 36
-2 6 -1 60096.5 2466.82 36
-2 6 1 2992.05 502.725 36
-2 6 2 61569.2 2578.16 36
-2 6 3 3749.25 514.176 22
-2 6 3 4197.36 581.71 36
-2 6 4 2071.89 427.467 5
-2 6 4 1983.09 403.048 22
-2 6 5 56687.8 2411.68 5
-2 6 5 53682.6 2399.4 22
-2 6 5 52304.6 2389.59 27
-2 6 6 73248.2 2968.34 22
-2 6 6 72698.5 2908.95 27
-2 6 6 72552.3 2875.71 5
-2 6 7 2893.31 490.217 27
-2 6 7 3330.7 543.183 22
-2 6 8 13007.3 922.607 24
-2 6 9 11874.9 711.108 24
-2 7 -5 35717.1 1808.36 36
-2 7 -5 37582.8 1868.78 37
-2 7 -4 171041 5385.43 37
-2 7 -4 179134 5377.63 36
-2 7 -3 7297.81 802.123 36
-2 7 -2 63601.5 2710.54 36
-2 7 0 26922.7 1660.52 36
-2 7 1 138861 4673.18 36
-2 7 2 49078.4 2374.96 37
-2 7 2 47771.4 2065.59 22
-2 7 2 50125.8 2357.09 36
-2 7 3 4110.51 612.416 5
-2 7 3 3034.55 530.197 37
-2 7 3 2912.15 499.624 36
-2 7 3 3342.01 519.352 22
-2 7 4 37717.6 1973.26 27
-2 7 4 39604.1 1945.87 22
-2 7 4 36079.3 1896.24 5
-2 7 5 86488 3284.99 27
-2 7 5 88188.8 3218.13 5
-2 7 5 85792.1 3249.11 22
-2 7 6 346.642 210.174 5
-2 7 6 388.851 228.26 22
-2 7 6 240.469 202.035 27
-2 7 8 4956.41 460.88 24
-2 8 -6 33502.7 1675.98 37
-2 8 -5 52911.4 2340.89 37
-2 8 -5 46760.2 2216.16 36
-2 8 -4 31729.7 1838.75 37
-2 8 -4 35440 1896.54 36
-2 8 -3 40561.9 2105.84 36
-2 8 -3 37526.1 2063.98 37
-2 8 -2 24139.3 1618.62 37
-2 8 -2 22133.8 1535.69 36
-2 8 0 35305.2 2017.72 36
-2 8 0 36854.3 2098.89 37
-2 8 1 122935 4384.04 36
-2 8 1 128469 4493.96 37
-2 8 2 4220.64 558.884 22
-2 8 2 3846.47 608.125 37
-2 8 2 4011.64 610.508 36
-2 8 3 33487.8 1712.06 22
-2 8 3 34546.2 1831.25 5
-2 8 4 33052.7 1720.29 5
-2 8 4 32750.5 1676.07 22
-2 8 5 2205.25 394.255 5
-2 8 5 2739.31 440.839 22
-2 8 5 2335.88 445.471 27
-2 8 7 1438.52 241.134 24
-2 9 -6 14088.9 981.776 37
-2 9 -5 4374.54 606.395 37
-2 9 -4 38265.1 1987.73 37
-2 9 -3 59324.5 2674.01 37
-2 9 -2 12078.4 1114.25 37
-2 9 -1 44725.2 2304.42 37
-2 9 0 92384.8 3559.9 37
-2 9 1 592.341 269.4 37
-2 9 2 31342.9 1673.46 5
-2 9 2 29989.8 1645.56 27
-2 9 3 21497.2 1303.95 27
-2 9 3 20334.4 1227.47 5
-2 9 4 7037.16 625.645 5
-2 10 -6 4313.57 460.994 37
-2 10 -5 17131.6 1082.83 37
-2 10 -4 30961.3 1605.59 37
-2 10 -3 4147.05 576.277 37
-2 10 -1 18058.9 1219.91 37
-2 10 0 2594.08 448.101 5
-2 10 0 2469.48 435.319 37
-2 10 1 9489.9 783.99 5
-2 10 1 9872.99 773.329 27
-2 10 2 15176.8 918.534 27
-2 10 2 15641.1 923.426 5
-2 10 3 1176.82 239.12 27
-2 11 -5 22856.4 995.24 37
-2 11 -4 579.822 181.14 37
-2 11 -3 28519 1287.9 37
-2 11 -2 27659.6 1250.81 5
-2 11 -1 11144.7 706.884 5
-2 11 -1 9545.46 656.291 37
-2 11 0 8849.94 573.568 5
-1 -10 3 4120.12 382.322 4
-1 -10 4 40754.4 1463.18 4
-1 -10 6 123.379 83.6331 4
-1 -9 0 16607.9 829.786 4
-1 -9 1 39398.5 1656.56 4
-1 -9 1 38154.8 1656.41 38
-1 -9 2 15800.6 1006.3 38
-1 -9 2 14441 1003.1 4
-1 -9 3 5357.39 626.667 4
-1 -9 3 5963.35 611.101 38
-1 -9 4 36573.9 1618.1 38
-1 -9 4 35666.4 1716.51 4
-1 -9 5 39.1011 134.037 4
-1 -9 6 9165.13 722.922 4
-1 -8 0 104990 3566.26 4
-1 -8 1 30232.6 1717.63 4
-1 -8 2 4550.97 678.303 4
-1 -8 3 81577.7 3245.57 4
-1 -8 3 80441.7 3067.02 38
-1 -8 4 291.704 204.212 38
-1 -8 5 26899.5 1583.52 4
-1 -8 5 24722.4 1438.43 38
-1 -8 6 22469.9 1300.27 38
-1 -8 6 23796.2 1403.28 4
-1 -8 6 22990.3 1309.12 33
-1 -8 7 3763.35 499.501 33
-1 -8 7 4317.97 525.96 4
-1 -8 7 3397.92 435.836 9
-1 -8 8 39436.7 1600.82 9
-1 -8 8 40318 1695.4 33
-1 -8 9 13293.5 837.525 30
-1 -8 9 13717.8 796.701 9
-1 -8 10 129.505 104.718 30
-1 -8 10 259.594 114.663 9
-1 -7 -1 60248.2 2522.84 4
-1 -7 0 21293.2 1465.48 4
-1 -7 1 6078.28 811.142 1
-1 -7 2 46101.4 2420.03 1
-1 -7 3 3129.29 595.28 1
-1 -7 4 79589.3 3040.6 38
-1 -7 4 75023 3184.4 1
-1 -7 5 97589 3455.57 38
-1 -7 5 94834.9 3592.99 1
-1 -7 5 93603.5 3435.76 28
-1 -7 6 24844.2 1460.04 38
-1 -7 6 25938.5 1533.3 4
-1 -7 6 23305 1464.9 28
-1 -7 7 52199.3 2184 38
-1 -7 7 51074.8 2176.6 4
-1 -7 7 51535.8 2292.55 33
-1 -7 8 35731 1778.83 33
-1 -7 9 7813.76 731.892 33
-1 -7 9 8238.04 716.458 9
-1 -7 10 555.813 198.403 9
-1 -7 11 15812.8 829.377 30
-1 -7 11 15336.8 789.953 32
-1 -7 11 16652.3 831.924 9
-1 -6 -1 9818.02 958.275 1
-1 -6 0 1511.65 415.882 1
-1 -6 1 14760.2 1241.65 1
-1 -6 2 61094.3 2751.71 1
-1 -6 3 124303 4348.33 1
-1 -6 4 104572 3590.07 38
-1 -6 4 102021 3769.97 1
-1 -6 5 13603.5 1047.65 38
-1 -6 5 13097.5 1097.03 1
-1 -6 5 14773.9 1098.88 28
-1 -6 6 14348.9 1063.2 38
-1 -6 6 13601 1063.47 28
-1 -6 7 153432 4693.06 38
-1 -6 7 159910 4953.03 33
-1 -6 7 148831 4596.02 4
-1 -6 7 150144 4822.78 28
-1 -6 8 4180.41 618.53 33
-1 -6 8 4093.97 542.335 38
-1 -6 9 8372.95 833.964 33
-1 -6 9 7766.55 767.147 9
-1 -6 10 21088 1113.91 8
-1 -6 10 21857.7 1249.75 9
-1 -6 10 21557.6 1249.5 30
-1 -6 11 215.038 129.645 8
-1 -6 11 245.154 157.687 9
-1 -6 11 582.215 196.608 30
-1 -6 11 213.418 152.473 32
-1 -6 12 16335.5 772.565 32
-1 -5 -2 33136.8 1652.78 1
-1 -5 -1 168671 5171.3 1
-1 -5 0 53269.9 2387.5 1
-1 -5 1 57343.4 2517.01 1
-1 -5 2 143715 4637.45 1
-1 -5 4 31821.4 1677.19 1
-1 -5 4 29798.5 1520.19 38
-1 -5 5 811.576 256.337 38
-1 -5 5 1057.88 300.861 1
-1 -5 6 203327 5751.28 38
-1 -5 6 200063 5733.56 1
-1 -5 7 9872.84 848.599 38
-1 -5 7 9042.5 770.25 1
-1 -5 7 10728.7 924.462 28
-1 -5 7 10283.9 953.606 33
-1 -5 8 31614.3 1794.02 33
-1 -5 8 33316 1759.86 28
-1 -5 8 35330.7 1721.29 38
-1 -5 9 18134.4 1301.21 33
-1 -5 9 18801.3 1254.62 9
-1 -5 9 15264.7 1143.31 28
-1 -5 9 16775.4 1099.28 38
-1 -5 10 4237.83 569.987 30
-1 -5 10 4472.72 584.172 9
-1 -5 11 24972.3 1333.11 32
-1 -5 11 27798.3 1367.62 30
-1 -5 12 10210 680.611 32
-1 -5 12 10406.5 666.99 8
-1 -4 -2 116112 3629.42 1
-1 -4 -1 255326 6931.74 1
-1 -4 0 111590 3665.93 1
-1 -4 1 74072.4 2726.65 1
-1 -4 2 445253 11167.8 1
-1 -4 4 10786.4 837.434 1
-1 -4 5 44748.8 1854.19 38
-1 -4 5 48163.7 1939.58 1
-1 -4 6 5793.42 611.855 38
-1 -4 6 5697.6 623.355 28
-1 -4 6 6017.35 576.838 1
-1 -4 6 6006.1 668.862 23
-1 -4 7 61890.1 2606.44 23
-1 -4 7 61532.5 2605.59 33
-1 -4 7 65733.5 2219.85 1
-1 -4 7 67368.5 2579.51 28
-1 -4 7 64709 2479.02 38
-1 -4 8 40057.6 1882.58 38
-1 -4 8 38176.5 1903.46 28
-1 -4 8 44997.8 2141.18 33
-1 -4 8 41669.1 2089.7 23
-1 -4 9 621.894 299.689 23
-1 -4 9 738.916 316.648 33
-1 -4 9 1634.54 362.022 38
-1 -4 9 1226.99 342.593 30
-1 -4 9 1771.92 382.76 28
-1 -4 10 34421.5 1763.14 9
-1 -4 10 36302.2 1782.99 30
-1 -4 11 38388.3 1743.88 9
-1 -4 11 38238.7 1798.36 32
-1 -4 11 38284.4 1727.47 30
-1 -4 12 1007.9 243.744 32
-1 -4 13 1529.77 214.185 8
-1 -3 -2 461774 11155.5 1
-1 -3 -1 4854.34 507.104 1
-1 -3 0 72616.6 2486.03 1
-1 -3 1 641568 15205.3 1
-1 -3 2 142243 4059.8 1
-1 -3 3 200881 5362.38 1
-1 -3 4 101727 3087.98 1
-1 -3 5 25070.9 1222.62 28
-1 -3 5 25319.6 1183.18 1
-1 -3 6 31899.8 1489.52 38
-1 -3 6 29152.6 1541.46 33
-1 -3 6 32770 1515.34 28
-1 -3 6 34851 1356.59 1
-1 -3 7 42826.4 2036.49 23
-1 -3 7 44002.7 2049.44 33
-1 -3 7 46238.7 1944.84 28
-1 -3 7 46481.2 1953.04 38
-1 -3 8 41827.8 2103.12 23
-1 -3 8 41991.7 2099.52 33
-1 -3 8 43869.1 1955.37 38
-1 -3 8 44946.7 1988.23 28
-1 -3 9 5977.26 758.859 23
-1 -3 9 5875.37 688.759 9
-1 -3 9 6852.33 733.005 30
-1 -3 9 5674.13 666.955 28
-1 -3 10 89748.4 3219.07 30
-1 -3 10 94543.9 3477.33 23
-1 -3 10 88107.4 3206.42 9
-1 -3 11 2154.3 392.695 9
-1 -3 12 1465.2 264.319 31
-1 -3 12 905.568 241.84 32
-1 -3 13 2146.43 260.527 32
-1 -2 -3 745845 17009.6 1
-1 -2 -2 75304.2 2287.74 1
-1 -2 -1 3197.19 351.723 1
-1 -2 0 477420 11281.8 1
-1 -2 1 244771 6096.11 1
-1 -2 3 3871.6 372.465 1
-1 -2 4 17435.3 835.602 1
-1 -2 5 173519 4424.69 1
-1 -2 5 170107 4614.92 28
-1 -2 6 280853 6982.29 28
-1 -2 6 265817 6456.74 1
-1 -2 7 61168.5 2480.25 23
-1 -2 7 60818.8 2328.94 38
-1 -2 7 62050 2289.37 28
-1 -2 7 61234.8 2477.57 33
-1 -2 8 11350.3 1015.73 23
-1 -2 8 10709.3 863.603 28
-1 -2 8 9833.71 851.52 30
-1 -2 8 11784.7 927.032 38
-1 -2 8 10944.1 887.27 9
-1 -2 9 167538 4995.81 9
-1 -2 9 169520 5002.68 30
-1 -2 9 155003 4855.98 28
-1 -2 10 7682.89 774.133 28
-1 -2 10 7230.88 745.21 9
-1 -2 10 8729.42 823.289 30
-1 -2 11 2557.37 475.719 23
-1 -2 11 2080.8 379.809 31
-1 -2 12 2989.24 365.287 31
-1 -2 13 1322.82 195.733 8
-1 -1 -3 214460 5060.53 1
-1 -1 -2 7669.74 439.747 1
-1 -1 -1 16474.6 700.46 1
-1 -1 0 63190.9 1794.28 1
-1 -1 1 71655 1974.1 1
-1 -1 2 495313 11194.6 1
-1 -1 2 479497 11271 26
-1 -1 3 1410.43 183.561 1
-1 -1 4 313269 7324.55 1
-1 -1 4 312908 7500.51 28
-1 -1 4 309259 7584.75 26
-1 -1 5 356888 8131.75 1
-1 -1 5 349252 8513.76 28
-1 -1 5 344779 8619.98 26
-1 -1 6 27450.4 1238.87 28
-1 -1 6 28678.6 1333.83 26
-1 -1 7 2140.07 376.555 38
-1 -1 7 2262.46 354.875 28
-1 -1 7 2815.87 404.283 30
-1 -1 7 1794.65 332.916 9
-1 -1 8 68938.7 2694 32
-1 -1 8 69477.1 2537.09 30
-1 -1 8 63152.6 2465.67 9
-1 -1 8 64684.6 2433.32 28
-1 -1 9 30012.7 1575.12 9
-1 -1 9 33628.2 1821.49 32
-1 -1 9 30704.4 1617.33 30
-1 -1 9 33273.9 1861.94 23
-1 -1 9 30217.8 1596.11 28
-1 -1 10 14609.3 1160.64 32
-1 -1 10 11800.7 1064.29 23
-1 -1 11 9244.5 750.505 31
-1 -1 11 10614.4 920.784 23
-1 -1 11 11224.6 945.888 32
-1 -1 12 2885.22 400.892 23
-1 -1 12 2611.68 387.752 32
-1 -1 12 2882.45 382.304 8
-1 0 -3 63940.1 1566 1
-1 0 -2 197897 4624.92 1
-1 0 0 2913.93 151.187 26
-1 0 1 293826 6706 26
-1 0 2 337793 7784.54 26
-1 0 3 115363 2741.6 1
-1 0 3 117256 2873.55 28
-1 0 4 589815 13190.6 1
-1 0 4 589594 13489.5 28
-1 0 4 584039 13578.9 26
-1 0 5 177123 4537.91 28
-1 0 5 177672 4628.79 26
-1 0 6 9364.13 633.571 28
-1 0 6 9431.97 678.94 26
-1 0 7 26121.5 1433.8 32
-1 0 7 26709.5 1446.14 17
-1 0 7 27027.8 1305.65 30
-1 0 7 27792.7 1340.94 26
-1 0 7 25218.7 1250.64 28
-1 0 8 25953.2 1370.18 24
-1 0 8 25746.3 1359.48 28
-1 0 8 24330.3 1321.1 9
-1 0 9 24080 1349.17 24
-1 0 9 25469.4 1583.9 32
-1 0 9 25198.1 1402.73 31
-1 0 10 14296.4 991.159 31
-1 0 10 15612.3 1211.6 23
-1 0 10 14963.7 988.442 24
-1 0 10 14859.7 1174.7 32
-1 0 11 1911.2 396.668 32
-1 0 11 2417.59 435.7 23
-1 0 12 7337.02 627.173 32
-1 1 -3 5872.66 254.496 36
-1 1 2 59292.5 1452.2 28
-1 1 4 181404 4227.34 36
-1 1 4 185218 4482.22 28
-1 1 4 192591 4627.15 26
-1 1 5 207186 5128.56 28
-1 1 5 205578 5259.28 26
-1 1 6 11951.6 849.582 32
-1 1 6 12581.6 740.717 28
-1 1 6 12641 781.425 26
-1 1 7 45654.9 1909.53 24
-1 1 7 45100 2013.61 22
-1 1 7 49042.2 2086.01 32
-1 1 7 45085.9 2030.53 17
-1 1 7 46844.3 1842.15 26
-1 1 7 46372.8 1823.64 31
-1 1 8 8351.31 775.115 24
-1 1 8 7291.17 686.079 31
-1 1 8 8438.13 842.422 17
-1 1 8 8549.47 855.067 32
-1 1 8 6994.7 621.909 10
-1 1 9 31713.1 1659.27 24
-1 1 9 37010.5 1956.51 32
-1 1 10 2224.46 451.833 23
-1 1 10 2582.9 493.917 32
-1 1 10 2830.59 442.86 24
-1 1 11 2657.04 345.882 24
-1 1 11 2880.54 483.018 32
-1 1 12 17485.3 893.425 32
-1 2 -4 230643 5434.14 36
-1 2 -3 32966.2 1063.94 36
-1 2 -2 50183.9 1453.68 36
-1 2 -1 999999 22444.3 36
-1 2 0 244633 5775.51 36
-1 2 1 38165.6 1188.52 36
-1 2 2 66899.9 1856.1 36
-1 2 2 65356 1550.26 10
-1 2 3 132432 3328.37 36
-1 2 3 129586 3105.88 10
-1 2 4 58599.7 1675.42 10
-1 2 4 64403.8 1687.06 36
-1 2 5 13339.3 645.395 10
-1 2 5 15579.8 815.496 26
-1 2 6 927.237 258.678 5
-1 2 6 926.96 252.545 22
-1 2 6 1188.59 300.259 17
-1 2 6 492.69 195.478 32
-1 2 6 571.09 198.829 27
-1 2 6 939.567 221.482 26
-1 2 6 522.788 140.831 10
-1 2 7 20070.3 1299.8 17
-1 2 7 20271.4 1288.56 32
-1 2 7 19547.9 1088.74 26
-1 2 8 119157 4100.95 32
-1 2 8 118571 3962.65 24
-1 2 8 122473 4145.14 17
-1 2 9 5616.8 657.021 24
-1 2 9 6110.06 735.613 32
-1 2 10 1444.27 314.159 24
-1 2 10 1605.81 425.79 32
-1 2 11 14976.7 787.378 24
-1 2 11 15781.4 969.518 32
-1 3 -4 46188.3 1532.52 36
-1 3 -3 55532.8 1775.99 36
-1 3 -2 522218 12162.3 36
-1 3 -1 631306 14569.5 36
-1 3 1 7709.2 529.644 36
-1 3 2 385122 9231.26 36
-1 3 3 12108.5 692.108 36
-1 3 4 254741 6172.81 36
-1 3 5 614.987 207.264 32
-1 3 5 358.492 179.401 22
-1 3 5 562.478 200.075 27
-1 3 5 348.35 141.891 26
-1 3 6 1106.07 298.898 5
-1 3 6 1136.2 311.193 32
-1 3 6 712.135 259.859 17
-1 3 6 1015.69 289.258 22
-1 3 6 994.966 239.588 26
-1 3 7 120798 4055.15 32
-1 3 7 121822 4102.49 17
-1 3 7 121342 4115.53 22
-1 3 7 122438 4049.86 27
-1 3 8 30390.9 1728.17 32
-1 3 8 32261.5 1717.53 24
-1 3 8 28613.5 1687.99 17
-1 3 9 1497.15 361.718 24
-1 3 9 1095.61 396.84 32
-1 3 10 8846.58 778.295 32
-1 3 10 7233.66 644.039 24
-1 3 11 8003.3 472.894 24
-1 3 11 12954.4 717.94 32
-1 4 -5 63773 2085.75 36
-1 4 -4 4452.62 445.882 36
-1 4 -3 776888 18072.1 36
-1 4 -2 518788 12366.7 36
-1 4 -1 243563 6281.77 36
-1 4 1 74197.5 2486.31 36
-1 4 2 6775.93 602.086 36
-1 4 3 141110 4010.78 36
-1 4 4 33556.5 1487.31 32
-1 4 4 31503.4 1484.96 5
-1 4 4 31386.1 1506.98 22
-1 4 4 33362.3 1302.03 36
-1 4 5 5453.14 621.843 32
-1 4 5 6092.53 663.479 27
-1 4 5 5155.07 604.537 17
-1 4 5 5354.27 601.423 5
-1 4 5 5993.97 651.791 22
-1 4 6 104856 3617.66 22
-1 4 6 103410 3517.42 32
-1 4 6 100440 3548.25 17
-1 4 6 105155 3599.01 27
-1 4 6 94582 3138.97 26
-1 4 6 104322 3490.44 5
-1 4 7 52067 2402.68 22
-1 4 7 49582.9 2324.91 17
-1 4 7 51941.1 2311.64 32
-1 4 7 56714 2433.47 27
-1 4 8 3316.95 536.418 24
-1 4 8 4605.9 646.265 32
-1 4 8 3434.05 552.52 17
-1 4 8 4081.3 617.259 22
-1 4 9 18250.8 1136.63 24
-1 4 9 17109.3 1127.33 32
-1 4 10 8204.21 589.079 24
-1 5 -5 9416.39 728.559 36
-1 5 -4 83961.5 2827.14 36
-1 5 -3 167320 4782.09 36
-1 5 -2 12889.6 901.38 36
-1 5 -1 54414.2 2161.72 36
-1 5 0 10388.5 829.326 36
-1 5 1 164.646 172.847 36
-1 5 2 270597 7233.88 36
-1 5 3 103706 3232.8 32
-1 5 3 99655.3 3262.62 36
-1 5 4 34030.7 1626.99 5
-1 5 4 28641.7 1563.28 22
-1 5 4 33683.8 1607.55 32
-1 5 4 29895.8 1618.65 27
-1 5 5 86359 3158.34 22
-1 5 5 81640 2994.01 5
-1 5 5 81020.6 2982.24 32
-1 5 5 83168.7 3150.13 27
-1 5 6 97028.3 3505.26 17
-1 5 6 101287 3675.55 22
-1 5 6 102575 3559.68 32
-1 5 6 105892 3717.9 27
-1 5 6 102369 3521.43 5
-1 5 7 275.823 184.971 17
-1 5 7 381.252 247.121 22
-1 5 7 856.161 395.286 32
-1 5 8 13497.4 1002.02 24
-1 5 9 1098.59 253.055 24
-1 6 -5 51892.3 2177.09 37
-1 6 -5 50616.7 2122.46 36
-1 6 -4 135333 4331.81 37
-1 6 -4 140649 4327.17 36
-1 6 -3 68023.5 2676.25 37
-1 6 -3 68550.7 2654.87 36
-1 6 -2 273676 7476.96 36
-1 6 0 1729.61 416.417 37
-1 6 0 2847.34 482.971 36
-1 6 1 132906 4474.13 37
-1 6 1 139446 4437.72 36
-1 6 2 155796 4926.52 21
-1 6 2 166687 5133.84 37
-1 6 2 174215 5111.29 36
-1 6 3 11724.3 939.839 5
-1 6 3 10800.6 911.132 37
-1 6 3 11454 900.059 36
-1 6 4 34057.2 1808.2 22
-1 6 4 34353.5 1745.11 5
-1 6 5 54397.9 2446.42 22
-1 6 5 58592.9 2539.78 27
-1 6 5 51891 2260.47 5
-1 6 6 125.232 143.098 5
-1 6 6 -52.6626 201.832 27
-1 6 6 53.181 170.528 22
-1 6 7 14383.2 1042.51 24
-1 6 7 12316.4 999.941 22
-1 6 8 1167.8 260.71 24
-1 7 -6 39410.6 1855.01 36
-1 7 -6 40064.6 1886.9 37
-1 7 -5 18302.5 1265.18 36
-1 7 -5 21868 1383.17 37
-1 7 -4 3440.99 547.757 36
-1 7 -4 2742.58 517.634 37
-1 7 -3 90785.2 3450.1 37
-1 7 -3 89088.4 3362.37 36
-1 7 -2 87142.9 3425.94 37
-1 7 -2 91919 3432.59 36
-1 7 -1 22001.5 1508.9 37
-1 7 -1 21607.8 1457.06 36
-1 7 0 117317 4326.49 37
-1 7 0 130624 4360.11 36
-1 7 1 111845 3991.73 36
-1 7 1 114251 4084.46 37
-1 7 2 3771.21 593.655 37
-1 7 2 3870.48 580.176 36
-1 7 3 60309.7 2579.37 22
-1 7 3 60925.8 2522.16 5
-1 7 3 61122.6 2646.82 27
-1 7 4 18716.2 1323.19 22
-1 7 4 21684.9 1317.28 5
-1 7 5 750.122 297.374 22
-1 7 6 23674.9 1356.31 22
-1 7 7 3676.34 435.089 24
-1 8 -6 29784 1610.64 37
-1 8 -5 1053.46 326.759 36
-1 8 -5 1722.76 423.812 37
-1 8 -4 77964.1 3169.24 37
-1 8 -4 79891 3148.62 36
-1 8 -3 103241 3841.6 37
-1 8 -3 99802.9 3740.57 36
-1 8 -2 13647.4 1196.94 37
-1 8 -1 87871.7 3538.71 37
-1 8 -1 87210.8 3451.08 36
-1 8 0 91088.3 3612.2 37
-1 8 0 92621 3554.11 36
-1 8 1 5702.36 740.311 36
-1 8 1 6945.45 816.994 37
-1 8 2 36907.9 1852.28 22
-1 8 2 38980.8 1901.78 5
-1 8 2 36347 1906.54 27
-1 8 3 7486.13 774.076 22
-1 8 3 8016.04 761.569 5
-1 8 3 7806.69 809.537 27
-1 8 4 1669.04 370.975 22
-1 8 4 585.33 256.782 27
-1 8 5 3816.17 476.168 22
-1 9 -7 8913.31 684.93 37
-1 9 -6 7853.51 739.283 37
-1 9 -5 18175.3 1240.45 37
-1 9 -4 23568 1502.29 37
-1 9 -3 5067.17 692.165 37
-1 9 -1 58653.4 2601.58 37
-1 9 0 2031.89 439.751 37
-1 9 1 38450.3 1804.42 5
-1 9 1 37690 1661.13 22
-1 9 1 36218.9 1753.24 27
-1 9 2 6163.69 592.663 22
-1 9 2 5872.69 633.266 27
-1 9 3 57.7837 92.6514 22
-1 9 3 67.7808 142.288 27
-1 9 4 12701.9 756.947 24
-1 9 4 11085.4 646.696 22
-1 10 -6 22659.2 1111.25 37
-1 10 -5 47546 1924.67 37
-1 10 -4 4892.86 574.967 37
-1 10 -3 23869.4 1344.64 37
-1 10 -2 21471.6 1264.11 37
-1 10 -1 4284.52 534.992 37
-1 11 -4 13365.3 716.587 37
-1 11 -3 9805.41 575.936 5
-1 11 -2 270.966 119.756 37
0 -10 1 17781.9 918.373 4
0 -10 2 495.709 191.771 4
0 -10 3 8916.63 717.694 4
0 -10 5 1586.94 244.1 33
0 -10 5 1724.69 306.897 4
0 -10 6 14151.9 724.543 33
0 -10 6 15613.1 816.122 4
0 -10 8 1167.97 173.68 18
0 -9 -1 13960.1 824.975 4
0 -9 0 58684.9 2301.25 4
0 -9 1 240.485 233.224 4
0 -9 2 11128.8 897.759 38
0 -9 2 10643.3 959.678 4
0 -9 3 24453.4 1502.94 4
0 -9 3 25279.2 1389.08 38
0 -9 5 45563.1 2036.26 4
0 -9 6 19492.8 1161.1 4
0 -9 7 388.818 186.926 33
0 -9 8 31005 1362.73 33
0 -9 9 14753.4 781.325 33
0 -8 -1 45822.1 2094.58 4
0 -8 0 796.098 330.977 4
0 -8 1 23461.6 1583.69 4
0 -8 2 81299.3 3340.52 4
0 -8 3 3969.21 649.226 4
0 -8 3 4639.61 626.06 38
0 -8 4 113571 3712.65 38
0 -8 4 103330 3583.66 28
0 -8 4 110713 3970.75 4
0 -8 5 29029.9 1518.26 38
0 -8 5 28279.9 1655.69 4
0 -8 6 19738 1277.8 4
0 -8 6 17330.8 1051.05 9
0 -8 7 3354.23 534.284 33
0 -8 7 3989.86 514.531 4
0 -8 7 3749.38 479.932 9
0 -8 8 26952.2 1312.39 9
0 -8 8 27830.9 1494.44 33
0 -8 9 1995.2 359.695 33
0 -8 9 1867.28 305.086 9
0 -8 9 1942.26 335.856 30
0 -8 10 2174.36 300.169 18
0 -8 10 1600.11 259.79 30
0 -8 10 1779.64 261.869 9
0 -7 -2 9859.14 872.448 4
0 -7 -1 7283.11 821.083 4
0 -7 0 68912.5 2955.14 4
0 -7 1 64151.7 2865.56 4
0 -7 2 3272.22 590.228 1
0 -7 4 163150 4881.53 38
0 -7 4 158304 5149.43 1
0 -7 4 157379 5138.96 4
0 -7 4 160578 4884.36 28
0 -7 5 13613.8 1009.77 38
0 -7 5 15707.2 1189.71 4
0 -7 5 15449.9 1116.07 28
0 -7 6 27860.2 1438.1 38
0 -7 6 24892.7 1484.64 4
0 -7 6 26942.9 1543.22 28
0 -7 7 67140.8 2512.16 4
0 -7 7 66604.1 2669.9 28
0 -7 7 67266.5 2588.41 9
0 -7 8 211.057 192.024 33
0 -7 8 686.412 260.101 9
0 -7 9 26220.8 1390.99 9
0 -7 9 26700.3 1427.12 30
0 -7 9 27585.8 1524.14 33
0 -7 10 16556.6 991.436 9
0 -7 10 18625.5 1008.02 18
0 -7 10 19308 1131.44 33
0 -6 -2 11510.1 949.219 4
0 -6 -1 131098 4346.71 4
0 -6 0 196832 5935.54 1
0 -6 1 32506.3 1829.48 1
0 -6 2 54901 2480.16 1
0 -6 4 10592.2 846.979 38
0 -6 4 10771.6 865.674 28
0 -6 4 10792.2 950.44 1
0 -6 5 31230.3 1528.32 38
0 -6 5 32215.1 1678.26 1
0 -6 5 29745.5 1578.78 28
0 -6 6 64897.1 2422.24 38
0 -6 6 65415.4 2609.18 28
0 -6 6 63874.8 2504.49 4
0 -6 7 224.625 157.213 38
0 -6 7 98.6923 146.533 28
0 -6 8 42647.3 2148.8 33
0 -6 8 43747.5 2029.23 9
0 -6 8 43297.2 2050.11 28
0 -6 9 15769.7 1072.92 8
0 -6 9 18157.7 1203.7 9
0 -6 9 18471.5 1284.68 33
0 -6 10 799.003 257.339 8
0 -6 10 1362.79 315.375 9
0 -6 10 971.15 286.57 30
0 -6 10 577.75 218.755 18
0 -6 11 17361.2 945.95 8
0 -6 11 17773 999.422 30
0 -6 11 18318.6 1007.72 9
0 -6 12 4469.66 355.68 8
0 -6 12 5490.68 419.381 31
0 -5 -1 178914 5212.57 1
0 -5 0 42839.5 1968.69 1
0 -5 1 68625.3 2631.98 1
0 -5 2 193158 5568.81 1
0 -5 3 588.226 216.43 1
0 -5 4 21821.4 1259.97 1
0 -5 5 130478 3917.36 38
0 -5 5 132904 4023.39 34
0 -5 5 134990 4086.75 1
0 -5 5 138091 4120.69 28
0 -5 6 7033.92 646.984 38
0 -5 6 7654.53 735.968 34
0 -5 6 7264.68 675.025 4
0 -5 6 7924.61 756.396 28
0 -5 7 158391 4535.42 38
0 -5 7 154577 4797.79 34
0 -5 7 152533 4940.73 33
0 -5 8 42259.8 2125.93 33
0 -5 8 42412 2024.23 9
0 -5 9 9100.01 901.207 33
0 -5 9 6525.75 731.11 28
0 -5 9 6403.26 731.464 30
0 -5 9 7225.9 767.87 9
0 -5 10 36047.2 1748.27 9
0 -5 10 34362.6 1707.71 32
0 -5 10 31812.6 1508.81 18
0 -5 10 35421.1 1749.14 30
0 -5 11 23648.6 1261.89 30
0 -5 11 25306.9 1293.51 8
0 -5 11 23586.9 1243.82 32
0 -5 12 2000.66 303.158 8
0 -5 12 1971.67 288.066 31
0 -4 -2 445632 10820.2 1
0 -4 -1 71895.3 2479.4 1
0 -4 0 74932.3 2572.24 1
0 -4 1 360866 9070.07 1
0 -4 3 6507.83 590.241 1
0 -4 4 14731.2 892.906 28
0 -4 4 16218 948.768 1
0 -4 5 82936.4 2672.04 1
0 -4 6 98124.1 3410.21 23
0 -4 6 100810 3120.93 38
0 -4 6 99515.3 3342.97 34
0 -4 7 126813 4327.93 23
0 -4 7 133607 4366.13 33
0 -4 7 137958 4291.73 34
0 -4 7 136355 4198.34 28
0 -4 7 131243 3945.75 38
0 -4 8 5636.77 720.845 23
0 -4 8 6100.04 611.176 38
0 -4 8 6964.73 743.798 30
0 -4 8 5676.13 678.026 9
0 -4 8 5494.29 660.537 28
0 -4 9 13465.8 1059.97 30
0 -4 9 11704.4 984.317 28
0 -4 9 12089.7 912.009 18
0 -4 10 31948.5 1656.29 30
0 -4 10 29193.3 1616.58 32
0 -4 11 311.045 182.628 32
0 -4 12 743.817 197.484 11
0 -4 12 551.547 180.237 32
0 -4 12 724.41 224.374 8
0 -4 12 475.101 160.901 31
0 -3 -2 38120.9 1393.44 1
0 -3 -1 40426 1494.08 1
0 -3 0 17138.7 895.445 1
0 -3 1 3686.06 397.207 1
0 -3 3 129095 3569.68 1
0 -3 4 235686 5931.22 1
0 -3 5 199091 5011.12 1
0 -3 5 195487 5279.01 28
0 -3 6 577817 14125.5 34
0 -3 6 585681 13990.9 28
0 -3 7 4420.54 541.222 28
0 -3 7 3732.19 470.003 38
0 -3 8 1650.02 366.105 28
0 -3 8 1495.62 360.131 30
0 -3 8 1916.14 364.607 29
0 -3 8 1598.98 375.555 9
0 -3 9 48294.2 2199.78 28
0 -3 9 51089.8 2272.07 9
0 -3 9 48099.3 1980.8 18
0 -3 9 52398.1 2286.04 30
0 -3 9 52215.6 2338.83 32
0 -3 9 53288 2420.49 23
0 -3 10 2081.59 451.603 23
0 -3 10 2930.51 515.34 32
0 -3 10 2633.02 488.606 30
0 -3 10 2558.7 462.766 9
0 -3 11 12190.9 930.652 32
0 -3 11 12682.5 917.602 31
0 -3 12 3625.85 428.171 8
0 -3 12 3553.3 413.209 32
0 -3 12 3491.61 388.45 31
0 -2 -2 10933.2 526.141 1
0 -2 -1 273100 6526.09 1
0 -2 0 37509.9 1259.45 1
0 -2 1 780030 17753.2 1
0 -2 2 177547 4432.5 1
0 -2 3 15766.6 735.946 28
0 -2 3 15858.5 700.771 1
0 -2 4 78655.3 2044.34 1
0 -2 4 64896.3 2168.58 28
0 -2 5 416806 10060.7 28
0 -2 6 35870 1681.71 33
0 -2 6 38478 1718.72 34
0 -2 6 38698.6 1607.17 28
0 -2 7 8089.03 678.835 24
0 -2 7 8345.41 731.149 28
0 -2 7 7524.55 784.648 23
0 -2 7 8947.2 827.735 33
0 -2 7 8140.43 782.268 34
0 -2 7 8330.33 748.102 9
0 -2 7 9649.07 794.998 30
0 -2 7 9989.3 811.735 29
0 -2 8 71158.7 2597.07 24
0 -2 8 74799.3 2939.58 23
0 -2 8 72748.8 2752.1 9
0 -2 8 71463.2 2808.15 32
0 -2 8 76197.6 2778.97 29
0 -2 8 72656.6 2753.98 30
0 -2 8 64431 2612.01 28
0 -2 9 7913.13 801.306 9
0 -2 9 7616.3 786.649 30
0 -2 9 7529.93 723.165 24
0 -2 9 6756.78 797.319 23
0 -2 9 7076.72 801.826 32
0 -2 9 7394.23 772.748 28
0 -2 10 32289.2 1757.33 23
0 -2 10 30216.8 1709.44 32
0 -2 11 7052.1 694.391 23
0 -2 11 6042.25 603.18 11
0 -2 11 6906.35 702.421 32
0 -2 11 6421.12 638.257 31
0 -2 12 1026.72 224.777 8
0 -2 12 1064.64 229.659 32
0 -1 -3 11512.5 338.516 25
0 -1 -2 4884.32 232.125 1
0 -1 -1 263345 6055.62 1
0 -1 0 13567.2 502.498 1
0 -1 2 58097.8 1543.9 1
0 -1 2 61250.7 1632.19 28
0 -1 3 13505.2 634.961 26
0 -1 3 13243.1 625.638 28
0 -1 4 400857 9361.14 28
0 -1 4 392516 9342.18 26
0 -1 5 58346.8 1932.57 28
0 -1 6 58106.4 2053.83 28
0 -1 7 25617.9 1296.59 28
0 -1 7 22085.2 1223.8 24
0 -1 7 22514.1 1252.88 9
0 -1 7 21779.1 1322.34 29
0 -1 7 20385.3 1264.97 32
0 -1 7 22486.3 1302.66 17
0 -1 7 22462.5 1262.43 30
0 -1 8 14792.6 1038.37 24
0 -1 8 14090.9 1132.48 23
0 -1 8 13635 1014.5 9
0 -1 8 15839.1 1141.54 17
0 -1 8 16638.9 1182.49 32
0 -1 8 14842.7 1060.52 28
0 -1 8 16388.7 1191.68 29
0 -1 9 77232.6 2836.32 24
0 -1 9 77469.2 2908.82 31
0 -1 9 69440.2 2757.49 10
0 -1 9 76249.9 3036.77 23
0 -1 9 77564 3054.9 32
0 -1 10 62297.6 2360.83 24
0 -1 10 60263.2 2505.91 23
0 -1 10 56870.5 2307.17 11
0 -1 10 59512.2 2547.26 32
0 -1 10 58180.7 2379.1 31
0 -1 11 41.445 132.93 32
0 -1 11 321.813 178.704 8
0 -1 12 5788.75 509.722 32
0 0 1 115095 2664.5 28
0 0 2 301918 6821.56 28
0 0 2 293409 6766.19 26
0 0 3 91041.3 2368.91 28
0 0 3 89745.6 2311.64 26
0 0 4 202235 5062.49 28
0 0 4 208686 5011.19 26
0 0 5 32252.2 1261.56 28
0 0 5 31928.6 1191.17 26
0 0 6 7762.9 641.497 30
0 0 6 8467.32 772.112 29
0 0 6 9692.98 687.838 28
0 0 6 8552.39 592.252 26
0 0 7 19200.6 1181.37 24
0 0 7 18274.7 1107.86 28
0 0 7 19738.3 1132.47 9
0 0 7 20452.1 1318.6 29
0 0 7 18959.4 1253.09 13
0 0 8 56153.2 2319.56 24
0 0 8 53896.5 2241.48 31
0 0 8 50537.7 2110.39 10
0 0 9 76678.1 2892.31 24
0 0 9 69861.1 2670.72 10
0 0 9 78157.4 3000.11 23
0 0 9 81311.8 2904.92 31
0 0 9 73922.6 2734.22 11
0 0 10 1032.12 283.866 24
0 0 10 1220.15 313.193 23
0 0 10 671.576 332.409 31
0 0 11 174.043 257.674 31
0 0 11 684.62 196.635 24
0 0 12 5024.21 438.214 32
0 1 -4 348170 7763.34 35
0 1 -3 13385.4 463.143 36
0 1 -2 59779.3 1556.2 36
0 1 -1 630021 14160.8 36
0 1 1 287070 6365.65 10
0 1 1 272604 6473.52 36
0 1 2 4656.91 250.047 10
0 1 2 4471.31 232.469 36
0 1 3 10613.1 321.251 35
0 1 3 12787.6 558.932 28
0 1 4 160685 4161.56 28
0 1 4 164934 4056.78 26
0 1 5 186663 4917.72 10
0 1 5 199204 4866.8 26
0 1 6 6369.43 628.621 24
0 1 6 6225.25 622.554 22
0 1 6 5439.09 605.449 17
0 1 6 6695.76 662.03 32
0 1 6 6424.85 696.492 29
0 1 6 6605.96 587.635 31
0 1 6 5788.47 646.239 13
0 1 6 5803.13 471.498 26
0 1 6 6434.54 538.633 10
0 1 7 21222.1 1321.26 24
0 1 7 19704.6 1122.72 11
0 1 7 21656.9 1337.4 22
0 1 7 20994.2 1330.11 32
0 1 7 24227.2 1282.89 31
0 1 7 22040.8 1360.05 17
0 1 7 19996.5 1109.13 10
0 1 7 20971.1 1366.62 13
0 1 8 127010 3994.15 24
0 1 8 110349 3536.03 11
0 1 8 105676 3468.55 10
0 1 8 117731 4015.19 17
0 1 8 117225 3724.44 31
0 1 8 109227 3934.83 32
0 1 9 21626.6 1438.85 17
0 1 9 22048.1 1377.55 24
0 1 9 19024.4 1267.06 23
0 1 9 21248 1259.49 31
0 1 10 873.381 268.547 24
0 1 10 826.116 352.294 31
0 1 11 9259.09 626.253 24
0 2 -4 68088.8 1896.77 36
0 2 -3 16437.7 701.681 36
0 2 -2 199274 4890.49 36
0 2 -1 918147 20778.7 36
0 2 1 289305 6911.14 36
0 2 2 11284.6 554.107 36
0 2 3 18397.7 677.244 36
0 2 3 17214.9 688.418 10
0 2 4 244600 5932.09 10
0 2 5 10775.6 800.065 32
0 2 5 10212.3 771.062 22
0 2 5 9853.89 612.394 10
0 2 5 10524.7 796.461 27
0 2 5 11839.5 647.393 26
0 2 6 16194.8 886.869 10
0 2 6 16872 1121.27 22
0 2 6 16166.8 1100.61 32
0 2 6 16842.4 1130.04 27
0 2 6 17170.5 1185.56 13
0 2 6 16771.4 1131.48 17
0 2 6 16510.3 996.854 31
0 2 7 110380 3750.97 24
0 2 7 107121 3731.42 22
0 2 7 110849 3758.01 32
0 2 7 105816 3758.55 17
0 2 7 104386 3428.01 31
0 2 7 109255 3810.14 13
0 2 8 38778.5 1956.34 24
0 2 8 37937.8 1965.27 22
0 2 8 35787.2 1684.17 31
0 2 8 38646.6 1977.62 32
0 2 8 35851.9 1940.59 17
0 2 9 5980.61 686.417 24
0 2 9 4338.13 622.319 17
0 2 9 4252.71 640.519 32
0 2 10 8053.68 690.283 24
0 2 10 8666.97 770.68 32
0 2 11 3641.59 403.866 32
0 2 11 2495.12 273.349 24
0 3 -5 207450 5204.83 36
0 3 -4 254197 6295.65 36
0 3 -3 140810 3789.77 36
0 3 -2 436185 10390.2 36
0 3 -1 4835.63 439.868 36
0 3 0 19214.3 953.005 36
0 3 1 40035.1 1508.6 36
0 3 2 40369.6 1480.68 36
0 3 3 471312 11021.7 36
0 3 4 21744.4 1147.63 32
0 3 4 19891.2 1152.09 21
0 3 5 19535.9 1042.78 31
0 3 5 22083.7 1248.91 32
0 3 5 19051.7 1183.08 17
0 3 5 19274.4 1217 27
0 3 5 19041.9 925.04 26
0 3 5 19773.5 1117.32 5
0 3 6 139445 4142.66 31
0 3 6 145337 4579.24 17
0 3 6 145842 4594.26 27
0 3 6 138772 4482.38 13
0 3 6 148868 4545.24 32
0 3 7 54165.7 2394.52 32
0 3 7 52686.1 2393.48 24
0 3 7 51499.3 2375.51 22
0 3 7 54017.9 2423.71 17
0 3 8 11802.3 1014 24
0 3 8 12681.7 1057.76 22
0 3 8 12774.8 1062.32 32
0 3 8 10474.4 972.196 17
0 3 9 8124.74 751.011 24
0 3 9 8717.79 816.03 32
0 3 9 7064.98 726.774 17
0 3 10 2350.99 335.766 24
0 3 10 2323.46 388.991 32
0 4 -5 87518.3 2732.81 36
0 4 -4 16021.3 917.594 36
0 4 -3 4986.78 503.585 36
0 4 -2 3395.1 423.628 36
0 4 0 81714.5 2715.45 36
0 4 1 74214.2 2533.54 36
0 4 2 437778 10680 36
0 4 3 194622 5082.72 36
0 4 3 200866 5321.89 32
0 4 4 4501.75 590.779 21
0 4 4 5806.75 623.522 32
0 4 4 4369.44 504.575 5
0 4 5 70371 2743.86 17
0 4 5 71711 2818.5 27
0 4 5 73073 2736.64 32
0 4 5 69006.1 2732.46 22
0 4 5 66939.7 2521.77 5
0 4 6 23705.4 1487.09 22
0 4 6 23508.9 1465.22 32
0 4 6 20866.8 1406.17 17
0 4 6 22677.9 1475.34 27
0 4 7 17041.3 1242.67 24
0 4 7 15817.8 1203.82 17
0 4 7 17168.3 1241.02 32
0 4 8 5836.76 713.271 32
0 4 8 4737.41 606.674 17
0 4 8 5153.62 648.432 24
0 4 9 358.896 177.014 24
0 4 10 1475.5 196.418 24
0 5 -5 142505 4178.01 36
0 5 -5 137393 4205.01 37
0 5 -4 23903.7 1288.88 36
0 5 -4 22610.1 1297.75 37
0 5 -3 371.579 173.59 37
0 5 -3 511.389 208.025 36
0 5 -2 197449 5563.78 36
0 5 -2 192830 5573.67 37
0 5 -1 65086.5 2566.48 37
0 5 0 42037.1 1962.26 37
0 5 0 43892.1 1941.74 36
0 5 1 173834 5211.89 37
0 5 1 177522 5150.2 36
0 5 2 153413 4580.16 36
0 5 2 155739 4690.43 21
0 5 2 154279 4658.94 37
0 5 3 23799.9 1277.97 5
0 5 3 22426.9 1414 21
0 5 3 22872.6 1389.91 27
0 5 4 40840.1 1997.75 22
0 5 4 42902.9 1978.9 32
0 5 4 41170.6 2044.41 27
0 5 4 41093.7 1824.16 5
0 5 5 22220.6 1393.01 17
0 5 5 21004.4 1410.73 22
0 5 5 23576.8 1433.97 32
0 5 5 21416.2 1250.01 5
0 5 6 1518.19 372.484 17
0 5 6 1873.76 431.954 22
0 5 7 31242.7 1657.68 24
0 5 7 28904.6 1619.97 22
0 5 7 28872.3 1509.52 17
0 5 8 492.054 208.958 24
0 5 9 992.78 184.956 24
0 6 -6 66805.5 2584.74 37
0 6 -5 32578.7 1664.9 36
0 6 -5 31978.3 1687.43 37
0 6 -4 11405.4 966.661 37
0 6 -4 10349.7 897.282 36
0 6 -3 302546 8233.36 37
0 6 -3 298774 8157.3 36
0 6 -2 55440.5 2478.85 37
0 6 -2 58345.1 2476.77 36
0 6 -1 39145.1 2012.33 37
0 6 -1 36106.9 1879.38 36
0 6 0 185467 5419.89 21
0 6 0 202575 5836.59 36
0 6 0 191321 5865.85 37
0 6 1 123101 4027.31 21
0 6 1 123590 4125.77 36
0 6 1 122937 4203.29 37
0 6 2 10282.4 916.193 37
0 6 2 9713.1 933.499 21
0 6 3 37972.4 1768.11 5
0 6 3 34741.6 1908.24 27
0 6 4 22804.9 1451.46 22
0 6 4 20964.5 1438.66 27
0 6 4 20275.4 1217.44 5
0 6 5 5368.43 687.095 22
0 6 5 6332.93 753.143 27
0 6 6 51434 2240.06 22
0 6 7 1685.52 333.086 22
0 6 8 3390.91 334.708 24
0 7 -7 72464.1 2667.69 37
0 7 -6 27747.5 1575.6 37
0 7 -5 15297.7 1183.6 37
0 7 -4 171682 5372.39 37
0 7 -4 165977 5282.35 36
0 7 -3 104290 3832.94 36
0 7 -3 112113 3976.62 37
0 7 -1 60901.3 2725.59 36
0 7 -1 63444.9 2843.75 37
0 7 0 64973.6 2569.61 21
0 7 0 65678.1 2882.03 37
0 7 1 7924.84 827.43 21
0 7 1 8300.23 889.12 37
0 7 2 10868 902.53 5
0 7 2 10960.9 937.989 37
0 7 2 11123.6 1001.89 27
0 7 3 7107.28 786.753 22
0 7 3 6928.04 790.364 27
0 7 4 1234.42 355.167 22
0 7 4 1339.96 351.86 27
0 7 5 22702.6 1314.24 24
0 7 5 24523.2 1364.43 22
0 7 6 13622.2 853.709 24
0 7 6 12957.7 856.378 22
0 8 -7 4313.83 533.524 37
0 8 -6 19642.5 1286.63 37
0 8 -5 31055.5 1757.63 37
0 8 -4 121020 4245.32 37
0 8 -3 4158.21 660.924 37
0 8 -1 22872.1 1553.53 37
0 8 0 284.099 228.44 37
0 8 0 181.348 164.907 27
0 8 1 40213.3 1850.15 5
0 8 1 41123.7 1940.12 27
0 8 1 42805.8 2004.68 37
0 8 2 7211.82 757.568 22
0 8 2 9624.71 847.445 27
0 8 3 2989.82 456.304 22
0 8 3 2148.89 395.697 27
0 8 4 23372 1179.21 24
0 8 4 22004.7 1184.28 22
0 8 5 47040.3 1654.96 22
0 9 -7 363.411 172.338 37
0 9 -6 19928.8 1196.15 37
0 9 -5 46629.9 2080.37 37
0 9 -4 847.559 308.666 37
0 9 -3 25958.1 1538.26 37
0 9 -2 10583.4 946.235 37
0 9 -1 522.577 257.745 37
0 9 0 51327.6 2002.86 22
0 9 1 13424.2 871.299 22
0 9 2 14664.4 848.409 22
0 9 3 25437.3 1027.99 22
0 10 -6 15213.5 830.568 37
0 10 -5 2196.15 345.443 37
0 10 -4 15965.5 969.92 37
0 10 -2 498.618 185.354 37
1 -11 3 9596.42 605.38 4
1 -10 0 11443 794.541 4
1 -10 1 3465.53 486.51 4
1 -10 2 22361 1296.42 4
1 -10 3 22870.1 1318.98 4
1 -10 5 47371.3 1897.49 4
1 -10 6 24697 1231.41 33
1 -10 7 692.33 202.115 33
1 -10 8 13395.4 716.132 33
1 -10 8 15677.3 733.653 18
1 -9 -1 39205.7 1826.35 4
1 -9 0 1657.02 413.143 4
1 -9 1 61419 2692.8 4
1 -9 2 22101.8 1296 38
1 -9 2 22364.6 1497.8 4
1 -9 3 4956.14 688.709 4
1 -9 4 22855.5 1467.91 4
1 -9 5 18000.1 1213.53 4
1 -9 6 7296.93 691.396 4
1 -9 7 10640.9 883.537 33
1 -9 8 20584.7 1157.1 33
1 -9 9 8220.24 619.32 33
1 -9 10 8697.86 468.974 18
1 -8 -6 418.806 142.521 3
1 -8 -2 41186.6 1914.27 4
1 -8 -1 4723.5 658.545 25
1 -8 -1 6104.58 754.334 4
1 -8 0 88498.8 3467.63 25
1 -8 0 96324.1 3626.91 4
1 -8 1 87879.6 3475.68 4
1 -8 1 82905.3 3337.59 25
1 -8 2 14394.7 1237 4
1 -8 3 93456 3217.16 38
1 -8 4 79169.4 2700.36 38
1 -8 4 77630.1 3084.61 4
1 -8 4 68204.8 2639.26 28
1 -8 4 73376.3 2961.26 25
1 -8 5 892.024 318.451 4
1 -8 5 680.478 231.18 28
1 -8 5 903.878 285.991 25
1 -8 6 26027.9 1333.5 9
1 -8 6 27240.4 1496.68 4
1 -8 7 44553.6 1838.56 9
1 -8 7 43425.6 1911.79 30
1 -8 8 2662.97 419.995 30
1 -8 8 3317.16 523.515 33
1 -8 8 2448.5 388.156 9
1 -8 9 17649.8 962.003 9
1 -8 9 20016.7 1156.05 33
1 -8 9 18043.1 1046.85 18
1 -8 9 17242.7 996.036 30
1 -8 10 13841.8 766.62 18
1 -8 10 13775.9 760.142 30
1 -7 -2 3140.43 504.719 25
1 -7 -2 3504.53 539.146 4
1 -7 -1 105798 3771.56 4
1 -7 -1 103328 3681.13 25
1 -7 0 119649 4202.98 4
1 -7 1 21059.3 1470.53 4
1 -7 2 83518.8 2847.22 28
1 -7 2 86700.7 3350.84 4
1 -7 3 80548 3173.62 4
1 -7 3 78531.4 2786.66 28
1 -7 4 3267.11 445.299 38
1 -7 4 2848.7 538.036 4
1 -7 4 3600.51 494.58 28
1 -7 5 18879.4 1233.04 25
1 -7 5 17815.1 1240.82 4
1 -7 5 17918.9 1175.99 28
1 -7 5 17853.3 1118.46 34
1 -7 5 18435.2 1129.24 9
1 -7 6 37769.8 1841.44 28
1 -7 6 39071.3 1831.22 4
1 -7 6 39134.5 1823.41 34
1 -7 6 38599.4 1795.17 9
1 -7 6 35828.1 1732.59 25
1 -7 7 4210.37 580.281 28
1 -7 7 5593.84 645.436 9
1 -7 8 55543.9 2179.75 8
1 -7 8 58806.8 2338.92 9
1 -7 8 54934.7 2313.86 30
1 -7 8 57295 2515.45 33
1 -7 9 12587.8 915.319 9
1 -7 9 12679.6 924.552 18
1 -7 9 12246.4 854.956 8
1 -7 9 12050.2 910.06 30
1 -7 10 908.036 243.602 9
1 -7 10 736.161 211.839 18
1 -7 10 994.872 226.435 8
1 -7 10 580.333 199.99 30
1 -7 11 15387.3 782.531 31
1 -7 11 14039 682.317 8
1 -6 -2 168726 4966.8 4
1 -6 -2 162900 4856.06 25
1 -6 -1 129595 4198.81 4
1 -6 0 1993.84 423.187 4
1 -6 1 11503.7 977.184 4
1 -6 3 60606 2540.72 4
1 -6 3 65810.4 2346.89 28
1 -6 4 128646 3881.95 34
1 -6 4 128225 3929.18 28
1 -6 4 128198 4129.14 4
1 -6 5 50488.7 2075.46 34
1 -6 5 44707 2013.56 4
1 -6 5 46950.1 2017.97 28
1 -6 6 3358.32 474.269 4
1 -6 6 4652.86 605.028 34
1 -6 6 3588.44 522.902 28
1 -6 6 3211.02 495.434 9
1 -6 6 3832.58 482.564 25
1 -6 6 4067.93 535.696 8
1 -6 7 159750 4896.66 9
1 -6 7 164119 4966.09 34
1 -6 7 157877 4803.66 8
1 -6 7 153713 4856.61 28
1 -6 8 31753.8 1696.34 9
1 -6 8 31612.7 1664.06 8
1 -6 8 32044.8 1714.7 30
1 -6 8 31190.4 1688.47 28
1 -6 9 16141.4 1181 33
1 -6 9 14250.2 1065.55 9
1 -6 9 16748.8 1106.73 18
1 -6 9 14750.9 1066.83 8
1 -6 9 14860 1091.06 30
1 -6 10 934.176 259.44 9
1 -6 10 1084.73 274.113 18
1 -6 10 1210.86 308.523 8
1 -6 11 17510 941.602 8
1 -6 12 14.9836 70.3307 11
1 -6 12 14.8735 67.4464 31
1 -6 12 -13.9147 63.0988 8
1 -5 -3 98500.5 3009.19 25
1 -5 0 8205.78 721.906 1
1 -5 1 49292.6 2018.27 1
1 -5 3 150563 4479.1 1
1 -5 3 156007 4304.37 28
1 -5 4 78494.6 2647.35 28
1 -5 5 8144.71 741.285 34
1 -5 5 7529.01 689.54 28
1 -5 6 144551 4085.57 25
1 -5 6 150398 4531.24 9
1 -5 6 148661 4581.73 34
1 -5 6 146210 4472.82 28
1 -5 7 54903.2 2350.3 30
1 -5 7 57709.4 2404.42 9
1 -5 7 55149.4 2401.11 34
1 -5 7 57232.7 2516.39 33
1 -5 7 52852.6 2306.18 28
1 -5 8 797.429 302.785 34
1 -5 8 1068.47 320.961 9
1 -5 8 611.447 278.398 33
1 -5 8 997.596 302.842 28
1 -5 9 1384.77 344.15 32
1 -5 9 2102.05 438.775 9
1 -5 9 1763.56 411.095 33
1 -5 9 1335.45 327.89 18
1 -5 10 52576.8 2128.44 32
1 -5 10 54350.2 2266.58 8
1 -5 10 56003.7 2276.44 9
1 -5 11 2146.93 354.712 31
1 -5 11 1444.99 307.193 8
1 -5 12 23028.8 973.507 11
1 -5 12 23172.1 971.811 31
1 -4 -3 146029 3883.1 25
1 -4 -1 72247.8 2343.33 1
1 -4 0 75740.8 2443.06 1
1 -4 1 217741 5696.99 1
1 -4 2 455293 10982.2 1
1 -4 3 723109 16782 28
1 -4 4 3178.89 396.265 28
1 -4 5 59831.2 2280.31 34
1 -4 5 56464.1 1908.09 25
1 -4 6 180701 5332.83 34
1 -4 6 178632 5018.03 29
1 -4 6 185578 5254.06 9
1 -4 7 2589.57 492.343 23
1 -4 7 4199.82 596.453 33
1 -4 7 3418.87 545.986 34
1 -4 7 2921.53 443.074 29
1 -4 8 8015.88 816.948 9
1 -4 8 7137.61 801.902 33
1 -4 8 7533.54 741.668 18
1 -4 8 6067.62 655.852 29
1 -4 8 5341.71 675.829 30
1 -4 8 5611.8 673.398 28
1 -4 9 24588 1451.9 32
1 -4 9 22964.3 1311.67 18
1 -4 9 25214.7 1503.21 30
1 -4 9 21679.4 1272.13 29
1 -4 9 24025.8 1474.17 28
1 -4 10 482.691 261.641 8
1 -4 10 85.1303 126.41 32
1 -4 11 36535.4 1627.39 11
1 -4 11 41151.1 1713.84 31
1 -4 12 1900.34 255.079 11
1 -4 12 1656.89 269.026 31
1 -3 -3 14014.8 633.622 25
1 -3 0 10532 597.693 1
1 -3 2 455767 10625.8 1
1 -3 2 450088 10539.7 28
1 -3 3 51821.4 1711.26 28
1 -3 4 37005.6 1252.49 25
1 -3 5 427766 9918.96 25
1 -3 6 345.809 222.341 23
1 -3 6 41.7516 134.007 34
1 -3 6 307.595 168.117 9
1 -3 6 147.44 134.148 29
1 -3 6 457.954 225.723 33
1 -3 7 35298.6 1807.3 23
1 -3 7 33315.1 1744.71 34
1 -3 7 32857.6 1692.16 30
1 -3 7 34510.3 1683.63 29
1 -3 7 30558.4 1596.67 28
1 -3 7 33073.4 1587.75 18
1 -3 7 35221.2 1783.11 33
1 -3 7 35933.2 1698.6 13
1 -3 7 33749.8 1568.07 12
1 -3 7 35966.4 1669.99 24
1 -3 8 11169.7 1015.94 23
1 -3 8 13041.8 1064.17 34
1 -3 8 11503 901.29 18
1 -3 8 12381 1011.74 32
1 -3 8 13902.3 1078.14 30
1 -3 8 12123.3 981.254 29
1 -3 8 11286.7 970.58 28
1 -3 9 424.403 231.936 23
1 -3 9 756.204 273.343 32
1 -3 9 734.148 235.524 18
1 -3 9 51.3964 176.34 9
1 -3 9 141.036 171.091 29
1 -3 9 622.753 251.692 28
1 -3 10 32721.2 1730.43 8
1 -3 10 33940.6 1717.37 31
1 -3 10 31859.8 1657.11 32
1 -3 11 12876.9 867.634 11
1 -3 11 14030.7 930.82 8
1 -3 11 12605.4 851.359 32
1 -3 11 12701.1 873.502 31
1 -3 12 2535.98 293.966 8
1 -3 12 1305.99 262.965 31
1 -2 -4 67380.5 1714.99 25
1 -2 -3 150285 3615.47 25
1 -2 -2 66431.4 1761.19 25
1 -2 1 908989 20355.5 28
1 -2 2 43172 1321.28 28
1 -2 3 28085.6 904.446 25
1 -2 4 187950 4995.4 28
1 -2 4 198848 4598.42 25
1 -2 5 9594.9 680.462 28
1 -2 6 173114 4885.98 30
1 -2 6 169828 4877.41 9
1 -2 6 169023 4794.56 28
1 -2 6 172175 4993.23 34
1 -2 6 175950 5022.83 29
1 -2 6 171378 4935.3 33
1 -2 6 167694 4890.06 13
1 -2 7 102092 3355.1 24
1 -2 7 99693.3 3464.93 23
1 -2 7 97362.1 3369.62 9
1 -2 7 100624 3380.31 30
1 -2 7 100995 3436.64 34
1 -2 7 93879.2 3118.42 18
1 -2 7 97490.2 3358.27 32
1 -2 7 97467 3331.79 17
1 -2 7 98822.7 3453.19 29
1 -2 7 99775.5 3345.65 28
1 -2 7 96689.1 3384.36 13
1 -2 7 95720.8 3300.1 12
1 -2 8 1438.57 357.075 24
1 -2 8 2270.49 447.713 23
1 -2 8 1250.32 285.626 18
1 -2 8 1052.86 317.278 32
1 -2 8 1502.88 358.762 17
1 -2 8 1516.68 371.617 9
1 -2 8 1454.2 373.691 29
1 -2 8 1527.14 354.597 28
1 -2 8 1282.07 358.407 13
1 -2 9 76122.5 2871.18 24
1 -2 9 77039.6 2949.1 23
1 -2 9 75756.1 2938.93 31
1 -2 9 76188.4 2964.17 32
1 -2 9 79015.6 3002.07 29
1 -2 9 66634.3 2790.89 10
1 -2 10 43804.4 1979.7 11
1 -2 10 48064.7 2106.65 8
1 -2 10 48664.8 2113.59 32
1 -2 10 43364.7 1997.18 31
1 -2 11 1953.45 323.189 11
1 -2 11 1441.96 298.307 31
1 -2 11 1726.24 313.242 32
1 -2 11 2027.08 346.589 8
1 -1 -2 62609 1568.49 25
1 -1 -1 467343 10513.6 25
1 -1 0 571232 12437.7 28
1 -1 0 534104 12546.2 25
1 -1 1 115671 2754.07 25
1 -1 2 4482.99 224.914 25
1 -1 3 5582.59 377.066 28
1 -1 3 4859.75 223.894 25
1 -1 4 83320.4 2441.97 28
1 -1 5 271259 6860.89 28
1 -1 6 84160.3 2873.09 24
1 -1 6 79255.8 2822.63 34
1 -1 6 83285.2 2832.27 17
1 -1 6 85924 2853.63 30
1 -1 6 82480.4 2843.15 32
1 -1 6 80360.8 2778.74 9
1 -1 6 85776.8 3041.7 29
1 -1 6 84901 2823.09 28
1 -1 6 83459.2 2927.56 12
1 -1 7 16025.5 1123.79 24
1 -1 7 15876.1 1130.08 23
1 -1 7 14416.2 1045.54 34
1 -1 7 16239.1 1141.93 32
1 -1 7 16001.3 1124.85 17
1 -1 7 16797.6 1214.54 29
1 -1 7 16475.9 1103.26 28
1 -1 7 17623.1 1205.95 13
1 -1 7 16386.2 1079.61 10
1 -1 7 15285.8 1128.91 12
1 -1 8 42121.7 1983.53 24
1 -1 8 38852.8 1933.39 23
1 -1 8 40656.1 2004.15 32
1 -1 8 37989.5 1951.55 17
1 -1 8 39579.9 1931.27 31
1 -1 8 39528.9 2048.6 29
1 -1 8 40573 2026.64 13
1 -1 8 37195.8 1843.81 10
1 -1 9 42582.9 2015.94 24
1 -1 9 46239.7 2041.1 23
1 -1 9 40870.7 1951.73 11
1 -1 9 40130.7 1922.21 10
1 -1 9 41107.1 2054.84 32
1 -1 9 43977.3 2120.76 17
1 -1 9 43006.6 2021.78 31
1 -1 10 203.319 163.564 24
1 -1 10 377.692 214.786 11
1 -1 10 277.667 166.643 8
1 -1 10 492.639 223.873 32
1 -1 10 124.19 194.403 31
1 -1 11 553.447 253.877 31
1 -1 11 662.976 239.872 32
1 0 -3 116528 2796.81 35
1 0 -2 357480 8122.89 35
1 0 -1 308815 7045.62 35
1 0 1 134102 3292.78 10
1 0 1 141521 3251.49 35
1 0 2 207024 4348.65 35
1 0 2 209177 4574.67 28
1 0 3 70815.5 1957.91 28
1 0 3 63858.9 1640.32 26
1 0 4 215256 5157.95 28
1 0 4 194466 4718.39 26
1 0 5 162450 4353.73 10
1 0 5 154153 4682.19 29
1 0 6 39418.1 1806.28 24
1 0 6 40521.5 1729.35 22
1 0 6 38127 1642.36 10
1 0 6 39987.5 1791.76 32
1 0 6 38034.4 1715.74 31
1 0 6 37120.8 1878.54 29
1 0 6 37765.5 1818.74 13
1 0 6 37889.7 1866 12
1 0 7 9681.9 878.882 24
1 0 7 8887.98 830.055 23
1 0 7 9367.68 796.697 11
1 0 7 8988.03 823.244 22
1 0 7 9946.06 959.901 29
1 0 7 8588.1 834.347 32
1 0 7 9190.79 823.925 31
1 0 7 9188.14 780.729 10
1 0 7 8162.37 857.305 13
1 0 8 114831 3922.1 24
1 0 8 112046 3711.04 11
1 0 8 113510 3772.87 23
1 0 8 103794 3617.01 10
1 0 8 117050 3976.07 32
1 0 8 114313 3826.38 31
1 0 8 120321 4078.85 13
1 0 9 8015.87 816.794 24
1 0 9 8350.69 753.094 11
1 0 9 7598.99 728.328 8
1 0 9 8090.82 840.329 32
1 0 9 8116.72 808.924 31
1 0 10 1428.56 325.13 24
1 0 10 823.609 324.386 32
1 0 10 1107.54 346.778 31
1 0 11 6337.52 536.295 32
1 1 -5 347973 8000.93 35
1 1 -4 306468 7183.33 35
1 1 2 7836.79 433.795 10
1 1 2 8359.66 403.854 35
1 1 3 206572 5257.93 10
1 1 3 221616 4984.37 35
1 1 3 212036 4990.01 26
1 1 4 343470 8050.01 10
1 1 4 327250 7635.91 26
1 1 5 32838.8 1561.24 24
1 1 5 31448.5 1346.4 10
1 1 5 34556.8 1549.49 32
1 1 5 34130.6 1466.11 31
1 1 5 30814.3 1624.04 29
1 1 5 31597.5 1566.44 13
1 1 5 31036.3 1629.67 12
1 1 6 17191.7 1163.21 24
1 1 6 15129.8 977.516 11
1 1 6 16713.2 1093.38 22
1 1 6 17229.6 1010.22 10
1 1 6 16677.5 1129.4 32
1 1 6 16777.9 1135.67 17
1 1 6 17163.1 1081.14 31
1 1 6 14727.7 1167.31 29
1 1 6 16818.7 1186.79 13
1 1 6 15944.4 1215.23 12
1 1 7 105606 3759.98 24
1 1 7 100374 3416.51 11
1 1 7 111509 3715.72 22
1 1 7 99571.1 3378.35 10
1 1 7 107070 3740.76 32
1 1 7 108909 3612.21 31
1 1 7 106334 3838.24 13
1 1 8 11707.9 1026.64 24
1 1 8 9726.95 803.695 11
1 1 8 9140.02 920.35 32
1 1 8 9506.16 943.638 17
1 1 8 10616.8 913.128 31
1 1 8 11146.1 1011.14 13
1 1 9 12010.1 982.511 24
1 1 9 12616.8 1048.99 17
1 1 9 13494.2 964.415 31
1 1 9 12818.3 1021.49 32
1 1 10 5526.91 562.928 24
1 1 10 6234.53 623.194 32
1 1 11 1121.65 229.196 32
1 2 -5 156494 4089.28 35
1 2 -3 2818.28 301.308 36
1 2 -2 172195 4419.43 36
1 2 0 480978 11245.5 36
1 2 3 753809 17082.9 35
1 2 4 56668.8 1947.38 31
1 2 4 47476.9 2025.65 29
1 2 5 19066.4 1038.09 11
1 2 5 22153.2 1235.61 22
1 2 5 20065 1133.4 31
1 2 5 21267 1238.59 21
1 2 5 19086.7 1265.1 29
1 2 5 19187.7 1242.11 13
1 2 5 20519 1340.96 12
1 2 6 50861.6 1981.7 11
1 2 6 50284.3 2295.94 24
1 2 6 52666.1 2258.86 22
1 2 6 52764.5 2309.58 17
1 2 6 51679.5 2118.44 31
1 2 6 52412.3 2350.24 13
1 2 7 30972.8 1756.54 24
1 2 7 29397.3 1666.66 22
1 2 7 32088 1614.69 31
1 2 7 27249.4 1661.03 13
1 2 7 31718.2 1767.98 17
1 2 8 32276 1759.3 24
1 2 8 30142.8 1673.2 22
1 2 8 32515.1 1790.38 17
1 2 8 33623.6 1610.6 31
1 2 9 10152.1 843.019 24
1 2 9 9817.37 847.82 17
1 2 9 8808.94 799.926 32
1 2 10 571.428 178.912 24
1 2 10 1513.41 330.184 32
1 3 -6 29012.6 1275.78 35
1 3 -4 100198 2988.56 36
1 3 -3 206939 5420.52 36
1 3 -2 142255 3986.95 36
1 3 0 71934.8 2358.05 36
1 3 3 42210.1 1780.96 21
1 3 3 41350.3 1474.84 35
1 3 3 40046.3 1774.41 27
1 3 4 81498.8 2706.11 31
1 3 4 80581.7 2968.72 27
1 3 5 4525 587.773 22
1 3 5 3295.15 534.144 13
1 3 5 3922.53 573.248 21
1 3 6 1881.89 433.605 17
1 3 6 1521.47 365.24 22
1 3 6 1363.08 358.403 13
1 3 7 19417.3 1358.61 24
1 3 7 19421.4 1308.43 22
1 3 7 20355.9 1377.6 17
1 3 8 28079.8 1535.19 24
1 3 8 25077.8 1436.25 22
1 3 8 26119.7 1497.82 17
1 3 9 842.345 233.034 24
1 3 10 4637.6 347.857 24
1 4 -4 11835.8 843.413 36
1 4 -3 64363.5 2354.83 36
1 4 -2 444993 11025.2 36
1 4 -1 65743.8 2420.86 36
1 4 0 101655 3291.5 36
1 4 2 108479 3571.91 21
1 4 2 112055 3442.49 37
1 4 2 108804 3370.01 16
1 4 2 110278 3548.48 27
1 4 3 23154.4 1291.36 32
1 4 3 19071.7 1170.76 16
1 4 3 19371.5 1268.92 27
1 4 3 19346.6 1261.74 21
1 4 4 24248 1524.4 21
1 4 4 28994.8 1568.87 32
1 4 4 26847.3 1598.74 27
1 4 5 5895.16 762.789 32
1 4 5 5569.28 708.854 17
1 4 6 7233.09 789.688 22
1 4 6 5742.63 768.893 32
1 4 6 6227.76 748.254 17
1 4 7 49447.1 2152.92 22
1 4 7 46454.6 2117.61 17
1 4 8 1293.62 300.428 24
1 4 8 1778.88 329.65 17
1 4 9 4664.47 398.556 24
1 5 -6 195529 5604.04 37
1 5 -5 631.037 221.129 7
1 5 -5 494.305 237.721 37
1 5 -4 32090.1 1660.5 37
1 5 -4 28864.5 1453.43 7
1 5 -3 459970 11888.4 37
1 5 -3 475296 11815.5 36
1 5 -1 51843.4 2332.88 37
1 5 -1 51262.6 2251.02 36
1 5 0 43375.1 2086.27 37
1 5 1 140327 4455.9 21
1 5 1 137199 4122 16
1 5 1 147054 4414.27 27
1 5 1 144432 4533.97 37
1 5 2 29834.4 1524.37 37
1 5 2 27507.7 1516.91 35
1 5 2 26950.2 1587.88 21
1 5 2 27124.9 1433.68 16
1 5 2 30431.5 1639.32 27
1 5 3 81505.8 3273.24 21
1 5 3 91826.4 3375.71 27
1 5 4 478.871 232.733 22
1 5 4 352.261 225.244 21
1 5 4 627.655 276.805 27
1 5 5 16557.3 1246.96 24
1 5 5 14950.3 1130.47 17
1 5 6 76888.3 2837.63 24
1 5 6 65116.3 2583.38 17
1 5 7 5441.36 584.056 24
1 5 7 4593.24 528.497 22
1 5 7 4509.46 486.279 17
1 6 -7 149739 4574.32 37
1 6 -6 13306.4 1055.27 37
1 6 -5 13159.9 1088.03 37
1 6 -4 106867 3840.1 37
1 6 -3 127618 4404.91 37
1 6 -1 13758.7 1182.9 37
1 6 -1 13550.8 1014.64 21
1 6 0 2095.69 474.991 37
1 6 0 1872.12 415.632 21
1 6 0 1643.85 363.447 27
1 6 1 8497.35 873.152 37
1 6 1 9057.37 900.077 21
1 6 1 9321.8 877.431 27
1 6 1 8200.21 892.025 35
1 6 2 58914.1 2604.38 21
1 6 2 55808.3 2293.02 37
1 6 2 55617 2469.27 27
1 6 3 3638.27 605.509 21
1 6 3 4245.96 624.932 27
1 6 4 12173.5 1026.4 22
1 6 4 12481.6 943.363 17
1 6 5 77605.3 2835.43 24
1 6 5 74489.8 2800.93 22
1 6 5 74292.2 2552.3 17
1 6 6 15514.9 946.841 24
1 6 7 2928.7 293.477 24
1 7 -7 51257.6 2192.09 37
1 7 -6 22816.1 1525.29 35
1 7 -6 26473.9 1556.49 37
1 7 -5 98286.3 3643.77 37
1 7 -4 76759.5 3187.85 37
1 7 -3 2131.01 488.652 37
1 7 -2 49752.8 2477.93 37
1 7 -1 5817.67 777.156 37
1 7 -1 4397.35 581.914 21
1 7 -1 5051.75 591.786 27
1 7 0 22884.3 1400.94 21
1 7 0 22040.7 1477.06 37
1 7 0 17164.3 1389.08 35
1 7 0 18122.2 1203.16 27
1 7 1 55592.6 2418.4 21
1 7 1 51749.4 2255.7 27
1 7 1 52211.7 2306.49 37
1 7 2 63902.7 2559.49 27
1 7 3 16420.9 1144.87 22
1 7 4 42088.8 1759.28 24
1 7 4 42101.5 1832.44 22
1 7 5 11146.7 749.087 22
1 8 -7 3748.45 503.159 37
1 8 -6 24318.6 1441.84 37
1 8 -5 26823.6 1597.61 37
1 8 -4 224.682 235.872 37
1 8 -2 3954.28 619.578 37
1 8 -1 27025.1 1607.75 37
1 8 0 93976.1 3300.17 37
1 8 2 15444.8 1000.52 22
1 8 3 37753.7 1546.02 22
1 8 4 19226.9 855.063 22
1 9 -7 14978.9 853.046 37
1 9 -6 10247.7 779.218 37
1 9 -5 79.2008 151.779 37
1 9 -4 35003.6 1690.09 37
1 9 -2 13968.6 976.392 37
1 9 0 19474.3 992.91 22
1 9 1 1405.15 232.857 22
1 10 -5 10460.7 624.16 37
1 10 -4 40569.7 1471.27 37
1 10 -3 3812.75 365.335 37
2 -11 5 25993.6 1121.01 33
2 -11 6 2666.84 296.488 33
2 -10 -4 8206.87 519.813 3
2 -10 0 3462.62 512.351 4
2 -10 1 18854.4 1251.76 4
2 -10 2 14009.5 1083.02 4
2 -10 4 30017.5 1556.56 4
2 -10 5 17195.1 1051.61 4
2 -10 6 4263.03 460.413 18
2 -10 7 20909.2 1093.63 33
2 -10 7 21442.4 1025.17 18
2 -10 8 17151 839.509 33
2 -10 8 15371.8 764.243 18
2 -9 -5 14239.2 874.87 3
2 -9 -2 31483.2 1575.93 4
2 -9 -1 206.197 187.48 4
2 -9 0 90864.4 3484.27 4
2 -9 1 49354.4 2419.74 4
2 -9 2 10793.4 1040.92 4
2 -9 4 37513.3 1938.15 4
2 -9 5 3650.49 549.97 4
2 -9 6 12690.2 907.131 4
2 -9 7 21799.7 1316.05 33
2 -9 8 10039.2 740.837 18
2 -9 9 24758.2 1118.44 33
2 -8 -6 21451.3 1179.61 3
2 -8 -2 4016.42 596.915 4
2 -8 -2 3608.03 570.464 25
2 -8 -1 117730 4158.12 4
2 -8 -1 117261 4139.25 25
2 -8 0 35899.9 2024.32 4
2 -8 0 37170.8 2028.89 25
2 -8 1 -62.8663 186.629 4
2 -8 1 121.578 180.463 25
2 -8 2 24024.2 1607.86 4
2 -8 3 36937.7 2018.13 4
2 -8 3 36556.9 1970.91 25
2 -8 4 30419.5 1750.24 4
2 -8 4 28907.9 1687.45 25
2 -8 5 47832.6 2006.74 34
2 -8 5 47744.7 2169.19 4
2 -8 5 43565.4 1912.95 30
2 -8 5 46541.8 2147.97 25
2 -8 6 31487.3 1583.76 4
2 -8 6 31550.2 1596.65 34
2 -8 6 32028.7 1568.99 30
2 -8 7 2557.04 439.84 34
2 -8 7 2146.98 371.321 9
2 -8 7 2129.17 395.67 30
2 -8 8 56653.4 2128.27 9
2 -8 8 63422.3 2457.27 33
2 -8 8 58528.7 2190.95 30
2 -8 9 14279.1 932.302 33
2 -8 9 13531.8 882.258 18
2 -8 10 17.343 81.4236 11
2 -8 10 204.925 116.503 18
2 -7 -7 10108.1 778.586 3
2 -7 -3 3203.8 498.895 4
2 -7 -2 50618.1 2260.4 4
2 -7 -2 48946 2212.59 25
2 -7 -1 127667 4313.19 4
2 -7 -1 129709 4253.97 25
2 -7 0 27764.6 1663.21 4
2 -7 0 28110.9 1619.04 25
2 -7 1 53597.8 2465.59 4
2 -7 1 53478.5 2389.77 25
2 -7 2 54615.8 1994.5 28
2 -7 3 7841.89 838.104 4
2 -7 3 7021.17 641.224 28
2 -7 3 8746.97 859.262 25
2 -7 4 164277 4950.74 4
2 -7 4 148644 4520.33 28
2 -7 4 154203 4649.82 34
2 -7 4 156380 4840.69 25
2 -7 5 34660.8 1638.77 9
2 -7 5 34432 1753.52 34
2 -7 5 32762.9 1644.56 28
2 -7 5 35940.9 1784.09 4
2 -7 5 35776.2 1758.6 25
2 -7 6 17508.5 1114.07 4
2 -7 6 18516.5 1181.82 9
2 -7 6 19908.8 1202.29 8
2 -7 6 17275.9 1226.04 34
2 -7 6 19009.2 1220.48 30
2 -7 6 14417.7 1080.45 28
2 -7 7 25604.9 1447.29 9
2 -7 7 24934.6 1502.86 34
2 -7 7 28698.1 1672.01 33
2 -7 7 25842 1436.8 8
2 -7 7 26023.1 1474.27 30
2 -7 7 21509.9 1355.4 28
2 -7 8 25951.3 1500.77 33
2 -7 8 20255 1257.35 8
2 -7 8 25330 1453.49 18
2 -7 8 22963.4 1346.76 30
2 -7 8 23302.7 1347.64 9
2 -7 8 22455.1 1400.63 34
2 -7 9 41.5743 142.512 33
2 -7 9 36.1238 131.34 8
2 -7 9 -37.6253 144.199 30
2 -7 9 -38.415 139.671 18
2 -7 10 2897.46 364.291 18
2 -7 10 2344.35 340.388 31
2 -7 10 1877.58 305.746 8
2 -7 11 3226.69 305.929 11
2 -7 11 3529.21 310.985 31
2 -6 -8 12499.1 816.716 3
2 -6 -3 3785.35 484.019 25
2 -6 -2 58139.8 2305.23 4
2 -6 -2 56981.7 2264.38 25
2 -6 -1 1575.11 358.518 4
2 -6 -1 2694.06 425.042 25
2 -6 0 24676.9 1420.54 4
2 -6 0 25170.2 1389.25 25
2 -6 1 55475.1 2309.62 4
2 -6 1 52701.4 1803.4 28
2 -6 2 7591.19 776.807 4
2 -6 2 8232.19 616.469 28
2 -6 2 8843.83 779.922 25
2 -6 3 267712 7480.5 4
2 -6 3 273326 7115.91 28
2 -6 3 293145 7433.29 25
2 -6 4 38391.7 1804.02 4
2 -6 4 36705.8 1663.41 28
2 -6 4 39413.7 1781.74 25
2 -6 5 93.2434 149.504 34
2 -6 5 159.185 127.619 4
2 -6 5 84.5158 153.653 8
2 -6 5 163.32 156.492 9
2 -6 5 41.1689 99.8051 28
2 -6 5 38.676 93.7636 25
2 -6 6 50738 2232.16 8
2 -6 6 52638.5 2241.61 9
2 -6 6 51537.9 2228.85 30
2 -6 6 50712.7 2314.54 34
2 -6 6 53289.9 2238.56 28
2 -6 7 106731 3661.09 9
2 -6 7 107130 3806.76 33
2 -6 7 104756 3669.14 8
2 -6 7 106722 3645.7 30
2 -6 7 105262 3749.14 34
2 -6 7 95923.4 3506.82 28
2 -6 8 10901.9 971.44 34
2 -6 8 9473.42 892.95 9
2 -6 8 9380.63 910.119 33
2 -6 8 10098.1 924.787 8
2 -6 8 9570.17 886.477 18
2 -6 8 9398.32 878.307 30
2 -6 9 44504.5 1996.81 33
2 -6 9 41985.8 1892.78 18
2 -6 9 43040.2 1976.01 8
2 -6 10 50163.3 1974.46 8
2 -6 10 48234.6 1932.86 31
2 -6 11 4561.42 421.419 11
2 -6 11 3696.54 389.389 8
2 -5 -8 619.137 215.345 3
2 -5 -4 6939.93 559.863 25
2 -5 -3 98672.2 3028.54 25
2 -5 -2 29993.5 1351.24 25
2 -5 -1 161490 4516.09 25
2 -5 0 396742 9343.89 28
2 -5 0 410979 9912.67 25
2 -5 1 1845.24 240.618 28
2 -5 2 302593 7404.53 28
2 -5 2 303033 7680.56 25
2 -5 3 136545 3978.89 28
2 -5 3 151728 4143.82 25
2 -5 4 27106.8 1327.87 28
2 -5 4 30891.4 1389.5 25
2 -5 5 24277 1325.16 9
2 -5 5 23556.1 1345.95 8
2 -5 5 22102.2 1260.67 30
2 -5 5 21242 1202.28 29
2 -5 5 22574.4 1259.26 28
2 -5 5 24047.3 1174.99 25
2 -5 6 74135.6 2852.17 34
2 -5 6 72274.3 2737.52 9
2 -5 6 65705.9 2633.96 30
2 -5 6 69622 2580.69 29
2 -5 6 71260.9 2786.38 8
2 -5 6 69294.2 2660.51 28
2 -5 7 3721.13 594.156 34
2 -5 7 4024.95 594.211 9
2 -5 7 5011.16 661.951 33
2 -5 7 4498.39 643.682 8
2 -5 7 3856.76 580.285 18
2 -5 7 5778.09 682.266 30
2 -5 7 4450.85 577.565 29
2 -5 7 5423.11 655.802 28
2 -5 8 55925.9 2418.05 33
2 -5 8 55070.7 2232.43 32
2 -5 8 55461.6 2355.36 18
2 -5 8 54806.2 2462.93 8
2 -5 8 52817.5 2371.32 30
2 -5 8 51592.6 2197.33 29
2 -5 8 54505.5 2422.45 9
2 -5 8 54514.7 2393.95 28
2 -5 9 14173.5 997.44 18
2 -5 9 11449.8 997.472 8
2 -5 9 12464.5 905.239 29
2 -5 10 26510.1 1398.2 11
2 -5 10 27567 1444.12 8
2 -5 11 30046.5 1267.8 11
2 -5 11 29220.9 1281.57 8
2 -5 11 28955.2 1251.96 31
2 -4 -8 8042.51 756.097 3
2 -4 -4 21834.9 954.779 25
2 -4 -3 3155.1 337.845 25
2 -4 -2 452950 10745.2 25
2 -4 -1 128867 3129.54 28
2 -4 -1 150928 3716.08 25
2 -4 0 43673.6 1273.01 28
2 -4 0 46172.5 1623.82 25
2 -4 1 325201 7648.22 28
2 -4 2 565978 12964.5 28
2 -4 2 551658 13164.6 25
2 -4 3 687.293 182.149 28
2 -4 3 536.469 167.711 25
2 -4 4 21336.4 1100.32 28
2 -4 4 23091.9 1063.68 25
2 -4 5 73847.1 2659.25 9
2 -4 5 74313.1 2640.97 30
2 -4 5 78369.7 2703.81 29
2 -4 5 71260.5 2591.38 28
2 -4 5 77410.2 2266.03 25
2 -4 6 15649.9 1082.35 30
2 -4 6 15281.4 1098.99 9
2 -4 6 15608.1 1106.93 33
2 -4 6 16455.5 1103.12 29
2 -4 6 15277.1 1040.65 28
2 -4 6 14960.2 993.868 13
2 -4 6 15265.7 960.231 12
2 -4 7 44736.1 2080.99 30
2 -4 7 43017.2 2080.72 9
2 -4 7 41966.3 1906.11 32
2 -4 7 46146 2068.86 18
2 -4 7 44052.4 2119.92 34
2 -4 7 43739.1 2034.49 29
2 -4 7 44939.4 2079.54 33
2 -4 7 41601 2010.75 28
2 -4 7 43991.4 1970.78 13
2 -4 7 41647.6 1835.21 12
2 -4 8 18231.1 1306.02 34
2 -4 8 21279.6 1439.28 8
2 -4 8 17057.8 1181.64 18
2 -4 8 17937.7 1233.14 29
2 -4 8 17319.2 1173.84 32
2 -4 9 6077.1 638.455 18
2 -4 9 5570.5 635.551 32
2 -4 9 7197.59 772.92 31
2 -4 9 7923.11 772.978 29
2 -4 10 43060.2 1902.28 31
2 -4 11 10109.3 687.707 11
2 -4 11 9773.19 682.158 31
2 -4 11 9492.28 682.012 8
2 -3 -7 1170.02 317.934 3
2 -3 -4 3234.27 287.386 25
2 -3 -3 360634 8493.38 25
2 -3 -2 276099 6636.18 25
2 -3 -1 67549.2 1976.89 25
2 -3 0 168924 3910.54 28
2 -3 0 166320 4261.63 25
2 -3 1 564617 12799.5 28
2 -3 1 562358 13025.2 25
2 -3 2 6346.62 415.473 28
2 -3 2 5708.12 421.204 25
2 -3 3 92769.7 2734.32 28
2 -3 3 99530.1 2695.75 25
2 -3 4 276641 7013.64 28
2 -3 4 279477 6675.24 25
2 -3 5 905.871 243.141 30
2 -3 5 937.491 259.835 29
2 -3 5 564.608 189.532 28
2 -3 6 207482 5851.38 24
2 -3 6 202734 5871.1 23
2 -3 6 208009 5877.91 9
2 -3 6 208619 5926.84 34
2 -3 6 197500 5622.42 32
2 -3 6 202000 5719.18 18
2 -3 6 204008 5614.22 17
2 -3 6 213377 5962.23 29
2 -3 6 210499 5798.75 33
2 -3 6 202839 5758.62 13
2 -3 6 201361 5689.89 12
2 -3 7 42324.4 2005.49 24
2 -3 7 45830.8 2113.44 9
2 -3 7 40551.6 1905.69 18
2 -3 7 43429.7 1925.97 17
2 -3 7 40527.4 1942.16 33
2 -3 7 45511.9 2117.26 34
2 -3 7 45610.2 2117.36 29
2 -3 7 46277.2 2080.32 13
2 -3 7 41342.7 1935.03 12
2 -3 7 40894.2 1912.47 32
2 -3 8 9276.29 891.78 34
2 -3 8 8148.79 768.18 18
2 -3 8 8224.36 810.125 32
2 -3 8 8530.32 908.415 8
2 -3 8 10237 955.787 29
2 -3 8 8883.01 883.497 28
2 -3 8 8070.95 839.671 13
2 -3 9 37699.9 1915.23 11
2 -3 9 42706.7 2052.74 8
2 -3 9 36442.7 1799.82 32
2 -3 9 37978.5 1927.03 31
2 -3 9 39268.2 1926.46 29
2 -3 10 28336.1 1463.3 11
2 -3 10 27527.1 1458.73 31
2 -3 10 29107.9 1507.15 8
2 -3 11 124.704 120.926 11
2 -3 11 328.08 149.854 8
2 -3 11 -132.446 203.051 31
2 -2 -4 621656 14123.7 25
2 -2 -3 343720 7989.45 25
2 -2 -2 16779.3 670.828 25
2 -2 -1 1912.34 203.035 25
2 -2 0 198438 4687.01 10
2 -2 0 205806 4649.78 28
2 -2 1 66636.9 1772.15 28
2 -2 1 66934.2 1860.5 25
2 -2 2 248179 5902.56 28
2 -2 2 245030 5864.77 25
2 -2 3 83948.3 2401.99 28
2 -2 3 80597.5 2194.73 25
2 -2 4 98228.3 2509.13 25
2 -2 5 314498 8295.06 29
2 -2 6 39948 1863.1 24
2 -2 6 38980.5 1810.11 23
2 -2 6 39026.3 1772.36 32
2 -2 6 42090.2 1816.22 17
2 -2 6 43723 1938.01 34
2 -2 6 42443.5 2009.26 29
2 -2 6 34477.2 1730.97 28
2 -2 6 42418 1785.54 18
2 -2 6 39849.8 1878.03 13
2 -2 6 40803.9 1889.51 12
2 -2 7 197.597 207.431 12
2 -2 7 147.593 168.692 24
2 -2 7 229.608 176.04 23
2 -2 7 -48.0859 116.624 10
2 -2 7 271.936 182.221 32
2 -2 7 704.197 254.48 34
2 -2 7 98.1673 145.767 31
2 -2 7 184.519 185.464 17
2 -2 7 257.271 197.239 13
2 -2 8 17657.5 1255.42 24
2 -2 8 18782.1 1294.63 11
2 -2 8 18919.7 1325.45 8
2 -2 8 17094.6 1210.67 32
2 -2 8 18197.2 1255.35 17
2 -2 8 17260 1256.53 31
2 -2 8 18143.6 1332.56 29
2 -2 8 16978.9 1222.91 10
2 -2 9 70087.9 2747.66 11
2 -2 9 72092.2 2798.25 8
2 -2 9 66942.8 2659.63 32
2 -2 9 73675.5 2881.23 29
2 -2 9 68245.9 2748.77 31
2 -2 9 72678.3 2780.92 24
2 -2 10 615.838 215.589 11
2 -2 10 747.644 236.791 8
2 -2 10 655.712 234.197 31
2 -2 11 4187.18 423.073 31
2 -1 -3 20149.8 758.323 35
2 -1 -3 21579.6 767.862 25
2 -1 -2 2049.34 202.542 35
2 -1 -2 2139.99 206.929 25
2 -1 -1 455994 10499.7 35
2 -1 -1 461166 10490.5 25
2 -1 0 99784.7 2479.62 10
2 -1 1 390235 8952.66 10
2 -1 1 392766 8925.68 35
2 -1 1 381112 8943.56 25
2 -1 2 15380.3 683.548 10
2 -1 2 14440.1 607.786 25
2 -1 3 114599 3151.96 10
2 -1 4 160736 4379.22 28
2 -1 5 274871 7325.15 24
2 -1 5 282060 7153.3 32
2 -1 5 278703 7221.23 31
2 -1 5 279288 7168.27 10
2 -1 5 286479 7339.91 13
2 -1 6 5122.9 625.497 24
2 -1 6 4449.54 558.401 11
2 -1 6 4878.11 526.838 22
2 -1 6 4723.99 560.4 10
2 -1 6 3966.68 524.722 34
2 -1 6 4235.81 545.038 32
2 -1 6 2991.34 481.853 31
2 -1 6 5516.99 627.001 17
2 -1 6 5295.44 674.08 29
2 -1 6 4286.09 584.733 13
2 -1 7 1021.56 298.736 10
2 -1 7 1395.62 371.377 24
2 -1 7 665.457 265.059 11
2 -1 7 1315.82 345.215 8
2 -1 7 1334 342.425 32
2 -1 7 1243.24 357.353 17
2 -1 7 1029.84 320.945 31
2 -1 7 939.056 334.479 29
2 -1 7 1146.02 356.962 13
2 -1 8 70227.8 2747.36 24
2 -1 8 59836.3 2523.98 11
2 -1 8 54740.2 2427.85 10
2 -1 8 58863.7 2487.51 8
2 -1 8 63659.5 2614.66 31
2 -1 8 58962.2 2523.96 32
2 -1 8 62500.5 2627.39 17
2 -1 8 61761.3 2732.22 29
2 -1 8 65744.7 2736.05 13
2 -1 9 -47.0539 150.88 24
2 -1 9 127.968 163.481 11
2 -1 9 91.9958 167.242 31
2 -1 9 -39.9573 145.279 8
2 -1 9 -264.622 370.321 32
2 -1 9 96.0622 174.634 17
2 -1 10 12774.9 860.356 31
2 0 -5 539636 12341.3 35
2 0 -4 1644.65 201.633 35
2 0 -3 4341.95 330.765 35
2 0 -2 6075.8 395.216 35
2 0 -1 25606.2 934.097 35
2 0 0 734200 16644.9 35
2 0 1 229616 5496.46 10
2 0 1 227248 5452.73 35
2 0 2 60039.7 1678.06 35
2 0 3 143656 3843.86 10
2 0 4 511070 11987.6 10
2 0 4 518854 12087.1 31
2 0 5 2544.21 459.862 12
2 0 5 2254.21 375.882 11
2 0 5 2498.42 374.289 10
2 0 5 2899.71 427.643 31
2 0 5 2349.15 400.146 32
2 0 5 1895.52 407.281 29
2 0 5 2446.32 424.833 13
2 0 6 13747.7 1072.53 24
2 0 6 12061.2 935.746 11
2 0 6 14592.1 983.436 22
2 0 6 12028.8 916.015 10
2 0 6 11900.9 899.471 8
2 0 6 13432.6 1009.88 32
2 0 6 13396.2 1006.17 31
2 0 6 13856.5 1045.59 17
2 0 6 13347.8 1120.99 29
2 0 6 11342.6 999.478 13
2 0 6 15019.6 1172.64 12
2 0 7 47005.1 2202.07 24
2 0 7 42564.2 1974.76 11
2 0 7 45034.9 1981.63 22
2 0 7 41814.5 1942.12 10
2 0 7 41601.7 1877.47 8
2 0 7 43166.5 2051.1 32
2 0 7 43275.1 2121.07 17
2 0 7 41607 2017.79 31
2 0 7 41377.3 2142.27 13
2 0 7 45646.2 2265.92 12
2 0 8 1908.11 427.373 24
2 0 8 1488.55 341.347 11
2 0 8 1447.91 380.398 17
2 0 8 1129.95 378.011 32
2 0 8 1695.76 372.834 31
2 0 8 1388.72 376.281 13
2 0 9 47084.7 2041.23 24
2 0 9 42865 1921.5 32
2 0 9 47369.6 2084.45 17
2 0 9 43784.8 1912.42 31
2 0 10 9347.1 683.002 24
2 1 -6 86184.7 2437.23 35
2 1 -5 97486.4 2761.9 35
2 1 -4 184549 4750.35 35
2 1 -3 110416 3094.06 35
2 1 -2 4952.47 421.202 35
2 1 0 815439 18639.2 35
2 1 1 5049.73 394.152 35
2 1 2 42863.2 1388.15 35
2 1 3 393920 9121.8 35
2 1 4 68702.8 2584.3 24
2 1 4 71015.3 2395.43 11
2 1 4 71136.4 2427.9 21
2 1 4 72370.9 2477.8 31
2 1 4 70939.1 2474.04 16
2 1 4 68936.8 2634.67 29
2 1 4 67971.3 2435.74 32
2 1 4 67634.1 2660.71 12
2 1 5 68745.9 2479.48 11
2 1 5 76076.4 2591.15 22
2 1 5 70873.9 2598.55 32
2 1 5 67806.1 2547.26 31
2 1 5 66261 2754.19 29
2 1 5 70983.6 2739.11 13
2 1 5 62168.4 2445.54 21
2 1 5 66727.9 2785.64 12
2 1 6 16727.5 1103.9 11
2 1 6 17915.7 1170.37 22
2 1 6 17779.3 1218.55 32
2 1 6 18429.2 1275.71 17
2 1 6 17088 1162.75 31
2 1 6 17259.8 1309.69 29
2 1 6 15948.8 1226.31 13
2 1 6 17070 1326.31 12
2 1 7 4086.04 628.234 24
2 1 7 3321.85 498.713 11
2 1 7 4288.16 581.594 22
2 1 7 4017.43 609.203 32
2 1 7 3826.72 595.739 17
2 1 7 4710.26 626.63 31
2 1 7 4946.14 674.084 13
2 1 8 43425.6 2057.42 24
2 1 8 40871.8 2012.25 17
2 1 8 45259.3 1953.6 31
2 1 8 42680.9 2049.5 13
2 1 8 37473 1884.66 32
2 1 9 21719.4 1226.3 24
2 1 9 21587.5 1185.01 32
2 2 -6 185823 4936.32 35
2 2 -5 140727 3985.62 35
2 2 -4 145593 4113.11 35
2 2 -3 11382.9 767.986 35
2 2 -2 52150.3 1924.13 35
2 2 0 827.177 214.746 35
2 2 1 171332 4584.24 35
2 2 2 76374.5 2339.63 35
2 2 3 5828.38 591.86 21
2 2 3 7164.55 467.893 35
2 2 3 7335.16 649.848 32
2 2 3 6105.36 588.398 16
2 2 3 7492.97 665.704 31
2 2 3 6576.14 625.898 29
2 2 3 6825.96 672.97 27
2 2 4 66721.6 2659.23 24
2 2 4 70796.1 2551.62 32
2 2 4 68311 2466.43 31
2 2 4 66737.6 2535.15 16
2 2 4 67562.1 2593.81 29
2 2 4 65896.3 2521.11 21
2 2 4 66787.3 2615.11 13
2 2 4 65276.8 2689.6 12
2 2 5 16909.2 1258.04 24
2 2 5 19098.3 1213.78 22
2 2 5 17758.2 1199.31 21
2 2 5 16000.9 1145.95 32
2 2 5 16136.7 1215.35 13
2 2 5 17789.6 1312.93 12
2 2 6 3253 510.386 22
2 2 6 3625.53 603.759 32
2 2 6 3151.58 536.416 17
2 2 6 2383.59 490.452 13
2 2 7 55451.2 2332.52 22
2 2 7 53270.5 2352.02 32
2 2 7 61229 2573.64 17
2 2 7 58486.7 2481.31 13
2 2 8 62929.9 2464.18 24
2 2 8 61183.7 2448.64 17
2 2 8 56916.2 2296.59 32
2 2 9 58.4824 117.541 24
2 2 9 30.1901 109.77 17
2 3 -6 84524.2 2860.5 35
2 3 -5 217174 5983.2 35
2 3 -4 1640.75 333.387 35
2 3 0 31040.2 1512.54 35
2 3 1 33664.5 1536.86 35
2 3 2 45121.2 1738.08 35
2 3 2 44264.7 1833.26 32
2 3 2 43609.8 1803.09 16
2 3 2 40603.7 1862.46 27
2 3 3 20660.4 1237.47 32
2 3 3 20110.7 1213.42 16
2 3 3 18763.1 1264.36 27
2 3 4 42761.6 2103.93 24
2 3 4 43683.1 1974.67 32
2 3 4 40053.8 1973.26 21
2 3 4 39290.3 1930.81 13
2 3 5 920.393 320.061 24
2 3 5 876.218 289.66 22
2 3 5 734.844 285.139 21
2 3 5 660.803 254.729 13
2 3 6 43122 2138.14 24
2 3 6 40487.7 1954.48 22
2 3 6 39310.2 1971.32 32
2 3 6 43129.5 2086.33 17
2 3 6 41926.9 1963.05 13
2 3 7 67997.9 2678.97 24
2 3 7 63592 2482.64 22
2 3 7 70308.4 2686.09 17
2 3 8 2789.73 403.836 17
2 4 -7 21439.1 1249.1 35
2 4 -7 20223.2 1168.91 7
2 4 -6 333866 8820.45 35
2 4 -6 329509 8576.43 7
2 4 -6 342980 8787.45 37
2 4 -5 15089.5 1076.51 37
2 4 -5 13681.3 1063.29 35
2 4 -5 15212.9 1009.08 7
2 4 -4 52240.9 2091.27 7
2 4 -4 48891.9 2173.29 37
2 4 -3 131984 4235.61 37
2 4 -3 131967 4070.3 7
2 4 -2 216588 6011.9 7
2 4 -1 82082.7 3064.65 37
2 4 0 97095.3 3361.32 37
2 4 0 90885.2 3343.53 35
2 4 1 1620.75 359.241 35
2 4 1 1340.92 324.761 37
2 4 1 1226.38 290.19 16
2 4 1 1830.98 372.003 27
2 4 2 72112.9 2896.95 21
2 4 2 78171.8 2702.27 35
2 4 2 76291.1 2793.62 16
2 4 2 77405.9 2934.56 27
2 4 3 114274 3846.76 16
2 4 3 117671 4033.99 21
2 4 4 284.506 206.901 24
2 4 4 50.5891 137.123 22
2 4 5 11405.5 1015.21 24
2 4 5 10337.7 922.692 22
2 4 5 11283.5 985.879 17
2 4 6 62556.8 2513.71 24
2 4 6 58563 2363.91 22
2 4 6 59033.9 2417.67 17
2 4 7 11144.9 813.074 24
2 4 7 10174.7 741.923 22
2 4 7 10543 781.318 17
2 4 8 4286.61 366.674 24
2 5 -7 117017 3987.54 35
2 5 -7 123280 3832.8 7
2 5 -7 127554 4032.58 37
2 5 -6 28427 1603.49 37
2 5 -6 26772.8 1607.43 35
2 5 -6 27243.5 1466.94 7
2 5 -5 92643.8 3402.47 37
2 5 -5 92106.2 3468.23 35
2 5 -5 88019.3 3158.92 7
2 5 -4 50586 2341.2 37
2 5 -4 46504.5 2327.95 35
2 5 -4 51255.8 2200.07 7
2 5 -3 14692 1183.47 37
2 5 -2 48086.2 2332.27 37
2 5 -2 47208.5 2376.62 35
2 5 -1 37201.6 1983.25 37
2 5 -1 32117.7 1917.39 35
2 5 0 2594.49 509.535 35
2 5 0 3156.95 464.088 16
2 5 0 2929.96 531.588 37
2 5 0 3100.48 469.202 27
2 5 1 36245.6 1849.67 37
2 5 1 38460.2 1972.94 21
2 5 1 35624.5 1868.67 35
2 5 1 35483.8 1729.17 16
2 5 1 36104 1810.87 27
2 5 2 184357 5636.16 21
2 5 2 176829 5327.34 16
2 5 2 177882 5474.4 27
2 5 3 5787.26 710.336 24
2 5 3 3987.93 627.549 21
2 5 4 18962.1 1289.32 24
2 5 4 16431 1189.78 22
2 5 5 43930.1 1977.73 24
2 5 5 47021.2 2005.59 22
2 5 5 43394 1922.75 17
2 5 6 19045 1049.6 24
2 5 6 17475.6 1015.56 22
2 5 6 18792.4 999.639 17
2 6 -7 44834.2 2164.87 35
2 6 -7 50681.5 2209.12 37
2 6 -6 17965.9 1292.56 37
2 6 -6 15830 1262.16 35
2 6 -5 26096 1606.26 37
2 6 -5 19585 1481.74 35
2 6 -4 22215.6 1531.45 37
2 6 -4 18416.8 1445.48 35
2 6 -2 28764.4 1793.1 37
2 6 -2 24608.1 1742.52 35
2 6 -1 53392.7 2541.22 37
2 6 -1 54793.9 2379.83 21
2 6 -1 48496.5 2524.26 35
2 6 -1 50846.3 2092.81 16
2 6 0 42835.8 2144.27 37
2 6 0 43131 2111.57 21
2 6 0 36662.8 2067.54 35
2 6 0 41326.1 1855.34 16
2 6 1 146675 4720.69 37
2 6 1 162127 5058.72 21
2 6 1 159074 4682.91 16
2 6 1 151262 4675.5 27
2 6 2 3626.42 531.86 24
2 6 2 3454.79 578.355 21
2 6 3 23232.4 1395.34 22
2 6 3 22604.8 1276.09 17
2 6 4 23236.1 1164.97 17
2 6 5 8475.42 654.78 22
2 7 -8 30568.7 1436.07 37
2 7 -7 5717.85 664.579 37
2 7 -6 37968.7 1943.94 37
2 7 -5 8990.57 928.965 37
2 7 -4 27201.2 1710.76 37
2 7 -3 154489 4562.6 21
2 7 -2 9771.38 990.031 37
2 7 -2 9223.74 824.685 21
2 7 -1 34506.2 1895.81 37
2 7 -1 35327.8 1759.35 21
2 7 0 123644 4160.45 37
2 7 0 136907 4250.54 21
2 7 1 53160.7 2261 21
2 7 2 8878.56 781.602 22
2 7 3 11083 786.455 22
2 7 4 4160.48 400.474 22
2 8 -8 869.619 200.313 37
2 8 -7 25729.7 1299.9 37
2 8 -6 584.072 242.827 37
2 8 -5 11865.3 966.183 37
2 8 -4 59567.1 2494.33 37
2 8 -3 3674.99 553.473 37
2 8 -2 10434.7 898.179 37
2 8 1 11018.8 748.148 22
2 8 2 13688.9 736.257 22
2 9 -7 11753.7 628.773 37
2 9 -6 3585.45 397.903 37
2 9 -5 53876.2 1939.27 37
2 9 -3 15868.8 897.272 37
2 9 -1 9043.96 519.074 22
3 -10 0 53540.7 2331.95 4
3 -10 1 16252.5 1204.89 4
3 -10 2 155.236 208.022 4
3 -10 3 18287.9 1241.7 4
3 -10 4 8149.77 669.975 18
3 -10 5 26338.5 1283.61 18
3 -10 6 25793 1227.21 18
3 -10 7 6210.43 544.317 33
3 -10 7 5587.97 490.958 18
3 -10 8 3172.91 312.607 18
3 -10 8 3070.59 315.345 33
3 -9 -6 8752.81 641.266 3
3 -9 -5 1829.3 370.881 3
3 -9 -1 40339.7 2081.67 4
3 -9 0 9402.34 984.563 4
3 -9 1 13396.1 1195.77 4
3 -9 1 12580.5 1186.34 25
3 -9 3 31532.2 1818.81 4
3 -9 4 27558.3 1608.44 4
3 -9 5 52064.9 2028.89 34
3 -9 6 25845.9 1304.91 34
3 -9 6 25424.8 1410.23 18
3 -9 7 358.626 199.246 33
3 -9 7 298.799 181.206 18
3 -9 8 26859.6 1253.03 33
3 -9 8 26822.4 1249.18 18
3 -8 -7 11388 783.126 3
3 -8 -6 363.025 226.895 3
3 -8 -2 41200.1 2071.11 4
3 -8 -2 41732.7 2094.51 25
3 -8 -1 22171.2 1526.02 4
3 -8 -1 23045.1 1562.29 25
3 -8 0 10428.2 1029.62 4
3 -8 0 9312.5 979.479 25
3 -8 1 54362.5 2601.01 4
3 -8 1 55121 2606 25
3 -8 2 29278.1 1789.5 25
3 -8 3 1532.05 429.204 4
3 -8 3 897.118 325.109 25
3 -8 4 46700.3 2192.74 4
3 -8 4 41072.6 1958.33 34
3 -8 4 44438.9 2156.72 25
3 -8 5 28570.4 1569.27 4
3 -8 5 28111 1578.74 34
3 -8 5 26620.6 1516.24 25
3 -8 6 146.211 177.239 34
3 -8 6 204.571 214.746 18
3 -8 7 29572.2 1559.44 34
3 -8 7 26432.7 1523.43 33
3 -8 7 27274.2 1521.61 18
3 -8 8 2533.55 362.571 11
3 -8 8 3026.02 443.076 33
3 -8 9 1880.28 266.967 11
3 -8 9 1957.52 317.113 18
3 -7 -8 7578.93 617.803 3
3 -7 -7 44.9435 163.41 3
3 -7 -3 7352.25 755.821 4
3 -7 -3 8328.8 793.441 25
3 -7 -2 33840.3 1795.41 4
3 -7 -2 34405.4 1818.47 25
3 -7 -1 54390.3 2426.25 4
3 -7 -1 54012.3 2401.3 25
3 -7 0 114985 4035.6 4
3 -7 0 117217 3977.39 25
3 -7 1 35553.4 1919.01 4
3 -7 1 37980.1 1947.15 25
3 -7 2 10401.3 985.643 4
3 -7 2 11624.3 873.485 29
3 -7 2 12725.2 1061.87 25
3 -7 3 151486 4897.72 4
3 -7 3 157833 4935.14 25
3 -7 4 98057.9 3380.38 4
3 -7 4 85292.6 2945.26 30
3 -7 4 82435.3 2904.77 28
3 -7 4 102289 3432.61 25
3 -7 5 55109.5 2398.37 34
3 -7 5 54495.7 2259.69 8
3 -7 5 48500.9 2085.06 30
3 -7 5 45772.2 2006.96 28
3 -7 5 54136 2193.64 25
3 -7 6 93330.7 3202.47 9
3 -7 6 94235.2 3450.59 34
3 -7 6 94444.3 3305.7 8
3 -7 6 97795.2 3467.25 18
3 -7 6 88040.6 3140.28 30
3 -7 7 87475.5 3272.33 34
3 -7 7 85662.5 3136.55 8
3 -7 7 84203.7 3211.21 18
3 -7 7 84682.8 3054.87 30
3 -7 7 87578.5 3205.33 33
3 -7 8 13723.2 1061.97 34
3 -7 8 14922.2 1046.91 8
3 -7 8 16114.5 1069.79 33
3 -7 8 13985.4 1041.48 18
3 -7 9 12161.2 822.678 11
3 -7 9 12306.6 844.272 18
3 -7 9 10108.8 746.25 31
3 -7 10 6054.17 470.914 11
3 -6 -8 1184.94 294.128 3
3 -6 -7 11271.4 992.837 3
3 -6 -4 11439.8 827.926 25
3 -6 -3 185783 5332.94 4
3 -6 -3 189770 5342.6 25
3 -6 -2 35552 1736.28 4
3 -6 -2 40529.5 1818.05 25
3 -6 -1 199583 5819.98 4
3 -6 -1 212694 5887.99 25
3 -6 0 47333.4 2103.11 4
3 -6 0 49355 2116.88 25
3 -6 2 117313 3800.25 4
3 -6 2 116917 3563.79 29
3 -6 2 125779 3862.36 25
3 -6 3 41684.2 1908.42 4
3 -6 3 38209.7 1705.65 8
3 -6 3 38018.4 1737.94 29
3 -6 3 35843.8 1523.31 28
3 -6 3 40883.1 1893.64 25
3 -6 4 42.3974 125.907 4
3 -6 4 262.311 205.235 8
3 -6 4 220.764 154.508 30
3 -6 4 332.848 207.931 29
3 -6 4 105.46 112.768 28
3 -6 4 165.829 158.92 25
3 -6 5 83688.1 2955.42 9
3 -6 5 85143.2 3094.45 8
3 -6 5 79304.9 2881.22 30
3 -6 5 83046.3 2968.45 29
3 -6 5 83608.1 2779.96 25
3 -6 6 49107 2147.35 9
3 -6 6 45708.1 2213.01 34
3 -6 6 43262.5 2087.55 33
3 -6 6 45884.4 2176.12 8
3 -6 6 46972.4 2210.4 18
3 -6 6 41396 1987.29 30
3 -6 6 44073.4 2012.18 29
3 -6 6 38361.1 1925.88 28
3 -6 7 148618 4720.33 34
3 -6 7 136489 4551.6 8
3 -6 7 144664 4502.45 33
3 -6 7 139030 4551.4 18
3 -6 7 139405 4447.97 30
3 -6 7 140988 4371.21 29
3 -6 7 131761 4383.26 28
3 -6 7 127530 4351.76 10
3 -6 8 54064.3 2356.1 8
3 -6 8 51400.6 2173.19 33
3 -6 8 50219.7 2227.05 18
3 -6 8 50479.7 2095.02 29
3 -6 9 6025.18 630.725 11
3 -6 9 6815.74 701.59 8
3 -6 9 5840.35 603.753 18
3 -6 9 6577.73 580.67 29
3 -6 9 6663.47 653.592 31
3 -6 10 27.7573 125.881 11
3 -6 10 107.235 112.562 31
3 -6 11 13517 606.726 11
3 -5 -10 13712.3 775.136 6
3 -5 -9 993.465 254.775 3
3 -5 -8 6403.63 710.297 3
3 -5 -7 21942.5 1430.94 3
3 -5 -4 59779 2098.71 25
3 -5 -3 833.556 222.117 25
3 -5 -2 418740 10325.3 25
3 -5 -1 219393 5896.32 25
3 -5 0 3760.72 468.316 25
3 -5 1 118562 2990.43 10
3 -5 1 113610 2992.48 28
3 -5 2 123594 3487.49 28
3 -5 2 150367 4093.34 25
3 -5 3 41688.1 1798.09 29
3 -5 3 39365.5 1569.74 28
3 -5 3 44793.5 1799.22 25
3 -5 4 10207.2 800.773 9
3 -5 4 11405.1 913.219 8
3 -5 4 10333.7 791.727 30
3 -5 4 11048 887.13 29
3 -5 4 10203.9 761.907 28
3 -5 4 9968.68 744.691 25
3 -5 5 42465 1778.48 12
3 -5 5 46116.2 2129.86 8
3 -5 5 42998.5 2055.87 18
3 -5 5 45118.5 2009.94 9
3 -5 5 44181.1 1954.46 30
3 -5 5 45244.1 2039.63 29
3 -5 5 46832.8 1975.16 28
3 -5 6 1072.75 269.069 12
3 -5 6 704.535 254.655 33
3 -5 6 310.425 234.704 18
3 -5 6 553.913 292.691 8
3 -5 6 290.525 194.741 30
3 -5 6 296.333 207.452 29
3 -5 6 286.994 183.434 28
3 -5 6 38.6116 114.811 13
3 -5 7 95510.5 3448.85 10
3 -5 7 96104.8 3555.1 34
3 -5 7 92509.9 3540.41 8
3 -5 7 97229.4 3483.36 18
3 -5 7 95815.8 3329.25 33
3 -5 7 99219.9 3464.19 29
3 -5 7 89930.2 3371.91 28
3 -5 7 89754.4 3159.66 13
3 -5 7 88929.1 3075.12 12
3 -5 8 9215.34 903.558 34
3 -5 8 9918.33 964.519 8
3 -5 8 9285.66 864.128 18
3 -5 8 10713.4 937.899 31
3 -5 8 10282.8 900.831 29
3 -5 9 438.871 232.168 11
3 -5 9 554.015 274.386 8
3 -5 9 1114.44 298.669 31
3 -5 9 381.441 207.103 29
3 -5 10 15696.1 939.407 11
3 -5 10 15835.3 934.686 31
3 -5 11 5787.15 404.84 11
3 -4 -10 66.8866 114.65 6
3 -4 -9 621.612 235.824 3
3 -4 -8 12973.3 1029.77 3
3 -4 -7 3404.08 538.951 3
3 -4 -4 18678.2 920.995 25
3 -4 -3 422107 10079.9 25
3 -4 -2 288629 7178.09 25
3 -4 -1 102.675 116.422 25
3 -4 0 66210.6 1734.3 10
3 -4 0 66430.6 1674.93 28
3 -4 0 69594.9 2231.53 25
3 -4 1 460494 10722.2 10
3 -4 1 462945 10662.1 28
3 -4 1 477189 11169.6 25
3 -4 2 23296.2 965.683 28
3 -4 2 23887.1 1127.86 25
3 -4 3 96586.5 2974.82 28
3 -4 3 106810 3052.29 25
3 -4 4 44619.4 1970.6 8
3 -4 4 43879.5 1907.63 18
3 -4 4 45869 1834.55 30
3 -4 4 44700.7 1967.61 29
3 -4 4 44589.2 1801.08 28
3 -4 4 47242.7 1670.33 25
3 -4 5 1059.98 272.733 12
3 -4 5 977.408 260.889 33
3 -4 5 1171.38 340.844 8
3 -4 5 1906.94 370.158 30
3 -4 5 1175.4 323.43 29
3 -4 5 1278.59 326.115 18
3 -4 5 1017.2 284.524 28
3 -4 5 1465.83 313.419 13
3 -4 6 191814 5488.07 10
3 -4 6 183005 5292.16 33
3 -4 6 181364 5481.32 18
3 -4 6 184101 5675.34 8
3 -4 6 191212 5629.96 29
3 -4 6 177994 5403.59 28
3 -4 6 178983 5348.2 13
3 -4 6 177121 5298.07 12
3 -4 7 32325.5 1805.12 34
3 -4 7 32683.1 1751.67 18
3 -4 7 32684.4 1792.76 10
3 -4 7 31761.9 1756.34 31
3 -4 7 33048.3 1817.07 29
3 -4 7 33398.9 1750.87 13
3 -4 7 31478.5 1651.65 12
3 -4 8 -86.9336 158.039 12
3 -4 8 -53.3244 204.366 11
3 -4 8 249.286 226.087 34
3 -4 8 52.3669 155.459 31
3 -4 8 103.467 188.095 29
3 -4 8 432.641 217.988 13
3 -4 9 15761.4 1117.71 11
3 -4 9 16363.8 1143.31 8
3 -4 9 14832.9 1055.9 29
3 -4 10 22712.6 1173.31 8
3 -4 11 526.291 141.09 11
3 -4 11 361.336 190.165 31
3 -3 -10 511.368 218.756 6
3 -3 -8 4761.35 616.041 3
3 -3 -7 214554 6077.28 3
3 -3 -6 39359.1 1779.14 3
3 -3 -5 6386.81 459.151 25
3 -3 -4 85326.6 2474.49 25
3 -3 -3 205694 5169.13 25
3 -3 -2 13686.2 710.961 25
3 -3 -1 53666.6 1742.08 25
3 -3 0 217813 5151.58 10
3 -3 1 429060 9946.63 10
3 -3 1 430429 9885.75 28
3 -3 1 424325 10151.6 25
3 -3 2 556961 12530.6 10
3 -3 2 516267 12469.3 28
3 -3 2 542112 12552.1 25
3 -3 3 9859.18 671.571 10
3 -3 3 9670.81 609.694 25
3 -3 4 701.382 202.767 10
3 -3 4 634.322 235.186 29
3 -3 4 871.237 228.366 28
3 -3 4 393.975 126.932 25
3 -3 5 156842 4897.99 24
3 -3 5 156211 4779.25 12
3 -3 5 164923 4832.28 18
3 -3 5 158931 4961.52 8
3 -3 5 162079 4564.88 17
3 -3 5 166396 4843.44 10
3 -3 5 166398 5031.47 29
3 -3 5 168861 4777.56 28
3 -3 5 162617 4786.79 13
3 -3 6 139654 4567.79 24
3 -3 6 143218 4572.76 34
3 -3 6 139086 4466.16 18
3 -3 6 138321 4649.72 8
3 -3 6 135212 4190.98 32
3 -3 6 142478 4315.53 17
3 -3 6 147077 4571.12 31
3 -3 6 148332 4560.28 10
3 -3 6 151316 4767.2 29
3 -3 6 145456 4554.76 13
3 -3 6 144039 4532.06 12
3 -3 7 8981.48 894.142 11
3 -3 7 8986.89 879.754 10
3 -3 7 9103.25 878.065 34
3 -3 7 7908.5 883.916 8
3 -3 7 9367.18 806.458 32
3 -3 7 9879.48 845.278 17
3 -3 7 8536.2 897.532 29
3 -3 7 9390.43 914.909 13
3 -3 7 8669.53 867.17 12
3 -3 7 7909.07 849.284 24
3 -3 8 13392.9 1005.94 34
3 -3 8 12873.5 1090.09 8
3 -3 8 11556.8 923.427 17
3 -3 8 14342.7 1141.29 29
3 -3 8 12540.5 1051.42 13
3 -3 8 12321.3 1009.68 12
3 -3 9 25438.9 1428.87 8
3 -3 9 24569.2 1411.26 31
3 -3 9 27226.6 1484.82 29
3 -3 10 1484.24 291.514 11
3 -3 10 1196.87 256.647 31
3 -2 -10 11123.4 887.538 6
3 -2 -8 252051 6894.02 3
3 -2 -7 88877.8 3052.3 3
3 -2 -4 470478 10997.2 25
3 -2 -3 18789.2 825.991 25
3 -2 -2 77742.5 2240.29 25
3 -2 -1 8390.71 513.751 25
3 -2 0 64481.5 1760.59 10
3 -2 0 59276.8 1876.23 25
3 -2 1 405885 9352.82 10
3 -2 1 392270 9434.89 25
3 -2 2 151421 3945.17 10
3 -2 2 146802 3887.64 25
3 -2 3 7399.59 575.701 10
3 -2 4 35854.2 1696.94 24
3 -2 4 36756.7 1618.62 11
3 -2 4 38167.2 1613.81 10
3 -2 4 37492.5 1612.65 31
3 -2 4 35214 1575.1 14
3 -2 5 160515 5007.23 12
3 -2 5 170216 4952.58 11
3 -2 5 167963 4924.21 10
3 -2 5 165356 4984.37 8
3 -2 5 161617 4654.45 32
3 -2 5 162638 4898.46 31
3 -2 5 170879 4820.83 17
3 -2 5 171715 5208.05 29
3 -2 5 167188 4975.99 13
3 -2 6 2710.42 498.245 12
3 -2 6 2648.69 468.239 34
3 -2 6 3604.46 574.789 8
3 -2 6 3264.92 475.432 32
3 -2 6 2857.04 463.483 17
3 -2 6 2955.19 552.864 29
3 -2 6 3028.2 525.046 13
3 -2 7 15386.6 1191.58 24
3 -2 7 16221.7 1188.45 10
3 -2 7 17546.8 1155 34
3 -2 7 16053.6 1207.37 8
3 -2 7 17943.2 1219.23 17
3 -2 7 16169.3 1201.18 31
3 -2 7 13419.9 1022.2 32
3 -2 7 17644 1328.65 29
3 -2 7 15834.8 1218.48 12
3 -2 8 18158.9 1275.41 11
3 -2 8 19356.2 1277.83 8
3 -2 8 21880.8 1339.36 17
3 -2 8 19987.9 1327.48 31
3 -2 8 20770.7 1402.7 29
3 -2 8 20577.8 1354.75 24
3 -2 9 1672.4 349.889 11
3 -2 9 1623.84 340.452 31
3 -2 10 36037.7 1454.89 31
3 -1 -10 3364.27 500.572 6
3 -1 -9 18958.8 1257.03 6
3 -1 -7 2090.03 383.912 3
3 -1 -4 99.611 93.5375 35
3 -1 -3 309191 7732.17 35
3 -1 -3 333182 7714.2 25
3 -1 -2 37480.3 1344.79 35
3 -1 -2 39333.8 1345.72 25
3 -1 0 642428 14569.9 35
3 -1 0 622296 14580.5 25
3 -1 1 612317 14191.3 10
3 -1 1 618802 14171.7 35
3 -1 2 266.678 126.465 10
3 -1 3 62634.7 2136.08 10
3 -1 4 234694 6486.48 24
3 -1 4 238170 6118.63 32
3 -1 4 226064 6602.65 29
3 -1 4 237190 6350.8 14
3 -1 5 -51.1249 163.932 12
3 -1 5 48.8765 145.097 24
3 -1 5 -42.7495 126.908 11
3 -1 5 40.6611 120.709 8
3 -1 5 72.9052 108.215 32
3 -1 5 -41.4403 112.303 10
3 -1 5 220.039 210.825 29
3 -1 5 46.8897 160.733 13
3 -1 6 44538.1 2086.05 11
3 -1 6 46694.8 2084.37 10
3 -1 6 39848.8 1942.51 8
3 -1 6 42121.1 1940.05 32
3 -1 6 48238.4 2142.29 17
3 -1 6 44900.9 2100.11 31
3 -1 6 45505.6 2260.39 29
3 -1 6 47074.5 2217.57 13
3 -1 6 47051.6 2263.01 12
3 -1 7 23286.4 1509.86 24
3 -1 7 25030.8 1485 11
3 -1 7 22840 1372.76 32
3 -1 7 24341.6 1484.8 17
3 -1 7 23360 1468.52 31
3 -1 7 23652.2 1376.19 8
3 -1 7 24010.8 1558.16 13
3 -1 7 24316.6 1570.65 12
3 -1 8 49.7976 190.925 24
3 -1 8 224.269 188.386 11
3 -1 8 284.881 190.925 17
3 -1 8 427.785 244.459 31
3 -1 8 312.71 209.561 13
3 -1 9 43155 1824.81 17
3 -1 9 43701.6 1820.2 31
3 0 -9 95653.5 3348.12 6
3 0 -8 6414.6 694.856 6
3 0 -7 21356.8 1256.16 6
3 0 -6 66648.4 2103.86 35
3 0 -5 10185.1 654.721 35
3 0 -4 204745 5291.22 35
3 0 -3 185156 4828.05 35
3 0 -2 693.478 170.001 35
3 0 0 612092 14206.3 35
3 0 1 84789.1 2474.4 35
3 0 2 110363 3017.95 35
3 0 3 133433 4167.09 29
3 0 3 133639 3942.25 14
3 0 4 322.611 193.51 24
3 0 4 336.364 192.192 11
3 0 4 59.8406 88.8705 22
3 0 4 32.0161 77.6581 21
3 0 4 239.668 181.16 19
3 0 4 306.118 278.264 31
3 0 4 75.0801 120.408 16
3 0 4 344.234 223.018 29
3 0 4 82.2073 140.929 14
3 0 5 61555.1 2611.7 24
3 0 5 54940.5 2352.12 11
3 0 5 61458.2 2251.6 22
3 0 5 57956.2 2202.5 8
3 0 5 61453.1 2384.6 32
3 0 5 61970 2472.36 31
3 0 5 64947.8 2711.64 29
3 0 5 61417.2 2285.88 21
3 0 5 65753.6 2640.04 13
3 0 5 60795.7 2675.85 12
3 0 6 18979.2 1361.85 24
3 0 6 20547.5 1296.58 11
3 0 6 20264.7 1170.47 22
3 0 6 18970.2 1248.14 32
3 0 6 20942 1371.19 17
3 0 6 19764.6 1317.99 31
3 0 6 19045.9 1407.43 29
3 0 6 20073.2 1397.51 13
3 0 6 19532.8 1431.04 12
3 0 7 11257.7 945.535 11
3 0 7 11458 947.724 32
3 0 7 12665.3 1048.68 17
3 0 7 11969.7 1012.12 31
3 0 7 12769.3 1096.37 29
3 0 7 12322.8 1087.32 13
3 0 7 12472.9 1093.89 12
3 0 8 63372.5 2551.83 17
3 0 8 68418.4 2543.05 31
3 0 8 66483.1 2626.81 13
3 0 9 11699.3 797.398 17
3 0 9 10954 784.166 24
3 1 -9 38656.6 1836.19 6
3 1 -8 28105.2 1526.82 6
3 1 -7 21968.5 1286.2 6
3 1 -6 6644.46 573.349 35
3 1 -5 147127 4166.53 35
3 1 -4 310957 7856.97 35
3 1 -3 13491.5 851.757 35
3 1 -2 282864 7228.56 35
3 1 -1 360759 8886.54 35
3 1 0 5884.53 510.423 35
3 1 1 54207.8 1868.91 35
3 1 2 49567.1 1829.12 32
3 1 2 49117 1885.15 31
3 1 2 50930 1732.31 35
3 1 3 8219.22 801.165 12
3 1 3 8540.35 797.374 24
3 1 3 7860.61 683.741 21
3 1 3 7259.32 755.482 19
3 1 3 7624.03 674.959 32
3 1 3 8842.9 758.935 31
3 1 3 6831.49 692.309 29
3 1 3 7528.31 705.377 14
3 1 4 177934 5537.74 24
3 1 4 194043 5240.69 22
3 1 4 181738 5250.5 32
3 1 4 191627 5348.3 31
3 1 4 182066 5490.47 29
3 1 4 176255 5407.79 14
3 1 4 182948 5654.13 12
3 1 4 184388 5272.94 21
3 1 5 65626.4 2821.77 24
3 1 5 68983.9 2542.09 22
3 1 5 63700.5 2534.81 21
3 1 5 66171.3 2611.25 32
3 1 5 70364.9 2690.08 31
3 1 5 67305.4 2797.42 29
3 1 5 68243 2823.2 13
3 1 5 69520.7 2937.15 12
3 1 6 472.522 258.694 12
3 1 6 514.65 268.981 24
3 1 6 688.031 250.722 22
3 1 6 883.742 394.985 32
3 1 6 906.687 322.607 13
3 1 7 30916.5 1703.49 24
3 1 7 29868.1 1562.59 32
3 1 7 31989.1 1717.19 13
3 2 -9 43773.5 1953.42 6
3 2 -8 24372.7 1397.19 6
3 2 -7 1927.93 332.588 35
3 2 -7 1458.43 330.901 6
3 2 -6 172542 4929.14 35
3 2 -6 179025 5071.39 6
3 2 -6 167411 4931.48 37
3 2 -5 456467 11289.6 35
3 2 -4 512.692 191.52 35
3 2 -3 24108.8 1318.86 35
3 2 -1 26037.9 1352.76 35
3 2 0 4734.21 526.067 35
3 2 1 18806.5 1045.14 35
3 2 1 17660.5 1039.08 37
3 2 2 11690.3 929.015 24
3 2 2 13441.1 813.829 35
3 2 2 12134.6 1051.43 19
3 2 2 13692.8 927.462 16
3 2 2 12072.6 880.917 14
3 2 2 13336.4 973.45 12
3 2 3 205186 6101.48 24
3 2 3 215700 5886.7 32
3 2 3 217521 5971.26 16
3 2 3 205834 5771.63 29
3 2 3 203972 5939.91 14
3 2 3 208251 5948.29 21
3 2 3 210637 6106.95 12
3 2 4 69734 2900.56 24
3 2 4 71788.8 2658.4 22
3 2 4 68645 2709.59 21
3 2 4 69159.6 2683.12 32
3 2 4 66996.7 2717.78 16
3 2 4 68947.9 2812.61 13
3 2 4 72540 2917.34 12
3 2 5 115.515 156.538 24
3 2 5 261.755 167.211 22
3 2 5 47.78 153.223 21
3 2 5 -54.4436 147.558 13
3 2 6 24543.1 1533.84 24
3 2 6 25563.8 1376.15 22
3 2 6 25778.2 1533.77 17
3 2 6 25270 1508.09 13
3 2 7 76730 2819.05 24
3 2 7 76102.6 2812.79 17
3 2 7 78850.4 2721.44 13
3 2 8 1445.93 270.794 24
3 2 8 927.442 236.995 17
3 3 -7 46632.2 2014.46 37
3 3 -7 44732.8 1966.97 35
3 3 -6 165875 5077.64 37
3 3 -6 164138 5063.66 35
3 3 -6 178240 4935.82 2
3 3 -5 38916.9 1919.59 37
3 3 -5 40737.8 1966.04 35
3 3 -5 43533.8 1851.56 2
3 3 -4 53796.2 2322.24 37
3 3 -4 53688 2354.88 35
3 3 -4 54957.7 2217.66 7
3 3 -4 54419.4 2194 2
3 3 -3 181820 5622.77 37
3 3 -3 178714 5651.88 35
3 3 -3 196918 5520.14 7
3 3 -2 13553 1058.66 37
3 3 -1 142518 4465.83 37
3 3 -1 139576 4475.62 35
3 3 -1 142086 4413.66 19
3 3 -1 137881 4256.26 7
3 3 0 50746.4 2195.13 35
3 3 0 53098.3 2354.59 19
3 3 0 52353.4 2226.22 37
3 3 1 -41.283 100.068 24
3 3 1 163.986 140.533 37
3 3 1 -57.2962 138.881 19
3 3 1 280.892 168.468 35
3 3 1 79.5958 107.854 16
3 3 2 63984.9 2613.38 24
3 3 2 66056.1 2559.42 16
3 3 2 63681.1 2466.45 14
3 3 3 136988 4536.35 24
3 3 3 135983 4471.2 21
3 3 3 139306 4435.35 16
3 3 3 136257 4378.55 13
3 3 4 4052.47 624.212 24
3 3 4 3888.46 559.815 22
3 3 4 4340.87 601.593 13
3 3 4 4049.81 590.432 21
3 3 5 22584.1 1445.95 24
3 3 5 21795.6 1292.96 22
3 3 5 21499.8 1301.26 13
3 3 6 46797.9 2030.12 24
3 3 6 41915.2 1793.46 22
3 3 6 46823.6 2023.36 17
3 3 7 523.634 186.664 24
3 3 7 155.513 136.054 17
3 4 -9 283.046 160.562 7
3 4 -8 50582.5 2117.38 7
3 4 -7 118061 3968.13 37
3 4 -7 118724 3987.72 35
3 4 -7 120520 3894.01 7
3 4 -6 4070.57 598.635 37
3 4 -6 4141.1 620.069 35
3 4 -6 5035.94 620.51 7
3 4 -5 51890.4 2406.76 37
3 4 -5 53566.7 2464.4 35
3 4 -5 52919.9 2264.28 7
3 4 -4 23867.5 1547.22 37
3 4 -4 24916.5 1596.49 35
3 4 -4 22582.9 1396.95 7
3 4 -3 18636.6 1379.79 37
3 4 -3 18531.1 1394.36 35
3 4 -3 20375.5 1311.31 7
3 4 -2 89488.5 3441.92 37
3 4 -2 87444.4 3456.46 35
3 4 -1 110191 3974.08 37
3 4 -1 113335 4041.91 35
3 4 0 425.972 241.564 37
3 4 0 269.587 184.964 35
3 4 1 52316 2264.13 24
3 4 1 60059.8 2410.56 37
3 4 1 59675.8 2557.94 21
3 4 1 54375.1 2311.27 35
3 4 1 58893.1 2390.97 16
3 4 2 161432 5080.18 24
3 4 2 172212 5312.75 21
3 4 2 168685 5124.5 16
3 4 3 11501.8 997.731 24
3 4 3 11108.3 977.29 16
3 4 4 1872.11 402.894 24
3 4 4 3057.58 483.719 22
3 4 4 3308.52 542.992 21
3 4 5 25115.8 1343.06 24
3 4 5 24274.7 1282.89 22
3 4 5 23646 1344.48 17
3 4 6 13023.4 826.725 17
3 5 -8 25533.8 1424.8 37
3 5 -8 27861.4 1423.05 7
3 5 -7 17979.9 1295.33 35
3 5 -7 18853.9 1226.22 7
3 5 -6 6606.74 798.643 37
3 5 -6 7298.85 855.501 35
3 5 -6 6458.93 733.691 7
3 5 -5 1959.23 470.671 37
3 5 -5 1481.71 407.282 35
3 5 -5 1537.79 389.622 7
3 5 -4 71076.8 3105.84 37
3 5 -4 73988.6 3194.22 35
3 5 -2 199789 6192.73 37
3 5 -2 189353 6190.08 35
3 5 -1 10553.5 1047.55 37
3 5 -1 9597.24 1012.02 35
3 5 0 54637.1 2534.06 35
3 5 0 57434.9 2404.11 16
3 5 0 61151.9 2632.62 37
3 5 1 118842 4094.4 21
3 5 1 110292 3781.03 16
3 5 2 13716.8 1035.57 16
3 5 2 12241.8 1073.31 21
3 5 3 15011.9 1052.31 22
3 5 3 12530.9 1033.14 21
3 5 4 28849.2 1406.63 22
3 5 4 28387.7 1398.75 17
3 5 5 4589.48 436.609 22
3 5 5 4938.4 446.432 17
3 6 -8 25529.2 1365.71 37
3 6 -7 26871.3 1547.85 37
3 6 -6 87746.6 3357.06 37
3 6 -5 4772.24 703.51 37
3 6 -4 38226.1 2111.94 37
3 6 -4 36456.2 2105.46 35
3 6 -3 196868 6287.98 35
3 6 -2 13276.1 1186.7 37
3 6 -2 14988.8 1025.91 16
3 6 -1 23209.8 1528.35 37
3 6 -1 26231.8 1547.85 21
3 6 -1 22628 1304.95 16
3 6 0 42569.3 1883.42 16
3 6 0 44325.1 2104.97 21
3 6 1 21182 1347.79 21
3 6 2 17788.9 1159.38 21
3 6 3 5305.28 527.737 22
3 6 3 4973.48 453.517 17
3 6 4 537.854 141.273 22
3 7 -8 8349.99 655.991 37
3 7 -7 31350.6 1541.57 37
3 7 -6 4424.45 591.964 37
3 7 -5 12829.7 1058.62 37
3 7 -4 75792 2989.58 37
3 7 -4 73319.1 2499.16 21
3 7 -3 24342 1516.5 37
3 7 -3 26082.5 1314.05 21
3 7 -2 42669.6 2033.2 37
3 7 -2 46291.9 1903.72 21
3 7 -1 34405.3 1597.19 21
3 7 0 13493.6 912.388 21
3 7 1 11128.7 774.352 22
3 8 -7 907.092 208.945 37
3 8 -6 22899.9 1155.03 37
3 8 -5 33480.4 1506.9 37
3 8 -3 4597.18 498.306 37
3 8 0 5410.39 402.126 22
4 -11 5 12357.5 721.936 33
4 -10 -4 25406.3 1299.72 3
4 -10 -3 3088.37 478.325 3
4 -10 -2 952.603 302.191 3
4 -10 4 12553.7 833.335 18
4 -10 5 22799.8 1150.16 18
4 -10 6 4196.46 464.733 33
4 -10 6 4178.6 439.266 18
4 -10 7 269.902 123.412 18
4 -9 -7 6400.04 468.26 3
4 -9 -6 388.591 191.661 3
4 -9 -5 27277.6 1532.97 3
4 -9 0 19705.3 1469.47 25
4 -9 1 20561.6 1511.29 25
4 -9 3 15372.8 1071.53 18
4 -9 4 46089 2081.29 18
4 -9 4 48666.5 2048.06 34
4 -9 5 1939.13 379.289 34
4 -9 5 1419.07 354.332 18
4 -9 6 75.5787 129.57 34
4 -9 6 275.228 196.494 33
4 -9 6 120.632 161.655 18
4 -9 7 15554.8 940.478 34
4 -9 7 16895.1 992.447 18
4 -9 8 1926.09 289.033 18
4 -8 -8 1491.3 245.129 3
4 -8 -7 894.821 275.643 3
4 -8 -6 12159.2 1036.66 3
4 -8 -3 23356 1450.49 25
4 -8 -2 21972.1 1463.9 25
4 -8 -1 44851.8 2279.28 4
4 -8 -1 44097.6 2250.64 25
4 -8 0 85341.2 3440.84 4
4 -8 0 84004.3 3409.99 25
4 -8 1 73137.4 2787.51 29
4 -8 2 44373.1 2260.32 4
4 -8 2 38801.1 1869.18 18
4 -8 2 40791.8 1938.2 29
4 -8 2 44832.9 2249.97 25
4 -8 3 135375 4351.45 18
4 -8 3 129266 4197.45 29
4 -8 3 135206 4507.75 25
4 -8 4 59831.3 2538.15 18
4 -8 4 56427.8 2320.61 29
4 -8 4 56290.5 2438.54 25
4 -8 5 5234.2 688.501 18
4 -8 5 4213.21 544.924 29
4 -8 5 4448.26 640.016 34
4 -8 6 21553.6 1365.33 34
4 -8 6 18664.9 1217.75 33
4 -8 6 17917.2 1259.98 18
4 -8 7 7723.43 747.482 34
4 -8 7 6486.08 678.293 18
4 -8 8 13366.1 738.802 11
4 -8 8 16156.7 970.788 34
4 -7 -8 4406.64 537.261 3
4 -7 -7 3029.3 521.192 3
4 -7 -6 42870.9 2220.56 3
4 -7 -4 35517.3 1714.34 25
4 -7 -3 20876.4 1323.27 25
4 -7 -2 2778.23 486.858 25
4 -7 -1 109589 3883.39 4
4 -7 -1 109084 3851.61 25
4 -7 0 15398.2 1214.37 4
4 -7 0 16679.9 1252.69 25
4 -7 1 4775.96 608.016 29
4 -7 2 202593 5990.38 4
4 -7 2 185074 5570.34 18
4 -7 2 202082 5745.91 29
4 -7 2 194149 5900.42 25
4 -7 3 38780.4 1941.91 18
4 -7 3 40064.5 1938.85 29
4 -7 3 40229.3 1993.42 25
4 -7 4 193614 5852.08 18
4 -7 4 195835 5733.77 29
4 -7 4 188777 5633.26 25
4 -7 5 56822.9 2550.46 18
4 -7 5 55758.8 2405.88 29
4 -7 6 12098.5 937.184 11
4 -7 6 13173.3 1112.78 34
4 -7 6 12883.3 993.049 33
4 -7 6 15115.3 1173.58 18
4 -7 6 10553.5 860.77 31
4 -7 6 11642.3 957.184 29
4 -7 7 11969.6 902.663 11
4 -7 7 10536.1 961.736 34
4 -7 7 11971.7 985.663 18
4 -7 7 11241.2 873.779 29
4 -7 8 34946 1541.78 11
4 -7 8 35369.9 1684.27 34
4 -7 8 36132.5 1653.18 18
4 -7 8 33657.1 1448.49 29
4 -7 9 11323.5 682.657 11
4 -6 -10 3684.81 367.931 6
4 -6 -9 680.861 226.224 3
4 -6 -8 7333.02 771.789 3
4 -6 -7 24127.4 1559.62 3
4 -6 -6 17608.4 1354.33 3
4 -6 -4 52083.9 2095.2 25
4 -6 -3 619.269 224.178 25
4 -6 -2 207029 5874.83 25
4 -6 -1 56908.4 2351.25 25
4 -6 0 1459.96 366.943 4
4 -6 0 1517.25 366.865 25
4 -6 1 18511 1080.92 18
4 -6 1 19437.2 1253.65 25
4 -6 2 34644 1660.34 18
4 -6 2 32834.8 1688.58 29
4 -6 2 35258.7 1758.55 25
4 -6 3 10044.7 733.289 10
4 -6 3 9358.24 873.498 18
4 -6 3 12170.4 986.344 29
4 -6 3 9135.07 686.632 28
4 -6 3 10229.3 878.799 25
4 -6 4 54397.9 2149.39 10
4 -6 4 56400.6 2425.12 8
4 -6 4 51810.8 2365.1 18
4 -6 4 54171.9 2366.08 29
4 -6 4 46407 2005.84 28
4 -6 4 56072.9 2202.63 25
4 -6 5 12838.7 898.838 12
4 -6 5 10964.8 930.852 11
4 -6 5 11471.5 938.744 10
4 -6 5 10743.9 1022.45 8
4 -6 5 12249.6 1065.61 18
4 -6 5 12088.2 1035.18 29
4 -6 5 10544.5 890.041 28
4 -6 6 14786.8 1113.2 11
4 -6 6 12507.9 1020.12 10
4 -6 6 13830.3 1163.73 8
4 -6 6 13354.3 993.546 33
4 -6 6 14365.1 1169.27 18
4 -6 6 13508.4 1039.43 31
4 -6 6 14411.3 1120.45 29
4 -6 6 11463.7 861.808 12
4 -6 7 55264.3 2332.44 11
4 -6 7 56879.7 2477.7 8
4 -6 7 49306 2184.25 31
4 -6 7 50952.5 2262.26 29
4 -6 8 9643.19 823.641 11
4 -6 8 12183.3 940.468 34
4 -6 8 9572.97 796.511 31
4 -6 8 10582.1 835.804 29
4 -6 9 478.913 185.089 11
4 -6 9 27.9214 257.796 31
4 -6 9 490.994 171.667 29
4 -6 10 9561.7 535.589 11
4 -5 -10 2057.74 363.483 6
4 -5 -9 3336.21 484.414 3
4 -5 -8 8638.17 865.018 3
4 -5 -7 2587.06 508.702 3
4 -5 -6 138803 4621.43 3
4 -5 -5 49894.2 1908.41 25
4 -5 -4 932.122 242.946 25
4 -5 -3 145973 4250.92 25
4 -5 -2 180324 5060.34 25
4 -5 -1 7331.69 669.078 25
4 -5 1 62699.5 1897.05 10
4 -5 1 62389.9 2355.18 25
4 -5 2 28272.8 1233.11 10
4 -5 2 30631 1478.13 18
4 -5 2 30392.2 1563.38 29
4 -5 2 29278.9 1195.87 28
4 -5 2 33660.4 1554.01 25
4 -5 3 203615 5498.59 11
4 -5 3 205424 5457.52 10
4 -5 3 207078 5783.37 18
4 -5 3 206348 5855.47 29
4 -5 3 192327 5473.4 15
4 -5 3 190440 5321.41 28
4 -5 3 200288 5777.39 8
4 -5 3 201917 5575.94 25
4 -5 4 43975.3 1941.28 11
4 -5 4 45627.4 1939.76 10
4 -5 4 41639.2 2050.69 8
4 -5 4 43778.1 2064.92 18
4 -5 4 46869.4 2145.13 29
4 -5 4 40779.4 1821.95 28
4 -5 4 41468.6 1760.05 13
4 -5 4 43043.2 1781.74 25
4 -5 5 1508.48 352.738 12
4 -5 5 2338.94 451.581 11
4 -5 5 1497.78 333.433 33
4 -5 5 1821.37 412.613 18
4 -5 5 2793.09 475.88 10
4 -5 5 2448.78 499.35 8
4 -5 5 1546.19 367.834 31
4 -5 5 1913.52 446.329 29
4 -5 5 1691.72 347.558 13
4 -5 6 97672.4 3488.72 11
4 -5 6 92476 3388.96 10
4 -5 6 94955.9 3605.57 8
4 -5 6 85193.1 3269.61 31
4 -5 6 100949 3584.53 29
4 -5 6 94199.1 3246.13 13
4 -5 6 87869.2 3199.72 12
4 -5 7 26865 1590.97 11
4 -5 7 29085.3 1711.27 8
4 -5 7 29177.6 1658.42 34
4 -5 7 24447.6 1490.81 31
4 -5 7 26653.3 1601.12 29
4 -5 7 26525 1454.23 13
4 -5 7 26530.4 1439.7 12
4 -5 8 182.93 192.131 11
4 -5 8 343.142 187.565 34
4 -5 8 346.327 209.986 31
4 -5 8 486.856 245.914 29
4 -5 9 13510.7 884.816 11
4 -5 9 11911.2 821.33 31
4 -5 9 13872.2 867.703 29
4 -5 10 6748.17 474.392 11
4 -5 10 6471.91 468.312 31
4 -4 -11 -45.248 116.333 6
4 -4 -10 23590.5 1323.02 6
4 -4 -9 5619.69 671.378 3
4 -4 -8 365.638 210.113 3
4 -4 -7 96238 3514.12 3
4 -4 -6 35984.9 1843.78 3
4 -4 -5 10173 878.423 3
4 -4 -5 10096.4 705.844 25
4 -4 -4 74447.8 2457.54 25
4 -4 -3 177614 4826.1 25
4 -4 -2 294479 7451.87 25
4 -4 -1 179072 4889.08 25
4 -4 1 51118.6 1690.84 10
4 -4 1 52646.7 1958.72 25
4 -4 2 242783 6229.93 10
4 -4 2 237886 6653.29 29
4 -4 2 253177 6438.68 25
4 -4 3 126540 3801.22 11
4 -4 3 125813 3755.8 10
4 -4 3 127068 4009.86 8
4 -4 3 132072 3970.33 18
4 -4 3 120263 3678.19 31
4 -4 3 126598 4100.77 29
4 -4 3 119455 3807.6 15
4 -4 3 131124 3751.68 25
4 -4 4 35653.2 1726.95 11
4 -4 4 36868.4 1701.34 10
4 -4 4 32136.6 1540.72 20
4 -4 4 36049.8 1848.23 8
4 -4 4 37882.2 1818.59 18
4 -4 4 34828.7 1650.62 31
4 -4 4 37787.2 1891.72 29
4 -4 4 32673.2 1423.31 25
4 -4 5 106508 3678.66 11
4 -4 5 105097 3618.18 10
4 -4 5 99090.5 3538.51 31
4 -4 5 108839 3853.27 29
4 -4 5 107248 3587.3 13
4 -4 6 36659.4 1924.53 11
4 -4 6 35487.1 1866.18 10
4 -4 6 37793 1946.99 34
4 -4 6 33486.1 1928.47 8
4 -4 6 33393 1812.79 31
4 -4 6 40237.7 2050.89 29
4 -4 6 36182.3 1843.61 13
4 -4 6 33360.6 1789.89 12
4 -4 7 2018.01 426.44 12
4 -4 7 1952.48 433.491 11
4 -4 7 2041.28 429.158 34
4 -4 7 2001.75 467.265 8
4 -4 7 2271.71 457.87 31
4 -4 7 2289.67 494.892 29
4 -4 7 2138.47 441.212 13
4 -4 8 14128.4 1057.37 11
4 -4 8 10295.9 893.289 31
4 -4 8 13863.1 1041.72 29
4 -4 8 13140.3 971.763 13
4 -4 8 10981.2 875.812 12
4 -4 9 15190 952.567 11
4 -4 9 14289.2 915.414 31
4 -4 9 15717.3 963.892 29
4 -4 10 16489.8 770.634 31
4 -3 -11 49172.3 1851.53 6
4 -3 -10 4544.23 593.961 6
4 -3 -9 1035.55 308.055 3
4 -3 -8 40028.2 1978.75 3
4 -3 -7 106640 3685.19 3
4 -3 -6 10706.7 900.443 3
4 -3 -5 16671.2 1096.46 3
4 -3 -5 16692.5 910.656 25
4 -3 -4 53938.1 1901.58 25
4 -3 -3 4703.67 454.257 25
4 -3 -2 91063.8 2769.81 25
4 -3 -1 25853.3 1177.05 25
4 -3 0 3100.07 376.211 25
4 -3 1 192860 4927.13 10
4 -3 1 189991 5122.77 25
4 -3 2 124356 3556.27 10
4 -3 2 123996 3596.08 25
4 -3 3 1377.42 291.52 11
4 -3 3 947.121 243.975 10
4 -3 3 1316.52 300.108 18
4 -3 3 1160.62 296.227 8
4 -3 3 1475.59 292.134 31
4 -3 3 1030.87 277.309 15
4 -3 3 1225.85 267.662 14
4 -3 4 96479.6 3247.11 11
4 -3 4 92445.9 3153.92 10
4 -3 4 86558.2 2991.4 20
4 -3 4 91130.8 3284.46 8
4 -3 4 93333.8 3137.01 31
4 -3 4 91247.9 3137.22 14
4 -3 4 95082.9 3354.71 24
4 -3 5 75089.7 2954.98 12
4 -3 5 75529.1 2942.59 11
4 -3 5 80706.2 2952.21 10
4 -3 5 75409.9 2986.94 8
4 -3 5 70431 2604.62 17
4 -3 5 72536.8 2830.83 31
4 -3 5 82075.1 3169.5 29
4 -3 5 74831.9 2904.47 13
4 -3 5 73565.8 2983.55 24
4 -3 6 9489.45 940.85 11
4 -3 6 10210 950.425 10
4 -3 6 8809.49 866.97 34
4 -3 6 10999.6 1017.91 8
4 -3 6 10172.7 845.67 17
4 -3 6 9772.54 927.949 31
4 -3 6 11075.9 1051.71 29
4 -3 6 11448.1 1013.25 13
4 -3 6 10800.9 979.26 12
4 -3 7 43064.9 2092.22 11
4 -3 7 40260.5 2047.31 8
4 -3 7 40652.7 1864.99 34
4 -3 7 40500.8 1811.64 17
4 -3 7 39565.5 1994.8 31
4 -3 7 45251.7 2178.74 29
4 -3 7 40302 2029.61 13
4 -3 7 42178.7 2032.43 12
4 -3 8 20900.1 1306.59 29
4 -3 8 17842.1 1196.69 13
4 -2 -11 6836.38 642.472 6
4 -2 -10 47.7477 153.107 6
4 -2 -9 9096.35 894.578 6
4 -2 -8 51887.9 2283.86 3
4 -2 -7 1791.28 395.589 3
4 -2 -6 29144.4 1520.74 3
4 -2 -4 1952.55 293.6 25
4 -2 -3 438447 10517.8 25
4 -2 -2 193982 5085.18 25
4 -2 0 360835 8827.82 25
4 -2 2 1334.95 329.185 29
4 -2 2 1504.45 271.182 10
4 -2 3 27884.8 1521.21 24
4 -2 3 29879.2 1451.41 11
4 -2 3 31312.3 1443.62 10
4 -2 3 26902.6 1401.88 20
4 -2 3 26849.9 1397.83 8
4 -2 3 29523.7 1411.29 31
4 -2 3 29028.4 1614.36 29
4 -2 3 30389.4 1441.77 14
4 -2 4 93902.9 3408.16 24
4 -2 4 97724.4 3316.84 11
4 -2 4 96931.6 3262.62 10
4 -2 4 92671.2 3142.17 20
4 -2 4 94004.6 3282.31 8
4 -2 4 93509.1 3229.44 31
4 -2 4 96167.9 3542.66 29
4 -2 4 96892.7 3301.81 14
4 -2 5 16691.9 1248.55 24
4 -2 5 16625.4 1200.48 11
4 -2 5 17480 1206.22 10
4 -2 5 15632.2 1158.56 8
4 -2 5 15184.5 1135.2 31
4 -2 5 17653.5 1144.49 17
4 -2 5 16718.4 1306.33 29
4 -2 5 17005.1 1231.21 13
4 -2 6 56729.5 2541.52 24
4 -2 6 54822.8 2325.56 17
4 -2 6 55757.5 2443.85 31
4 -2 6 54455 2384.4 8
4 -2 7 9312.7 829.45 17
4 -2 8 810.113 303.936 11
4 -2 8 2221.07 426.846 31
4 -2 9 50070.7 1819.28 31
4 -1 -11 360.41 180.271 6
4 -1 -10 5198.41 646.611 6
4 -1 -9 54208.5 2199.46 2
4 -1 -9 51884.3 2360.99 6
4 -1 -8 -50.7239 162.65 6
4 -1 -7 14968.6 1107.65 6
4 -1 -6 33684.9 1667.61 6
4 -1 -5 301.391 150.751 35
4 -1 -4 336325 8393.49 35
4 -1 -3 154678 4307.77 35
4 -1 -2 68046.9 2282.72 35
4 -1 -1 256405 6525.3 35
4 -1 0 317464 7865.36 35
4 -1 1 20975.3 1012.69 35
4 -1 2 17312.6 1001.64 11
4 -1 2 17197.7 981.654 31
4 -1 2 16810.9 1123.08 29
4 -1 2 16180.1 983.769 14
4 -1 3 53154.6 2308.03 24
4 -1 3 59952.6 2262.18 11
4 -1 3 58594.6 2305.25 20
4 -1 3 53121.9 2230.51 19
4 -1 3 57093.3 2189.42 31
4 -1 3 58364 2144.97 16
4 -1 3 52946.5 2365.35 29
4 -1 3 57211.5 2241.23 14
4 -1 4 60541.1 2591.04 24
4 -1 4 64018.8 2690.26 12
4 -1 4 60871.5 2419.93 20
4 -1 4 59245.2 2382.54 19
4 -1 4 61436.5 2446.03 31
4 -1 4 63209.4 2709.96 29
4 -1 4 62648.7 2520.21 14
4 -1 5 161786 5119.73 24
4 -1 5 148099 4511.1 32
4 -1 5 161456 5160.51 29
4 -1 5 159651 5068.82 13
4 -1 5 160415 5158.37 12
4 -1 6 8633.57 893.735 24
4 -1 6 7992.97 819.067 11
4 -1 6 8547.86 829.304 17
4 -1 6 7651.7 862.567 29
4 -1 6 8038.5 875.625 13
4 -1 6 8131.23 889.611 12
4 -1 7 668.101 271.781 12
4 -1 7 594.812 268.947 24
4 -1 7 265.715 178.449 17
4 -1 7 611.381 283.235 29
4 -1 7 463.16 257.459 13
4 -1 8 48112.8 1902.13 17
4 -1 8 50539.6 2056.84 13
4 0 -11 1304.23 294.287 6
4 0 -10 17837 1209.57 6
4 0 -9 102.792 206.602 6
4 0 -8 52071.3 2194.02 2
4 0 -8 55095.4 2380.18 6
4 0 -7 31452.6 1573.04 2
4 0 -7 30128.2 1637.05 6
4 0 -6 1104.33 262.77 35
4 0 -6 1528.05 333.633 2
4 0 -6 1392.51 334.787 6
4 0 -5 402418 9985.82 35
4 0 -4 212259 5770.6 35
4 0 -3 16686.6 1003.57 35
4 0 -1 231722 6064.21 35
4 0 0 300.534 150.322 35
4 0 1 152064 4499.62 20
4 0 1 151773 4202.19 35
4 0 1 151964 4220.79 31
4 0 1 146177 4259.72 14
4 0 2 70387.3 2658.19 24
4 0 2 69423.4 2697.21 20
4 0 2 74455.1 2340.93 35
4 0 2 70893.9 2768.04 19
4 0 2 73627.3 2544.1 31
4 0 2 73316.3 2528.74 16
4 0 2 68917.7 2649.42 29
4 0 2 74466 2611.88 14
4 0 3 3387.58 535.8 24
4 0 3 3923.28 476.733 21
4 0 3 4271.73 599.092 19
4 0 3 4426.57 544.411 32
4 0 3 3893.28 503.109 16
4 0 3 3723.73 556.492 29
4 0 3 3725.46 527.505 14
4 0 4 150500 4857.39 24
4 0 4 140840 4626.34 19
4 0 4 145007 4375.11 32
4 0 4 152182 4617.5 16
4 0 4 152168 4407.38 21
4 0 4 152265 4825.22 29
4 0 4 146358 4717.86 14
4 0 4 152128 4964.31 12
4 0 5 11643.5 1067.75 24
4 0 5 11338.9 920.834 32
4 0 5 10990 1015.73 29
4 0 5 12753.5 1091.05 13
4 0 5 11871.1 1106.36 12
4 0 6 3271.48 554.849 24
4 0 6 2992.92 505.385 17
4 0 6 3701.66 564.35 29
4 0 6 4252.03 629.582 13
4 0 6 4245.3 634.071 12
4 0 7 1097.02 320.128 24
4 0 7 1201.38 306.487 17
4 0 7 1213.65 332.374 13
4 0 8 33426.4 1421.2 17
4 0 8 34489 1457.75 13
4 1 -10 1300.07 331.727 6
4 1 -9 88926.4 3269.89 6
4 1 -8 60063.2 2357.27 2
4 1 -8 55952.3 2449.28 6
4 1 -7 113.512 112.421 35
4 1 -7 338.612 198.727 2
4 1 -7 439.094 229.051 6
4 1 -6 63905.9 2505.03 2
4 1 -6 67913.1 2527.36 35
4 1 -6 65670.5 2598.54 6
4 1 -6 65180.3 2532.04 37
4 1 -5 158828 4664.72 2
4 1 -5 150232 4685 37
4 1 -5 156502 4675.52 35
4 1 -5 156982 4727.63 6
4 1 -4 1254.25 323.821 37
4 1 -4 787.504 252.064 35
4 1 -3 10830 857.612 35
4 1 -3 10201.1 855.987 37
4 1 -2 69702 2611.93 37
4 1 -1 13844.9 979.532 37
4 1 -1 14483.5 970.569 35
4 1 0 306522 7957.76 37
4 1 0 306923 8212.85 19
4 1 0 303999 7768.71 14
4 1 0 306414 7910.03 35
4 1 1 11880.5 824.425 35
4 1 1 11574.1 1008.39 19
4 1 1 11118.6 824.154 37
4 1 1 11547.9 849.405 14
4 1 2 2874.38 482.418 24
4 1 2 3372.76 409.372 35
4 1 2 3561.24 589.541 19
4 1 2 3544.32 476.732 29
4 1 2 4055.76 535.706 14
4 1 3 153190 4901.31 24
4 1 3 153891 4660.82 21
4 1 3 150803 5003.92 19
4 1 3 151828 4661.46 29
4 1 3 163099 4895.73 14
4 1 3 158931 5013.74 12
4 1 4 144692 4800.41 24
4 1 4 141191 4289.12 22
4 1 4 144384 4476.29 21
4 1 4 152510 4611 29
4 1 4 151769 4887.6 12
4 1 5 608.135 276.321 12
4 1 5 164.12 239.126 24
4 1 5 163.401 198.121 13
4 1 6 14252.4 1083.53 24
4 1 6 13876.1 1045.52 17
4 1 6 15314.2 1113.67 13
4 1 7 72033.2 2506.41 24
4 1 7 69883.7 2495.99 17
4 1 7 72558.4 2485.58 13
4 1 8 79.0289 86.3513 17
4 2 -9 43753.7 2043.45 6
4 2 -8 497.061 224.843 2
4 2 -8 657.803 281.295 6
4 2 -7 32018.7 1659.98 35
4 2 -7 34787.3 1806.75 6
4 2 -7 34120.1 1731.19 37
4 2 -7 34701 1709.66 2
4 2 -6 249207 7007.43 37
4 2 -6 237180 6908.56 35
4 2 -6 261352 7071.46 6
4 2 -6 249017 6893.94 2
4 2 -5 2096.32 440.147 37
4 2 -5 1870.75 395.2 2
4 2 -5 1741.69 393.067 35
4 2 -4 51027.6 2328.82 37
4 2 -4 52482.5 2334.33 35
4 2 -4 55935.6 2295.79 2
4 2 -3 36126.8 1879.6 37
4 2 -3 36101.8 1862.4 35
4 2 -3 36107.4 1696.02 19
4 2 -3 38982.2 1794.11 7
4 2 -3 39036.9 1838.64 2
4 2 -2 1449.82 370.173 37
4 2 -2 1523.68 349.484 2
4 2 -2 1476.12 359.465 35
4 2 -2 1704.36 360.879 19
4 2 -2 1672.4 347.774 7
4 2 -1 150895 4624.89 35
4 2 -1 148455 4668.09 19
4 2 -1 146983 4402.44 7
4 2 -1 149169 4659.8 37
4 2 -1 142299 4247.7 14
4 2 0 65444.3 2557.99 37
4 2 0 67589.5 2551.08 35
4 2 0 65745.2 2760.98 19
4 2 0 58951.9 2319.43 14
4 2 1 1132.21 283.026 37
4 2 1 1636.22 331.786 35
4 2 1 1149.26 293.272 16
4 2 1 1487.37 329.64 14
4 2 2 104495 3677.93 24
4 2 2 112263 3762.74 21
4 2 2 108925 4064.74 19
4 2 2 111845 3716.94 16
4 2 2 109549 3713.79 14
4 2 2 114417 3767.63 12
4 2 3 149320 4857.9 24
4 2 3 156891 4811 21
4 2 3 156444 4847.21 16
4 2 3 147074 4795.71 14
4 2 3 159527 4869.2 12
4 2 4 1930.09 410.989 12
4 2 4 1571.2 398.081 24
4 2 4 2488.6 409.761 22
4 2 4 1519.22 359.13 21
4 2 4 1134.98 326.944 13
4 2 5 16588.3 1163.09 24
4 2 5 17630 1185.71 13
4 2 6 6963.46 644.248 24
4 2 6 6723.44 650.598 17
4 2 6 7850.58 647.743 13
4 2 7 807.803 197.594 17
4 3 -10 62204.7 2270.99 7
4 3 -9 1872.45 384.715 7
4 3 -8 18364.2 1187.38 37
4 3 -8 18587.3 1232.63 7
4 3 -8 17601.9 1125.79 2
4 3 -7 54437.1 2402.14 37
4 3 -7 53440.4 2355.61 35
4 3 -7 55695.9 2369.02 7
4 3 -7 51796.6 2229.42 2
4 3 -6 8647.1 899.991 37
4 3 -6 9231.28 911.675 35
4 3 -6 8980.87 867.745 7
4 3 -6 9975.96 895.339 2
4 3 -5 57633 2645.01 37
4 3 -5 56575 2612.95 35
4 3 -5 65086.7 2594.71 7
4 3 -5 62209.5 2540.46 2
4 3 -4 14573.9 1229.73 37
4 3 -4 14246.6 1206.1 35
4 3 -4 15722.2 1031.91 19
4 3 -4 16507.4 1174.92 7
4 3 -4 18157.2 1242.21 2
4 3 -3 312.587 171.28 19
4 3 -2 139222 4650.99 37
4 3 -2 129398 4532.34 35
4 3 -2 134389 4403.69 19
4 3 -2 139889 4384.68 7
4 3 -2 131851 3984.33 14
4 3 -1 172083 5337.46 37
4 3 -1 162862 5230 35
4 3 -1 173877 5359.87 19
4 3 -1 160716 4747.8 14
4 3 0 205.561 176.237 37
4 3 0 200.297 148.744 35
4 3 0 744.743 300.907 19
4 3 0 159.818 160.684 14
4 3 1 18672.4 1179.82 37
4 3 1 15379.3 1074.75 35
4 3 1 18522.8 1228.89 16
4 3 1 16092.8 1103.58 14
4 3 2 104237 3617.5 24
4 3 2 110388 3883.74 21
4 3 2 116036 3869.19 16
4 3 2 117615 3768.2 14
4 3 3 14243.9 1016.69 22
4 3 3 14026.7 1085.84 16
4 3 3 14741.9 1112.34 21
4 3 3 15847.7 1108.09 13
4 3 4 19471.3 1134.87 22
4 3 4 20444.3 1260.77 21
4 3 4 20116.6 1166.62 13
4 3 5 7104.62 677.331 17
4 3 6 837.665 207.195 17
4 4 -10 312.291 150.136 7
4 4 -9 3067.47 457.962 7
4 4 -8 807.447 277.719 7
4 4 -8 721.37 256.839 37
4 4 -7 70928.1 2837.17 37
4 4 -7 63748.1 2721.23 35
4 4 -7 65211.4 2655.3 7
4 4 -6 78098.6 3154.89 37
4 4 -6 71437.5 3050 35
4 4 -6 73148.6 2916.61 7
4 4 -5 74106.6 3154.03 37
4 4 -5 69112 3081.22 35
4 4 -5 77395.1 2995.15 7
4 4 -4 20367 1510.8 37
4 4 -4 18115.1 1448.79 35
4 4 -4 20373.8 1384.41 7
4 4 -3 110920 4192.07 35
4 4 -2 165981 5446.06 37
4 4 -2 161325 5407.82 35
4 4 -1 121.116 194.188 37
4 4 -1 59.7825 125.504 35
4 4 0 18476 1284.01 37
4 4 0 17851.9 1269.14 35
4 4 0 16860.9 1193.56 16
4 4 1 117230 4060.28 21
4 4 1 115609 3905.42 16
4 4 2 20829.1 1315 16
4 4 3 64207.9 2378.17 22
4 4 3 64554.4 2525.31 21
4 4 4 11812.4 842.152 17
4 4 5 892.719 196.039 17
4 5 -8 16723.7 1107.07 37
4 5 -8 17833 1107.46 7
4 5 -7 38461 1945.17 37
4 5 -7 38628.8 1849.34 7
4 5 -6 109362 3959.64 37
4 5 -5 254.004 255.308 37
4 5 -4 30882.6 1913.88 37
4 5 -3 96598.7 3788.4 37
4 5 -2 5882.87 784.312 37
4 5 -1 24686.5 1553.49 37
4 5 -1 25269.4 1430.77 16
4 5 0 13783.5 1090.68 21
4 5 0 12041.2 950.695 16
4 5 1 93.6316 150.147 21
4 5 1 201.573 169.282 16
4 5 2 25186.4 1278.41 22
4 5 2 24732.7 1359.97 21
4 5 3 11517.5 743.484 17
4 6 -8 14941.7 929.449 37
4 6 -7 60049.4 2375.41 37
4 6 -6 393.941 238.876 37
4 6 -5 52638.5 2390.22 37
4 6 -3 16962.6 1238.95 37
4 6 -3 16331.6 1014.7 16
4 6 -2 19430 1279.81 37
4 6 -2 20532 1233.19 21
4 6 -2 20313.7 1137.75 16
4 6 -1 14535.7 999.922 21
4 6 -1 12897.3 856.852 16
4 6 0 699.856 228.15 21
4 6 1 11568.5 762.571 22
4 6 1 13739 853.454 21
4 6 2 18879.2 851.06 22
4 7 -7 2978.65 381.393 37
4 7 -6 8470.81 696.008 37
4 7 -5 24512.3 1287.82 37
4 7 -4 11619.6 670.689 21
4 7 -3 15198.3 811.234 21
4 7 -3 16006.2 966.121 37
4 7 -2 8496.31 580.527 21
4 7 -1 140.75 94.4307 21
4 7 0 13953 679.796 22
5 -10 -5 9423.53 690.674 3
5 -10 -4 109.226 152.874 3
5 -10 -3 6352.97 666.865 3
5 -10 4 17495.3 935.184 18
5 -10 5 116.056 112.552 34
5 -9 -7 743.541 204.421 3
5 -9 -6 12020.2 900.8 3
5 -9 -4 20453.1 1403.05 3
5 -9 -3 18172.9 1341.05 3
5 -9 -2 34875.5 1891.44 3
5 -9 -1 2253.27 438.751 29
5 -9 -1 1436.59 372.159 3
5 -9 0 63298.7 2561.75 29
5 -9 1 34259.8 1731.7 29
5 -9 2 977.111 290.67 29
5 -9 3 31485.7 1564.69 18
5 -9 3 30916.2 1561.31 29
5 -9 4 399.205 221.795 34
5 -9 4 209.748 176.304 18
5 -9 4 578.257 219.155 29
5 -9 5 14517.2 1015.93 34
5 -9 5 14240.9 986.769 18
5 -9 6 13797.2 920.258 34
5 -9 6 13322.4 886.619 18
5 -9 7 4641.43 455.807 34
5 -8 -8 1213 268.355 3
5 -8 -7 7274.14 727.785 3
5 -8 -6 2193.52 467.734 3
5 -8 -4 24597.7 1674.74 3
5 -8 -3 13621.2 1223.86 3
5 -8 -3 12324.7 1064.99 25
5 -8 -2 1047.04 373.853 3
5 -8 -2 939.11 326.702 25
5 -8 -1 174910 5444.1 3
5 -8 -1 174504 5595.08 25
5 -8 0 23109.4 1460.45 29
5 -8 0 20778.1 1514.75 25
5 -8 1 81846.5 3191.18 29
5 -8 1 86851.8 3438.69 25
5 -8 2 71504.5 2754.35 18
5 -8 2 80041.8 3029.04 29
5 -8 2 72719.4 3056.02 25
5 -8 3 1241.42 336.005 18
5 -8 3 1186.09 348.872 29
5 -8 3 985.329 325.967 25
5 -8 4 23096.6 1452.45 18
5 -8 4 23771.3 1436.06 29
5 -8 5 26847.1 1593.66 34
5 -8 5 29110.9 1615.66 18
5 -8 5 26745.4 1469.56 29
5 -8 6 25399.2 1431.68 34
5 -8 6 24131.1 1381.27 18
5 -8 6 22620.6 1237.15 29
5 -8 7 5899.88 590.403 34
5 -8 7 4501.6 445.105 29
5 -7 -9 4604.22 486.25 6
5 -7 -8 9919.29 850.619 3
5 -7 -7 12172.3 1055.57 3
5 -7 -6 17117 1352.57 3
5 -7 -4 21788.2 1567.29 3
5 -7 -4 18786 1259.72 25
5 -7 -3 128.448 220.211 3
5 -7 -3 309.308 197.635 25
5 -7 -2 52795.6 2466.43 3
5 -7 -2 48475.5 2316.12 25
5 -7 -1 2625.65 506.779 3
5 -7 -1 1371.66 387.788 25
5 -7 0 1928.13 333.249 15
5 -7 1 26758.9 1410.42 18
5 -7 1 27260.6 1621.77 29
5 -7 1 26013 1314.8 15
5 -7 1 30012.8 1741.66 25
5 -7 2 2162.69 428.709 18
5 -7 2 2094.88 474.525 29
5 -7 2 1809.54 424.801 25
5 -7 3 81956.7 3179.41 18
5 -7 3 86471.9 3298.69 29
5 -7 3 85037.3 3202.15 25
5 -7 4 43640 2142.39 18
5 -7 4 40094.9 2067.85 29
5 -7 5 27826.7 1641.06 18
5 -7 5 25766.9 1552.06 29
5 -7 6 8246.7 718.537 11
5 -7 6 9281.07 902.615 34
5 -7 6 8838.5 832.433 29
5 -7 7 34747.1 1515.12 11
5 -7 7 39909.6 1691.92 29
5 -7 8 3422.53 355.404 11
5 -7 8 3379.46 413.518 34
5 -7 8 4066.13 403.179 29
5 -6 -10 2714.17 282.62 2
5 -6 -10 3793.1 419.563 6
5 -6 -9 14253.8 977.509 3
5 -6 -8 13264.4 1077.52 3
5 -6 -7 3061.83 576.883 3
5 -6 -6 84559.4 3454.47 3
5 -6 -5 25784.6 1391.48 25
5 -6 -4 2102.82 498.538 3
5 -6 -4 1457.66 332.012 25
5 -6 -3 34400 1925.73 3
5 -6 -3 35336.3 1765.42 25
5 -6 -2 21475.8 1431.93 3
5 -6 -2 23255.5 1399.83 25
5 -6 -1 24123.4 1462.08 3
5 -6 -1 29433.6 1602.86 25
5 -6 1 60557.5 2293.93 18
5 -6 1 57884.7 2492.59 29
5 -6 1 55739.6 2192.88 15
5 -6 1 58624.4 2497.31 25
5 -6 2 53935.6 2287.1 18
5 -6 2 57337.1 2490.85 29
5 -6 2 50765.3 2120.66 15
5 -6 2 54899.8 2367.71 25
5 -6 3 111546 3797.46 18
5 -6 3 107954 3868.01 29
5 -6 3 102283 3600.66 25
5 -6 4 29413.3 1714.61 18
5 -6 4 31367.5 1776.42 29
5 -6 5 1149.39 301.889 12
5 -6 5 1860.21 391.3 11
5 -6 5 1535.35 414.273 18
5 -6 5 444.24 290.66 31
5 -6 5 1359.59 383.094 29
5 -6 6 57793.4 2386.41 11
5 -6 6 59362.8 2550.81 34
5 -6 6 58803.2 2521.86 29
5 -6 7 4474 557.246 11
5 -6 7 4312.01 562.272 34
5 -6 7 4571.67 580.309 29
5 -6 8 7229.35 597.027 11
5 -6 8 6050.21 556.697 34
5 -6 8 6805.62 594.572 29
5 -5 -11 2127.9 264.111 6
5 -5 -10 14395.4 844.008 2
5 -5 -10 15455.4 990.801 6
5 -5 -9 4103.25 570.712 3
5 -5 -8 1279.25 370.286 3
5 -5 -7 72266.5 3050.6 3
5 -5 -6 37053.7 2041.55 3
5 -5 -5 35619.3 1653.33 25
5 -5 -4 59641.6 2601.21 3
5 -5 -4 59105.4 2321.71 25
5 -5 -3 19889 1346.6 3
5 -5 -3 20855.3 1236.69 25
5 -5 -2 100841 3520.43 3
5 -5 -2 102420 3396.97 25
5 -5 -1 64106.3 2497.54 25
5 -5 0 94127.3 3255.44 25
5 -5 1 2447.61 397.477 18
5 -5 1 1958.26 359.876 15
5 -5 1 2075.87 422.211 29
5 -5 1 2604.76 444.93 25
5 -5 2 234090 6533.46 18
5 -5 2 235858 6804.22 29
5 -5 2 230190 6453.18 15
5 -5 2 241617 6580.96 25
5 -5 3 16655.2 1082.34 11
5 -5 3 15757.2 1035.84 10
5 -5 3 16582.9 1196.54 18
5 -5 3 15393.5 1220.41 29
5 -5 3 15455.7 987.42 14
5 -5 3 14788.5 1037.82 25
5 -5 4 234.906 180.322 11
5 -5 4 507.87 216.936 10
5 -5 4 424.966 212.581 20
5 -5 4 273.121 198.846 18
5 -5 4 413.919 237.884 29
5 -5 5 43607.6 2052.03 12
5 -5 5 42374.8 2059.46 11
5 -5 5 41701.8 2028.73 10
5 -5 5 41363.7 1949.82 31
5 -5 5 48889.4 2319.98 29
5 -5 5 43419.3 1972.93 13
5 -5 6 20725.7 1339.68 11
5 -5 6 21140.6 1381.23 34
5 -5 6 18079.8 1229.18 31
5 -5 6 21841.2 1440.52 29
5 -5 6 18263.8 1192.41 13
5 -5 6 20495.2 1284.33 12
5 -5 7 44182.6 1958.66 11
5 -5 7 41872 1878.74 34
5 -5 7 39323 1798.27 31
5 -5 7 39506.5 1782.1 12
5 -5 8 13288.1 869.941 11
5 -5 8 12491.2 817.094 31
5 -5 8 14626.4 918.011 29
5 -4 -11 12214.7 779.969 6
5 -4 -10 6865.57 628.168 2
5 -4 -10 7451.75 735.255 6
5 -4 -9 5678.89 704.314 3
5 -4 -9 4138.39 623.614 6
5 -4 -8 29656.2 1745.66 3
5 -4 -7 23642.5 1549.87 3
5 -4 -6 6623.85 803.849 3
5 -4 -5 3135.18 531.283 3
5 -4 -5 2914.79 423.513 25
5 -4 -4 10854.3 956.437 3
5 -4 -4 12364 874.213 25
5 -4 -3 62242.1 2531.67 3
5 -4 -3 62975 2344.25 25
5 -4 -2 103015 3331.35 25
5 -4 0 2426.13 442.607 29
5 -4 0 3755.64 493.102 25
5 -4 1 325849 8599.19 15
5 -4 1 335651 8346.27 14
5 -4 1 343587 8656.48 25
5 -4 2 71642.5 2476.74 11
5 -4 2 66356.8 2283.16 31
5 -4 2 69600.4 2618.79 15
5 -4 2 66721 2397.41 14
5 -4 2 65698.3 2507.58 25
5 -4 3 169.592 170.636 11
5 -4 3 490.708 235.818 20
5 -4 3 587.038 284.851 31
5 -4 3 512.162 197.053 14
5 -4 4 58754.7 2428.5 11
5 -4 4 56460.2 2360.52 10
5 -4 4 54338.6 2241.69 20
5 -4 4 50797.5 2211.5 31
5 -4 5 41112.2 2060.75 12
5 -4 5 44110.1 2108.87 11
5 -4 5 40641.4 1974.25 31
5 -4 5 44027.9 2228.74 29
5 -4 5 40582.4 1991.84 13
5 -4 6 47630.2 2178.36 11
5 -4 6 43154.1 2015.87 34
5 -4 6 39471.5 1961.25 31
5 -4 6 48867.5 2291.94 29
5 -4 6 42049.6 2018.66 13
5 -4 6 42758.9 2060.62 12
5 -4 7 25876.1 1445.2 11
5 -4 7 23617.5 1355.47 31
5 -4 7 28068.1 1541.23 29
5 -4 7 25444.5 1399.98 13
5 -4 7 25649.2 1407.29 12
5 -4 8 1431.89 306.98 29
5 -4 8 1828.33 316.859 13
5 -3 -11 5392.49 559.632 6
5 -3 -10 294.933 161.134 2
5 -3 -10 47.8371 142.054 6
5 -3 -9 7053.31 803.048 6
5 -3 -8 33641.7 1861.86 3
5 -3 -7 6018.86 753.987 3
5 -3 -6 48483.8 2264.83 3
5 -3 -5 65982 2679.44 3
5 -3 -4 18904.9 1233.7 3
5 -3 -4 16289.6 1018.83 25
5 -3 -3 351090 8877.7 25
5 -3 -2 96658.1 3135.94 25
5 -3 0 86104 3174.85 29
5 -3 0 100626 3148.73 25
5 -3 1 108863 3243.42 11
5 -3 1 101210 3434.24 20
5 -3 1 100959 3037.57 31
5 -3 1 102474 3594.26 29
5 -3 1 107448 3252.39 14
5 -3 2 35176.7 1610.83 11
5 -3 2 33823.2 1698.17 20
5 -3 2 33040.2 1484.47 31
5 -3 2 33414.7 1814.87 29
5 -3 2 34086.9 1583.05 14
5 -3 3 26279 1458.6 11
5 -3 3 26624.5 1491.24 20
5 -3 3 24896.6 1370.85 31
5 -3 3 28467.1 1696.45 29
5 -3 3 25817.9 1431.46 14
5 -3 4 17734 1248.07 11
5 -3 4 19527.8 1219.59 20
5 -3 4 17928.1 1074.27 17
5 -3 4 17300.2 1188.65 31
5 -3 4 18655.4 1388.74 29
5 -3 4 18262 1229.35 14
5 -3 5 28656.3 1652.31 11
5 -3 5 25712.5 1355.06 17
5 -3 5 27392.2 1564.93 31
5 -3 5 27784.2 1727.29 29
5 -3 5 27348.5 1612.56 13
5 -3 6 104145 3624.79 11
5 -3 6 95390.9 3456.64 31
5 -3 6 106534 3652.07 13
5 -3 6 96552.9 3570.66 12
5 -3 7 15521.2 1060.87 31
5 -3 7 13378.7 1005.37 13
5 -3 7 14693 1042.23 12
5 -3 8 268.393 149.135 13
5 -2 -12 7628.56 495.513 6
5 -2 -11 37.3677 150.204 6
5 -2 -10 305.322 179.229 2
5 -2 -10 199.126 181.084 6
5 -2 -9 17858.3 1224.34 2
5 -2 -9 20913.3 1409.89 6
5 -2 -8 7923.14 868.923 6
5 -2 -7 78056.8 3086.05 6
5 -2 -5 6966.36 747.678 6
5 -2 -4 360692 9332.8 6
5 -2 -1 25967.4 1310.68 20
5 -2 -1 21240.1 1243.55 29
5 -2 0 135650 4083 15
5 -2 0 140115 3899.01 14
5 -2 1 137045 4357.21 20
5 -2 1 140110 3998.72 31
5 -2 1 146057 3971.81 16
5 -2 1 139524 4464.32 29
5 -2 1 138932 4370.45 15
5 -2 1 143010 4162.89 14
5 -2 2 90879.3 3302.92 20
5 -2 2 93484.1 3069.91 31
5 -2 2 97598.5 3013.53 16
5 -2 2 94232.8 3402.19 15
5 -2 2 91093.4 3426.46 29
5 -2 2 98070.7 3226.18 14
5 -2 3 12698.1 1009.48 11
5 -2 3 12719.9 1024.6 20
5 -2 3 13426.8 1025.34 19
5 -2 3 13062.3 986.981 31
5 -2 3 13456.5 915.15 16
5 -2 3 14471.7 1165.86 29
5 -2 3 11585.4 960.621 14
5 -2 3 12803.9 1055.42 24
5 -2 4 9842.72 975.193 12
5 -2 4 9618.45 900.167 11
5 -2 4 8094.19 795.032 20
5 -2 4 7622.32 743.547 19
5 -2 4 9821.46 886.161 31
5 -2 4 9300.01 968.592 29
5 -2 4 9864.82 955.837 24
5 -2 5 177578 5168.36 17
5 -2 5 165810 5244.27 31
5 -2 5 176691 5567.19 29
5 -2 5 186203 5614.26 12
5 -2 6 15464.9 1040.88 17
5 -2 6 17498.1 1239.29 29
5 -2 6 17019.7 1240.29 12
5 -2 7 283.562 196.407 12
5 -2 7 79.8683 145.232 29
5 -1 -12 360.652 145.914 6
5 -1 -11 3643.16 496.217 6
5 -1 -10 9777.96 799.457 2
5 -1 -10 9816.58 905.772 6
5 -1 -9 1529.01 370.033 2
5 -1 -9 1831.91 432.335 6
5 -1 -8 151879 4792.6 2
5 -1 -8 154734 4982.67 6
5 -1 -7 25023.1 1493.23 2
5 -1 -7 26508.2 1594.69 6
5 -1 -6 2821.94 484.53 2
5 -1 -6 2989.99 535.728 6
5 -1 -5 135599 4429.74 2
5 -1 -5 150351 4384.55 35
5 -1 -5 143761 4537.2 6
5 -1 -4 153480 4553.75 35
5 -1 -4 148263 4618.92 6
5 -1 -3 2354.96 392.256 35
5 -1 -3 1553.16 351.291 2
5 -1 -2 40521.8 1734.4 20
5 -1 -1 123846 3882.13 20
5 -1 -1 128609 3865.43 35
5 -1 -1 122491 3837.79 15
5 -1 0 33546.9 1535.94 35
5 -1 0 29322.4 1524.54 29
5 -1 0 34073.9 1654.9 15
5 -1 0 33986.7 1531.52 14
5 -1 1 139751 4393.07 20
5 -1 1 139732 4010.97 16
5 -1 1 130305 4333.63 15
5 -1 1 131936 4268.56 29
5 -1 1 139477 4171.35 14
5 -1 2 1673.4 375.088 24
5 -1 2 2426 473.133 20
5 -1 2 2659.68 496.149 19
5 -1 2 1861.08 344.21 16
5 -1 2 2342.26 458.711 29
5 -1 2 2278.11 410.868 14
5 -1 3 51.6414 140.099 24
5 -1 3 567.672 250.262 20
5 -1 3 411.896 225.078 19
5 -1 3 331.975 174.338 16
5 -1 3 435.789 238.124 29
5 -1 3 441.196 222.393 14
5 -1 4 24881.8 1570.83 24
5 -1 4 24478.3 1604.34 12
5 -1 4 24947.4 1458.25 19
5 -1 4 29988.3 1633.94 31
5 -1 4 26796 1625.39 29
5 -1 4 25349.6 1556.02 14
5 -1 5 48083.1 2126.92 17
5 -1 5 50192.2 2271.41 29
5 -1 5 50531.3 2334.27 13
5 -1 5 51341.2 2376.14 12
5 -1 5 45072.4 2195.81 24
5 -1 6 1286.79 351.968 12
5 -1 6 1084.03 278.384 17
5 -1 6 649.327 252.482 29
5 -1 6 1000.64 327.352 13
5 -1 7 24503.2 1274.91 13
5 0 -11 3336.03 466.171 6
5 0 -10 826.259 306.62 6
5 0 -9 66464.9 2598.18 2
5 0 -9 66854.1 2777.9 6
5 0 -8 22023.1 1382.84 2
5 0 -8 21622.5 1446.92 6
5 0 -7 3735.71 566.946 2
5 0 -7 3399.22 497.603 35
5 0 -7 3056.7 538.549 6
5 0 -6 1810.13 378.921 35
5 0 -6 1257.66 343.574 2
5 0 -6 1725.29 412.086 6
5 0 -5 105387 3611.9 2
5 0 -5 106711 3618.1 35
5 0 -5 100154 3612.07 6
5 0 -4 939.901 311.976 37
5 0 -4 747.475 222.379 20
5 0 -4 705.229 273.78 35
5 0 -4 699.29 265.538 6
5 0 -3 100477 3420.36 2
5 0 -3 96785 3436.23 37
5 0 -3 98647.9 3216.79 20
5 0 -3 99291.7 3407.58 35
5 0 -3 95896.9 3356.18 6
5 0 -2 9835.73 875.168 37
5 0 -2 10899.5 864.162 20
5 0 -2 9786.54 778.414 15
5 0 -2 9476.1 839.342 35
5 0 -2 9844.8 855.81 2
5 0 -1 33211.2 1664.18 20
5 0 -1 34314.3 1648.79 35
5 0 -1 29666 1418.55 7
5 0 -1 33050.9 1598 15
5 0 -1 30994.4 1578.95 2
5 0 0 271332 7107.72 35
5 0 0 266962 7267.89 15
5 0 0 282063 7120.11 14
5 0 1 75304.8 3042.19 20
5 0 1 79505.3 2732.64 35
5 0 1 77859 3144.34 19
5 0 1 79881.1 2799.54 16
5 0 1 83122.8 2939.32 14
5 0 2 362.748 212.917 24
5 0 2 464.72 253.906 19
5 0 2 128.104 171.742 16
5 0 2 130.977 175.589 29
5 0 2 524.12 251.777 14
5 0 3 79807.9 3203.74 12
5 0 3 77425.1 3017.49 24
5 0 3 78987.4 2764.34 21
5 0 3 76471.2 3117.14 19
5 0 3 75958.4 2895.07 16
5 0 3 80078.3 2957.3 29
5 0 3 86949.6 3158.44 14
5 0 4 185717 5621.93 24
5 0 4 181379 5452.31 29
5 0 4 195597 5851.65 12
5 0 5 500.703 258.048 12
5 0 5 876.199 296.258 24
5 0 5 928.562 279.005 17
5 0 5 953.713 304.674 13
5 0 6 22644.8 1214.96 17
5 0 6 23074.4 1297.66 13
5 0 7 7258.57 528.53 17
5 0 7 7858.92 577.895 13
5 1 -10 34540.3 1739.12 6
5 1 -9 86755.5 3236.79 6
5 1 -9 83348.2 3002.21 2
5 1 -8 192.376 184.336 2
5 1 -8 55.1086 176.722 6
5 1 -7 9668.1 888.672 35
5 1 -7 11211.8 1007.03 6
5 1 -7 10006 919.198 2
5 1 -6 79136.9 3114.09 37
5 1 -6 74275.4 2994.85 35
5 1 -6 82719.2 3143.24 6
5 1 -6 75721 2992.44 2
5 1 -5 168.94 152.637 37
5 1 -5 54.3887 147.422 35
5 1 -5 202.461 184.052 2
5 1 -4 59606 2626.24 37
5 1 -4 60613.4 2601.86 35
5 1 -4 60177.7 2544.53 2
5 1 -3 9923.4 863.342 7
5 1 -3 8483.77 833.897 2
5 1 -2 1014.07 323.734 37
5 1 -2 483.395 248.961 2
5 1 -2 722.303 265.665 35
5 1 -2 545.277 227.783 7
5 1 -1 259854 7328.75 37
5 1 -1 262467 7289.26 35
5 1 -1 278229 7546.58 19
5 1 -1 252352 6961.11 7
5 1 -1 263565 7052.08 14
5 1 0 116296 3836.38 35
5 1 0 118799 4202.17 19
5 1 0 117085 3815.69 14
5 1 1 8507.99 744.814 35
5 1 1 9245.44 827.163 16
5 1 1 8344.88 813.84 14
5 1 2 65753.7 2588.16 21
5 1 2 66996.8 2955.98 19
5 1 2 64919.7 2623.13 16
5 1 2 66520.8 2707.74 14
5 1 2 70699.8 2812.39 12
5 1 3 41774.6 1969.01 16
5 1 3 38615.4 1966.37 14
5 1 3 40225.2 1850.26 21
5 1 3 44673.6 2097.9 12
5 1 4 10695 951.553 13
5 1 4 12765.1 996.851 12
5 1 5 14881.9 1003.16 17
5 1 5 14809.9 1027.22 13
5 1 6 10755.7 723.375 17
5 1 6 9164.41 652.326 13
5 2 -11 10540.3 711.61 7
5 2 -10 41435.4 1814.24 7
5 2 -9 78.0649 156.903 2
5 2 -8 8289.71 794.45 2
5 2 -7 13075 1103.52 37
5 2 -7 12137.4 1050.57 35
5 2 -7 12931 1041.57 2
5 2 -6 779.337 348.59 37
5 2 -6 103.616 208.496 2
5 2 -6 1115.27 341.325 35
5 2 -5 95180.4 3721.58 37
5 2 -5 92989.5 3650.7 35
5 2 -5 103998 3626.45 2
5 2 -4 34867.5 2009.78 37
5 2 -4 33717.2 1939.65 35
5 2 -4 34176.6 1710.58 19
5 2 -4 37597.1 1897.78 7
5 2 -4 33273.7 1830.54 2
5 2 -3 1738.67 380.993 19
5 2 -3 247.768 208.45 7
5 2 -2 97313.7 3714.57 37
5 2 -2 97752.4 3669.73 35
5 2 -2 102924 3675.63 19
5 2 -2 99063.7 3441.91 7
5 2 -2 93578.2 3263.01 14
5 2 -1 131699 4416.02 37
5 2 -1 129151 4366.96 35
5 2 -1 135453 4564.51 19
5 2 -1 124191 4060.71 14
5 2 0 2410.91 440.537 35
5 2 0 2237.84 516.758 19
5 2 0 2560.91 452.044 16
5 2 0 2403.29 432.508 14
5 2 1 24880.3 1461.3 14
5 2 2 43674.1 2025.59 21
5 2 2 43719.6 2034.63 14
5 2 3 3752.8 512.007 21
5 2 3 4045.8 554.838 13
5 2 4 28744.1 1423.59 13
5 2 5 4084.74 392.751 13
5 3 -11 3286.54 345.905 7
5 3 -10 14160.5 913.089 7
5 3 -9 16457 1090.82 7
5 3 -8 20792.2 1320.19 7
5 3 -7 3589.13 597.516 37
5 3 -7 2949.46 528.092 35
5 3 -7 3166.1 534.381 7
5 3 -7 4601.62 611.394 2
5 3 -6 126282 4546.35 37
5 3 -6 126087 4524.52 35
5 3 -6 139496 4455.01 7
5 3 -6 135500 4381.65 2
5 3 -5 47363.1 2422.49 37
5 3 -5 43192.4 2307.45 35
5 3 -5 47786.8 2253.12 7
5 3 -4 2930.05 616.832 37
5 3 -4 3089.18 602.574 35
5 3 -4 3254.68 511.436 19
5 3 -4 4056.39 605.226 7
5 3 -3 40485.9 2265.33 37
5 3 -3 38554.1 2194.96 35
5 3 -3 43158.5 2083.41 19
5 3 -3 45216.6 2134.6 7
5 3 -3 43917.4 1887.59 14
5 3 -2 238214 7030.39 37
5 3 -2 238109 6836.56 19
5 3 -2 234133 6364.17 14
5 3 -1 12777.7 1106.08 37
5 3 -1 12858.9 1155.26 19
5 3 -1 11538.6 1055.33 35
5 3 -1 13963 993.82 14
5 3 0 64964.5 2640.2 16
5 3 0 66767.3 2526.22 14
5 3 1 29460.2 1638.58 21
5 3 1 30468.2 1631.13 16
5 3 1 30156.7 1517.35 14
5 3 2 1951.76 385.261 21
5 3 2 1915.37 386.652 16
5 3 2 2167.24 366.351 13
5 3 3 39642.7 1701.3 21
5 3 4 2870.24 382.086 17
5 4 -10 15458.3 849.381 7
5 4 -9 15936.7 991.147 7
5 4 -8 418.79 215.533 7
5 4 -7 53777 2380.69 37
5 4 -7 51434 2248.59 7
5 4 -6 44856 2269.42 37
5 4 -6 46466.8 2152.23 7
5 4 -5 898.341 339.862 37
5 4 -5 1360.99 370.726 7
5 4 -3 58939 2728.44 37
5 4 -2 1067.99 360.311 37
5 4 -1 24253.8 1485.38 37
5 4 -1 26588.4 1469.34 16
5 4 0 7974.85 755.629 16
5 4 1 2052.03 375.185 16
5 4 2 69084.8 2416.5 21
5 4 3 18314.1 920.777 17
5 5 -7 82625.1 2955.1 37
5 5 -6 593.602 275.042 37
5 5 -5 13803.8 1110.04 37
5 5 -3 4014.56 590.035 37
5 5 -3 3090.74 457.06 16
5 5 -2 16555.3 1127.73 37
5 5 -2 16202.9 1088.49 21
5 5 -2 16591.1 1035.25 16
5 5 -1 9098.68 773.913 21
5 5 -1 8897.38 715.331 16
5 5 0 270.962 159.091 21
5 5 0 264.612 142.653 16
5 5 1 39250.4 1535.82 21
5 6 -6 16391.2 991.298 37
5 6 -5 6285.68 614.84 37
5 6 -5 5538.81 481.075 21
5 6 -5 5508.96 461.977 16
5 6 -4 1982.06 352.811 37
5 6 -4 1573.28 269.993 21
5 6 -4 1369.28 242.007 16
5 6 -3 29929 1270.05 21
5 6 -3 28272.8 1159.5 16
5 6 -2 16855.1 865.483 21
5 6 -2 14046.1 718.985 16
5 6 -1 437.843 138.739 21
6 -10 -5 3554.53 410.38 3
6 -10 -4 1185.23 239.248 29
6 -10 -3 13722.2 860.55 29
6 -10 -2 18874.8 1069.55 29
6 -10 -1 5379.88 570.539 29
6 -10 0 16582.3 1010.26 29
6 -10 1 194.75 136.337 29
6 -10 2 2597.88 361.334 29
6 -10 3 18956.5 984.682 34
6 -10 4 97.4948 110.548 34
6 -10 5 13832 711.607 34
6 -9 -7 3339.91 399.922 3
6 -9 -7 2961.21 346.503 6
6 -9 -5 8761 842.222 3
6 -9 -4 60552.5 2572.52 3
6 -9 -3 22526.7 1443.83 3
6 -9 -1 56747.5 2426.68 29
6 -9 0 1592.71 397.109 29
6 -9 1 4068.99 585.123 29
6 -9 2 19882.7 1263.78 29
6 -9 3 7755.29 730.601 29
6 -9 4 20749.3 1236.21 34
6 -9 4 21143.9 1164.31 29
6 -9 5 17381.4 1033.63 34
6 -9 5 16799 909.593 29
6 -9 6 3467.29 392.211 34
6 -8 -8 6880.48 588.054 6
6 -8 -7 8581.42 793.681 3
6 -8 -5 25482.6 1657.47 3
6 -8 -4 128.501 190.758 3
6 -8 -3 251.267 263.781 3
6 -8 -2 23041.2 1515.22 3
6 -8 -2 21896.3 1527.41 25
6 -8 -1 5186.77 714.508 29
6 -8 -1 5119.31 748.505 25
6 -8 0 50567.3 2380.81 29
6 -8 1 16655.9 1272.2 29
6 -8 1 18162.2 1384.15 25
6 -8 2 26504 1612.1 29
6 -8 3 46622.4 2183.47 29
6 -8 4 33453.5 1715.27 29
6 -8 5 8138.04 780.287 34
6 -8 5 8730.47 754.907 29
6 -8 6 518.269 217.849 34
6 -8 6 464.115 182.986 29
6 -7 -9 11293.2 773.495 6
6 -7 -8 8166.34 771.399 3
6 -7 -7 55.3519 189.745 3
6 -7 -5 2511.54 554.633 3
6 -7 -4 273.559 274.958 3
6 -7 -4 258.029 165.575 25
6 -7 -3 41878.7 2264.84 3
6 -7 -3 42992.7 2143.65 25
6 -7 -2 18422.7 1375.97 3
6 -7 -2 16911.7 1307.3 25
6 -7 -1 72288 2825.19 3
6 -7 -1 68426.9 2977.32 25
6 -7 0 33137.4 1880.15 29
6 -7 0 30671.4 1555.8 15
6 -7 0 32240.7 1889.96 25
6 -7 1 25880.6 1655.94 29
6 -7 1 24040.6 1372.53 15
6 -7 1 29101.1 1748.09 25
6 -7 2 7715.13 874.812 29
6 -7 2 7053.38 705.911 15
6 -7 2 6653.59 804.916 25
6 -7 3 77044.1 3131.19 29
6 -7 4 2803.75 450.872 20
6 -7 4 2967.29 526.906 29
6 -7 5 1926.23 408.838 29
6 -7 6 30599.2 1532.51 34
6 -7 6 31898.4 1515.25 29
6 -7 7 1388.32 260.717 34
6 -7 7 1455.24 259.922 29
6 -6 -10 12813.9 693.935 2
6 -6 -10 15649.4 867.575 6
6 -6 -9 4643.07 579.763 6
6 -6 -8 2723.21 503.351 3
6 -6 -7 34077.6 1953.54 3
6 -6 -5 19351.8 1495.32 3
6 -6 -5 19437.6 1246.4 25
6 -6 -4 9620.31 1031.42 3
6 -6 -4 8900.17 868.433 25
6 -6 -3 28587.5 1803.73 3
6 -6 -3 29827.2 1691.98 25
6 -6 -2 25803.7 1637.4 3
6 -6 -2 28644 1670.45 25
6 -6 -1 120542 4013.95 3
6 -6 0 14135 1180.32 29
6 -6 0 12452.4 980.358 15
6 -6 0 14121.9 1160.86 25
6 -6 1 1775.29 388.576 15
6 -6 1 2249.68 490.694 29
6 -6 1 1952.34 447.688 25
6 -6 2 96914.3 3677.97 29
6 -6 2 93213.4 3343.98 15
6 -6 2 95910.2 3499.09 25
6 -6 3 11095.4 975 20
6 -6 3 10924.5 1042.88 29
6 -6 4 22417.4 1285.45 11
6 -6 4 23742.3 1338.82 20
6 -6 4 23937.3 1560.48 29
6 -6 5 23516.3 1432.46 29
6 -6 5 18830.5 1177.98 12
6 -6 6 2616.44 431.432 34
6 -6 6 2986 469.322 29
6 -6 7 25021.6 1200.6 29
6 -5 -11 10062.5 608.212 6
6 -5 -10 2533.15 357.983 2
6 -5 -10 2619.83 415.21 6
6 -5 -9 48.9432 156.94 6
6 -5 -8 3034.44 563.416 3
6 -5 -7 633.504 334.956 3
6 -5 -6 34467.4 2019.69 3
6 -5 -5 8091.84 942.861 3
6 -5 -5 8135.35 783.671 25
6 -5 -4 27590.2 1749.51 3
6 -5 -4 27443.1 1540.14 25
6 -5 -3 35921.9 1968.81 3
6 -5 -3 30915 1703.87 6
6 -5 -3 33698.8 1760.99 25
6 -5 -2 258643 7382.17 3
6 -5 -2 262787 7265.36 25
6 -5 -1 33034.6 1838.98 29
6 -5 0 3648.01 615.873 29
6 -5 0 3291.3 509.665 15
6 -5 0 2999.56 397.175 14
6 -5 0 3187.27 539.441 25
6 -5 1 109581 3764.3 15
6 -5 1 109631 3435.75 14
6 -5 1 118426 3956.65 25
6 -5 2 20509.2 1396.84 20
6 -5 2 20766.9 1346.34 15
6 -5 2 20160.3 1169.96 14
6 -5 3 41679.1 2024.77 20
6 -5 4 19114.8 1244.12 11
6 -5 4 18525 1185.38 20
6 -5 4 18139.2 1363.43 29
6 -5 4 20889.9 1260.43 13
6 -5 5 1435.67 360.213 12
6 -5 5 814.939 309.793 29
6 -5 5 1138.13 292.453 13
6 -5 6 28393 1517.64 29
6 -5 6 26453 1379.77 12
6 -5 7 19086.1 1049.29 29
6 -5 8 6199.78 427.807 29
6 -4 -11 5362.44 512.465 6
6 -4 -10 307.671 194.378 2
6 -4 -10 127.828 154.983 6
6 -4 -9 3531.87 529.521 2
6 -4 -9 2562.5 492.977 6
6 -4 -8 20019.1 1419.41 6
6 -4 -7 25145.9 1660.52 3
6 -4 -6 67965.5 3026.26 3
6 -4 -6 76132 3109.59 6
6 -4 -5 26203.7 1644.75 6
6 -4 -4 417.535 270.573 3
6 -4 -4 264.236 192.27 6
6 -4 -3 133237 4335.16 6
6 -4 -3 142348 4398.93 25
6 -4 -2 29924.3 1637.17 2
6 -4 -2 30858.7 1641.51 25
6 -4 -1 3569.14 505.167 2
6 -4 -1 4879.72 673.742 29
6 -4 -1 4826.54 514.223 14
6 -4 0 47836.9 2326.97 29
6 -4 0 50044.1 1962.69 14
6 -4 1 12722.1 1070.66 20
6 -4 1 12293.8 1107.36 29
6 -4 1 13811.3 949.549 14
6 -4 2 66202.2 2741.79 20
6 -4 2 63022.3 2707.66 15
6 -4 2 66837.9 2935.4 29
6 -4 2 66505 2533.52 14
6 -4 3 63244 2651.94 20
6 -4 3 65067.1 2425.05 31
6 -4 3 67697 2945.23 29
6 -4 3 68697 2635.01 14
6 -4 4 20559 1259.55 20
6 -4 4 21724 1294.9 31
6 -4 4 22613.6 1522.16 29
6 -4 4 20392.3 1319.9 13
6 -4 5 17968.2 1153.45 31
6 -4 5 17793.6 1273.97 29
6 -4 5 15843.6 1121.6 13
6 -4 5 16523.2 1182.43 12
6 -4 6 49093.7 2024.34 13
6 -4 6 52955.1 2114.28 12
6 -4 7 6776.39 550.862 13
6 -4 7 7998.94 610.801 12
6 -3 -11 2200.03 359.237 6
6 -3 -10 4297.93 526.278 2
6 -3 -10 3892.75 554.871 6
6 -3 -9 5943.73 699.793 2
6 -3 -9 5654.39 719.317 6
6 -3 -8 6286.94 757.667 2
6 -3 -8 5698.33 763.509 6
6 -3 -6 13722.1 1166.25 6
6 -3 -5 1782.45 428.76 6
6 -3 -4 100450 3609.53 2
6 -3 -4 100126 3259.49 20
6 -3 -4 97820.4 3551.32 6
6 -3 -3 65532.9 2674.84 2
6 -3 -3 66758.4 2517.59 20
6 -3 -3 64159.7 2579.8 6
6 -3 -2 54556.4 2295.52 2
6 -3 -2 50582.5 2183.61 20
6 -3 -2 48798.7 2234.54 29
6 -3 -1 31096.6 1595.18 2
6 -3 -1 33751.9 1761.13 20
6 -3 -1 32395.6 1774.19 29
6 -3 0 24140.2 1543.1 29
6 -3 0 23845.5 1450.6 15
6 -3 0 24754.3 1320.55 14
6 -3 1 48618 2288.82 20
6 -3 1 47723.7 2339.84 29
6 -3 1 52785.8 2350.4 15
6 -3 1 52113.7 2140.54 14
6 -3 2 146915 4806.13 20
6 -3 2 147522 4948.27 29
6 -3 2 153952 4651.57 14
6 -3 3 10995.7 982.537 20
6 -3 3 10988.4 933.826 19
6 -3 3 14223.3 1052.91 31
6 -3 3 13284.9 1165.56 29
6 -3 3 12998.1 1035.66 14
6 -3 4 9262.36 931.614 12
6 -3 4 9413.05 837.207 20
6 -3 4 9345.11 950.792 29
6 -3 5 89950.3 3245.45 29
6 -3 5 84296.8 3128.33 13
6 -3 5 86052.6 3202.82 12
6 -3 6 8707.71 749.13 29
6 -3 6 7851.36 718.208 13
6 -3 7 912.91 214.531 29
6 -3 7 948.901 219.197 13
6 -2 -12 1256.96 208.956 6
6 -2 -11 13225.9 900.264 6
6 -2 -10 3809.67 499.277 2
6 -2 -10 4313 593.221 6
6 -2 -9 5865.87 698.686 2
6 -2 -9 5314.89 715.377 6
6 -2 -8 94911.8 3485.65 2
6 -2 -8 93337.1 3581.13 6
6 -2 -7 21158.6 1426.31 2
6 -2 -6 554.724 260.785 2
6 -2 -6 813.995 315.467 6
6 -2 -5 44497.1 2199.08 6
6 -2 -4 74145.4 2982.78 2
6 -2 -4 78274.6 2730.42 20
6 -2 -4 77210.5 2997.04 6
6 -2 -3 32883.8 1752.55 2
6 -2 -3 33213.5 1616.53 20
6 -2 -3 29415.3 1543.46 29
6 -2 -3 30010 1615.78 6
6 -2 -2 19985.9 1304.36 2
6 -2 -2 21050.7 1286.5 20
6 -2 -2 21163.1 1278.69 29
6 -2 -2 18718.9 1145.76 6
6 -2 -1 2026.9 428.012 20
6 -2 -1 1773.26 371.536 2
6 -2 -1 1919.65 417.633 15
6 -2 -1 1860.96 393.055 29
6 -2 -1 2315.58 397.492 14
6 -2 0 46629.9 1828.09 16
6 -2 0 49488.7 2220.74 29
6 -2 0 45190 2175.67 15
6 -2 0 47747.4 2032.63 14
6 -2 1 36801.7 1968.39 20
6 -2 1 39150.6 1672.99 16
6 -2 1 42005.1 2100.41 15
6 -2 1 39768.3 2009.61 29
6 -2 1 39298 1873.82 14
6 -2 2 23216 1495.11 20
6 -2 2 23823 1509.09 19
6 -2 2 20621.7 1187.01 16
6 -2 2 21994.9 1465.8 29
6 -2 3 1400.78 373.878 20
6 -2 3 1960.29 413.209 19
6 -2 3 1827.39 426.116 29
6 -2 4 122241 4077.73 12
6 -2 4 110602 3563.03 17
6 -2 4 112405 3885.91 29
6 -2 5 17330.5 1135.1 29
6 -2 5 18466.3 1222.16 12
6 -2 6 12538.4 865.814 12
6 -1 -11 141.27 135.39 6
6 -1 -10 1437.25 316.326 2
6 -1 -10 1985.54 410.757 6
6 -1 -9 24725.9 1447.76 2
6 -1 -9 22269 1477.84 6
6 -1 -8 24271.5 1517.36 2
6 -1 -8 25347.1 1609.27 6
6 -1 -7 604.475 274.919 2
6 -1 -6 30268.9 1729.99 2
6 -1 -6 27608.3 1697.87 6
6 -1 -5 28871.4 1420.69 20
6 -1 -5 28035.7 1644.88 35
6 -1 -5 28528.4 1707.98 6
6 -1 -4 65718.4 2717.17 2
6 -1 -4 61319 2401.12 20
6 -1 -4 62442.9 2647.49 35
6 -1 -4 63035.2 2644.07 6
6 -1 -3 83917.4 3216.99 2
6 -1 -3 87446.4 3087.55 20
6 -1 -3 86193.1 3233.11 35
6 -1 -3 87848.4 3168.52 6
6 -1 -2 30539.1 1632.8 20
6 -1 -2 32253.3 1698.89 35
6 -1 -2 26840.8 1416.55 7
6 -1 -2 30864.4 1632.28 15
6 -1 -2 26191.7 1549.92 2
6 -1 -1 2459.72 436.315 2
6 -1 -1 2571.9 486.334 20
6 -1 -1 2326.54 452.65 15
6 -1 -1 3211.64 481.955 14
6 -1 0 163288 4742.07 16
6 -1 0 165810 5172.15 15
6 -1 0 157119 4796.47 29
6 -1 0 168472 4979.73 14
6 -1 1 165838 5294.81 20
6 -1 1 164923 5346.6 19
6 -1 1 165766 4837.62 16
6 -1 1 160539 4931.99 29
6 -1 1 169472 5079.28 14
6 -1 2 10797.6 1021.67 19
6 -1 2 8897.04 796.422 16
6 -1 2 9908.74 884.642 29
6 -1 2 9657.3 905.125 14
6 -1 3 81154.5 3192.17 12
6 -1 3 75462 2981.83 19
6 -1 3 83310.6 3096.71 14
6 -1 4 21779.6 1368.22 13
6 -1 4 22273.5 1403.11 12
6 -1 5 16423.1 1091.23 13
6 -1 5 18773.8 1137.76 12
6 -1 6 7409.06 596.524 13
6 0 -12 5117.1 386.802 7
6 0 -10 13449.6 1013.31 6
6 0 -10 12999 896.03 2
6 0 -9 40169.9 2018.41 6
6 0 -9 39702 1890.47 2
6 0 -8 1185.42 348.903 2
6 0 -8 1367.45 385.485 6
6 0 -7 3873.78 598.572 2
6 0 -7 4560.18 667.289 6
6 0 -6 13300.6 1131.58 2
6 0 -6 14296.4 1167.28 35
6 0 -6 16012.8 1241.07 6
6 0 -5 6334.69 777.963 35
6 0 -5 5691.61 733.2 6
6 0 -5 7358.07 837.273 2
6 0 -4 155142 4665.39 20
6 0 -4 147879 4932.08 35
6 0 -4 151453 4552.56 15
6 0 -4 153320 4947.82 2
6 0 -3 22325.3 1380.91 20
6 0 -3 21174.9 1330.61 7
6 0 -3 22700.2 1328.71 15
6 0 -3 23174.5 1477.53 2
6 0 -2 14322.2 1121.89 20
6 0 -2 14135.2 1124.52 35
6 0 -2 11785.6 931.79 7
6 0 -2 13605 1034.58 15
6 0 -2 12775.2 1052.66 2
6 0 -1 218681 6418.67 20
6 0 -1 213802 6234.8 35
6 0 -1 227063 6628.32 19
6 0 -1 199583 5767.5 7
6 0 -1 219676 6261.28 15
6 0 -1 219813 6158.23 14
6 0 0 36167.7 1740.85 16
6 0 0 35485 1821.59 14
6 0 1 18431.4 1400.64 19
6 0 1 18041.1 1177 16
6 0 1 18364.6 1263.54 14
6 0 2 14869.6 1153.79 12
6 0 2 14065 950.112 21
6 0 2 16562.1 1262.6 19
6 0 2 14191.7 1037.31 16
6 0 2 15203.8 1139.04 14
6 0 3 44221.3 2055.95 12
6 0 4 19842.3 1154.48 17
6 0 4 21640.1 1276.83 13
6 0 4 21900 1237.13 12
6 0 5 38266.6 1500.38 17
6 0 5 38587 1598.58 13
6 1 -12 101.409 67.0018 7
6 1 -11 3003.93 379.258 7
6 1 -10 18473.6 1022.64 2
6 1 -9 1285.76 326.999 2
6 1 -8 11952 990.646 2
6 1 -7 6992.21 802.598 35
6 1 -7 6689.45 770.766 2
6 1 -6 1713.77 425.395 2
6 1 -6 1681.22 419.701 35
6 1 -5 117568 4266.26 35
6 1 -5 116705 3841.48 19
6 1 -5 118347 4082.74 7
6 1 -5 125082 4209.8 2
6 1 -4 25558.3 1690.85 35
6 1 -4 28725.3 1599.84 19
6 1 -4 27708.3 1612.07 7
6 1 -3 386.704 241.473 2
6 1 -3 310.298 212.818 35
6 1 -3 108.648 147.34 19
6 1 -3 534.997 235.854 7
6 1 -2 77375 3135.51 35
6 1 -2 81466.6 3205.22 19
6 1 -2 74095.7 2813.71 7
6 1 -2 76182.6 2897.61 14
6 1 -1 77068.8 3022.79 35
6 1 -1 79599 3244.96 19
6 1 -1 75930.3 2924.93 14
6 1 0 9792.89 1025.62 19
6 1 0 9965.16 882.171 16
6 1 0 10394.3 917.802 14
6 1 1 9714.83 838.033 21
6 1 1 7283.29 886.992 19
6 1 1 10173 870.665 16
6 1 1 8707.85 832.344 14
6 1 1 9347.6 817.105 12
6 1 2 14049.7 963.301 21
6 1 2 16001.7 1080.78 16
6 1 2 15918.1 1116.62 14
6 1 2 16453.3 1048.45 12
6 1 3 15152.7 1015.37 13
6 1 3 12162.3 815.899 12
6 1 4 53508.2 1957.43 17
6 1 4 52911 1945.08 13
6 1 5 2235.42 262.171 17
6 2 -11 15113.3 787.195 7
6 2 -10 1317.13 286.473 7
6 2 -9 40448.5 1819.13 7
6 2 -9 38433.6 1692.35 2
6 2 -8 1971.18 395.937 2
6 2 -8 1828.51 395.899 7
6 2 -7 1870.09 402.383 2
6 2 -7 2022.7 435.459 7
6 2 -6 73325.9 2929.26 2
6 2 -5 109059 4192.42 35
6 2 -5 113674 3749.43 19
6 2 -5 120084 4073.43 7
6 2 -4 4701.42 625.607 19
6 2 -4 5199.63 672.772 7
6 2 -3 62974.7 2876.38 35
6 2 -3 69009.8 2787.07 19
6 2 -3 66601.6 2672.09 7
6 2 -3 63891.8 2546.29 14
6 2 -2 86507.8 3368.08 19
6 2 -2 84723.8 3065.33 14
6 2 -1 11079.5 1060.39 19
6 2 -1 12316.3 956.554 14
6 2 0 22377.4 1318.99 14
6 2 1 564.157 224.238 21
6 2 1 712.4 240.237 14
6 2 2 4944.53 522.725 21
6 2 2 5184.03 545.688 13
6 2 3 45066 1594.07 13
6 2 4 12884.3 675.254 17
6 3 -10 29289.5 1254.03 7
6 3 -9 1636.48 319.426 7
6 3 -8 1701.8 345.792 7
6 3 -7 43725.1 1999.07 7
6 3 -5 9407.15 876.769 7
6 3 -5 9276.34 758.26 14
6 3 -4 15251.6 989.676 14
6 3 -3 27418.6 1379.06 14
6 3 -2 5987.38 665.158 16
6 3 -2 4194.55 505.87 14
6 3 -1 75646.6 2791.78 16
6 3 -1 76783.7 2582.03 14
6 3 0 4883.73 569.027 21
6 3 0 4903.37 562.136 16
6 3 1 799.047 226.685 21
6 3 1 961.962 251.794 16
6 4 -3 146.68 160.271 16
6 4 -2 63746.3 2389.81 21
6 4 -2 63364.3 2303.63 16
6 4 -1 8094.88 655.989 16
6 4 0 4645.81 465.028 21
6 5 -5 2896.66 341.32 16
6 5 -4 128.061 107.612 21
6 5 -4 280.772 123.678 16
6 5 -3 35759.1 1396.88 21
6 5 -3 35092.7 1337.89 16
6 5 -2 43695.4 1519.28 21
6 5 -2 41183 1428.95 16
6 5 -1 1663.43 221.711 21
7 -10 -4 14881.8 837.176 29
7 -10 -3 270.764 141.34 29
7 -10 -2 940.053 239.865 29
7 -10 -1 9884.36 752.34 29
7 -10 0 127.756 139.593 29
7 -10 1 9627.27 704.715 29
7 -10 2 15005.4 816.003 34
7 -10 2 14402.5 810.409 29
7 -10 3 636.09 172.955 34
7 -10 3 640.858 149.527 29
7 -9 -7 202.848 115.396 2
7 -9 -3 7595.42 765.638 29
7 -9 -2 10314.1 916.478 29
7 -9 -1 2080.46 425.322 29
7 -9 0 37988.3 1860.03 29
7 -9 1 20382.1 1259.59 29
7 -9 2 11661.1 898.215 29
7 -9 3 4153.42 498.429 29
7 -9 4 30544 1340.08 34
7 -9 4 27609.6 1230.18 29
7 -9 5 904.039 192.733 34
7 -8 -8 1179.78 235.774 2
7 -8 -8 1007.89 219.513 6
7 -8 -7 440.345 201.346 6
7 -8 -6 18539 1260.49 3
7 -8 -5 776.547 301.121 3
7 -8 -4 13249.6 1126.38 3
7 -8 -3 10333.4 967.939 3
7 -8 -2 4389.44 667.757 29
7 -8 -2 3946.2 504.493 15
7 -8 -1 26624.2 1657.73 29
7 -8 -1 24446 1301.32 15
7 -8 0 34070.8 1885.55 29
7 -8 1 8302.21 877.33 29
7 -8 2 8737.21 854.542 29
7 -8 3 33422.6 1561.82 20
7 -8 3 35000.5 1719.03 29
7 -8 4 -36.8073 141.066 29
7 -8 5 7892.35 612.835 29
7 -8 6 10522.5 579.244 34
7 -7 -9 140.23 116.87 2
7 -7 -9 283.529 139.771 6
7 -7 -8 455.087 195.257 6
7 -7 -7 5220.97 650.159 6
7 -7 -6 964.982 387.101 3
7 -7 -6 577.554 292.032 6
7 -7 -5 20119.6 1475.26 3
7 -7 -5 15636.5 1208.78 6
7 -7 -4 30017 1861.62 3
7 -7 -2 22681.9 1626.52 29
7 -7 -2 27200.9 1696.5 25
7 -7 -1 55267.1 2613.94 29
7 -7 -1 53359.6 2262.94 15
7 -7 0 11746.5 1111.37 29
7 -7 0 11344.4 925.313 15
7 -7 1 10190 1009.9 29
7 -7 1 9620.82 848.492 15
7 -7 2 34065.6 1824.09 20
7 -7 2 36878.5 1958.16 29
7 -7 3 538.969 246.608 20
7 -7 3 928.648 331.193 29
7 -7 4 20308.2 1255.62 29
7 -7 5 29718.6 1394.55 34
7 -7 5 30953.6 1435.43 29
7 -7 6 1747.53 265.488 29
7 -6 -10 245.245 112.52 2
7 -6 -10 370.022 153.647 6
7 -6 -9 2184.72 357.572 2
7 -6 -8 762.137 289.135 6
7 -6 -7 4977.11 689.004 6
7 -6 -6 29435.5 1776.74 6
7 -6 -5 52423 2466.76 6
7 -6 -4 21048.7 1407.68 6
7 -6 -3 3087.94 551.181 25
7 -6 -2 85657.3 3211.92 2
7 -6 -2 91887.5 3577.08 29
7 -6 -2 85258.8 3415.28 25
7 -6 -1 4567.87 720.361 29
7 -6 -1 5381.96 676.923 15
7 -6 -1 5082.4 728.982 25
7 -6 0 8248.95 835.274 15
7 -6 0 7124.76 855.237 25
7 -6 1 33528.9 1885.88 20
7 -6 1 31207.9 1714.51 15
7 -6 2 3178.89 545.574 20
7 -6 3 42050.1 1928.24 20
7 -6 4 7242.84 685.493 12
7 -6 4 8511.15 830.688 29
7 -6 5 12380.8 892.215 29
7 -6 5 11721.9 785.037 12
7 -6 6 18116.2 926.73 29
7 -5 -11 1322.03 196.59 6
7 -5 -10 2906.84 364.096 2
7 -5 -10 2284.57 369.305 6
7 -5 -9 3281.16 477.384 2
7 -5 -8 7935.41 828.751 2
7 -5 -8 8040.33 850.382 6
7 -5 -7 10668.6 1038.29 6
7 -5 -6 43590.6 2255.01 6
7 -5 -5 8798.29 768.341 20
7 -5 -5 7747.09 886.676 6
7 -5 -4 4536.6 592.76 20
7 -5 -4 2398.44 486.253 6
7 -5 -3 76608.3 3106.81 2
7 -5 -3 75248.4 2550.93 14
7 -5 -2 551.677 251.004 2
7 -5 -2 574.609 328.584 29
7 -5 -2 722.772 211.157 14
7 -5 -1 19355.4 1392.43 20
7 -5 -1 20320 1483.25 29
7 -5 -1 17244.3 1268.66 15
7 -5 -1 16196.8 1016.19 14
7 -5 0 41783.5 2217.44 29
7 -5 0 40608.3 2037.73 15
7 -5 0 39621.9 1740.92 14
7 -5 1 8977.52 950.513 20
7 -5 1 9512.26 999.042 29
7 -5 1 9939.28 952.762 15
7 -5 1 8722.69 755.007 14
7 -5 2 56845.3 2468.22 20
7 -5 2 58614.4 2632.11 29
7 -5 3 32125.6 1649.89 20
7 -5 3 32049.7 1804.25 29
7 -5 3 29291.3 1497.09 13
7 -5 4 18018.4 1160.5 12
7 -5 4 18207 1238.25 29
7 -5 5 9506.34 772.88 29
7 -5 5 7065.23 644.411 12
7 -5 6 32495.2 1300.38 29
7 -5 6 29657.5 1197.51 12
7 -4 -11 4697.98 437.809 6
7 -4 -10 9711.14 719.231 2
7 -4 -10 10318.8 807.313 6
7 -4 -9 3687.86 521.582 2
7 -4 -8 10025.6 944.658 2
7 -4 -8 10241.2 988.07 6
7 -4 -7 64111.1 2804.33 2
7 -4 -7 63971.8 2812.86 6
7 -4 -6 16246.4 1301.11 6
7 -4 -5 2965.56 449.816 20
7 -4 -5 3182.97 604.382 2
7 -4 -5 3463.3 596.426 6
7 -4 -4 45927 2302.57 2
7 -4 -4 47219 2063.17 20
7 -4 -4 41388.8 2106.59 6
7 -4 -3 5652.94 738.937 2
7 -4 -3 6044.62 703.699 20
7 -4 -3 5204.39 724.044 29
7 -4 -3 5738.28 666.089 6
7 -4 -2 27336.6 1591.71 2
7 -4 -2 30508 1721.57 20
7 -4 -2 26984.6 1719.7 29
7 -4 -2 31025.2 1502.85 14
7 -4 -1 50939.6 2388.88 20
7 -4 -1 47344 2397.98 29
7 -4 -1 48121.6 2322.4 15
7 -4 -1 51611.9 2090.19 14
7 -4 0 10309.2 1036.49 29
7 -4 0 11616.9 1031.84 15
7 -4 0 9393.02 813.983 14
7 -4 1 70992.6 3003.88 20
7 -4 1 79480 3083.07 15
7 -4 1 73939 3080.95 29
7 -4 1 69545.1 2690.38 14
7 -4 2 86526.7 3307.33 20
7 -4 2 89346.7 3435.76 29
7 -4 2 88199.4 3111.9 14
7 -4 3 7496.39 763.232 20
7 -4 3 7603.69 835.064 29
7 -4 4 1502.06 371.604 29
7 -4 4 1568.54 341.086 13
7 -4 5 26475.5 1289.37 29
7 -4 5 22856.3 1164.03 13
7 -4 6 1899.89 263.147 29
7 -4 6 2728.55 315.25 12
7 -3 -11 12443.7 756.706 6
7 -3 -11 9094.64 552.687 2
7 -3 -10 2101.43 353.388 2
7 -3 -10 2290.19 410.238 6
7 -3 -9 134.686 180.508 2
7 -3 -9 252.19 193.349 6
7 -3 -8 40178.7 2035.32 2
7 -3 -7 12028.5 1084.17 2
7 -3 -7 11725.1 1099.1 6
7 -3 -6 2701.32 544.949 6
7 -3 -5 9834.99 1006.72 2
7 -3 -5 9776.31 814.591 20
7 -3 -5 10590.9 1019.99 6
7 -3 -4 896.956 288.598 20
7 -3 -4 1488.06 415.088 2
7 -3 -4 905.84 305.885 29
7 -3 -4 1328.92 370.851 6
7 -3 -3 79998.5 3177.09 2
7 -3 -3 85352.8 3106.21 20
7 -3 -3 80684.1 3104.7 29
7 -3 -3 78258.4 2923.42 6
7 -3 -2 3874.99 581.266 2
7 -3 -2 4974.35 672.471 20
7 -3 -2 3505.38 582.627 29
7 -3 -2 4261 642.493 15
7 -3 -2 3948.86 537.974 14
7 -3 -1 15035.7 1202.6 20
7 -3 -1 12536.8 1081.21 29
7 -3 -1 14113.5 1160.3 15
7 -3 -1 12542.1 972.802 14
7 -3 -1 12009.6 919.455 2
7 -3 0 6583.17 792.014 29
7 -3 0 7542.36 861.303 15
7 -3 0 7389.34 745.793 14
7 -3 1 189206 5822.89 20
7 -3 1 187861 5741.49 29
7 -3 1 186463 5519.92 14
7 -3 2 8142.06 857.582 20
7 -3 2 7705.54 801.056 19
7 -3 2 8171.3 851.837 29
7 -3 2 8691.64 826.417 14
7 -3 3 5391.6 684.269 12
7 -3 3 4377.21 591.299 29
7 -3 4 33238.2 1606.77 13
7 -3 4 34843.6 1694.31 12
7 -3 5 2464.12 357.17 13
7 -3 5 3699.67 444.631 12
7 -3 6 8587.83 508.896 13
7 -2 -11 1172.77 205.797 2
7 -2 -11 1051.29 249.552 6
7 -2 -10 1353.81 288.233 2
7 -2 -10 934.329 283.941 6
7 -2 -9 25917.8 1463.82 2
7 -2 -9 26923.4 1566.91 6
7 -2 -8 11805.6 1036.68 2
7 -2 -7 17035.4 1294.5 2
7 -2 -7 18056.3 1362.27 6
7 -2 -6 9293.07 961.125 6
7 -2 -5 17721 1342.32 2
7 -2 -5 18988.3 1160.67 20
7 -2 -5 15420.8 1236.63 6
7 -2 -4 19814.9 1427.09 2
7 -2 -4 21763.1 1323.46 20
7 -2 -4 21106.2 1398.08 6
7 -2 -3 53884.1 2365.99 20
7 -2 -3 56347.7 2466.81 15
7 -2 -3 52686.3 2435.95 2
7 -2 -2 86683.9 3302.18 20
7 -2 -2 90331.2 3354.88 15
7 -2 -2 87266.5 3135.19 14
7 -2 -2 82404.6 3143.25 2
7 -2 -1 6849.76 804.486 20
7 -2 -1 6314.96 612.378 16
7 -2 -1 7343.18 735.977 29
7 -2 -1 7754.59 858.173 15
7 -2 -1 8444.94 818.077 14
7 -2 -1 7812.82 737.499 2
7 -2 0 189692 5238.9 16
7 -2 1 9907 968.033 20
7 -2 1 9678.55 970.931 19
7 -2 2 13807.6 1079.27 19
7 -2 3 9316.11 858.809 12
7 -2 4 1729.68 347.584 12
7 -2 5 29335.1 1228.21 12
7 -1 -11 17.1555 85.7265 2
7 -1 -10 2781.19 442.786 6
7 -1 -10 3273.19 427.749 2
7 -1 -9 12222.4 991.069 6
7 -1 -9 11909.4 937.993 2
7 -1 -8 8645.85 850.593 2
7 -1 -7 14688.5 1181.72 2
7 -1 -7 15466.3 1234.22 6
7 -1 -6 6162.82 779.236 6
7 -1 -6 7156.91 835.259 2
7 -1 -5 32567 1599.83 20
7 -1 -5 29006.9 1761.51 2
7 -1 -4 199268 5826.34 20
7 -1 -4 208164 5929.76 15
7 -1 -4 194474 6095.53 2
7 -1 -3 6139.57 737.256 20
7 -1 -3 5642.94 645.571 7
7 -1 -3 6082.33 718.999 15
7 -1 -3 5714.03 722.068 2
7 -1 -2 13130 1091.74 20
7 -1 -2 12123.3 1034.1 15
7 -1 -2 13413.7 1044.88 14
7 -1 -2 11351.2 973.28 2
7 -1 -1 68687.2 2904.65 20
7 -1 -1 71018.8 3028.93 19
7 -1 -1 68485.1 2565.65 16
7 -1 -1 74438.9 2837.81 14
7 -1 0 53935.8 2171.76 16
7 -1 0 56311.5 2389.57 14
7 -1 1 21195.1 1441.7 19
7 -1 1 22335.2 1236.83 16
7 -1 1 23222.1 1399.61 14
7 -1 2 26297.7 1480.18 12
7 -1 2 24781.1 1451.11 19
7 -1 2 24832.7 1418.75 14
7 -1 3 6222.13 643.425 13
7 -1 3 6306.71 638.145 12
7 -1 4 17854 986.508 13
7 -1 4 16639.9 898.403 12
7 -1 5 26314.9 998.481 13
7 0 -11 625.658 182.527 7
7 0 -10 6481.47 569.224 2
7 0 -9 6094.26 627.939 2
7 0 -8 25122.3 1452.57 2
7 0 -7 1407.04 385.426 2
7 0 -6 1266.77 373.276 2
7 0 -6 1869.2 365.56 19
7 0 -5 105839 3709.54 19
7 0 -5 121115 3962.62 7
7 0 -4 22351.9 1565.01 35
7 0 -4 24176.1 1493.53 19
7 0 -4 24829 1458.81 7
7 0 -4 25508.3 1569.27 2
7 0 -3 2573.4 510.773 19
7 0 -3 2099.06 403.103 7
7 0 -3 3742.15 574.358 2
7 0 -3 2837.65 492.484 14
7 0 -2 8909.18 926.809 19
7 0 -2 10653.3 927.032 14
7 0 -1 34244.2 1939.7 19
7 0 -1 33315.5 1639.42 16
7 0 -1 30469.4 1663.42 14
7 0 0 29067.7 1511.23 12
7 0 0 28410.4 1485.82 16
7 0 0 28516.1 1568.66 14
7 0 1 29553.1 1658.68 19
7 0 1 29343.2 1460.94 16
7 0 1 32054.5 1613.81 14
7 0 1 30285.6 1487.49 12
7 0 2 1306.68 281.955 12
7 0 3 17284.7 980.786 13
7 0 4 49305.5 1583.78 13
7 1 -11 936.144 181.285 7
7 1 -10 2778.69 374.111 7
7 1 -9 27287.8 1369.67 7
7 1 -9 25665.9 1290.07 2
7 1 -8 16069.3 1096.22 7
7 1 -8 16571.4 1087.4 2
7 1 -7 2841.29 486.369 2
7 1 -6 89256 3276.52 7
7 1 -6 95309.5 3371.64 2
7 1 -5 55612.7 2292.12 19
7 1 -5 61890.2 2489.44 7
7 1 -4 12111.6 997.518 19
7 1 -4 12686.3 980.126 7
7 1 -4 12162.5 962.945 14
7 1 -3 8338.49 838.848 19
7 1 -3 7567.75 752.945 14
7 1 -2 2405.11 483.447 19
7 1 -2 2909.6 465.024 16
7 1 -2 2173.28 402.331 14
7 1 -1 19090.5 1306.33 19
7 1 -1 15435.8 1054.32 16
7 1 -1 16133 1098.49 14
7 1 0 35569.2 1604.38 21
7 1 0 39856.8 1918.46 19
7 1 0 36943.9 1691.69 16
7 1 0 38849.1 1744.37 14
7 1 1 7161.28 627.345 16
7 1 2 8314.31 617 13
7 2 -10 27643.6 1147.71 7
7 2 -9 11350.7 764.219 7
7 2 -8 5795.96 592.141 7
7 2 -6 38167.4 1784.22 7
7 2 -5 8679.69 711.997 19
7 2 -5 10661.3 867.362 7
7 2 -5 9518.83 768.583 14
7 2 -4 22764.1 1280.09 19
7 2 -4 23354.1 1256.86 14
7 2 -3 4193.17 550.863 19
7 2 -3 4092.82 494.958 14
7 2 -2 3717.26 493.89 16
7 2 -2 3677.18 466.677 14
7 2 -1 63368.8 2324.55 21
7 2 -1 64622.1 2346.56 16
7 2 -1 64911.7 2244.66 14
7 2 0 9994.88 688.269 21
7 2 0 9809.44 712.785 16
7 3 -8 603.608 132.649 14
7 3 -7 11070.4 628.811 14
7 3 -6 592.422 154.408 14
7 3 -5 20399 940.604 14
7 3 -4 196.299 143.098 16
7 3 -4 357.712 137.471 14
7 3 -3 9060.35 695.842 16
7 3 -2 67150.8 2269.49 21
7 3 -2 66070.2 2243.47 16
7 3 -1 18786.6 918.141 21
7 3 -1 18211.2 917.795 16
7 4 -6 21706.1 936.763 16
7 4 -5 10002.9 600.335 16
7 4 -4 3327.79 341.433 21
7 4 -4 3104.56 323.348 16
7 4 -3 43880.3 1444.28 21
7 4 -3 40619.9 1389.3 16
8 -10 -3 5772.89 438.587 20
8 -10 -3 5938.66 492.005 29
8 -10 -2 11131.1 697.243 20
8 -10 -2 11292.4 715.452 29
8 -10 -1 775.732 208.276 20
8 -10 -1 765.528 205.842 29
8 -10 0 6351.53 512.678 29
8 -10 1 11999 669.539 20
8 -10 1 10170.2 611.99 29
8 -9 -6 2704.86 338.125 29
8 -9 -5 288.705 150.705 29
8 -9 -4 7251.2 554.44 20
8 -9 -4 7831.36 706.091 29
8 -9 -3 10721.8 788.997 20
8 -9 -3 11333.4 880.287 29
8 -9 -2 4642.07 574.669 29
8 -9 -1 19064.8 1156.44 20
8 -9 -1 18869.8 1158.67 29
8 -9 0 14565.2 979.203 29
8 -9 1 1097.56 266.914 20
8 -9 1 1624.85 324.326 29
8 -9 2 7360.7 561.257 20
8 -9 2 7674.69 609.256 29
8 -9 3 12245.2 695.106 34
8 -9 3 11225.8 656.668 29
8 -8 -7 6560.73 555.271 2
8 -8 -7 6704.78 585.199 29
8 -8 -6 34.444 138.452 2
8 -8 -6 38.6892 140.67 29
8 -8 -5 15714.1 827.548 20
8 -8 -4 12449.8 873.581 20
8 -8 -4 13785.6 887.951 15
8 -8 -3 13168.5 979.239 20
8 -8 -3 13200.9 888.469 15
8 -8 -2 18724.8 1233.94 20
8 -8 -2 18139.7 1271.57 29
8 -8 -2 16162 1003.64 15
8 -8 -1 18938.9 1268.32 20
8 -8 -1 20570.3 1347.61 29
8 -8 0 434.107 241.215 29
8 -8 1 5384.61 618.961 20
8 -8 1 6355.62 682.039 29
8 -8 2 34337.5 1506.39 20
8 -8 2 33106.7 1569.5 29
8 -8 3 1049.89 247.653 29
8 -8 4 11534.5 660.068 34
8 -8 4 12494 685.075 29
8 -7 -7 4327.43 540.35 2
8 -7 -6 12998.7 1008.56 2
8 -7 -5 21050.1 1353.78 2
8 -7 -5 21919.5 1121.85 20
8 -7 -5 19408.7 1347.48 29
8 -7 -4 4842.04 630.019 2
8 -7 -4 4360.97 563.1 20
8 -7 -4 4161.67 653.279 29
8 -7 -3 7559.96 777.803 20
8 -7 -3 5419.48 752.905 29
8 -7 -3 6281.74 691.533 15
8 -7 -2 32224.9 1743.67 20
8 -7 -2 29190.1 1767.98 29
8 -7 -2 28745 1555.57 15
8 -7 -1 11200.9 1000.69 20
8 -7 -1 11299.9 1043.06 29
8 -7 -1 9224.13 826.907 15
8 -7 0 9258.62 807.892 15
8 -7 1 7138.68 745.007 20
8 -7 2 1356.22 320.998 20
8 -7 4 20233.4 948.269 34
8 -6 -9 4606.62 445.04 2
8 -6 -9 3427.82 397.663 6
8 -6 -8 3414.34 475.275 2
8 -6 -8 3238.63 461.182 6
8 -6 -7 12377.5 976.79 2
8 -6 -7 9319.07 834.269 6
8 -6 -6 30841.2 1721.81 2
8 -6 -5 211.822 154.421 20
8 -6 -5 495.916 306.103 2
8 -6 -5 462.532 252.736 29
8 -6 -4 1228.51 323.879 20
8 -6 -4 1912.28 436.949 2
8 -6 -3 31963.2 1720.04 20
8 -6 -3 31154 1872.17 29
8 -6 -3 30779.6 1724.54 15
8 -6 -2 162.72 197.219 20
8 -6 -2 102.591 175.849 15
8 -6 -2 62.1426 225.95 29
8 -6 -1 25090.7 1590.71 20
8 -6 -1 26924.5 1683.77 29
8 -6 -1 26132.4 1541.77 15
8 -6 0 11736 1066.19 29
8 -6 0 10997.8 959.974 15
8 -6 1 13511.1 1066.75 20
8 -6 1 12823.9 1069.52 29
8 -6 2 38695.7 1780.26 20
8 -6 2 37713.7 1837 29
8 -6 3 30717.2 1419.08 12
8 -6 3 32291.1 1532.61 29
8 -6 4 1070.74 214.909 12
8 -6 4 844.628 215.039 29
8 -5 -10 7432.14 493.569 2
8 -5 -9 6163.7 570.424 2
8 -5 -9 4785.34 526.352 6
8 -5 -8 3128.05 476.883 2
8 -5 -8 2844.82 470.609 6
8 -5 -7 31822.3 1688.13 6
8 -5 -6 279.33 224.716 2
8 -5 -6 502.712 243.85 6
8 -5 -5 675.148 232.292 20
8 -5 -5 693.093 305.501 2
8 -5 -5 722.983 323.605 29
8 -5 -4 22587.2 1484.48 2
8 -5 -4 22297.5 1345.31 20
8 -5 -4 21105.5 1471.16 29
8 -5 -3 406.314 230.433 20
8 -5 -3 294.387 206.121 2
8 -5 -3 223.618 224.834 15
8 -5 -3 479.787 272.062 29
8 -5 -2 78585.7 3055.21 20
8 -5 -2 75320.7 3118.33 29
8 -5 -2 77831.4 3051.77 15
8 -5 -2 70535.4 2535.99 14
8 -5 -1 34568.2 1886.31 20
8 -5 -1 33682.2 1886.79 29
8 -5 -1 29970.3 1450.81 14
8 -5 0 7541.04 840.223 29
8 -5 1 19355.1 1316.38 20
8 -5 1 22568.5 1412.88 29
8 -5 2 34604.3 1683.41 20
8 -5 2 36702.5 1765.23 29
8 -5 3 2195.62 380.655 12
8 -5 3 2897.94 426.226 29
8 -5 4 1141.46 239.453 12
8 -4 -10 1391.61 244.548 2
8 -4 -9 139.919 152.853 2
8 -4 -9 -74.509 162.792 6
8 -4 -8 16693 1137.88 2
8 -4 -8 15287.9 1092.95 6
8 -4 -7 3200.95 534.395 6
8 -4 -6 22622.6 1496.06 2
8 -4 -6 20732 1377.03 6
8 -4 -5 809.231 256.331 20
8 -4 -5 754.344 306.984 2
8 -4 -5 679.5 270.065 6
8 -4 -4 3725.23 542.741 20
8 -4 -4 3346.43 571.33 2
8 -4 -4 3904.15 515.111 14
8 -4 -3 35748.4 1834.22 20
8 -4 -3 31938.6 1780.66 29
8 -4 -3 31942.7 1584.15 14
8 -4 -3 31930.5 1737.2 2
8 -4 -2 81685 3142.4 20
8 -4 -2 77749.2 3064.45 29
8 -4 -2 86262.6 3257.93 15
8 -4 -2 76126.5 2793.98 14
8 -4 -1 7382.71 833.996 20
8 -4 -1 6605.87 759.825 29
8 -4 -1 8081.98 869.92 15
8 -4 -1 7253.01 700.831 14
8 -4 0 10797.5 956.982 29
8 -4 0 10682.6 846.619 14
8 -4 1 67243.2 2647.44 20
8 -4 1 63844.8 2517.52 19
8 -4 1 58174.2 2302.9 14
8 -4 2 363.381 207.76 20
8 -4 3 2986.69 392.825 13
8 -4 3 3071.24 440.558 12
8 -4 4 11935.2 718.938 12
8 -3 -10 270.155 139.736 2
8 -3 -9 4494.36 531.144 2
8 -3 -9 4853.78 561.902 6
8 -3 -8 3284.97 494.864 2
8 -3 -8 2483.58 463.946 6
8 -3 -7 7728.76 813.933 6
8 -3 -6 1393.96 400.961 2
8 -3 -6 1387.39 359.059 6
8 -3 -5 38200.1 2001.02 2
8 -3 -5 36515.3 1691.16 20
8 -3 -4 2937.86 484.724 20
8 -3 -4 2405.43 499.745 2
8 -3 -4 3232.59 551.129 15
8 -3 -3 135653 4416.58 20
8 -3 -3 138764 4592.58 15
8 -3 -3 138170 4317.56 14
8 -3 -3 136325 4403.04 2
8 -3 -2 2809.06 518.124 20
8 -3 -2 2897.84 531.635 15
8 -3 -2 3277.01 504.957 14
8 -3 -1 9241.44 916.888 20
8 -3 -1 9142.31 923.988 15
8 -3 -1 8445.77 796.72 14
8 -3 0 32760 1782.59 19
8 -3 0 31698.2 1611.98 14
8 -3 1 887.154 284.524 19
8 -3 1 79.2194 151.912 14
8 -3 2 23227 1306.33 12
8 -3 3 14075.8 855.993 13
8 -3 3 16533.2 942.398 12
8 -3 4 1496.66 216.84 13
8 -3 4 1613.86 232.895 12
8 -2 -11 208.779 108.467 7
8 -2 -10 1336.8 247.252 2
8 -2 -9 2743.79 414.71 2
8 -2 -8 24920.1 1418.72 6
8 -2 -8 25204.5 1415.98 2
8 -2 -6 2604.09 497.529 2
8 -2 -6 2231.06 430.682 15
8 -2 -5 20754.6 1275.13 7
8 -2 -5 21780.5 1346.11 15
8 -2 -5 23038.2 1473.58 2
8 -2 -4 100647 3452.68 20
8 -2 -4 107221 3619.12 15
8 -2 -4 100495 3488.54 14
8 -2 -4 99003.8 3591.28 2
8 -2 -3 22380.9 1388.26 20
8 -2 -3 22561.2 1414.28 15
8 -2 -3 20298.7 1302.41 14
8 -2 -3 21332.5 1324.42 2
8 -2 -2 4615.67 633.867 20
8 -2 -2 3507.72 558.043 15
8 -2 0 2787.35 504.844 19
8 -2 1 26667.4 1399.08 12
8 -2 1 24574.6 1369.88 19
8 -2 2 14448.1 901.906 12
8 -2 3 166.121 112.606 12
8 -1 -11 637.034 134.368 7
8 -1 -10 654.551 172.1 2
8 -1 -10 463.722 167.776 7
8 -1 -9 8389.51 665.473 2
8 -1 -8 37365.3 1699.72 7
8 -1 -8 38146.4 1728.86 2
8 -1 -7 1525.08 370.476 2
8 -1 -7 1758.59 371.204 7
8 -1 -6 822.498 288.094 2
8 -1 -6 1054.25 276.017 19
8 -1 -6 1112.56 311.931 7
8 -1 -5 29912.9 1565.52 19
8 -1 -5 28606.2 1496.96 7
8 -1 -5 30107 1446.84 15
8 -1 -5 31483.6 1683.71 2
8 -1 -4 13190.1 1042.83 19
8 -1 -4 11886.9 889.392 15
8 -1 -4 12195.1 982.536 14
8 -1 -4 11988.4 976.394 2
8 -1 -3 10159.1 929.571 19
8 -1 -3 9155.69 843.667 14
8 -1 -2 18595.6 1278.14 19
8 -1 -2 16582.7 1136.27 14
8 -1 -1 1632.54 381.045 19
8 -1 -1 1762.16 365.063 14
8 -1 0 48952.9 1899.87 12
8 -1 0 48029.3 2097.23 19
8 -1 0 49000.3 2012.47 14
8 -1 1 38398.7 1609.48 14
8 -1 1 34651.1 1418.15 12
8 -1 2 4322.25 440.173 13
8 0 -10 81.7737 89.3505 7
8 0 -9 46607.4 1709.74 2
8 0 -8 10613.9 788.39 7
8 0 -8 12779.2 856.174 2
8 0 -7 2719.42 419.851 7
8 0 -7 2799.3 433.568 2
8 0 -6 15821.8 925.843 19
8 0 -6 18920 1119.51 7
8 0 -5 3172.63 453.094 19
8 0 -5 3477.39 469.02 7
8 0 -5 4089.27 527.914 14
8 0 -4 12365.5 929.51 19
8 0 -4 12121.2 921.301 14
8 0 -3 5472.19 637.706 19
8 0 -3 4594.08 516.107 16
8 0 -3 5430.2 609.445 14
8 0 -2 6869.34 613.376 16
8 0 -2 6494.86 654.882 14
8 0 -1 37481.9 1710.49 19
8 0 -1 32442 1530.62 14
8 0 0 55585.3 2018.6 14
8 0 1 5391.6 472.372 13
8 1 -10 20291.6 779.123 7
8 1 -10 16607.3 691.108 14
8 1 -8 3572.67 408.66 7
8 1 -7 8493.85 656.561 7
8 1 -7 7453.39 600.589 14
8 1 -6 6293.32 573.19 7
8 1 -6 6485.18 579.645 14
8 1 -5 5127.58 487.611 19
8 1 -5 6621.18 592.268 14
8 1 -4 14329.4 891.136 19
8 1 -4 13507.3 873.997 16
8 1 -4 14554.7 905.19 14
8 1 -3 2317.5 356.777 16
8 1 -3 2494.84 363.289 14
8 1 -2 8080.56 609.722 16
8 1 -2 8721.24 639.427 14
8 1 -1 49447.5 1715.17 16
8 1 -1 52568.3 1757.5 14
8 2 -7 1071.7 170.689 14
8 2 -6 10224.2 571.348 14
8 2 -5 32022.7 1252.8 16
8 2 -5 27209.6 1071.91 14
8 2 -4 1659.13 268.681 16
8 2 -4 1533.99 208.744 14
8 2 -3 2817.99 317.888 21
8 2 -3 2541.47 309.692 16
8 2 -2 50896 1603.89 16
9 -9 -3 183.944 94.6683 20
9 -9 -2 3781.85 382.716 20
9 -9 -1 12189.1 706.796 20
9 -9 -1 11168 706.398 29
9 -9 0 2805.76 326.282 29
9 -8 -5 7723.32 627.557 29
9 -8 -4 1141.71 214.071 20
9 -8 -4 1744 332.817 29
9 -8 -3 1980.74 319.191 20
9 -8 -3 2978.57 436.598 29
9 -8 -2 3771.32 463.124 20
9 -8 -2 4722.05 543.394 29
9 -8 -1 1098.89 267.37 20
9 -8 -1 1781.41 333.514 29
9 -8 0 18354.8 1010.49 29
9 -8 1 17981.2 877.445 20
9 -8 1 18798.5 937.522 29
9 -7 -7 1663.59 266.298 2
9 -7 -7 1908.22 282.156 15
9 -7 -6 9743.81 700.631 15
9 -7 -5 993.84 254.871 15
9 -7 -4 1709.92 300.767 20
9 -7 -4 1872.19 352.747 15
9 -7 -4 1982.01 378.709 29
9 -7 -3 6308.35 618.503 20
9 -7 -3 7850.6 741.554 29
9 -7 -3 6092.86 616.648 15
9 -7 -2 38.3773 147.084 20
9 -7 -2 35.4395 135.825 15
9 -7 -2 41.7226 143.023 29
9 -7 -1 28007.8 1431.52 20
9 -7 -1 28902.3 1466.08 29
9 -7 0 18436.6 1076.64 29
9 -7 1 1551.5 277.717 20
9 -7 1 1258.99 265.895 29
9 -7 2 9630.83 601.542 29
9 -6 -8 136.677 123.479 2
9 -6 -8 45.7113 107.297 15
9 -6 -7 9987.86 733.08 2
9 -6 -7 11124 767.991 15
9 -6 -6 1044.59 271.493 2
9 -6 -6 1398.91 313.422 15
9 -6 -5 11974.1 739.436 20
9 -6 -5 15272.9 1025.45 15
9 -6 -4 12406.8 851.431 20
9 -6 -3 544.442 235.96 20
9 -6 -2 36539.7 1725.6 20
9 -6 -1 11886 914.773 20
9 -6 1 9198.29 690.002 20
9 -6 2 15328.9 786.855 12
9 -5 -9 941.68 181.181 2
9 -5 -9 1199.26 187.593 15
9 -5 -7 174.451 158.254 2
9 -5 -7 138.947 157.558 15
9 -5 -6 11432.5 871.729 2
9 -5 -6 11232.4 876.059 15
9 -5 -5 13340.5 818.437 20
9 -5 -5 16887 1124.23 15
9 -5 -4 2888.92 428.27 20
9 -5 -4 3483.15 522.65 15
9 -5 -3 32181.8 1594.35 20
9 -5 -3 35080.1 1740.82 15
9 -5 -2 36629.1 1736.56 20
9 -5 -2 35203.1 1760.64 15
9 -5 -1 1927.81 379.071 20
9 -5 0 1313.41 290.056 19
9 -5 2 1418.77 247.624 12
9 -4 -9 146.936 119.428 2
9 -4 -9 293.721 110.224 15
9 -4 -8 5619.58 507.385 15
9 -4 -7 6163.18 595.243 15
9 -4 -7 5808.04 598.402 2
9 -4 -6 33866.1 1626.57 15
9 -4 -6 35037.3 1647.73 2
9 -4 -5 3215.63 404.471 20
9 -4 -5 3884.2 535.9 15
9 -4 -5 3081.7 462.648 2
9 -4 -4 24337.3 1273.13 20
9 -4 -4 26906.7 1468.95 15
9 -4 -4 22945.2 1196.67 14
9 -4 -3 31003.9 1526.66 20
9 -4 -3 31968.7 1637.16 15
9 -4 -3 27599.9 1345.55 14
9 -4 -2 875.691 282.112 20
9 -4 -2 1019.2 313.809 15
9 -4 -2 894.575 236.4 14
9 -4 -1 3492.69 499.474 20
9 -4 -1 3438.81 499.354 19
9 -4 -1 2765.89 379.715 14
9 -4 0 21317.9 1155.89 19
9 -4 1 -85.8005 120.087 12
9 -4 2 44943.2 1521.15 12
9 -3 -9 1259.73 224.674 2
9 -3 -9 1040.63 191.403 7
9 -3 -8 20808.7 934.364 15
9 -3 -7 31641.3 1336.88 15
9 -3 -7 30111.3 1321.18 14
9 -3 -7 33420.4 1485.75 2
9 -3 -6 7404.65 656.884 15
9 -3 -6 6871.18 613.884 14
9 -3 -6 8230.74 721.773 2
9 -3 -5 3206.25 464.867 15
9 -3 -5 3437.56 444.615 14
9 -3 -5 2989.78 449.404 2
9 -3 -4 41800.6 1806.24 15
9 -3 -4 35614.9 1627.22 14
9 -3 -3 88.1047 151.05 19
9 -3 -3 241.14 168.768 15
9 -3 -3 175.514 164.806 14
9 -3 -2 4313.52 551.614 19
9 -3 -2 3416.93 443.695 14
9 -3 -1 8827.78 758.011 19
9 -3 -1 7579.84 641.891 14
9 -3 0 1016.15 242.284 12
9 -3 0 1002.37 239.643 19
9 -3 0 1056.5 230.93 14
9 -3 1 26947.9 1142 13
9 -3 1 31433.6 1191.21 12
9 -2 -9 3932.04 346.006 7
9 -2 -9 3951.42 343.644 14
9 -2 -9 4639.85 388.696 2
9 -2 -8 14950.6 813.547 14
9 -2 -8 14753.7 840.031 2
9 -2 -7 1442.08 295.505 2
9 -2 -7 1049.93 243.783 14
9 -2 -6 813.313 250.336 2
9 -2 -6 785.038 206.155 19
9 -2 -6 747.707 184.904 15
9 -2 -6 583.567 204.794 14
9 -2 -5 22696 1196.64 19
9 -2 -5 23123.4 1104.93 15
9 -2 -5 23420.1 1226.99 14
9 -2 -5 25103.7 1249.89 2
9 -2 -4 183.941 178.394 19
9 -2 -4 208.743 163.359 14
9 -2 -3 29498.5 1474.33 19
9 -2 -2 10160.2 804.804 19
9 -2 -1 2260.6 294.418 12
9 -2 0 25079.8 1110.77 19
9 -1 -7 409.686 155.424 14
9 -1 -6 2070.43 255.65 19
9 -1 -6 3117.28 391.026 14
9 -1 -5 2940.06 360.761 19
9 -1 -5 4162.65 462.692 14
9 -1 -4 31774.1 1388.6 19
9 -1 -4 32615.3 1421.09 14
9 -1 -3 12663.4 823.193 19
9 -1 -3 11983 787.664 14
9 -1 -2 1455.12 284.805 19
9 -1 -2 1418.49 260.565 14
9 -1 -1 10351 631.949 14
9 0 -8 803.492 146.042 14
9 0 -7 694.979 154.328 14
9 0 -6 1999.55 273.109 14
9 0 -5 17461.2 862.57 14
9 0 -4 23732.3 1027.8 14
9 0 -3 3039.92 319.709 14
10 -6 -5 5982.24 478.543 15
10 -6 -4 2757.93 343.14 15
10 -6 -2 6438.59 481.423 19
10 -5 -6 5268.37 414.507 15
10 -5 -5 -21.4521 82.2156 19
10 -5 -5 45.5808 95.6811 15
10 -5 -4 2418.52 325.619 19
10 -5 -3 14665.7 819.936 19
10 -5 -2 690.665 176.132 19
10 -4 -5 194.978 103.092 19
10 -4 -4 7297.08 540.931 19
10 -4 -3 4226.58 412.184 19
10 -3 -4 53.8227 72.1244 19
10 -3 -3 16143.1 753.605 19
-8 10 -1 10473 637.268 37
-7 -3 6 661.599 192.475 38
-7 -3 7 14724.3 863.913 38
-7 -3 8 1185.1 236.179 38
-7 -3 9 291.069 123.607 38
-7 -2 6 40282.4 1773.96 38
-7 -2 7 27442.5 1406.76 38
-7 -2 8 5784.08 597.154 38
-7 -2 9 12420.5 826.67 38
-7 -1 6 92284.7 3221.53 38
-7 -1 7 2682.33 469.82 38
-7 -1 8 17664.1 1161.98 38
-7 0 3 2116.73 512.26 1
-7 0 4 23353.8 1659.72 1
-7 0 5 114384 4235.17 1
-7 0 6 1923.28 406.251 38
-7 0 7 1145.68 338.292 38
-7 0 8 23793.4 1423.23 38
-7 1 1 77210.9 3273.64 1
-7 1 2 12914.2 1218.43 1
-7 1 3 5797.87 814.809 1
-7 1 5 31640 1905.9 1
-7 1 6 6940.4 851.897 1
-7 2 0 220611 6710.72 1
-7 2 1 8243.17 976.153 1
-7 2 2 94717.6 3782.6 1
-7 2 3 59608 2796.3 1
-7 2 5 16172.9 1305.98 1
-7 2 6 8697.12 932.011 1
-7 3 0 8416.7 970.659 1
-7 3 1 15679.6 1327.47 1
-7 3 5 10387.6 973.07 26
-7 3 5 8825.22 954.887 1
-7 3 6 1855.07 443.765 1
-7 3 6 2202.35 468.046 26
-7 3 11 8259.44 541.367 23
-7 4 5 2577.02 491.613 26
-7 4 6 16134 1313.66 36
-7 4 6 14456.5 1199.82 26
-7 4 11 3451.53 339.544 23
-7 5 -1 9246.18 925.506 36
-7 5 0 41322.3 2133.4 36
-7 5 1 19760.4 1440.45 36
-7 5 2 824.982 326.809 36
-7 5 4 2413.52 528.14 36
-7 5 4 1557.91 379.806 26
-7 5 5 7071.8 818.992 26
-7 5 5 8521.46 976.217 36
-7 6 0 8681.55 951.489 36
-7 6 1 5113.73 752.744 36
-7 6 2 87879.5 3577.13 36
-7 6 3 4006.18 680.666 36
-7 6 4 22035.8 1626.18 36
-7 6 4 21052.2 1411.13 26
-7 9 4 6202.12 574.412 5
-7 10 -2 15878.8 932.255 37
-7 11 -1 1271.72 218.8 37
-7 11 0 8510.82 610.702 37
-7 11 1 2042.54 297.558 37
-6 -5 4 132.397 116.607 38
-6 -5 5 2436 326.556 38
-6 -5 6 19457.6 982.414 38
-6 -5 7 666.517 185.011 38
-6 -5 8 13087.5 726.742 38
-6 -4 3 99.4648 127.085 38
-6 -4 4 6962.32 670.521 38
-6 -4 5 4834.07 576.121 38
-6 -4 6 278.521 192.985 38
-6 -4 7 42764.2 1848.46 38
-6 -4 8 11685.7 840.412 38
-6 -4 9 445.313 187.214 38
-6 -4 10 16364.7 845.781 38
-6 -3 3 31441.7 1613.4 38
-6 -3 4 19291 1267.52 38
-6 -3 5 11857.9 989.31 38
-6 -3 6 73234.7 2868.62 38
-6 -3 7 48799.2 2192.78 38
-6 -3 8 1770.94 394.949 38
-6 -3 9 1244.71 312.797 38
-6 -3 10 31491.5 1445.76 38
-6 -2 2 95287.3 3829.69 1
-6 -2 3 72349.3 3251.93 1
-6 -2 3 74226.1 2838.98 38
-6 -2 4 5466.18 701.364 38
-6 -2 4 6425.09 877.938 1
-6 -2 5 134714 4381.28 38
-6 -2 5 123370 4593.08 1
-6 -2 6 73031 3203.47 1
-6 -2 6 81528.8 3138.01 38
-6 -2 7 2347.38 479.89 38
-6 -2 8 2158.08 458.046 38
-6 -2 9 40754.7 1960.01 38
-6 -2 10 1511.06 351.568 38
-6 -1 1 90855.3 3689.21 1
-6 -1 2 88112.6 3634.59 1
-6 -1 3 136.435 233.861 1
-6 -1 4 28542.6 1616.07 38
-6 -1 4 29779 1871.62 1
-6 -1 5 131028 4416.9 38
-6 -1 5 137914 4752.31 1
-6 -1 6 1973.96 490.409 1
-6 -1 6 2350.1 481.888 38
-6 -1 7 7728.17 891.499 1
-6 -1 7 8079.8 882.031 38
-6 -1 8 12556.1 1097.79 38
-6 -1 9 1335.73 361.733 38
-6 0 0 43161.8 2258.08 1
-6 0 1 243954 7287.54 1
-6 0 2 13487.4 1199.19 1
-6 0 3 22450 1565.8 1
-6 0 5 8427.33 840.765 38
-6 0 5 6647.85 822.602 1
-6 0 6 15290 1231.14 1
-6 0 6 14549.7 1161.83 38
-6 0 7 4589.8 665.532 1
-6 0 7 4644.03 691.884 38
-6 0 8 1695.93 426.891 38
-6 0 9 39414 2056.8 38
-6 0 11 50.437 96.6564 23
-6 1 -1 197819 6023.52 1
-6 1 0 189036 5905.61 1
-6 1 1 2930.82 555.838 1
-6 1 2 35768.2 1975.98 1
-6 1 3 95171.6 3595.65 1
-6 1 5 30253.2 1612.39 38
-6 1 5 33007.2 1834.89 1
-6 1 6 31065.8 1720.17 38
-6 1 6 31028.9 1772.05 1
-6 1 6 32915.9 1835.9 26
-6 1 7 1340.94 349.049 1
-6 1 7 1112.3 390.071 26
-6 1 7 1169.75 364.533 38
-6 1 10 1406.55 328.191 23
-6 1 11 192.811 160.635 23
-6 1 12 9722.62 596.882 23
-6 2 -1 44775.4 2198.89 1
-6 2 0 53640.7 2476.56 1
-6 2 4 84771.9 3045.31 26
-6 2 5 48680.4 2206.29 26
-6 2 5 48355.5 2259.12 1
-6 2 6 805.934 263.794 38
-6 2 6 778.78 286.485 26
-6 2 6 614.534 278.036 1
-6 2 7 22646.4 1393.92 1
-6 2 7 22628.7 1533.23 26
-6 2 8 97161.4 3752.29 26
-6 2 11 14563.8 953.257 23
-6 2 12 1341.16 237.185 23
-6 3 3 72124.2 2611.83 26
-6 3 4 102129 3456.69 26
-6 3 5 2132.24 435.908 26
-6 3 6 11979.8 1050.1 26
-6 3 7 122643 4292.59 26
-6 3 8 5741.98 778.052 26
-6 3 12 3185.24 335.87 23
-6 4 -2 76403.1 2846.57 36
-6 4 3 146452 4414.4 26
-6 4 4 637.794 259.35 26
-6 4 5 27251.9 1573.33 26
-6 4 6 64166.3 2729.48 26
-6 4 6 65112.3 2750.79 36
-6 4 7 23272.8 1547.91 26
-6 5 -2 23570.3 1460.87 36
-6 5 -1 127611 4268.15 36
-6 5 0 2942.03 522.675 36
-6 5 1 40554 2050.74 36
-6 5 2 259354 7211.64 36
-6 5 2 244568 6708.54 26
-6 5 3 31877.5 1641.9 26
-6 5 3 35758.5 1932.12 36
-6 5 4 30006.8 1786.18 36
-6 5 4 26512.3 1529.71 26
-6 5 5 7286.11 800.632 26
-6 5 5 6895.41 846.142 36
-6 5 5 6469.98 692.611 5
-6 5 6 30185.6 1767.3 26
-6 5 6 31346.9 1803.08 36
-6 5 7 823.772 311.372 26
-6 6 -2 107211 3838.21 36
-6 6 -1 2834.45 542.113 36
-6 6 0 15066.9 1233.76 36
-6 6 1 124320 4374.09 36
-6 6 2 26066.3 1454.77 26
-6 6 3 28597.4 1599.67 26
-6 6 3 30026.5 1851.65 36
-6 6 4 8404.78 793.352 5
-6 6 4 9197.98 892.797 26
-6 6 4 9514.13 1028.1 36
-6 6 5 20776.6 1512.17 36
-6 6 5 17943.7 1219.96 5
-6 6 5 17646.5 1299.2 26
-6 6 6 2402.59 487.61 26
-6 6 6 1950.57 426.944 5
-6 7 -2 7354.08 873.404 36
-6 7 -1 28152.2 1780.18 36
-6 7 0 32987.6 1981.22 36
-6 7 1 69715 3094.1 36
-6 7 2 18214.9 1259.58 26
-6 7 2 18263.5 1464.92 36
-6 7 3 38744.2 1849.96 5
-6 7 3 38875 1983.26 26
-6 7 3 41567.4 2305.77 36
-6 7 4 278.417 202.518 26
-6 7 4 347.499 252.74 36
-6 7 4 143.386 163.915 5
-6 7 5 1830 408.546 5
-6 7 6 24153.7 1457.64 5
-6 8 0 53981.5 2691.43 36
-6 8 2 22534.3 1355.37 5
-6 8 3 143.152 182.905 5
-6 8 4 193.306 194.299 5
-6 8 5 20965.6 1325.16 5
-6 8 6 3263.33 499.793 5
-6 8 6 3214.49 395.69 27
-6 9 1 53570 2208.18 5
-6 9 2 32947.7 1663.55 5
-6 9 3 20872.2 1280.77 5
-6 9 4 53410.7 2212.72 5
-6 9 5 7692.01 717.526 5
-6 9 5 7311.82 618.144 27
-6 10 -3 21098.3 1164.71 37
-6 10 0 17418.2 1013.29 5
-6 10 1 5987.98 606.084 5
-6 10 2 19429.2 1133.56 5
-6 10 2 21034.1 1319.59 37
-6 10 3 12568.5 867.133 5
-6 10 4 942.504 239.361 5
-6 10 4 624.252 187.216 27
-6 11 -3 1987.43 261.991 37
-6 11 -2 597.948 192.524 37
-6 11 -1 7784.91 652.736 37
-6 11 0 4985.33 392.352 5
-6 11 1 2370.55 359.503 37
-6 11 1 2051.74 269.816 5
-6 11 2 6966.13 486.744 5
-5 -6 2 14877.7 791.045 4
-5 -6 2 15749.6 801.954 38
-5 -6 3 32798.4 1377.82 38
-5 -6 4 1396.54 281.904 38
-5 -6 5 6509.32 597.046 38
-5 -6 6 17939.4 1012.15 38
-5 -6 7 2948.11 388.135 38
-5 -6 8 35847.5 1422.31 38
-5 -5 1 9551.2 736.943 38
-5 -5 2 18814.2 1151.38 38
-5 -5 3 3966.1 552.444 38
-5 -5 4 30674 1609.09 38
-5 -5 5 13149.3 1010.49 38
-5 -5 6 716.973 287.807 38
-5 -5 7 86813.8 3064.36 38
-5 -5 8 44476.1 1900.47 38
-5 -5 9 233.306 156.528 38
-5 -5 11 8649.78 471.058 9
-5 -4 0 9342.52 782.073 38
-5 -4 1 30988.6 1625.84 38
-5 -4 2 1300.55 364.867 38
-5 -4 3 72907 2915.7 38
-5 -4 4 32704.6 1796.34 38
-5 -4 5 1569.86 405.905 38
-5 -4 6 52101 2365.59 38
-5 -4 7 59209.7 2550.32 38
-5 -4 8 642.81 287.749 38
-5 -4 9 17161.9 1146.95 38
-5 -4 11 11284.7 665.48 9
-5 -3 1 14557.7 1301.31 1
-5 -3 1 15690.4 1158.76 38
-5 -3 2 272483 7527.84 38
-5 -3 2 259910 7971.02 1
-5 -3 3 46988.3 2226.47 38
-5 -3 3 43946.6 2442.13 1
-5 -3 4 4828.23 762.461 1
-5 -3 4 4759.93 669.045 38
-5 -3 5 57617.9 2538.87 38
-5 -3 5 49679.5 2584.14 1
-5 -3 6 145119 4788.87 38
-5 -3 6 140079 4897.23 1
-5 -3 7 4365.47 654.026 38
-5 -3 7 2897.79 497.061 28
-5 -3 7 3901.65 640.38 1
-5 -3 8 22811.8 1490.99 38
-5 -3 9 16432 1210.74 38
-5 -3 10 15955.4 1121.3 38
-5 -3 11 3697.43 421.606 32
-5 -3 12 695.804 145.596 32
-5 -2 0 2879.72 570.006 1
-5 -2 1 152755 5211.65 1
-5 -2 1 153426 4744.63 38
-5 -2 2 109202 4224.43 1
-5 -2 2 119947 3927.4 38
-5 -2 3 607.075 281.497 38
-5 -2 3 1113.42 381.07 1
-5 -2 4 37722.3 1931.96 38
-5 -2 5 102730 3973.45 1
-5 -2 5 117456 3974.42 38
-5 -2 6 61.4716 149.006 1
-5 -2 6 56.6655 153.568 38
-5 -2 7 14723.2 1208.28 1
-5 -2 7 13392 1027.18 28
-5 -2 7 15709.1 1244.82 38
-5 -2 8 8358.83 901.923 38
-5 -2 9 113.905 218.284 38
-5 -2 10 38991.2 1951.44 38
-5 -2 11 12155.2 827.952 32
-5 -2 12 1234.52 216.893 32
-5 -1 -1 10648.2 1021.27 1
-5 -1 0 142208 4781.9 1
-5 -1 1 315700 8789.18 1
-5 -1 2 3525.27 582.776 1
-5 -1 3 9536.49 850.351 38
-5 -1 3 10075.4 974.256 1
-5 -1 4 65050.2 2611.22 38
-5 -1 5 252.401 202.992 38
-5 -1 5 274.997 188.622 1
-5 -1 6 83691.9 3257.71 38
-5 -1 6 85547.2 3259.26 1
-5 -1 7 10868.4 1023.89 38
-5 -1 7 11511.3 1015.34 1
-5 -1 8 -60.3369 219.379 38
-5 -1 9 84101.3 3336.93 38
-5 -1 9 81921.7 2953.29 23
-5 -1 10 33073.3 1635.38 23
-5 -1 11 35.7942 130.144 23
-5 -1 11 34.4894 118.229 32
-5 -1 12 996.292 222.375 23
-5 -1 12 1158.35 223.196 32
-5 0 -1 91719.1 3396.34 1
-5 0 0 319897 8709.77 1
-5 0 1 42078.8 2058 1
-5 0 2 10952.5 965.439 1
-5 0 3 110683 3781.9 1
-5 0 4 724.339 262.143 1
-5 0 4 624.846 242.569 38
-5 0 5 114525 3847.23 38
-5 0 5 118765 3934.77 1
-5 0 6 2214.88 446.907 1
-5 0 6 2062.6 435.527 38
-5 0 7 3450.29 582.783 38
-5 0 7 3560.74 537.295 1
-5 0 8 17725.4 1360.41 38
-5 0 9 62803.3 2816.74 38
-5 0 10 344.655 223.507 23
-5 0 10 588.179 227.939 32
-5 0 11 3681.26 519.906 23
-5 0 11 2759.94 408.991 32
-5 0 12 8461.5 672.131 23
-5 0 13 -31.4511 63.2137 23
-5 1 -1 155485 4814.23 1
-5 1 0 33975.9 1742.17 1
-5 1 3 2673.97 401.407 26
-5 1 4 158489 4737.53 38
-5 1 4 178939 4902.19 26
-5 1 5 153778 4697.6 26
-5 1 5 148630 4611.52 38
-5 1 5 158807 4709.16 1
-5 1 6 3235.62 528.101 26
-5 1 6 3012.74 511.349 38
-5 1 6 3204.21 483.118 1
-5 1 7 26163.2 1613.63 38
-5 1 7 25239.9 1599.41 26
-5 1 7 28154.5 1462.88 1
-5 1 8 161323 5294.71 26
-5 1 10 8719.67 771.909 32
-5 1 11 2876.15 483.347 23
-5 1 12 487.524 193.271 23
-5 1 13 5180.7 384.044 23
-5 2 -2 103641 3509.92 1
-5 2 2 10316.3 702.21 26
-5 2 3 112507 3409.8 26
-5 2 4 409891 10192.2 26
-5 2 5 7164.69 690.522 38
-5 2 5 7089.82 711.376 26
-5 2 6 17712.1 1218.4 26
-5 2 6 16963 1177.25 38
-5 2 7 81580.9 3148.03 26
-5 2 7 76940.7 2735.88 1
-5 2 9 20088.1 1473.88 26
-5 2 12 9689.92 719.223 23
-5 3 1 17854.7 890.03 26
-5 3 2 101542 3043.98 26
-5 3 3 344375 8634.03 26
-5 3 4 17512.6 1061.53 26
-5 3 5 66318.8 2532.1 26
-5 3 6 46172 2109.04 26
-5 3 7 5845.25 728.194 26
-5 3 9 8049.53 898.415 26
-5 3 12 8958.17 636.089 23
-5 4 -2 78474.9 2792.31 36
-5 4 1 50273.6 1800.42 26
-5 4 2 101392 3117.92 26
-5 4 3 60928.8 2237.7 26
-5 4 4 12140.1 852.83 5
-5 4 4 14669 983.391 26
-5 4 5 3028.83 486.515 26
-5 4 5 2818.65 453.394 5
-5 4 6 6015.14 689.683 36
-5 4 6 6510.25 713.92 5
-5 4 6 7496.31 782.519 26
-5 4 8 25385 1614.46 26
-5 5 -3 17590.8 1166.65 36
-5 5 -2 260459 7163.47 36
-5 5 -1 2922.42 480.405 36
-5 5 0 91615.9 3253.5 36
-5 5 1 65347 2605.93 36
-5 5 3 19729.1 1118.12 5
-5 5 3 20204.6 1324.52 36
-5 5 4 58488 2352.73 26
-5 5 4 60010 2311.79 5
-5 5 4 57491.1 2509.93 36
-5 5 5 36027.5 1888.61 36
-5 5 5 34760.3 1736.59 5
-5 5 5 35599.2 1811.12 26
-5 5 6 34803.3 1846.83 26
-5 5 6 33420.3 1778.22 5
-5 5 7 61264.3 2675.59 26
-5 5 7 63567.2 2687.38 5
-5 6 -3 119764 4053.02 36
-5 6 -2 61671.1 2618.25 36
-5 6 -1 69198.8 2820.88 36
-5 6 0 93772.5 3462.21 36
-5 6 1 26954.8 1621.38 36
-5 6 2 21792.1 1250.65 5
-5 6 2 26115.7 1591.32 36
-5 6 3 32199.5 1855.66 36
-5 6 3 32655.9 1623.25 5
-5 6 4 1521.7 367.924 5
-5 6 4 1438.12 412.114 36
-5 6 5 28855.9 1722 36
-5 6 5 26408.7 1556.23 5
-5 6 5 27363.5 1605.16 26
-5 6 6 74610.9 2961.65 5
-5 6 6 71709.3 2604.3 27
-5 6 7 2967.11 543.107 5
-5 7 -3 88118.7 3398.39 36
-5 7 -2 2610.07 518.158 36
-5 7 -1 32075.1 1895.74 36
-5 7 0 2028.62 487.975 36
-5 7 2 49060.4 2500.88 36
-5 7 2 51901.6 2234.68 5
-5 7 3 296.103 246.681 5
-5 7 3 269.028 230.634 36
-5 7 4 20029.3 1505.63 36
-5 7 4 20239.3 1353.23 5
-5 7 5 57826.6 2490.58 5
-5 7 5 51791.5 2416.66 26
-5 7 6 15124.1 1155.69 5
-5 7 6 11756.4 913.829 27
-5 7 7 10219.6 918.298 5
-5 7 7 8646.27 713.084 27
-5 8 -3 2001.67 467.027 36
-5 8 -2 78654.5 3308.94 36
-5 8 -1 83781 3493.23 36
-5 8 0 25682.3 1764.26 36
-5 8 1 182699 6012.04 36
-5 8 2 844.866 307.743 5
-5 8 2 1359.4 425.399 36
-5 8 3 13584.3 1115.53 5
-5 8 3 14838 1329.98 36
-5 8 4 23001.6 1473.01 5
-5 8 5 13873.9 1107.58 5
-5 8 6 2870.72 491.337 5
-5 8 6 2827.33 426.815 27
-5 8 7 4381.33 454.339 27
-5 9 -4 403.213 230.534 37
-5 9 1 949.074 338.782 5
-5 9 2 34027.9 1825.02 5
-5 9 3 18415.4 1273.46 5
-5 9 4 17394 1203.57 5
-5 9 5 1573.99 355.041 5
-5 9 5 1480.74 311.314 27
-5 9 6 8626.29 630.414 27
-5 9 6 7807.17 685.801 5
-5 10 -4 19379.9 1112.88 37
-5 10 -3 1911.16 401.696 37
-5 10 -2 5265.55 671.01 37
-5 10 -1 27079 1628.48 37
-5 10 0 35460.8 1750.2 5
-5 10 1 11328.4 997.453 37
-5 10 1 9221.31 842.48 5
-5 10 2 7705.71 759.813 5
-5 10 2 9337.49 862.847 37
-5 10 3 5824.25 634.181 5
-5 10 4 216.768 163.622 27
-5 10 4 103.365 132.09 5
-5 10 5 6723.91 508.3 27
-5 10 5 6930.01 567.707 5
-5 11 -4 3134.77 325.989 37
-5 11 -3 7702.9 610.9 37
-5 11 -3 5081.94 413.002 5
-5 11 -2 14671.9 935.449 37
-5 11 -2 13420.8 784.965 5
-5 11 -1 17606.3 969.973 5
-5 11 -1 17928.6 1079.95 37
-5 11 0 1587.06 332.83 37
-5 11 0 1508.67 292.241 5
-5 11 1 13506 857.253 37
-5 11 1 11783.1 790.414 5
-5 11 2 1777.45 292.452 5
-5 11 2 2093.73 320.004 27
-5 11 3 597.718 164.108 5
-5 11 3 544.254 156.932 27
-4 -8 5 3702.57 312.94 4
-4 -7 1 108.396 94.7625 38
-4 -7 2 8456.28 636.84 38
-4 -7 2 8078.95 598.608 4
-4 -7 3 18267.6 1023.66 38
-4 -7 3 17942 1034.99 4
-4 -7 4 14577.1 920.115 38
-4 -7 5 28254.5 1349.79 38
-4 -7 6 8520.31 676.232 38
-4 -7 7 2655.88 366.473 4
-4 -7 8 34850.6 1382.43 38
-4 -7 9 10470.2 555.732 9
-4 -7 9 9517.29 563.693 38
-4 -6 -1 14786.3 807.126 38
-4 -6 0 1145.12 268.853 38
-4 -6 1 14586.7 1011.82 38
-4 -6 2 22120.1 1323.08 38
-4 -6 3 18299.2 1214.61 38
-4 -6 4 84683.6 3107.98 38
-4 -6 5 56369.9 2373.12 38
-4 -6 6 1154.81 327.425 38
-4 -6 9 3601.26 452.409 38
-4 -6 10 4460.93 431.246 38
-4 -6 10 4235.85 417.502 9
-4 -6 11 5941.1 397.033 9
-4 -5 -2 29481 1338.64 38
-4 -5 -1 166.049 142.346 38
-4 -5 0 16070.6 1156.15 38
-4 -5 1 30731.4 1711.81 38
-4 -5 2 5618.37 709.959 38
-4 -5 3 103970 4050.9 1
-4 -5 3 104933 3745.64 38
-4 -5 4 35783.4 2120.63 1
-4 -5 4 38180.1 1975.16 38
-4 -5 5 553.054 268.217 38
-4 -5 5 200.565 229.3 1
-4 -5 6 112559 3940.41 38
-4 -5 7 39890 2009.28 38
-4 -5 9 26712 1476.17 38
-4 -5 10 9730.6 772.564 38
-4 -5 11 10703.8 625.938 30
-4 -5 11 9935.08 654.37 9
-4 -5 12 9140.01 476.595 9
-4 -4 0 19543.7 1459.42 1
-4 -4 1 488.502 293.18 1
-4 -4 2 195302 5959.16 38
-4 -4 2 203491 6442.12 1
-4 -4 3 134963 4840.52 1
-4 -4 3 133663 4472.94 38
-4 -4 4 21144.8 1420.71 38
-4 -4 4 19942.3 1534.65 1
-4 -4 5 73220.1 3220.51 1
-4 -4 5 78818 3087.3 38
-4 -4 6 78341.7 3138.12 38
-4 -4 6 79523.1 3279.85 1
-4 -4 7 66190.2 2860.72 1
-4 -4 7 68635.2 2799.27 28
-4 -4 7 69784.8 2885.41 38
-4 -4 10 267.922 195.213 38
-4 -4 11 20277.4 1061.39 9
-4 -4 11 19607.1 980.864 30
-4 -4 12 3210.46 353.201 32
-4 -3 0 64.9537 176.03 1
-4 -3 1 193018 6161.54 1
-4 -3 2 156821 4892.22 38
-4 -3 2 159791 5307.08 1
-4 -3 3 504.459 275.66 1
-4 -3 3 296.493 189.554 38
-4 -3 4 18537.9 1273.13 38
-4 -3 5 60752.2 2738.79 1
-4 -3 5 65294.6 2683.77 38
-4 -3 6 8927.94 935.126 1
-4 -3 6 9028.5 911.05 38
-4 -3 7 57183.1 2565.34 38
-4 -3 7 57515.7 2427.39 28
-4 -3 7 56606.8 2525.09 1
-4 -3 8 20224.3 1408.99 38
-4 -3 8 18587.5 1251.72 28
-4 -3 9 1411.29 329.296 23
-4 -3 10 65922.7 2706.43 38
-4 -3 11 27352.9 1257.15 30
-4 -3 11 31316.9 1410.35 9
-4 -3 12 138.775 130.314 32
-4 -2 -1 1453.9 390.633 1
-4 -2 0 72460.2 2974.7 1
-4 -2 1 166053 5263.58 1
-4 -2 2 2395.36 480.137 1
-4 -2 2 1553.64 343.762 38
-4 -2 3 39187.9 1840.26 38
-4 -2 3 41078.1 2024.55 1
-4 -2 4 57215 2350.55 38
-4 -2 5 1659.5 382.845 1
-4 -2 5 2138.42 429.109 38
-4 -2 6 274991 7543.16 1
-4 -2 6 268763 7568.56 38
-4 -2 7 38758.4 1989.03 38
-4 -2 7 33899.2 1771.41 1
-4 -2 7 36182.8 1746.81 28
-4 -2 8 694.459 297.904 38
-4 -2 8 537.353 224.21 23
-4 -2 8 740.474 253.564 28
-4 -2 9 38402.9 1895.49 23
-4 -2 10 37721.5 1859.76 23
-4 -2 10 36792 1652.84 30
-4 -2 11 1092.18 301.874 32
-4 -2 11 1176.29 306.162 23
-4 -2 11 694.514 224.089 9
-4 -2 12 4005.99 461.4 32
-4 -2 12 3672.47 450.512 23
-4 -2 13 2756.99 288.009 32
-4 -1 -1 15076.1 1109.5 1
-4 -1 0 344993 9104.66 1
-4 -1 1 15062.4 1084.22 1
-4 -1 2 83197.6 2988.24 1
-4 -1 3 10444.9 860.565 1
-4 -1 4 866.851 266.898 38
-4 -1 4 1329.91 315.41 1
-4 -1 5 157615 4857.17 38
-4 -1 5 169612 4871.64 1
-4 -1 6 69686.9 2781.71 38
-4 -1 6 72611.5 2666.75 1
-4 -1 7 106.334 182.318 38
-4 -1 7 257.76 148.095 28
-4 -1 7 282.123 169.278 1
-4 -1 8 59712 2636.2 38
-4 -1 8 57241.4 2221.42 28
-4 -1 9 93061.1 3397.47 23
-4 -1 9 84890.9 3439.94 38
-4 -1 10 1137.03 354.272 23
-4 -1 10 1145.79 290.164 9
-4 -1 11 7241.66 759.007 23
-4 -1 11 7079.74 720.497 32
-4 -1 12 4804.8 523.172 32
-4 -1 12 4294.45 524.639 23
-4 -1 13 915.474 173.203 32
-4 0 -2 83035.4 2915.19 1
-4 0 -1 167142 4922.52 1
-4 0 0 229.511 153.839 1
-4 0 1 235129 6348.84 1
-4 0 2 68616.5 2455.08 1
-4 0 3 19864.3 1067.98 26
-4 0 4 234017 6299.85 1
-4 0 4 237436 6314.01 26
-4 0 5 410765 10450.7 38
-4 0 5 413144 10357.7 1
-4 0 5 426021 10526 26
-4 0 6 1749.27 388.286 26
-4 0 6 1275.96 299.89 1
-4 0 6 1817.77 391.196 38
-4 0 6 1951.09 302.978 28
-4 0 7 33080.6 1506.28 1
-4 0 7 37794.5 1897.9 26
-4 0 7 32445.3 1777.69 38
-4 0 8 53945.3 2492.65 38
-4 0 10 17964.6 1252.76 32
-4 0 11 702.666 250.221 32
-4 0 11 879.422 320.132 23
-4 0 12 1747.45 320.448 32
-4 0 12 2289.48 398.621 23
-4 0 13 12309.8 709.134 23
-4 1 -2 17666 1070.29 1
-4 1 1 291862 7068.27 26
-4 1 2 74227.2 2293.98 26
-4 1 3 167470 4524.79 26
-4 1 4 344619 8607.1 26
-4 1 5 834.497 260.472 26
-4 1 5 529.12 136.121 28
-4 1 6 36410.4 1748.9 26
-4 1 6 37343.9 1559.53 1
-4 1 6 35015.5 1756.5 38
-4 1 7 16451 1205.51 38
-4 1 8 229.531 208.648 26
-4 1 8 44.3642 152.094 32
-4 1 9 54923.3 2372.15 32
-4 1 9 54431.7 2584.56 26
-4 1 10 4372.81 605.348 32
-4 1 11 539.657 230.858 32
-4 1 12 17781.6 1082.41 23
-4 1 12 16399 925.665 32
-4 1 13 8260.02 539.884 23
-4 2 0 382323 8861.37 26
-4 2 1 931.485 176.113 26
-4 2 2 202613 5143.05 26
-4 2 3 419437 10085.1 26
-4 2 4 1081.57 246.604 26
-4 2 5 52290.8 2044.06 26
-4 2 6 25463.6 1406.83 26
-4 2 8 42590 2148.62 26
-4 2 8 43350.2 1945.08 32
-4 2 9 7940.42 900.106 26
-4 2 9 9054.32 858.396 32
-4 2 10 -45.2465 134.325 32
-4 2 11 5744.61 589.707 32
-4 2 12 6818.16 515.838 32
-4 3 -3 1302.74 253.02 36
-4 3 3 4480.42 444.665 26
-4 3 4 52530.5 1946.92 26
-4 3 5 16268.9 1023.91 26
-4 3 6 9196.77 718.281 36
-4 3 6 10194.8 857.391 5
-4 3 7 98766.8 3498.32 26
-4 3 8 33305.4 1841.51 26
-4 3 8 32056 1601.35 32
-4 3 9 798.664 301.871 26
-4 3 9 783.962 264.497 32
-4 3 10 3799.42 502.65 32
-4 3 11 42877.4 1650.26 32
-4 3 12 3230.87 377.681 23
-4 4 -3 150165 4312.94 36
-4 4 -2 285443 7371.51 36
-4 4 -1 57215 2098.48 36
-4 4 3 177913 5004.15 36
-4 4 4 70125 2549.77 36
-4 4 5 10664.8 836.743 26
-4 4 5 10980.2 856.5 5
-4 4 5 9926.25 816.343 36
-4 4 6 30422 1627.93 26
-4 4 6 34168.1 1712.96 5
-4 4 7 86353.6 3239.99 26
-4 4 7 85751.8 3250.63 5
-4 4 8 439.818 231.015 26
-4 5 -3 236362 6454.73 36
-4 5 -2 37093.9 1711.02 36
-4 5 -1 73401.7 2653.32 36
-4 5 0 23128.4 1286.47 36
-4 5 2 179378 5206.29 36
-4 5 3 138752 4152.5 5
-4 5 3 147076 4391.48 36
-4 5 4 730.758 282.862 36
-4 5 4 952.389 268.425 5
-4 5 5 45692.6 2119 36
-4 5 5 58368.8 2307.06 5
-4 5 6 124410 3908.28 27
-4 5 6 125493 4154.51 26
-4 5 6 130796 4253.3 5
-4 5 7 2251.3 403.866 27
-4 5 7 1537.53 382.35 26
-4 5 7 1825.12 431.15 5
-4 5 8 5911.93 617.247 27
-4 6 -4 60108.1 2448.76 36
-4 6 -3 12169 991.721 36
-4 6 -2 42087.6 2018.8 36
-4 6 -1 20044.3 1309.34 36
-4 6 0 1912.02 422.253 36
-4 6 2 197982 5919.33 36
-4 6 3 707.409 288.165 36
-4 6 3 1120.41 296.114 5
-4 6 4 51621 2249.52 5
-4 6 4 52146.8 2395.64 36
-4 6 5 89346.5 3314.94 5
-4 6 6 15966.2 1193.39 26
-4 6 6 16392 1137.09 27
-4 6 6 17183.8 1261.78 5
-4 6 7 20294.6 1397 5
-4 6 7 20071.9 1240.84 27
-4 6 8 6829.39 644.606 27
-4 7 -4 207980 6167.27 36
-4 7 -3 46664.8 2264.07 36
-4 7 -2 200175 6118.14 36
-4 7 -1 4917.46 697.205 36
-4 7 0 17497.4 1332.11 36
-4 7 1 107147 3962.99 36
-4 7 2 2527.69 527.997 36
-4 7 3 17366.4 1371.02 36
-4 7 3 17900.7 1260.82 5
-4 7 4 33976 1852.16 5
-4 7 4 35515.6 1960.16 36
-4 7 5 22349.1 1435.76 26
-4 7 5 22429.8 1473.06 5
-4 7 6 38725.3 1989.31 5
-4 7 6 39501.4 1891.81 27
-4 7 7 2417.38 419.343 27
-4 7 8 3148.47 400.065 24
-4 8 -5 5592.3 657.784 37
-4 8 -4 63383.3 2720.87 36
-4 8 -3 150842 5040.72 36
-4 8 -2 44255.6 2331.09 36
-4 8 -1 81722.5 3417.82 36
-4 8 1 46684.4 2453.88 36
-4 8 2 21116.6 1573.11 36
-4 8 3 27293.2 1745.07 36
-4 8 3 25032.7 1585.97 5
-4 8 4 15111.2 1193.55 5
-4 8 5 6269.39 703.044 27
-4 8 5 4576.75 631.832 5
-4 8 6 9779.41 823.278 27
-4 8 7 733.276 219.662 27
-4 9 -5 1721.88 360.3 37
-4 9 -4 54053.7 2404.87 37
-4 9 -3 17069.4 1317.03 37
-4 9 2 19155.9 1417.46 37
-4 9 2 19589.6 1369.52 5
-4 9 3 317.091 221.984 5
-4 9 4 2899.98 492.583 27
-4 9 4 3114.25 503.882 5
-4 9 5 21748.7 1231.66 27
-4 9 6 126.391 138.12 5
-4 9 6 197.784 137.02 27
-4 10 -5 24959.3 1226.95 37
-4 10 -4 15266.5 1061.43 37
-4 10 -3 22227 1401.28 37
-4 10 -2 29653.6 1698.69 37
-4 10 -1 16997.4 1271.53 37
-4 10 0 8088.38 873.681 37
-4 10 1 28707.1 1612.16 5
-4 10 1 32126 1716.87 37
-4 10 2 1442.69 351.307 5
-4 10 3 2953.63 452.116 27
-4 10 3 3010.3 467.582 5
-4 10 4 21248.4 1109.62 27
-4 10 5 1306.25 228.233 27
-4 10 5 1427.23 247.404 5
-4 11 -4 2777.46 357.925 37
-4 11 -3 28900.6 1365.16 37
-4 11 -2 14433 954.966 37
-4 11 -1 412.463 199.986 5
-4 11 0 16958.8 1017.97 5
-4 11 0 17766.3 1040.69 37
-4 11 1 154.33 144.92 5
-4 11 2 9634.16 663.716 5
-4 11 3 13596 686.261 27
-3 -8 1 5407.65 467.636 38
-3 -8 2 19246 990.473 38
-3 -8 2 17604.2 923.121 4
-3 -8 3 4812.9 504.783 38
-3 -8 3 5071.26 518.027 4
-3 -8 4 19104.4 1089.04 4
-3 -8 5 34356.2 1486.25 38
-3 -8 6 25153.6 1185.28 38
-3 -8 6 22683.7 1153.11 4
-3 -8 7 799.864 206.366 4
-3 -8 7 780.483 209.912 38
-3 -8 8 33368 1117.1 9
-3 -7 -1 11848.6 785.715 38
-3 -7 0 11795 748.439 4
-3 -7 0 13999.5 937.653 38
-3 -7 1 33629.7 1618.37 4
-3 -7 1 31514.6 1605.78 38
-3 -7 2 47738.5 2098.97 38
-3 -7 3 27078.9 1525.44 38
-3 -7 4 86007.9 3140.8 38
-3 -7 6 4343.53 571.463 38
-3 -7 7 35318.4 1677.83 38
-3 -7 8 9292.02 748.737 38
-3 -7 10 6989.46 501.108 9
-3 -7 10 8084.56 545.85 30
-3 -6 -3 5715.7 515.702 38
-3 -6 2 14576 1164.71 38
-3 -6 3 221309 6556.14 38
-3 -6 3 226048 6901.83 1
-3 -6 4 37436.4 2146.63 1
-3 -6 4 40514 2045.12 38
-3 -6 5 5105.23 742.312 1
-3 -6 6 81750 3153.5 38
-3 -6 7 27895.9 1608.93 38
-3 -6 8 25527 1463.92 38
-3 -6 9 20002.5 1200.12 38
-3 -6 10 7797.28 646.583 9
-3 -6 11 6041.08 488.858 9
-3 -6 11 5482.76 457.194 30
-3 -5 0 68411.8 2973.03 1
-3 -5 1 13945.5 1261.71 1
-3 -5 2 232782 7167.28 1
-3 -5 3 85607.6 3244.85 38
-3 -5 3 79433.2 3419.44 1
-3 -5 4 78102.2 3076.17 38
-3 -5 5 2179.88 493.476 1
-3 -5 5 1904.37 454.295 38
-3 -5 6 6543.11 813.177 1
-3 -5 7 19553.5 1363.4 1
-3 -5 7 20136.6 1371.83 28
-3 -5 7 20085.7 1366.98 38
-3 -5 8 28169.3 1464.92 33
-3 -5 8 27766.4 1622.38 38
-3 -5 9 9413.61 872.902 38
-3 -5 10 3984.47 528.165 38
-3 -5 11 48861.2 1822.84 30
-3 -5 12 2666.97 285.32 30
-3 -5 12 3319.65 339.336 9
-3 -5 12 3435.63 363.498 32
-3 -4 -1 60503.1 2645.28 1
-3 -4 0 315.455 229.494 1
-3 -4 1 131816 4637.11 1
-3 -4 2 104078 3928.25 1
-3 -4 3 20827.8 1323.06 38
-3 -4 3 20592 1475.98 1
-3 -4 4 22740.3 1398.98 38
-3 -4 5 56787.8 2425.14 38
-3 -4 5 55301.3 2514.06 1
-3 -4 6 4600.35 644.67 1
-3 -4 7 121249 4130.31 28
-3 -4 7 122317 3957.08 33
-3 -4 7 124822 4122.92 1
-3 -4 7 128940 4258.72 38
-3 -4 8 50270.9 2214.24 33
-3 -4 8 52395.1 2396.81 38
-3 -4 8 52104.8 2309.36 28
-3 -4 9 -52.859 212.473 38
-3 -4 10 43955.2 2030.69 38
-3 -4 11 9537.15 731.651 30
-3 -4 11 8486.8 716.819 9
-3 -4 12 58.2933 106.029 32
-3 -4 12 171.264 125.85 9
-3 -4 12 295.215 117.163 30
-3 -4 13 2217.95 247.53 32
-3 -3 -1 -53.3744 182.966 1
-3 -3 0 59975.3 2617.64 1
-3 -3 1 165351 5185.1 1
-3 -3 2 16629.7 1204.08 1
-3 -3 3 209832 5797.97 38
-3 -3 3 201110 6022.97 1
-3 -3 4 54958.7 2265.89 38
-3 -3 4 58587 2434.4 1
-3 -3 5 44921.9 2015.72 38
-3 -3 5 43183.6 2020.21 1
-3 -3 6 190085 5584.51 1
-3 -3 7 45219.2 1998.29 1
-3 -3 7 42370.8 1973.22 33
-3 -3 7 46156.9 1986.81 23
-3 -3 7 47182.6 2066.62 28
-3 -3 8 239.216 183.484 23
-3 -3 8 328.809 180.149 28
-3 -3 8 379.448 236.965 38
-3 -3 9 60668.8 2561.44 23
-3 -3 9 58932 2438.69 28
-3 -3 9 62453.8 2647.01 38
-3 -3 10 20122.6 1333.44 38
-3 -3 10 18766.4 1291.8 23
-3 -3 10 19522.5 1210.02 30
-3 -3 11 5543.14 643.114 23
-3 -3 11 5548.07 594.071 9
-3 -3 11 5273.69 560.859 30
-3 -3 12 5433.68 557.219 32
-3 -3 13 2396.65 292.241 32
-3 -2 -2 14872.7 1039.02 1
-3 -2 -1 21711.1 1325.37 1
-3 -2 0 4716.63 586.182 1
-3 -2 1 29558.7 1525.85 1
-3 -2 2 163740 4782.41 1
-3 -2 4 787.991 228.045 1
-3 -2 5 477477 11963.9 38
-3 -2 5 490650 11942.8 1
-3 -2 6 191343 5262.72 1
-3 -2 6 179987 5179.36 33
-3 -2 6 185947 5419.13 38
-3 -2 7 1709.87 365.606 23
-3 -2 7 1343.48 295.4 1
-3 -2 7 1218.9 322.428 33
-3 -2 7 1460.72 326.004 28
-3 -2 8 26359.4 1425.75 28
-3 -2 8 27587.4 1624.47 38
-3 -2 8 24464 1493.02 23
-3 -2 9 45867.7 2220.36 38
-3 -2 9 45704.3 2221 23
-3 -2 9 42843 1946.51 28
-3 -2 10 14625.9 1043.16 9
-3 -2 10 14583.3 1180.97 23
-3 -2 10 14056.3 999.047 30
-3 -2 11 5590 570.568 30
-3 -2 11 6236.84 614.512 9
-3 -2 11 6207.68 698.427 32
-3 -2 11 5044.18 659.333 23
-3 -2 12 109.747 140.217 32
-3 -2 12 77.8312 149.159 23
-3 -2 13 1036.33 208.252 32
-3 -1 -2 54310.8 2094.29 1
-3 -1 -1 62319 2293.23 1
-3 -1 0 6269.32 590.156 1
-3 -1 1 383302 9493.37 1
-3 -1 2 322453 8089.37 1
-3 -1 4 340221 8560.85 1
-3 -1 4 351639 8721.63 26
-3 -1 5 161402 4508.94 1
-3 -1 5 165797 4760.05 26
-3 -1 6 6730.11 586.764 28
-3 -1 6 5635.84 640.499 38
-3 -1 6 7850.24 743.832 26
-3 -1 6 7219.83 596.279 1
-3 -1 7 21084.1 1149.92 28
-3 -1 7 19786.6 1021.52 1
-3 -1 8 27671.9 1644.73 38
-3 -1 8 29350.7 1434.89 28
-3 -1 9 37002.4 1712.06 30
-3 -1 9 38498 2011.88 38
-3 -1 10 39781.8 1815.03 9
-3 -1 10 41771.6 2153.26 23
-3 -1 10 39010.6 1752.75 30
-3 -1 11 1236.37 358.268 23
-3 -1 11 1708.41 389.241 32
-3 -1 12 1081.02 290.675 32
-3 -1 12 1599.74 349.154 23
-3 -1 13 10844 656.742 32
-3 -1 13 11861.4 718.7 23
-3 0 -2 113757 3366.72 1
-3 0 -1 88489 2749.93 1
-3 0 2 711.113 174.821 26
-3 0 3 196145 5078.31 26
-3 0 4 213518 5616.68 26
-3 0 4 217209 5526.4 1
-3 0 5 8479.7 693.745 26
-3 0 5 9103.23 589.598 28
-3 0 5 9285.27 620.964 1
-3 0 6 67619.6 2562.92 38
-3 0 6 68903 2234.35 28
-3 0 6 70864.3 2212.98 1
-3 0 7 23888.8 1408.14 26
-3 0 7 24219.7 1154.37 28
-3 0 7 23908.8 1421.98 38
-3 0 8 6338.08 582.441 28
-3 0 8 6832.86 781.522 26
-3 0 9 80684.5 2853.2 9
-3 0 9 94582.5 3352.24 32
-3 0 10 9256.71 913.051 32
-3 0 11 -54.3741 197.746 23
-3 0 11 628.749 255.541 32
-3 0 12 15350.5 978.358 32
-3 0 13 9636.6 576.949 32
-3 1 -3 65129.2 2101.03 1
-3 1 0 681477 15349.8 26
-3 1 1 72911.2 2011.8 26
-3 1 2 38286.8 1293.88 26
-3 1 3 327745 7882.84 26
-3 1 4 121.601 69.5846 28
-3 1 4 557.108 176.179 26
-3 1 5 60346.9 1782.6 28
-3 1 5 58941 2119.83 26
-3 1 6 1035.99 185.04 28
-3 1 6 656.726 158.195 1
-3 1 6 977.437 264.515 38
-3 1 6 1021.91 273.336 26
-3 1 7 3108.45 461.714 32
-3 1 7 3128.06 479.542 26
-3 1 8 130207 4293.98 32
-3 1 8 143259 4494.63 26
-3 1 9 17507.5 1259.59 32
-3 1 9 16508.2 1254.61 26
-3 1 10 4190.03 620.116 32
-3 1 11 2832.41 473.937 32
-3 1 12 10848.2 775.613 32
-3 1 12 13283.5 902.66 23
-3 1 13 464.804 127.653 23
-3 2 -1 389768 8815.24 26
-3 2 3 11929.9 324.91 28
-3 2 3 18477.2 792.172 26
-3 2 4 447882 10706.3 26
-3 2 6 6144.72 629.004 5
-3 2 6 7119.84 648.536 26
-3 2 6 4846.31 407.733 36
-3 2 7 81347.8 2881.03 32
-3 2 7 83755 2990.42 26
-3 2 8 242034 6747.31 32
-3 2 8 237079 6805.39 26
-3 2 9 5763.25 713.884 32
-3 2 9 6672.6 771.574 26
-3 2 10 11563.4 996.28 32
-3 2 11 16782.1 1088.86 32
-3 2 12 24.4269 198.637 32
-3 2 12 517.155 193.918 23
-3 3 -3 11816.4 683.227 36
-3 3 4 79165.2 2476.08 36
-3 3 5 5998.91 562.515 26
-3 3 5 5881 512.072 36
-3 3 6 36322.9 1569.05 32
-3 3 6 34616.3 1638.84 26
-3 3 6 37210.2 1750.56 5
-3 3 7 202079 5775.58 32
-3 3 7 211133 5902.2 26
-3 3 8 4492.2 607.044 32
-3 3 8 4820.86 637.846 26
-3 3 9 68859.1 2691.78 32
-3 3 9 61748.9 2600.09 26
-3 3 10 219.093 281.05 32
-3 3 11 3478.49 463.096 32
-3 4 -4 53376.4 1911.4 36
-3 4 -3 123239 3564.31 36
-3 4 -2 28210.1 1256.27 36
-3 4 -1 508545 12127.8 36
-3 4 0 73089.9 2378.56 36
-3 4 2 300776 7538.25 36
-3 4 3 414428 10118.1 36
-3 4 4 17409.3 1020.25 36
-3 4 5 29682.1 1392.18 36
-3 4 5 30109.5 1486.66 22
-3 4 5 30522.2 1530 5
-3 4 6 69980.8 2698.4 22
-3 4 6 73444.4 2662.68 26
-3 4 6 65071.8 2410.88 32
-3 4 6 70188.6 2527.98 27
-3 4 7 3116.99 484.95 32
-3 4 7 2457.63 433.371 27
-3 4 7 3638.89 547.308 26
-3 4 8 12933 1038.25 26
-3 4 8 11089.2 942.533 32
-3 4 9 566.099 293.95 32
-3 4 9 299.75 163.923 24
-3 4 10 -104.344 242.162 32
-3 4 11 6279.99 482.76 32
-3 5 -4 13052.5 897.919 36
-3 5 -3 50344.1 2001.55 36
-3 5 -2 147626 4316.69 36
-3 5 -1 137134 4068.82 36
-3 5 0 3199.08 430.108 36
-3 5 1 195612 5464.98 36
-3 5 2 390480 9876.87 36
-3 5 3 1402.61 336.812 36
-3 5 4 53406.8 2106.91 22
-3 5 4 55461.6 2220.99 5
-3 5 4 53306.5 2213.82 36
-3 5 5 64275.6 2526.44 22
-3 5 5 63545.1 2539.38 5
-3 5 6 10634.7 954.457 22
-3 5 6 9994.64 811.51 32
-3 5 6 11223.4 932.422 26
-3 5 6 10787.2 900.349 27
-3 5 7 19727.2 1223.85 32
-3 5 7 21872.5 1443.51 5
-3 5 7 19579.9 1280.24 27
-3 5 7 20429.2 1314.5 26
-3 5 8 5834.4 662.991 32
-3 5 9 719.189 220.44 24
-3 5 9 1205.4 349.729 32
-3 6 -4 -44.5961 143.001 36
-3 6 -3 42868.5 1981.18 36
-3 6 -2 131787 4214.38 36
-3 6 -1 29710.9 1604.3 36
-3 6 1 207861 6052.97 36
-3 6 2 34439.9 1819.28 36
-3 6 3 181839 5538.87 36
-3 6 4 10960.2 901.124 22
-3 6 4 11760.3 986.25 36
-3 6 4 11288.4 957.249 5
-3 6 5 4017.79 577.15 22
-3 6 6 29418.9 1639.15 27
-3 6 6 29506.6 1692.32 22
-3 6 6 27004.7 1561.52 26
-3 6 6 29496.6 1685.53 5
-3 6 7 11849.8 971.379 27
-3 6 7 10971.6 980.563 5
-3 6 9 7056.33 565.114 24
-3 7 -5 58229.6 2409.71 37
-3 7 -4 104940 3707.58 36
-3 7 -3 169389 5312.9 36
-3 7 -2 12252.1 1061.24 36
-3 7 -1 40387.9 2081.45 36
-3 7 1 53780.7 2523.37 36
-3 7 2 31868.1 1870.59 36
-3 7 3 7859.25 862.569 36
-3 7 3 6132.07 739.918 5
-3 7 4 537.699 244.279 37
-3 7 4 47.189 114.42 22
-3 7 5 10314.3 951.236 22
-3 7 5 12247.8 1036.05 27
-3 7 6 19688.6 1313.05 22
-3 7 6 21430.3 1358.57 27
-3 7 6 23295.8 1438.2 5
-3 7 7 -43.6194 158.596 5
-3 7 7 -41.3941 132.734 27
-3 7 8 6996.12 590.536 24
-3 8 -5 31089.3 1691.9 37
-3 8 -4 46632.4 2278.17 37
-3 8 -4 49193.1 2315.35 36
-3 8 -3 1516.9 417.327 36
-3 8 -2 33224.9 1946.88 36
-3 8 -1 59147 2756.88 36
-3 8 0 8967.58 995.324 36
-3 8 1 24700.2 1677.08 36
-3 8 2 40703.5 2191.44 36
-3 8 2 43514.9 2272.42 37
-3 8 3 328.355 239.247 37
-3 8 4 28664.7 1657.63 5
-3 8 5 37279.2 1742.87 22
-3 8 5 39853.8 1920.9 5
-3 8 5 39370.6 1912.66 27
-3 8 6 120.544 168.803 5
-3 8 6 563.94 229.062 27
-3 8 7 10454.3 726.971 24
-3 9 -5 55711.9 2350.53 37
-3 9 -4 28597.5 1689.56 37
-3 9 -3 35027.3 1965.48 37
-3 9 -2 38913.3 2140.19 37
-3 9 0 10663.7 1084.1 37
-3 9 1 41839.1 2192.04 37
-3 9 2 106.471 182.501 37
-3 9 3 11954.2 1003.03 5
-3 9 4 42709.2 1951.4 27
-3 9 4 43864.1 1949.96 5
-3 9 5 1846.34 351.95 27
-3 9 5 1841.06 340.653 5
-3 10 -5 27987.4 1405.01 37
-3 10 -4 11045.2 913.874 37
-3 10 -3 18506.9 1270.65 37
-3 10 -2 52.5887 168.63 37
-3 10 0 52038.3 2311.94 37
-3 10 1 2935.71 479.365 37
-3 10 2 27929.6 1452.36 5
-3 10 2 25740.1 1374.12 27
-3 10 3 21592.7 1156.86 5
-3 10 4 3907.51 404.738 5
-3 11 -5 5771.76 458.202 37
-3 11 -4 29330.3 1304.7 37
-3 11 -3 946.748 257.264 37
-3 11 -2 13203.5 885.501 37
-3 11 -1 23916.5 1220.39 5
-3 11 -1 22716.3 1191.31 37
-3 11 0 1316.45 257.772 37
-3 11 0 1191.68 249.279 27
-3 11 1 5302.05 460.08 27
-3 11 1 6498.53 538.389 5
-3 11 2 3957.53 354.979 5
-3 11 2 3824.68 343.856 27
-2 -9 2 17570 860.206 4
-2 -9 3 17052 909.738 38
-2 -9 3 16862.8 923.365 4
-2 -9 4 14178.5 855.873 4
-2 -9 4 13300.5 796.118 38
-2 -9 5 54546.2 1870.02 38
-2 -9 6 3284.56 373.025 4
-2 -8 -2 13616.1 724.455 38
-2 -8 -1 12191.7 796.487 38
-2 -8 0 34690.1 1560.48 38
-2 -8 0 31636.4 1324.18 4
-2 -8 1 38035.4 1721.57 4
-2 -8 1 38765.7 1769.41 38
-2 -8 2 11408.8 936.488 4
-2 -8 3 3968.46 571.765 4
-2 -8 3 3212.4 494.979 38
-2 -8 4 60118.5 2418.16 38
-2 -8 4 62585.1 2548.32 4
-2 -8 5 12065.4 931.55 38
-2 -8 6 653.072 237.896 38
-2 -8 6 744.666 256.117 4
-2 -8 7 25791.4 1276.32 38
-2 -8 7 23066 1217.05 4
-2 -8 8 692.82 188.263 9
-2 -8 9 14121.5 720.338 9
-2 -8 10 6121.56 376.679 9
-2 -7 0 132855 4293.32 4
-2 -7 4 28595.3 1661.56 38
-2 -7 5 9837.76 928.928 38
-2 -7 6 40441.8 1982.71 38
-2 -7 7 6718.43 712.478 38
-2 -7 7 5747.87 661.216 4
-2 -7 7 5619.43 594.707 33
-2 -7 8 33179.2 1581.41 38
-2 -7 8 29383.8 1417.5 33
-2 -7 9 21787.6 1169.25 9
-2 -7 10 5830.58 517.576 9
-2 -7 10 5705.3 522.662 30
-2 -7 11 5824.17 434.665 9
-2 -7 11 5622.75 431.653 30
-2 -6 0 42500.1 2206.56 1
-2 -6 1 57837.3 2746.84 1
-2 -6 2 27085.7 1796.59 1
-2 -6 3 21768 1574.02 1
-2 -6 4 22684.3 1455.16 38
-2 -6 5 19622.5 1447.84 1
-2 -6 5 23434 1468.79 38
-2 -6 6 16974.4 1244.51 38
-2 -6 6 18555.5 1209.43 33
-2 -6 6 18430.9 1334.64 1
-2 -6 7 52386.5 2291.17 1
-2 -6 7 52462 2328.02 38
-2 -6 7 50523.3 2208.71 33
-2 -6 8 101044 3492.92 38
-2 -6 8 98661.7 3414.38 33
-2 -6 9 13186.5 969.232 38
-2 -6 9 13191.7 973.452 33
-2 -6 10 2982.84 440.975 30
-2 -6 10 3139.15 445.96 9
-2 -6 11 16967.5 934.614 30
-2 -6 11 17408.6 952.009 9
-2 -6 12 2222.75 263.953 32
-2 -6 12 2208.56 253.444 30
-2 -5 -1 43936.5 2156.37 1
-2 -5 0 4471.69 679.461 1
-2 -5 1 41287.7 2195.55 1
-2 -5 2 54522.6 2569.08 1
-2 -5 3 14152.1 1197.4 1
-2 -5 4 49134.2 2202.24 38
-2 -5 4 52294.3 2423.1 1
-2 -5 5 88472.8 3274.43 38
-2 -5 5 96473.8 3494.26 1
-2 -5 6 29705.1 1630.07 38
-2 -5 6 28952.2 1631.68 1
-2 -5 6 27300.5 1583.25 28
-2 -5 6 26385 1504.16 33
-2 -5 7 120398 4021.91 1
-2 -5 7 121395 4090.79 33
-2 -5 7 127901 4196.74 28
-2 -5 7 129658 4191.71 38
-2 -5 8 8357.02 846.206 33
-2 -5 8 7942.59 831.803 28
-2 -5 8 9144.23 870.229 38
-2 -5 9 559.653 252.988 38
-2 -5 9 397.206 225.388 33
-2 -5 10 40951.1 1817.01 38
-2 -5 10 42091.7 1901.47 30
-2 -5 11 3036.37 422.322 30
-2 -5 12 8089.02 576.493 9
-2 -5 12 7156.6 513.417 8
-2 -5 12 7660.35 544.816 30
-2 -4 -1 2498.33 465.687 1
-2 -4 0 112034 3899.49 1
-2 -4 1 90006 3360.62 1
-2 -4 2 240684 6854.14 1
-2 -4 4 54089.6 2323.74 1
-2 -4 5 14868.7 1084.67 1
-2 -4 5 15410.4 1061.37 38
-2 -4 6 348719 9116.35 1
-2 -4 6 363613 9118.7 28
-2 -4 6 338225 9070.16 33
-2 -4 6 348603 9147.05 38
-2 -4 7 22268.3 1383.87 33
-2 -4 7 20410.6 1307.09 23
-2 -4 7 23016 1402.63 38
-2 -4 7 23452.3 1401.33 28
-2 -4 7 22844.3 1279.76 1
-2 -4 8 989.358 334.759 33
-2 -4 8 1575.36 390.228 23
-2 -4 8 981.491 304.174 28
-2 -4 8 898.155 303.275 38
-2 -4 9 35027.4 1864.83 33
-2 -4 9 36559.6 1830.57 38
-2 -4 9 30515.1 1688.65 28
-2 -4 9 33874.9 1831.67 23
-2 -4 10 13029.5 1006.07 9
-2 -4 10 12939 992.891 30
-2 -4 10 12883.2 988.2 38
-2 -4 11 23890.6 1285.98 30
-2 -4 11 24574.4 1321.18 9
-2 -4 12 7693.44 598.439 9
-2 -4 12 7498.34 642.005 32
-2 -4 13 1860.05 234.547 8
-2 -3 -2 49115.5 2013.43 1
-2 -3 -1 40540.1 1864.03 1
-2 -3 0 33577.7 1662.81 1
-2 -3 1 70801.1 2620.09 1
-2 -3 2 750266 17875.6 1
-2 -3 4 1633.5 326.448 1
-2 -3 5 228613 6206.94 1
-2 -3 5 230565 6217.83 38
-2 -3 6 96056.1 3149.06 28
-2 -3 6 92641.5 3170.25 38
-2 -3 6 92263.8 3160.5 33
-2 -3 6 92085.7 3035.13 1
-2 -3 7 21724.6 1354.43 23
-2 -3 7 22319.9 1361.61 38
-2 -3 7 22275 1376.99 33
-2 -3 7 24794.4 1207.49 1
-2 -3 7 25653.7 1382.27 28
-2 -3 8 3611.57 568.167 33
-2 -3 8 2484.67 470.177 38
-2 -3 8 3096.42 482.367 28
-2 -3 8 3949.96 595.032 23
-2 -3 9 5989.08 726.423 38
-2 -3 9 5181.49 643.696 28
-2 -3 9 5164.8 700.763 23
-2 -3 10 25450.1 1597.04 23
-2 -3 10 24884.1 1456.58 9
-2 -3 10 25713.4 1452.13 30
-2 -3 11 30109.2 1477.36 30
-2 -3 11 28739.4 1586.15 32
-2 -3 11 28381.4 1464.17 9
-2 -3 11 28994.8 1639.71 23
-2 -3 12 427.994 198.286 32
-2 -3 12 390.403 165.808 9
-2 -3 13 1118.34 210.843 8
-2 -3 13 674.521 176.151 32
-2 -2 -2 79628.6 2633.77 1
-2 -2 -1 171614 4799.99 1
-2 -2 0 1149.15 256.546 1
-2 -2 1 887207 20566.7 1
-2 -2 2 54361.6 1948.51 1
-2 -2 3 11626.9 753.25 1
-2 -2 4 159604 4366.25 1
-2 -2 5 151446 4204.24 1
-2 -2 6 207016 5470.71 1
-2 -2 6 204848 5769.84 38
-2 -2 6 217535 5671.58 28
-2 -2 7 37539.2 1835.04 23
-2 -2 7 39073.1 1827.61 38
-2 -2 7 39001.2 1724.9 28
-2 -2 7 40010.7 1881.83 33
-2 -2 8 6233.48 751.885 23
-2 -2 8 7951.92 730.875 28
-2 -2 8 5713.47 696.5 38
-2 -2 9 1968.84 451.087 23
-2 -2 9 1749.83 365.587 28
-2 -2 9 1682.51 373.843 30
-2 -2 9 1398.9 368.97 9
-2 -2 9 2401.2 465.012 38
-2 -2 10 52527.7 2465.87 23
-2 -2 10 50733.9 2190.57 9
-2 -2 10 48460.6 2120.38 28
-2 -2 10 54815.5 2234.2 30
-2 -2 10 54697 2422.24 32
-2 -2 11 15600.5 1184.05 23
-2 -2 11 13896.5 966.007 9
-2 -2 11 16032.1 1156.85 32
-2 -2 12 158.698 179.943 23
-2 -2 12 121.892 106.581 31
-2 -2 12 225.196 164.042 32
-2 -2 13 12946.2 726.003 32
-2 -1 -2 43477.6 1586.17 1
-2 -1 -1 5273.33 460.397 1
-2 -1 0 835765 19186.9 1
-2 -1 1 256128 6320.15 1
-2 -1 3 113645 3169.23 1
-2 -1 3 119305 3281.82 26
-2 -1 4 191324 5089.17 26
-2 -1 4 193143 4899.25 1
-2 -1 5 95887.3 2776.24 1
-2 -1 5 100777 2892.05 28
-2 -1 6 85072 2458.57 1
-2 -1 6 88097.6 2724.71 28
-2 -1 6 85985.3 2923.32 26
-2 -1 7 5417.35 541.345 28
-2 -1 7 4992.6 601.931 38
-2 -1 8 7849.06 698.284 28
-2 -1 8 7060.83 761.094 38
-2 -1 8 8713.49 745.348 30
-2 -1 9 131679 4022.27 30
-2 -1 9 122472 3905.23 28
-2 -1 9 127066 3996.85 9
-2 -1 10 30055.8 1706.65 32
-2 -1 10 26694.4 1433.93 9
-2 -1 10 25478 1656.14 23
-2 -1 10 26562 1432.67 30
-2 -1 11 1522 305.637 31
-2 -1 11 1301.8 370.462 32
-2 -1 12 15457.6 1022.57 23
-2 -1 12 14701.6 985.87 32
-2 -1 13 4453.7 405.962 32
-2 -1 13 4203.12 365.638 8
-2 0 -3 157355 3972.08 1
-2 0 -2 58213.6 1782.84 1
-2 0 1 26006.8 896.087 26
-2 0 2 7133.05 427.106 26
-2 0 3 4463.03 368.218 26
-2 0 4 2337.74 250.916 28
-2 0 4 2706.51 258.257 1
-2 0 5 511300 11762.3 1
-2 0 5 507052 11933.9 28
-2 0 5 516658 12178.7 26
-2 0 6 2039 344.275 26
-2 0 6 1158.53 220.435 28
-2 0 7 33442.6 1430.84 30
-2 0 7 31965.3 1386.92 28
-2 0 7 33680.5 1597.79 26
-2 0 7 31089.1 1612.32 38
-2 0 8 81022.8 2710.28 28
-2 0 8 80507.4 2741.35 30
-2 0 8 85442.4 3081.95 32
-2 0 8 87476 3071.58 26
-2 0 9 42460.4 2081.79 32
-2 0 9 37600.2 1721.97 9
-2 0 10 1674.41 407.535 32
-2 0 11 1993.91 428.176 23
-2 0 11 3084.24 516.635 32
-2 0 12 6198.88 611.481 23
-2 0 12 6779.5 633.006 32
-2 0 13 1977.25 265.062 32
-2 1 0 93738.1 2259.08 26
-2 1 1 438773 9980.18 26
-2 1 2 1770.7 189.762 26
-2 1 3 21171.2 851.201 26
-2 1 3 21388.8 696.206 28
-2 1 4 454371 10401.7 28
-2 1 5 409268 9402.46 28
-2 1 5 407923 9760.63 26
-2 1 5 397429 9267.96 1
-2 1 6 42182.1 1693.73 26
-2 1 6 39927.6 1425.96 28
-2 1 7 98242.9 3327.78 32
-2 1 7 102924 3297.51 26
-2 1 7 97824.8 2950.37 28
-2 1 8 120111 4029.05 32
-2 1 8 121100 3915.13 26
-2 1 9 6334.84 709.554 26
-2 1 9 6169.48 756.118 32
-2 1 10 4198.13 619.729 32
-2 1 11 1590.44 358.514 32
-2 1 11 1478.49 368.746 23
-2 1 12 1525.67 285.97 23
-2 1 12 1133.84 306.143 32
-2 2 -3 97420.1 2558.77 36
-2 2 4 580408 13292.3 36
-2 2 4 573393 13041.8 28
-2 2 4 591027 13490 26
-2 2 5 41743.3 1332.53 36
-2 2 5 44902.8 1646.18 26
-2 2 6 450941 11345.8 22
-2 2 6 450326 11263.5 32
-2 2 6 457100 11389.9 5
-2 2 6 481919 11263.9 26
-2 2 7 44311.9 1867.83 27
-2 2 7 46328.4 2031.72 32
-2 2 7 47437.3 1978.91 26
-2 2 7 48591.7 2121.4 17
-2 2 8 37079.5 1721.19 24
-2 2 8 36197.8 1866.25 32
-2 2 8 35795.4 1749.22 26
-2 2 9 15373.8 1196.53 32
-2 2 9 16197.7 1080.66 24
-2 2 10 1878.27 337.196 24
-2 2 10 1924.29 422.818 32
-2 2 11 37.7927 129.552 23
-2 2 11 -194.322 294.15 32
-2 2 12 13536.7 748.983 32
-2 3 -4 320969 7689.63 36
-2 3 -3 104709 2901.73 36
-2 3 -2 6511.62 454.378 36
-2 3 -1 619693 14290.7 36
-2 3 0 176235 4471.47 36
-2 3 2 267912 6564.56 36
-2 3 3 358029 8574.63 36
-2 3 4 2941.19 338.117 36
-2 3 5 10361.6 598.274 36
-2 3 5 12573.5 792.153 26
-2 3 6 18214.1 1111.15 32
-2 3 6 19840 1215.85 22
-2 3 6 19805.2 1130.82 27
-2 3 6 17429.5 1149.73 5
-2 3 6 18389.5 1162.82 17
-2 3 6 20100.7 1126.89 26
-2 3 7 1217.63 329.75 5
-2 3 7 1099.76 321.704 22
-2 3 7 1404.91 348.414 32
-2 3 7 1052.21 294.252 27
-2 3 7 930.779 260.914 26
-2 3 8 26476.3 1490.26 24
-2 3 8 28465.9 1617.53 32
-2 3 9 51.3924 264.28 32
-2 3 9 259.236 181.432 24
-2 3 10 1471.98 296.773 24
-2 3 10 1268.74 383.588 32
-2 3 11 20905.3 1086.44 32
-2 4 -4 26248.4 1175.69 36
-2 4 -3 1461.23 270.265 36
-2 4 -2 654243 15294.9 36
-2 4 -1 376440 9145.24 36
-2 4 0 48843.6 1754.45 36
-2 4 1 159098 4349.44 36
-2 4 2 461918 11148.2 36
-2 4 3 3021.52 401.028 36
-2 4 4 19666.4 1051.23 36
-2 4 5 32460.2 1583.68 22
-2 4 5 33883.4 1504.62 32
-2 4 5 30961.1 1562.81 5
-2 4 6 516.903 239.503 27
-2 4 6 920.371 300.556 5
-2 4 6 40.7646 288.299 32
-2 4 6 493.744 210.993 17
-2 4 6 711.283 257.26 22
-2 4 6 810.696 238.836 26
-2 4 7 100548 3522.15 27
-2 4 7 99734.1 3552.87 17
-2 4 7 105003 3637.5 5
-2 4 7 97849.9 3346.15 26
-2 4 7 98497.6 3484.76 32
-2 4 7 107418 3734.5 22
-2 4 8 7232.58 767.679 24
-2 4 8 6802.74 776.016 32
-2 4 9 269.619 261.423 32
-2 4 9 741.909 259.804 24
-2 4 10 14436 858.634 24
-2 4 10 15011.7 961.24 32
-2 5 -5 24481.7 1220.84 36
-2 5 -4 33356.2 1524.81 36
-2 5 -3 167553 4750.11 36
-2 5 -2 330304 8418.44 36
-2 5 -1 2435.08 388.667 36
-2 5 1 168988 4870.85 36
-2 5 2 27967.5 1452.21 36
-2 5 3 93407.9 3178.01 36
-2 5 4 5634.54 632.714 5
-2 5 4 6102.35 612.308 36
-2 5 4 6595.84 617.021 32
-2 5 4 6194.99 639.844 22
-2 5 5 272.457 213.24 27
-2 5 5 458.261 215.195 5
-2 5 5 326.302 187.479 22
-2 5 5 76.7146 223.035 32
-2 5 6 57903.5 2495.48 22
-2 5 6 54829.4 2242.62 26
-2 5 6 57014.9 2429.08 27
-2 5 6 56213.1 2428.2 5
-2 5 6 54526.1 2285.19 32
-2 5 7 44085.2 2209.94 22
-2 5 7 46051.8 2087.3 32
-2 5 7 47115.7 2190.88 27
-2 5 7 48022 2203.39 5
-2 5 8 1502.95 354.963 24
-2 5 8 1479.28 426.394 32
-2 5 9 9347.95 748.696 24
-2 5 9 10661.8 808.236 32
-2 5 10 11638.9 631.46 24
-2 6 -5 120.708 129.026 36
-2 6 -5 41.2059 122.335 37
-2 6 -4 42856.2 1943.07 36
-2 6 -3 312361 8292.7 36
-2 6 -2 9177.97 836.049 36
-2 6 -1 60096.5 2466.82 36
-2 6 1 2992.05 502.725 36
-2 6 2 61569.2 2578.16 36
-2 6 3 3749.25 514.176 22
-2 6 3 4197.36 581.71 36
-2 6 4 2071.89 427.467 5
-2 6 4 1983.09 403.048 22
-2 6 5 56687.8 2411.68 5
-2 6 5 53682.6 2399.4 22
-2 6 5 52304.6 2389.59 27
-2 6 6 73248.2 2968.34 22
-2 6 6 72698.5 2908.95 27
-2 6 6 72552.3 2875.71 5
-2 6 7 2893.31 490.217 27
-2 6 7 3330.7 543.183 22
-2 6 8 13007.3 922.607 24
-2 6 9 11874.9 711.108 24
-2 7 -5 35717.1 1808.36 36
-2 7 -5 37582.8 1868.78 37
-2 7 -4 171041 5385.43 37
-2 7 -4 179134 5377.63 36
-2 7 -3 7297.81 802.123 36
-2 7 -2 63601.5 2710.54 36
-2 7 0 26922.7 1660.52 36
-2 7 1 138861 4673.18 36
-2 7 2 49078.4 2374.96 37
-2 7 2 47771.4 2065.59 22
-2 7 2 50125.8 2357.09 36
-2 7 3 4110.51 612.416 5
-2 7 3 3034.55 530.197 37
-2 7 3 2912.15 499.624 36
-2 7 3 3342.01 519.352 22
-2 7 4 37717.6 1973.26 27
-2 7 4 39604.1 1945.87 22
-2 7 4 36079.3 1896.24 5
-2 7 5 86488 3284.99 27
-2 7 5 88188.8 3218.13 5
-2 7 5 85792.1 3249.11 22
-2 7 6 346.642 210.174 5
-2 7 6 388.851 228.26 22
-2 7 6 240.469 202.035 27
-2 7 8 4956.41 460.88 24
-2 8 -6 33502.7 1675.98 37
-2 8 -5 52911.4 2340.89 37
-2 8 -5 46760.2 2216.16 36
-2 8 -4 31729.7 1838.75 37
-2 8 -4 35440 1896.54 36
-2 8 -3 40561.9 2105.84 36
-2 8 -3 37526.1 2063.98 37
-2 8 -2 24139.3 1618.62 37
-2 8 -2 22133.8 1535.69 36
-2 8 0 35305.2 2017.72 36
-2 8 0 36854.3 2098.89 37
-2 8 1 122935 4384.04 36
-2 8 1 128469 4493.96 37
-2 8 2 4220.64 558.884 22
-2 8 2 3846.47 608.125 37
-2 8 2 4011.64 610.508 36
-2 8 3 33487.8 1712.06 22
-2 8 3 34546.2 1831.25 5
-2 8 4 33052.7 1720.29 5
-2 8 4 32750.5 1676.07 22
-2 8 5 2205.25 394.255 5
-2 8 5 2739.31 440.839 22
-2 8 5 2335.88 445.471 27
-2 8 7 1438.52 241.134 24
-2 9 -6 14088.9 981.776 37
-2 9 -5 4374.54 606.395 37
-2 9 -4 38265.1 1987.73 37
-2 9 -3 59324.5 2674.01 37
-2 9 -2 12078.4 1114.25 37
-2 9 -1 44725.2 2304.42 37
-2 9 0 92384.8 3559.9 37
-2 9 1 592.341 269.4 37
-2 9 2 31342.9 1673.46 5
-2 9 2 29989.8 1645.56 27
-2 9 3 21497.2 1303.95 27
-2 9 3 20334.4 1227.47 5
-2 9 4 7037.16 625.645 5
-2 10 -6 4313.57 460.994 37
-2 10 -5 17131.6 1082.83 37
-2 10 -4 30961.3 1605.59 37
-2 10 -3 4147.05 576.277 37
-2 10 -1 18058.9 1219.91 37
-2 10 0 2594.08 448.101 5
-2 10 0 2469.48 435.319 37
-2 10 1 9489.9 783.99 5
-2 10 1 9872.99 773.329 27
-2 10 2 15176.8 918.534 27
-2 10 2 15641.1 923.426 5
-2 10 3 1176.82 239.12 27
-2 11 -5 22856.4 995.24 37
-2 11 -4 579.822 181.14 37
-2 11 -3 28519 1287.9 37
-2 11 -2 27659.6 1250.81 5
-2 11 -1 11144.7 706.884 5
-2 11 -1 9545.46 656.291 37
-2 11 0 8849.94 573.568 5
-1 -10 3 4120.12 382.322 4
-1 -10 4 40754.4 1463.18 4
-1 -10 6 123.379 83.6331 4
-1 -9 0 16607.9 829.786 4
-1 -9 1 39398.5 1656.56 4
-1 -9 1 38154.8 1656.41 38
-1 -9 2 15800.6 1006.3 38
-1 -9 2 14441 1003.1 4
-1 -9 3 5357.39 626.667 4
-1 -9 3 5963.35 611.101 38
-1 -9 4 36573.9 1618.1 38
-1 -9 4 35666.4 1716.51 4
-1 -9 5 39.1011 134.037 4
-1 -9 6 9165.13 722.922 4
-1 -8 0 104990 3566.26 4
-1 -8 1 30232.6 1717.63 4
-1 -8 2 4550.97 678.303 4
-1 -8 3 81577.7 3245.57 4
-1 -8 3 80441.7 3067.02 38
-1 -8 4 291.704 204.212 38
-1 -8 5 26899.5 1583.52 4
-1 -8 5 24722.4 1438.43 38
-1 -8 6 22469.9 1300.27 38
-1 -8 6 23796.2 1403.28 4
-1 -8 6 22990.3 1309.12 33
-1 -8 7 3763.35 499.501 33
-1 -8 7 4317.97 525.96 4
-1 -8 7 3397.92 435.836 9
-1 -8 8 39436.7 1600.82 9
-1 -8 8 40318 1695.4 33
-1 -8 9 13293.5 837.525 30
-1 -8 9 13717.8 796.701 9
-1 -8 10 129.505 104.718 30
-1 -8 10 259.594 114.663 9
-1 -7 -1 60248.2 2522.84 4
-1 -7 0 21293.2 1465.48 4
-1 -7 1 6078.28 811.142 1
-1 -7 2 46101.4 2420.03 1
-1 -7 3 3129.29 595.28 1
-1 -7 4 79589.3 3040.6 38
-1 -7 4 75023 3184.4 1
-1 -7 5 97589 3455.57 38
-1 -7 5 94834.9 3592.99 1
-1 -7 5 93603.5 3435.76 28
-1 -7 6 24844.2 1460.04 38
-1 -7 6 25938.5 1533.3 4
-1 -7 6 23305 1464.9 28
-1 -7 7 52199.3 2184 38
-1 -7 7 51074.8 2176.6 4
-1 -7 7 51535.8 2292.55 33
-1 -7 8 35731 1778.83 33
-1 -7 9 7813.76 731.892 33
-1 -7 9 8238.04 716.458 9
-1 -7 10 555.813 198.403 9
-1 -7 11 15812.8 829.377 30
-1 -7 11 15336.8 789.953 32
-1 -7 11 16652.3 831.924 9
-1 -6 -1 9818.02 958.275 1
-1 -6 0 1511.65 415.882 1
-1 -6 1 14760.2 1241.65 1
-1 -6 2 61094.3 2751.71 1
-1 -6 3 124303 4348.33 1
-1 -6 4 104572 3590.07 38
-1 -6 4 102021 3769.97 1
-1 -6 5 13603.5 1047.65 38
-1 -6 5 13097.5 1097.03 1
-1 -6 5 14773.9 1098.88 28
-1 -6 6 14348.9 1063.2 38
-1 -6 6 13601 1063.47 28
-1 -6 7 153432 4693.06 38
-1 -6 7 159910 4953.03 33
-1 -6 7 148831 4596.02 4
-1 -6 7 150144 4822.78 28
-1 -6 8 4180.41 618.53 33
-1 -6 8 4093.97 542.335 38
-1 -6 9 8372.95 833.964 33
-1 -6 9 7766.55 767.147 9
-1 -6 10 21088 1113.91 8
-1 -6 10 21857.7 1249.75 9
-1 -6 10 21557.6 1249.5 30
-1 -6 11 215.038 129.645 8
-1 -6 11 245.154 157.687 9
-1 -6 11 582.215 196.608 30
-1 -6 11 213.418 152.473 32
-1 -6 12 16335.5 772.565 32
-1 -5 -2 33136.8 1652.78 1
-1 -5 -1 168671 5171.3 1
-1 -5 0 53269.9 2387.5 1
-1 -5 1 57343.4 2517.01 1
-1 -5 2 143715 4637.45 1
-1 -5 4 31821.4 1677.19 1
-1 -5 4 29798.5 1520.19 38
-1 -5 5 811.576 256.337 38
-1 -5 5 1057.88 300.861 1
-1 -5 6 203327 5751.28 38
-1 -5 6 200063 5733.56 1
-1 -5 7 9872.84 848.599 38
-1 -5 7 9042.5 770.25 1
-1 -5 7 10728.7 924.462 28
-1 -5 7 10283.9 953.606 33
-1 -5 8 31614.3 1794.02 33
-1 -5 8 33316 1759.86 28
-1 -5 8 35330.7 1721.29 38
-1 -5 9 18134.4 1301.21 33
-1 -5 9 18801.3 1254.62 9
-1 -5 9 15264.7 1143.31 28
-1 -5 9 16775.4 1099.28 38
-1 -5 10 4237.83 569.987 30
-1 -5 10 4472.72 584.172 9
-1 -5 11 24972.3 1333.11 32
-1 -5 11 27798.3 1367.62 30
-1 -5 12 10210 680.611 32
-1 -5 12 10406.5 666.99 8
-1 -4 -2 116112 3629.42 1
-1 -4 -1 255326 6931.74 1
-1 -4 0 111590 3665.93 1
-1 -4 1 74072.4 2726.65 1
-1 -4 2 445253 11167.8 1
-1 -4 4 10786.4 837.434 1
-1 -4 5 44748.8 1854.19 38
-1 -4 5 48163.7 1939.58 1
-1 -4 6 5793.42 611.855 38
-1 -4 6 5697.6 623.355 28
-1 -4 6 6017.35 576.838 1
-1 -4 6 6006.1 668.862 23
-1 -4 7 61890.1 2606.44 23
-1 -4 7 61532.5 2605.59 33
-1 -4 7 65733.5 2219.85 1
-1 -4 7 67368.5 2579.51 28
-1 -4 7 64709 2479.02 38
-1 -4 8 40057.6 1882.58 38
-1 -4 8 38176.5 1903.46 28
-1 -4 8 44997.8 2141.18 33
-1 -4 8 41669.1 2089.7 23
-1 -4 9 621.894 299.689 23
-1 -4 9 738.916 316.648 33
-1 -4 9 1634.54 362.022 38
-1 -4 9 1226.99 342.593 30
-1 -4 9 1771.92 382.76 28
-1 -4 10 34421.5 1763.14 9
-1 -4 10 36302.2 1782.99 30
-1 -4 11 38388.3 1743.88 9
-1 -4 11 38238.7 1798.36 32
-1 -4 11 38284.4 1727.47 30
-1 -4 12 1007.9 243.744 32
-1 -4 13 1529.77 214.185 8
-1 -3 -2 461774 11155.5 1
-1 -3 -1 4854.34 507.104 1
-1 -3 0 72616.6 2486.03 1
-1 -3 1 641568 15205.3 1
-1 -3 2 142243 4059.8 1
-1 -3 3 200881 5362.38 1
-1 -3 4 101727 3087.98 1
-1 -3 5 25070.9 1222.62 28
-1 -3 5 25319.6 1183.18 1
-1 -3 6 31899.8 1489.52 38
-1 -3 6 29152.6 1541.46 33
-1 -3 6 32770 1515.34 28
-1 -3 6 34851 1356.59 1
-1 -3 7 42826.4 2036.49 23
-1 -3 7 44002.7 2049.44 33
-1 -3 7 46238.7 1944.84 28
-1 -3 7 46481.2 1953.04 38
-1 -3 8 41827.8 2103.12 23
-1 -3 8 41991.7 2099.52 33
-1 -3 8 43869.1 1955.37 38
-1 -3 8 44946.7 1988.23 28
-1 -3 9 5977.26 758.859 23
-1 -3 9 5875.37 688.759 9
-1 -3 9 6852.33 733.005 30
-1 -3 9 5674.13 666.955 28
-1 -3 10 89748.4 3219.07 30
-1 -3 10 94543.9 3477.33 23
-1 -3 10 88107.4 3206.42 9
-1 -3 11 2154.3 392.695 9
-1 -3 12 1465.2 264.319 31
-1 -3 12 905.568 241.84 32
-1 -3 13 2146.43 260.527 32
-1 -2 -3 745845 17009.6 1
-1 -2 -2 75304.2 2287.74 1
-1 -2 -1 3197.19 351.723 1
-1 -2 0 477420 11281.8 1
-1 -2 1 244771 6096.11 1
-1 -2 3 3871.6 372.465 1
-1 -2 4 17435.3 835.602 1
-1 -2 5 173519 4424.69 1
-1 -2 5 170107 4614.92 28
-1 -2 6 280853 6982.29 28
-1 -2 6 265817 6456.74 1
-1 -2 7 61168.5 2480.25 23
-1 -2 7 60818.8 2328.94 38
-1 -2 7 62050 2289.37 28
-1 -2 7 61234.8 2477.57 33
-1 -2 8 11350.3 1015.73 23
-1 -2 8 10709.3 863.603 28
-1 -2 8 9833.71 851.52 30
-1 -2 8 11784.7 927.032 38
-1 -2 8 10944.1 887.27 9
-1 -2 9 167538 4995.81 9
-1 -2 9 169520 5002.68 30
-1 -2 9 155003 4855.98 28
-1 -2 10 7682.89 774.133 28
-1 -2 10 7230.88 745.21 9
-1 -2 10 8729.42 823.289 30
-1 -2 11 2557.37 475.719 23
-1 -2 11 2080.8 379.809 31
-1 -2 12 2989.24 365.287 31
-1 -2 13 1322.82 195.733 8
-1 -1 -3 214460 5060.53 1
-1 -1 -2 7669.74 439.747 1
-1 -1 -1 16474.6 700.46 1
-1 -1 0 63190.9 1794.28 1
-1 -1 1 71655 1974.1 1
-1 -1 2 495313 11194.6 1
-1 -1 2 479497 11271 26
-1 -1 3 1410.43 183.561 1
-1 -1 4 313269 7324.55 1
-1 -1 4 312908 7500.51 28
-1 -1 4 309259 7584.75 26
-1 -1 5 356888 8131.75 1
-1 -1 5 349252 8513.76 28
-1 -1 5 344779 8619.98 26
-1 -1 6 27450.4 1238.87 28
-1 -1 6 28678.6 1333.83 26
-1 -1 7 2140.07 376.555 38
-1 -1 7 2262.46 354.875 28
-1 -1 7 2815.87 404.283 30
-1 -1 7 1794.65 332.916 9
-1 -1 8 68938.7 2694 32
-1 -1 8 69477.1 2537.09 30
-1 -1 8 63152.6 2465.67 9
-1 -1 8 64684.6 2433.32 28
-1 -1 9 30012.7 1575.12 9
-1 -1 9 33628.2 1821.49 32
-1 -1 9 30704.4 1617.33 30
-1 -1 9 33273.9 1861.94 23
-1 -1 9 30217.8 1596.11 28
-1 -1 10 14609.3 1160.64 32
-1 -1 10 11800.7 1064.29 23
-1 -1 11 9244.5 750.505 31
-1 -1 11 10614.4 920.784 23
-1 -1 11 11224.6 945.888 32
-1 -1 12 2885.22 400.892 23
-1 -1 12 2611.68 387.752 32
-1 -1 12 2882.45 382.304 8
-1 0 -3 63940.1 1566 1
-1 0 -2 197897 4624.92 1
-1 0 0 2913.93 151.187 26
-1 0 1 293826 6706 26
-1 0 2 337793 7784.54 26
-1 0 3 115363 2741.6 1
-1 0 3 117256 2873.55 28
-1 0 4 589815 13190.6 1
-1 0 4 589594 13489.5 28
-1 0 4 584039 13578.9 26
-1 0 5 177123 4537.91 28
-1 0 5 177672 4628.79 26
-1 0 6 9364.13 633.571 28
-1 0 6 9431.97 678.94 26
-1 0 7 26121.5 1433.8 32
-1 0 7 26709.5 1446.14 17
-1 0 7 27027.8 1305.65 30
-1 0 7 27792.7 1340.94 26
-1 0 7 25218.7 1250.64 28
-1 0 8 25953.2 1370.18 24
-1 0 8 25746.3 1359.48 28
-1 0 8 24330.3 1321.1 9
-1 0 9 24080 1349.17 24
-1 0 9 25469.4 1583.9 32
-1 0 9 25198.1 1402.73 31
-1 0 10 14296.4 991.159 31
-1 0 10 15612.3 1211.6 23
-1 0 10 14963.7 988.442 24
-1 0 10 14859.7 1174.7 32
-1 0 11 1911.2 396.668 32
-1 0 11 2417.59 435.7 23
-1 0 12 7337.02 627.173 32
-1 1 -3 5872.66 254.496 36
-1 1 2 59292.5 1452.2 28
-1 1 4 181404 4227.34 36
-1 1 4 185218 4482.22 28
-1 1 4 192591 4627.15 26
-1 1 5 207186 5128.56 28
-1 1 5 205578 5259.28 26
-1 1 6 11951.6 849.582 32
-1 1 6 12581.6 740.717 28
-1 1 6 12641 781.425 26
-1 1 7 45654.9 1909.53 24
-1 1 7 45100 2013.61 22
-1 1 7 49042.2 2086.01 32
-1 1 7 45085.9 2030.53 17
-1 1 7 46844.3 1842.15 26
-1 1 7 46372.8 1823.64 31
-1 1 8 8351.31 775.115 24
-1 1 8 7291.17 686.079 31
-1 1 8 8438.13 842.422 17
-1 1 8 8549.47 855.067 32
-1 1 8 6994.7 621.909 10
-1 1 9 31713.1 1659.27 24
-1 1 9 37010.5 1956.51 32
-1 1 10 2224.46 451.833 23
-1 1 10 2582.9 493.917 32
-1 1 10 2830.59 442.86 24
-1 1 11 2657.04 345.882 24
-1 1 11 2880.54 483.018 32
-1 1 12 17485.3 893.425 32
-1 2 -4 230643 5434.14 36
-1 2 -3 32966.2 1063.94 36
-1 2 -2 50183.9 1453.68 36
-1 2 -1 999999 22444.3 36
-1 2 0 244633 5775.51 36
-1 2 1 38165.6 1188.52 36
-1 2 2 66899.9 1856.1 36
-1 2 2 65356 1550.26 10
-1 2 3 132432 3328.37 36
-1 2 3 129586 3105.88 10
-1 2 4 58599.7 1675.42 10
-1 2 4 64403.8 1687.06 36
-1 2 5 13339.3 645.395 10
-1 2 5 15579.8 815.496 26
-1 2 6 927.237 258.678 5
-1 2 6 926.96 252.545 22
-1 2 6 1188.59 300.259 17
-1 2 6 492.69 195.478 32
-1 2 6 571.09 198.829 27
-1 2 6 939.567 221.482 26
-1 2 6 522.788 140.831 10
-1 2 7 20070.3 1299.8 17
-1 2 7 20271.4 1288.56 32
-1 2 7 19547.9 1088.74 26
-1 2 8 119157 4100.95 32
-1 2 8 118571 3962.65 24
-1 2 8 122473 4145.14 17
-1 2 9 5616.8 657.021 24
-1 2 9 6110.06 735.613 32
-1 2 10 1444.27 314.159 24
-1 2 10 1605.81 425.79 32
-1 2 11 14976.7 787.378 24
-1 2 11 15781.4 969.518 32
-1 3 -4 46188.3 1532.52 36
-1 3 -3 55532.8 1775.99 36
-1 3 -2 522218 12162.3 36
-1 3 -1 631306 14569.5 36
-1 3 1 7709.2 529.644 36
-1 3 2 385122 9231.26 36
-1 3 3 12108.5 692.108 36
-1 3 4 254741 6172.81 36
-1 3 5 614.987 207.264 32
-1 3 5 358.492 179.401 22
-1 3 5 562.478 200.075 27
-1 3 5 348.35 141.891 26
-1 3 6 1106.07 298.898 5
-1 3 6 1136.2 311.193 32
-1 3 6 712.135 259.859 17
-1 3 6 1015.69 289.258 22
-1 3 6 994.966 239.588 26
-1 3 7 120798 4055.15 32
-1 3 7 121822 4102.49 17
-1 3 7 121342 4115.53 22
-1 3 7 122438 4049.86 27
-1 3 8 30390.9 1728.17 32
-1 3 8 32261.5 1717.53 24
-1 3 8 28613.5 1687.99 17
-1 3 9 1497.15 361.718 24
-1 3 9 1095.61 396.84 32
-1 3 10 8846.58 778.295 32
-1 3 10 7233.66 644.039 24
-1 3 11 8003.3 472.894 24
-1 3 11 12954.4 717.94 32
-1 4 -5 63773 2085.75 36
-1 4 -4 4452.62 445.882 36
-1 4 -3 776888 18072.1 36
-1 4 -2 518788 12366.7 36
-1 4 -1 243563 6281.77 36
-1 4 1 74197.5 2486.31 36
-1 4 2 6775.93 602.086 36
-1 4 3 141110 4010.78 36
-1 4 4 33556.5 1487.31 32
-1 4 4 31503.4 1484.96 5
-1 4 4 31386.1 1506.98 22
-1 4 4 33362.3 1302.03 36
-1 4 5 5453.14 621.843 32
-1 4 5 6092.53 663.479 27
-1 4 5 5155.07 604.537 17
-1 4 5 5354.27 601.423 5
-1 4 5 5993.97 651.791 22
-1 4 6 104856 3617.66 22
-1 4 6 103410 3517.42 32
-1 4 6 100440 3548.25 17
-1 4 6 105155 3599.01 27
-1 4 6 94582 3138.97 26
-1 4 6 104322 3490.44 5
-1 4 7 52067 2402.68 22
-1 4 7 49582.9 2324.91 17
-1 4 7 51941.1 2311.64 32
-1 4 7 56714 2433.47 27
-1 4 8 3316.95 536.418 24
-1 4 8 4605.9 646.265 32
-1 4 8 3434.05 552.52 17
-1 4 8 4081.3 617.259 22
-1 4 9 18250.8 1136.63 24
-1 4 9 17109.3 1127.33 32
-1 4 10 8204.21 589.079 24
-1 5 -5 9416.39 728.559 36
-1 5 -4 83961.5 2827.14 36
-1 5 -3 167320 4782.09 36
-1 5 -2 12889.6 901.38 36
-1 5 -1 54414.2 2161.72 36
-1 5 0 10388.5 829.326 36
-1 5 1 164.646 172.847 36
-1 5 2 270597 7233.88 36
-1 5 3 103706 3232.8 32
-1 5 3 99655.3 3262.62 36
-1 5 4 34030.7 1626.99 5
-1 5 4 28641.7 1563.28 22
-1 5 4 33683.8 1607.55 32
-1 5 4 29895.8 1618.65 27
-1 5 5 86359 3158.34 22
-1 5 5 81640 2994.01 5
-1 5 5 81020.6 2982.24 32
-1 5 5 83168.7 3150.13 27
-1 5 6 97028.3 3505.26 17
-1 5 6 101287 3675.55 22
-1 5 6 102575 3559.68 32
-1 5 6 105892 3717.9 27
-1 5 6 102369 3521.43 5
-1 5 7 275.823 184.971 17
-1 5 7 381.252 247.121 22
-1 5 7 856.161 395.286 32
-1 5 8 13497.4 1002.02 24
-1 5 9 1098.59 253.055 24
-1 6 -5 51892.3 2177.09 37
-1 6 -5 50616.7 2122.46 36
-1 6 -4 135333 4331.81 37
-1 6 -4 140649 4327.17 36
-1 6 -3 68023.5 2676.25 37
-1 6 -3 68550.7 2654.87 36
-1 6 -2 273676 7476.96 36
-1 6 0 1729.61 416.417 37
-1 6 0 2847.34 482.971 36
-1 6 1 132906 4474.13 37
-1 6 1 139446 4437.72 36
-1 6 2 155796 4926.52 21
-1 6 2 166687 5133.84 37
-1 6 2 174215 5111.29 36
-1 6 3 11724.3 939.839 5
-1 6 3 10800.6 911.132 37
-1 6 3 11454 900.059 36
-1 6 4 34057.2 1808.2 22
-1 6 4 34353.5 1745.11 5
-1 6 5 54397.9 2446.42 22
-1 6 5 58592.9 2539.78 27
-1 6 5 51891 2260.47 5
-1 6 6 125.232 143.098 5
-1 6 6 -52.6626 201.832 27
-1 6 6 53.181 170.528 22
-1 6 7 14383.2 1042.51 24
-1 6 7 12316.4 999.941 22
-1 6 8 1167.8 260.71 24
-1 7 -6 39410.6 1855.01 36
-1 7 -6 40064.6 1886.9 37
-1 7 -5 18302.5 1265.18 36
-1 7 -5 21868 1383.17 37
-1 7 -4 3440.99 547.757 36
-1 7 -4 2742.58 517.634 37
-1 7 -3 90785.2 3450.1 37
-1 7 -3 89088.4 3362.37 36
-1 7 -2 87142.9 3425.94 37
-1 7 -2 91919 3432.59 36
-1 7 -1 22001.5 1508.9 37
-1 7 -1 21607.8 1457.06 36
-1 7 0 117317 4326.49 37
-1 7 0 130624 4360.11 36
-1 7 1 111845 3991.73 36
-1 7 1 114251 4084.46 37
-1 7 2 3771.21 593.655 37
-1 7 2 3870.48 580.176 36
-1 7 3 60309.7 2579.37 22
-1 7 3 60925.8 2522.16 5
-1 7 3 61122.6 2646.82 27
-1 7 4 18716.2 1323.19 22
-1 7 4 21684.9 1317.28 5
-1 7 5 750.122 297.374 22
-1 7 6 23674.9 1356.31 22
-1 7 7 3676.34 435.089 24
-1 8 -6 29784 1610.64 37
-1 8 -5 1053.46 326.759 36
-1 8 -5 1722.76 423.812 37
-1 8 -4 77964.1 3169.24 37
-1 8 -4 79891 3148.62 36
-1 8 -3 103241 3841.6 37
-1 8 -3 99802.9 3740.57 36
-1 8 -2 13647.4 1196.94 37
-1 8 -1 87871.7 3538.71 37
-1 8 -1 87210.8 3451.08 36
-1 8 0 91088.3 3612.2 37
-1 8 0 92621 3554.11 36
-1 8 1 5702.36 740.311 36
-1 8 1 6945.45 816.994 37
-1 8 2 36907.9 1852.28 22
-1 8 2 38980.8 1901.78 5
-1 8 2 36347 1906.54 27
-1 8 3 7486.13 774.076 22
-1 8 3 8016.04 761.569 5
-1 8 3 7806.69 809.537 27
-1 8 4 1669.04 370.975 22
-1 8 4 585.33 256.782 27
-1 8 5 3816.17 476.168 22
-1 9 -7 8913.31 684.93 37
-1 9 -6 7853.51 739.283 37
-1 9 -5 18175.3 1240.45 37
-1 9 -4 23568 1502.29 37
-1 9 -3 5067.17 692.165 37
-1 9 -1 58653.4 2601.58 37
-1 9 0 2031.89 439.751 37
-1 9 1 38450.3 1804.42 5
-1 9 1 37690 1661.13 22
-1 9 1 36218.9 1753.24 27
-1 9 2 6163.69 592.663 22
-1 9 2 5872.69 633.266 27
-1 9 3 57.7837 92.6514 22
-1 9 3 67.7808 142.288 27
-1 9 4 12701.9 756.947 24
-1 9 4 11085.4 646.696 22
-1 10 -6 22659.2 1111.25 37
-1 10 -5 47546 1924.67 37
-1 10 -4 4892.86 574.967 37
-1 10 -3 23869.4 1344.64 37
-1 10 -2 21471.6 1264.11 37
-1 10 -1 4284.52 534.992 37
-1 11 -4 13365.3 716.587 37
-1 11 -3 9805.41 575.936 5
-1 11 -2 270.966 119.756 37
0 -10 1 17781.9 918.373 4
0 -10 2 495.709 191.771 4
0 -10 3 8916.63 717.694 4
0 -10 5 1586.94 244.1 33
0 -10 5 1724.69 306.897 4
0 -10 6 14151.9 724.543 33
0 -10 6 15613.1 816.122 4
0 -10 8 1167.97 173.68 18
0 -9 -1 13960.1 824.975 4
0 -9 0 58684.9 2301.25 4
0 -9 1 240.485 233.224 4
0 -9 2 11128.8 897.759 38
0 -9 2 10643.3 959.678 4
0 -9 3 24453.4 1502.94 4
0 -9 3 25279.2 1389.08 38
0 -9 5 45563.1 2036.26 4
0 -9 6 19492.8 1161.1 4
0 -9 7 388.818 186.926 33
0 -9 8 31005 1362.73 33
0 -9 9 14753.4 781.325 33
0 -8 -1 45822.1 2094.58 4
0 -8 0 796.098 330.977 4
0 -8 1 23461.6 1583.69 4
0 -8 2 81299.3 3340.52 4
0 -8 3 3969.21 649.226 4
0 -8 3 4639.61 626.06 38
0 -8 4 113571 3712.65 38
0 -8 4 103330 3583.66 28
0 -8 4 110713 3970.75 4
0 -8 5 29029.9 1518.26 38
0 -8 5 28279.9 1655.69 4
0 -8 6 19738 1277.8 4
0 -8 6 17330.8 1051.05 9
0 -8 7 3354.23 534.284 33
0 -8 7 3989.86 514.531 4
0 -8 7 3749.38 479.932 9
0 -8 8 26952.2 1312.39 9
0 -8 8 27830.9 1494.44 33
0 -8 9 1995.2 359.695 33
0 -8 9 1867.28 305.086 9
0 -8 9 1942.26 335.856 30
0 -8 10 2174.36 300.169 18
0 -8 10 1600.11 259.79 30
0 -8 10 1779.64 261.869 9
0 -7 -2 9859.14 872.448 4
0 -7 -1 7283.11 821.083 4
0 -7 0 68912.5 2955.14 4
0 -7 1 64151.7 2865.56 4
0 -7 2 3272.22 590.228 1
0 -7 4 163150 4881.53 38
0 -7 4 158304 5149.43 1
0 -7 4 157379 5138.96 4
0 -7 4 160578 4884.36 28
0 -7 5 13613.8 1009.77 38
0 -7 5 15707.2 1189.71 4
0 -7 5 15449.9 1116.07 28
0 -7 6 27860.2 1438.1 38
0 -7 6 24892.7 1484.64 4
0 -7 6 26942.9 1543.22 28
0 -7 7 67140.8 2512.16 4
0 -7 7 66604.1 2669.9 28
0 -7 7 67266.5 2588.41 9
0 -7 8 211.057 192.024 33
0 -7 8 686.412 260.101 9
0 -7 9 26220.8 1390.99 9
0 -7 9 26700.3 1427.12 30
0 -7 9 27585.8 1524.14 33
0 -7 10 16556.6 991.436 9
0 -7 10 18625.5 1008.02 18
0 -7 10 19308 1131.44 33
0 -6 -2 11510.1 949.219 4
0 -6 -1 131098 4346.71 4
0 -6 0 196832 5935.54 1
0 -6 1 32506.3 1829.48 1
0 -6 2 54901 2480.16 1
0 -6 4 10592.2 846.979 38
0 -6 4 10771.6 865.674 28
0 -6 4 10792.2 950.44 1
0 -6 5 31230.3 1528.32 38
0 -6 5 32215.1 1678.26 1
0 -6 5 29745.5 1578.78 28
0 -6 6 64897.1 2422.24 38
0 -6 6 65415.4 2609.18 28
0 -6 6 63874.8 2504.49 4
0 -6 7 224.625 157.213 38
0 -6 7 98.6923 146.533 28
0 -6 8 42647.3 2148.8 33
0 -6 8 43747.5 2029.23 9
0 -6 8 43297.2 2050.11 28
0 -6 9 15769.7 1072.92 8
0 -6 9 18157.7 1203.7 9
0 -6 9 18471.5 1284.68 33
0 -6 10 799.003 257.339 8
0 -6 10 1362.79 315.375 9
0 -6 10 971.15 286.57 30
0 -6 10 577.75 218.755 18
0 -6 11 17361.2 945.95 8
0 -6 11 17773 999.422 30
0 -6 11 18318.6 1007.72 9
0 -6 12 4469.66 355.68 8
0 -6 12 5490.68 419.381 31
0 -5 -1 178914 5212.57 1
0 -5 0 42839.5 1968.69 1
0 -5 1 68625.3 2631.98 1
0 -5 2 193158 5568.81 1
0 -5 3 588.226 216.43 1
0 -5 4 21821.4 1259.97 1
0 -5 5 130478 3917.36 38
0 -5 5 132904 4023.39 34
0 -5 5 134990 4086.75 1
0 -5 5 138091 4120.69 28
0 -5 6 7033.92 646.984 38
0 -5 6 7654.53 735.968 34
0 -5 6 7264.68 675.025 4
0 -5 6 7924.61 756.396 28
0 -5 7 158391 4535.42 38
0 -5 7 154577 4797.79 34
0 -5 7 152533 4940.73 33
0 -5 8 42259.8 2125.93 33
0 -5 8 42412 2024.23 9
0 -5 9 9100.01 901.207 33
0 -5 9 6525.75 731.11 28
0 -5 9 6403.26 731.464 30
0 -5 9 7225.9 767.87 9
0 -5 10 36047.2 1748.27 9
0 -5 10 34362.6 1707.71 32
0 -5 10 31812.6 1508.81 18
0 -5 10 35421.1 1749.14 30
0 -5 11 23648.6 1261.89 30
0 -5 11 25306.9 1293.51 8
0 -5 11 23586.9 1243.82 32
0 -5 12 2000.66 303.158 8
0 -5 12 1971.67 288.066 31
0 -4 -2 445632 10820.2 1
0 -4 -1 71895.3 2479.4 1
0 -4 0 74932.3 2572.24 1
0 -4 1 360866 9070.07 1
0 -4 3 6507.83 590.241 1
0 -4 4 14731.2 892.906 28
0 -4 4 16218 948.768 1
0 -4 5 82936.4 2672.04 1
0 -4 6 98124.1 3410.21 23
0 -4 6 100810 3120.93 38
0 -4 6 99515.3 3342.97 34
0 -4 7 126813 4327.93 23
0 -4 7 133607 4366.13 33
0 -4 7 137958 4291.73 34
0 -4 7 136355 4198.34 28
0 -4 7 131243 3945.75 38
0 -4 8 5636.77 720.845 23
0 -4 8 6100.04 611.176 38
0 -4 8 6964.73 743.798 30
0 -4 8 5676.13 678.026 9
0 -4 8 5494.29 660.537 28
0 -4 9 13465.8 1059.97 30
0 -4 9 11704.4 984.317 28
0 -4 9 12089.7 912.009 18
0 -4 10 31948.5 1656.29 30
0 -4 10 29193.3 1616.58 32
0 -4 11 311.045 182.628 32
0 -4 12 743.817 197.484 11
0 -4 12 551.547 180.237 32
0 -4 12 724.41 224.374 8
0 -4 12 475.101 160.901 31
0 -3 -2 38120.9 1393.44 1
0 -3 -1 40426 1494.08 1
0 -3 0 17138.7 895.445 1
0 -3 1 3686.06 397.207 1
0 -3 3 129095 3569.68 1
0 -3 4 235686 5931.22 1
0 -3 5 199091 5011.12 1
0 -3 5 195487 5279.01 28
0 -3 6 577817 14125.5 34
0 -3 6 585681 13990.9 28
0 -3 7 4420.54 541.222 28
0 -3 7 3732.19 470.003 38
0 -3 8 1650.02 366.105 28
0 -3 8 1495.62 360.131 30
0 -3 8 1916.14 364.607 29
0 -3 8 1598.98 375.555 9
0 -3 9 48294.2 2199.78 28
0 -3 9 51089.8 2272.07 9
0 -3 9 48099.3 1980.8 18
0 -3 9 52398.1 2286.04 30
0 -3 9 52215.6 2338.83 32
0 -3 9 53288 2420.49 23
0 -3 10 2081.59 451.603 23
0 -3 10 2930.51 515.34 32
0 -3 10 2633.02 488.606 30
0 -3 10 2558.7 462.766 9
0 -3 11 12190.9 930.652 32
0 -3 11 12682.5 917.602 31
0 -3 12 3625.85 428.171 8
0 -3 12 3553.3 413.209 32
0 -3 12 3491.61 388.45 31
0 -2 -2 10933.2 526.141 1
0 -2 -1 273100 6526.09 1
0 -2 0 37509.9 1259.45 1
0 -2 1 780030 17753.2 1
0 -2 2 177547 4432.5 1
0 -2 3 15766.6 735.946 28
0 -2 3 15858.5 700.771 1
0 -2 4 78655.3 2044.34 1
0 -2 4 64896.3 2168.58 28
0 -2 5 416806 10060.7 28
0 -2 6 35870 1681.71 33
0 -2 6 38478 1718.72 34
0 -2 6 38698.6 1607.17 28
0 -2 7 8089.03 678.835 24
0 -2 7 8345.41 731.149 28
0 -2 7 7524.55 784.648 23
0 -2 7 8947.2 827.735 33
0 -2 7 8140.43 782.268 34
0 -2 7 8330.33 748.102 9
0 -2 7 9649.07 794.998 30
0 -2 7 9989.3 811.735 29
0 -2 8 71158.7 2597.07 24
0 -2 8 74799.3 2939.58 23
0 -2 8 72748.8 2752.1 9
0 -2 8 71463.2 2808.15 32
0 -2 8 76197.6 2778.97 29
0 -2 8 72656.6 2753.98 30
0 -2 8 64431 2612.01 28
0 -2 9 7913.13 801.306 9
0 -2 9 7616.3 786.649 30
0 -2 9 7529.93 723.165 24
0 -2 9 6756.78 797.319 23
0 -2 9 7076.72 801.826 32
0 -2 9 7394.23 772.748 28
0 -2 10 32289.2 1757.33 23
0 -2 10 30216.8 1709.44 32
0 -2 11 7052.1 694.391 23
0 -2 11 6042.25 603.18 11
0 -2 11 6906.35 702.421 32
0 -2 11 6421.12 638.257 31
0 -2 12 1026.72 224.777 8
0 -2 12 1064.64 229.659 32
0 -1 -3 11512.5 338.516 25
0 -1 -2 4884.32 232.125 1
0 -1 -1 263345 6055.62 1
0 -1 0 13567.2 502.498 1
0 -1 2 58097.8 1543.9 1
0 -1 2 61250.7 1632.19 28
0 -1 3 13505.2 634.961 26
0 -1 3 13243.1 625.638 28
0 -1 4 400857 9361.14 28
0 -1 4 392516 9342.18 26
0 -1 5 58346.8 1932.57 28
0 -1 6 58106.4 2053.83 28
0 -1 7 25617.9 1296.59 28
0 -1 7 22085.2 1223.8 24
0 -1 7 22514.1 1252.88 9
0 -1 7 21779.1 1322.34 29
0 -1 7 20385.3 1264.97 32
0 -1 7 22486.3 1302.66 17
0 -1 7 22462.5 1262.43 30
0 -1 8 14792.6 1038.37 24
0 -1 8 14090.9 1132.48 23
0 -1 8 13635 1014.5 9
0 -1 8 15839.1 1141.54 17
0 -1 8 16638.9 1182.49 32
0 -1 8 14842.7 1060.52 28
0 -1 8 16388.7 1191.68 29
0 -1 9 77232.6 2836.32 24
0 -1 9 77469.2 2908.82 31
0 -1 9 69440.2 2757.49 10
0 -1 9 76249.9 3036.77 23
0 -1 9 77564 3054.9 32
0 -1 10 62297.6 2360.83 24
0 -1 10 60263.2 2505.91 23
0 -1 10 56870.5 2307.17 11
0 -1 10 59512.2 2547.26 32
0 -1 10 58180.7 2379.1 31
0 -1 11 41.445 132.93 32
0 -1 11 321.813 178.704 8
0 -1 12 5788.75 509.722 32
0 0 1 115095 2664.5 28
0 0 2 301918 6821.56 28
0 0 2 293409 6766.19 26
0 0 3 91041.3 2368.91 28
0 0 3 89745.6 2311.64 26
0 0 4 202235 5062.49 28
0 0 4 208686 5011.19 26
0 0 5 32252.2 1261.56 28
0 0 5 31928.6 1191.17 26
0 0 6 7762.9 641.497 30
0 0 6 8467.32 772.112 29
0 0 6 9692.98 687.838 28
0 0 6 8552.39 592.252 26
0 0 7 19200.6 1181.37 24
0 0 7 18274.7 1107.86 28
0 0 7 19738.3 1132.47 9
0 0 7 20452.1 1318.6 29
0 0 7 18959.4 1253.09 13
0 0 8 56153.2 2319.56 24
0 0 8 53896.5 2241.48 31
0 0 8 50537.7 2110.39 10
0 0 9 76678.1 2892.31 24
0 0 9 69861.1 2670.72 10
0 0 9 78157.4 3000.11 23
0 0 9 81311.8 2904.92 31
0 0 9 73922.6 2734.22 11
0 0 10 1032.12 283.866 24
0 0 10 1220.15 313.193 23
0 0 10 671.576 332.409 31
0 0 11 174.043 257.674 31
0 0 11 684.62 196.635 24
0 0 12 5024.21 438.214 32
0 1 -4 348170 7763.34 35
0 1 -3 13385.4 463.143 36
0 1 -2 59779.3 1556.2 36
0 1 -1 630021 14160.8 36
0 1 1 287070 6365.65 10
0 1 1 272604 6473.52 36
0 1 2 4656.91 250.047 10
0 1 2 4471.31 232.469 36
0 1 3 10613.1 321.251 35
0 1 3 12787.6 558.932 28
0 1 4 160685 4161.56 28
0 1 4 164934 4056.78 26
0 1 5 186663 4917.72 10
0 1 5 199204 4866.8 26
0 1 6 6369.43 628.621 24
0 1 6 6225.25 622.554 22
0 1 6 5439.09 605.449 17
0 1 6 6695.76 662.03 32
0 1 6 6424.85 696.492 29
0 1 6 6605.96 587.635 31
0 1 6 5788.47 646.239 13
0 1 6 5803.13 471.498 26
0 1 6 6434.54 538.633 10
0 1 7 21222.1 1321.26 24
0 1 7 19704.6 1122.72 11
0 1 7 21656.9 1337.4 22
0 1 7 20994.2 1330.11 32
0 1 7 24227.2 1282.89 31
0 1 7 22040.8 1360.05 17
0 1 7 19996.5 1109.13 10
0 1 7 20971.1 1366.62 13
0 1 8 127010 3994.15 24
0 1 8 110349 3536.03 11
0 1 8 105676 3468.55 10
0 1 8 117731 4015.19 17
0 1 8 117225 3724.44 31
0 1 8 109227 3934.83 32
0 1 9 21626.6 1438.85 17
0 1 9 22048.1 1377.55 24
0 1 9 19024.4 1267.06 23
0 1 9 21248 1259.49 31
0 1 10 873.381 268.547 24
0 1 10 826.116 352.294 31
0 1 11 9259.09 626.253 24
0 2 -4 68088.8 1896.77 36
0 2 -3 16437.7 701.681 36
0 2 -2 199274 4890.49 36
0 2 -1 918147 20778.7 36
0 2 1 289305 6911.14 36
0 2 2 11284.6 554.107 36
0 2 3 18397.7 677.244 36
0 2 3 17214.9 688.418 10
0 2 4 244600 5932.09 10
0 2 5 10775.6 800.065 32
0 2 5 10212.3 771.062 22
0 2 5 9853.89 612.394 10
0 2 5 10524.7 796.461 27
0 2 5 11839.5 647.393 26
0 2 6 16194.8 886.869 10
0 2 6 16872 1121.27 22
0 2 6 16166.8 1100.61 32
0 2 6 16842.4 1130.04 27
0 2 6 17170.5 1185.56 13
0 2 6 16771.4 1131.48 17
0 2 6 16510.3 996.854 31
0 2 7 110380 3750.97 24
0 2 7 107121 3731.42 22
0 2 7 110849 3758.01 32
0 2 7 105816 3758.55 17
0 2 7 104386 3428.01 31
0 2 7 109255 3810.14 13
0 2 8 38778.5 1956.34 24
0 2 8 37937.8 1965.27 22
0 2 8 35787.2 1684.17 31
0 2 8 38646.6 1977.62 32
0 2 8 35851.9 1940.59 17
0 2 9 5980.61 686.417 24
0 2 9 4338.13 622.319 17
0 2 9 4252.71 640.519 32
0 2 10 8053.68 690.283 24
0 2 10 8666.97 770.68 32
0 2 11 3641.59 403.866 32
0 2 11 2495.12 273.349 24
0 3 -5 207450 5204.83 36
0 3 -4 254197 6295.65 36
0 3 -3 140810 3789.77 36
0 3 -2 436185 10390.2 36
0 3 -1 4835.63 439.868 36
0 3 0 19214.3 953.005 36
0 3 1 40035.1 1508.6 36
0 3 2 40369.6 1480.68 36
0 3 3 471312 11021.7 36
0 3 4 21744.4 1147.63 32
0 3 4 19891.2 1152.09 21
0 3 5 19535.9 1042.78 31
0 3 5 22083.7 1248.91 32
0 3 5 19051.7 1183.08 17
0 3 5 19274.4 1217 27
0 3 5 19041.9 925.04 26
0 3 5 19773.5 1117.32 5
0 3 6 139445 4142.66 31
0 3 6 145337 4579.24 17
0 3 6 145842 4594.26 27
0 3 6 138772 4482.38 13
0 3 6 148868 4545.24 32
0 3 7 54165.7 2394.52 32
0 3 7 52686.1 2393.48 24
0 3 7 51499.3 2375.51 22
0 3 7 54017.9 2423.71 17
0 3 8 11802.3 1014 24
0 3 8 12681.7 1057.76 22
0 3 8 12774.8 1062.32 32
0 3 8 10474.4 972.196 17
0 3 9 8124.74 751.011 24
0 3 9 8717.79 816.03 32
0 3 9 7064.98 726.774 17
0 3 10 2350.99 335.766 24
0 3 10 2323.46 388.991 32
0 4 -5 87518.3 2732.81 36
0 4 -4 16021.3 917.594 36
0 4 -3 4986.78 503.585 36
0 4 -2 3395.1 423.628 36
0 4 0 81714.5 2715.45 36
0 4 1 74214.2 2533.54 36
0 4 2 437778 10680 36
0 4 3 194622 5082.72 36
0 4 3 200866 5321.89 32
0 4 4 4501.75 590.779 21
0 4 4 5806.75 623.522 32
0 4 4 4369.44 504.575 5
0 4 5 70371 2743.86 17
0 4 5 71711 2818.5 27
0 4 5 73073 2736.64 32
0 4 5 69006.1 2732.46 22
0 4 5 66939.7 2521.77 5
0 4 6 23705.4 1487.09 22
0 4 6 23508.9 1465.22 32
0 4 6 20866.8 1406.17 17
0 4 6 22677.9 1475.34 27
0 4 7 17041.3 1242.67 24
0 4 7 15817.8 1203.82 17
0 4 7 17168.3 1241.02 32
0 4 8 5836.76 713.271 32
0 4 8 4737.41 606.674 17
0 4 8 5153.62 648.432 24
0 4 9 358.896 177.014 24
0 4 10 1475.5 196.418 24
0 5 -5 142505 4178.01 36
0 5 -5 137393 4205.01 37
0 5 -4 23903.7 1288.88 36
0 5 -4 22610.1 1297.75 37
0 5 -3 371.579 173.59 37
0 5 -3 511.389 208.025 36
0 5 -2 197449 5563.78 36
0 5 -2 192830 5573.67 37
0 5 -1 65086.5 2566.48 37
0 5 0 42037.1 1962.26 37
0 5 0 43892.1 1941.74 36
0 5 1 173834 5211.89 37
0 5 1 177522 5150.2 36
0 5 2 153413 4580.16 36
0 5 2 155739 4690.43 21
0 5 2 154279 4658.94 37
0 5 3 23799.9 1277.97 5
0 5 3 22426.9 1414 21
0 5 3 22872.6 1389.91 27
0 5 4 40840.1 1997.75 22
0 5 4 42902.9 1978.9 32
0 5 4 41170.6 2044.41 27
0 5 4 41093.7 1824.16 5
0 5 5 22220.6 1393.01 17
0 5 5 21004.4 1410.73 22
0 5 5 23576.8 1433.97 32
0 5 5 21416.2 1250.01 5
0 5 6 1518.19 372.484 17
0 5 6 1873.76 431.954 22
0 5 7 31242.7 1657.68 24
0 5 7 28904.6 1619.97 22
0 5 7 28872.3 1509.52 17
0 5 8 492.054 208.958 24
0 5 9 992.78 184.956 24
0 6 -6 66805.5 2584.74 37
0 6 -5 32578.7 1664.9 36
0 6 -5 31978.3 1687.43 37
0 6 -4 11405.4 966.661 37
0 6 -4 10349.7 897.282 36
0 6 -3 302546 8233.36 37
0 6 -3 298774 8157.3 36
0 6 -2 55440.5 2478.85 37
0 6 -2 58345.1 2476.77 36
0 6 -1 39145.1 2012.33 37
0 6 -1 36106.9 1879.38 36
0 6 0 185467 5419.89 21
0 6 0 202575 5836.59 36
0 6 0 191321 5865.85 37
0 6 1 123101 4027.31 21
0 6 1 123590 4125.77 36
0 6 1 122937 4203.29 37
0 6 2 10282.4 916.193 37
0 6 2 9713.1 933.499 21
0 6 3 37972.4 1768.11 5
0 6 3 34741.6 1908.24 27
0 6 4 22804.9 1451.46 22
0 6 4 20964.5 1438.66 27
0 6 4 20275.4 1217.44 5
0 6 5 5368.43 687.095 22
0 6 5 6332.93 753.143 27
0 6 6 51434 2240.06 22
0 6 7 1685.52 333.086 22
0 6 8 3390.91 334.708 24
0 7 -7 72464.1 2667.69 37
0 7 -6 27747.5 1575.6 37
0 7 -5 15297.7 1183.6 37
0 7 -4 171682 5372.39 37
0 7 -4 165977 5282.35 36
0 7 -3 104290 3832.94 36
0 7 -3 112113 3976.62 37
0 7 -1 60901.3 2725.59 36
0 7 -1 63444.9 2843.75 37
0 7 0 64973.6 2569.61 21
0 7 0 65678.1 2882.03 37
0 7 1 7924.84 827.43 21
0 7 1 8300.23 889.12 37
0 7 2 10868 902.53 5
0 7 2 10960.9 937.989 37
0 7 2 11123.6 1001.89 27
0 7 3 7107.28 786.753 22
0 7 3 6928.04 790.364 27
0 7 4 1234.42 355.167 22
0 7 4 1339.96 351.86 27
0 7 5 22702.6 1314.24 24
0 7 5 24523.2 1364.43 22
0 7 6 13622.2 853.709 24
0 7 6 12957.7 856.378 22
0 8 -7 4313.83 533.524 37
0 8 -6 19642.5 1286.63 37
0 8 -5 31055.5 1757.63 37
0 8 -4 121020 4245.32 37
0 8 -3 4158.21 660.924 37
0 8 -1 22872.1 1553.53 37
0 8 0 284.099 228.44 37
0 8 0 181.348 164.907 27
0 8 1 40213.3 1850.15 5
0 8 1 41123.7 1940.12 27
0 8 1 42805.8 2004.68 37
0 8 2 7211.82 757.568 22
0 8 2 9624.71 847.445 27
0 8 3 2989.82 456.304 22
0 8 3 2148.89 395.697 27
0 8 4 23372 1179.21 24
0 8 4 22004.7 1184.28 22
0 8 5 47040.3 1654.96 22
0 9 -7 363.411 172.338 37
0 9 -6 19928.8 1196.15 37
0 9 -5 46629.9 2080.37 37
0 9 -4 847.559 308.666 37
0 9 -3 25958.1 1538.26 37
0 9 -2 10583.4 946.235 37
0 9 -1 522.577 257.745 37
0 9 0 51327.6 2002.86 22
0 9 1 13424.2 871.299 22
0 9 2 14664.4 848.409 22
0 9 3 25437.3 1027.99 22
0 10 -6 15213.5 830.568 37
0 10 -5 2196.15 345.443 37
0 10 -4 15965.5 969.92 37
0 10 -2 498.618 185.354 37
1 -11 3 9596.42 605.38 4
1 -10 0 11443 794.541 4
1 -10 1 3465.53 486.51 4
1 -10 2 22361 1296.42 4
1 -10 3 22870.1 1318.98 4
1 -10 5 47371.3 1897.49 4
1 -10 6 24697 1231.41 33
1 -10 7 692.33 202.115 33
1 -10 8 13395.4 716.132 33
1 -10 8 15677.3 733.653 18
1 -9 -1 39205.7 1826.35 4
1 -9 0 1657.02 413.143 4
1 -9 1 61419 2692.8 4
1 -9 2 22101.8 1296 38
1 -9 2 22364.6 1497.8 4
1 -9 3 4956.14 688.709 4
1 -9 4 22855.5 1467.91 4
1 -9 5 18000.1 1213.53 4
1 -9 6 7296.93 691.396 4
1 -9 7 10640.9 883.537 33
1 -9 8 20584.7 1157.1 33
1 -9 9 8220.24 619.32 33
1 -9 10 8697.86 468.974 18
1 -8 -6 418.806 142.521 3
1 -8 -2 41186.6 1914.27 4
1 -8 -1 4723.5 658.545 25
1 -8 -1 6104.58 754.334 4
1 -8 0 88498.8 3467.63 25
1 -8 0 96324.1 3626.91 4
1 -8 1 87879.6 3475.68 4
1 -8 1 82905.3 3337.59 25
1 -8 2 14394.7 1237 4
1 -8 3 93456 3217.16 38
1 -8 4 79169.4 2700.36 38
1 -8 4 77630.1 3084.61 4
1 -8 4 68204.8 2639.26 28
1 -8 4 73376.3 2961.26 25
1 -8 5 892.024 318.451 4
1 -8 5 680.478 231.18 28
1 -8 5 903.878 285.991 25
1 -8 6 26027.9 1333.5 9
1 -8 6 27240.4 1496.68 4
1 -8 7 44553.6 1838.56 9
1 -8 7 43425.6 1911.79 30
1 -8 8 2662.97 419.995 30
1 -8 8 3317.16 523.515 33
1 -8 8 2448.5 388.156 9
1 -8 9 17649.8 962.003 9
1 -8 9 20016.7 1156.05 33
1 -8 9 18043.1 1046.85 18
1 -8 9 17242.7 996.036 30
1 -8 10 13841.8 766.62 18
1 -8 10 13775.9 760.142 30
1 -7 -2 3140.43 504.719 25
1 -7 -2 3504.53 539.146 4
1 -7 -1 105798 3771.56 4
1 -7 -1 103328 3681.13 25
1 -7 0 119649 4202.98 4
1 -7 1 21059.3 1470.53 4
1 -7 2 83518.8 2847.22 28
1 -7 2 86700.7 3350.84 4
1 -7 3 80548 3173.62 4
1 -7 3 78531.4 2786.66 28
1 -7 4 3267.11 445.299 38
1 -7 4 2848.7 538.036 4
1 -7 4 3600.51 494.58 28
1 -7 5 18879.4 1233.04 25
1 -7 5 17815.1 1240.82 4
1 -7 5 17918.9 1175.99 28
1 -7 5 17853.3 1118.46 34
1 -7 5 18435.2 1129.24 9
1 -7 6 37769.8 1841.44 28
1 -7 6 39071.3 1831.22 4
1 -7 6 39134.5 1823.41 34
1 -7 6 38599.4 1795.17 9
1 -7 6 35828.1 1732.59 25
1 -7 7 4210.37 580.281 28
1 -7 7 5593.84 645.436 9
1 -7 8 55543.9 2179.75 8
1 -7 8 58806.8 2338.92 9
1 -7 8 54934.7 2313.86 30
1 -7 8 57295 2515.45 33
1 -7 9 12587.8 915.319 9
1 -7 9 12679.6 924.552 18
1 -7 9 12246.4 854.956 8
1 -7 9 12050.2 910.06 30
1 -7 10 908.036 243.602 9
1 -7 10 736.161 211.839 18
1 -7 10 994.872 226.435 8
1 -7 10 580.333 199.99 30
1 -7 11 15387.3 782.531 31
1 -7 11 14039 682.317 8
1 -6 -2 168726 4966.8 4
1 -6 -2 162900 4856.06 25
1 -6 -1 129595 4198.81 4
1 -6 0 1993.84 423.187 4
1 -6 1 11503.7 977.184 4
1 -6 3 60606 2540.72 4
1 -6 3 65810.4 2346.89 28
1 -6 4 128646 3881.95 34
1 -6 4 128225 3929.18 28
1 -6 4 128198 4129.14 4
1 -6 5 50488.7 2075.46 34
1 -6 5 44707 2013.56 4
1 -6 5 46950.1 2017.97 28
1 -6 6 3358.32 474.269 4
1 -6 6 4652.86 605.028 34
1 -6 6 3588.44 522.902 28
1 -6 6 3211.02 495.434 9
1 -6 6 3832.58 482.564 25
1 -6 6 4067.93 535.696 8
1 -6 7 159750 4896.66 9
1 -6 7 164119 4966.09 34
1 -6 7 157877 4803.66 8
1 -6 7 153713 4856.61 28
1 -6 8 31753.8 1696.34 9
1 -6 8 31612.7 1664.06 8
1 -6 8 32044.8 1714.7 30
1 -6 8 31190.4 1688.47 28
1 -6 9 16141.4 1181 33
1 -6 9 14250.2 1065.55 9
1 -6 9 16748.8 1106.73 18
1 -6 9 14750.9 1066.83 8
1 -6 9 14860 1091.06 30
1 -6 10 934.176 259.44 9
1 -6 10 1084.73 274.113 18
1 -6 10 1210.86 308.523 8
1 -6 11 17510 941.602 8
1 -6 12 14.9836 70.3307 11
1 -6 12 14.8735 67.4464 31
1 -6 12 -13.9147 63.0988 8
1 -5 -3 98500.5 3009.19 25
1 -5 0 8205.78 721.906 1
1 -5 1 49292.6 2018.27 1
1 -5 3 150563 4479.1 1
1 -5 3 156007 4304.37 28
1 -5 4 78494.6 2647.35 28
1 -5 5 8144.71 741.285 34
1 -5 5 7529.01 689.54 28
1 -5 6 144551 4085.57 25
1 -5 6 150398 4531.24 9
1 -5 6 148661 4581.73 34
1 -5 6 146210 4472.82 28
1 -5 7 54903.2 2350.3 30
1 -5 7 57709.4 2404.42 9
1 -5 7 55149.4 2401.11 34
1 -5 7 57232.7 2516.39 33
1 -5 7 52852.6 2306.18 28
1 -5 8 797.429 302.785 34
1 -5 8 1068.47 320.961 9
1 -5 8 611.447 278.398 33
1 -5 8 997.596 302.842 28
1 -5 9 1384.77 344.15 32
1 -5 9 2102.05 438.775 9
1 -5 9 1763.56 411.095 33
1 -5 9 1335.45 327.89 18
1 -5 10 52576.8 2128.44 32
1 -5 10 54350.2 2266.58 8
1 -5 10 56003.7 2276.44 9
1 -5 11 2146.93 354.712 31
1 -5 11 1444.99 307.193 8
1 -5 12 23028.8 973.507 11
1 -5 12 23172.1 971.811 31
1 -4 -3 146029 3883.1 25
1 -4 -1 72247.8 2343.33 1
1 -4 0 75740.8 2443.06 1
1 -4 1 217741 5696.99 1
1 -4 2 455293 10982.2 1
1 -4 3 723109 16782 28
1 -4 4 3178.89 396.265 28
1 -4 5 59831.2 2280.31 34
1 -4 5 56464.1 1908.09 25
1 -4 6 180701 5332.83 34
1 -4 6 178632 5018.03 29
1 -4 6 185578 5254.06 9
1 -4 7 2589.57 492.343 23
1 -4 7 4199.82 596.453 33
1 -4 7 3418.87 545.986 34
1 -4 7 2921.53 443.074 29
1 -4 8 8015.88 816.948 9
1 -4 8 7137.61 801.902 33
1 -4 8 7533.54 741.668 18
1 -4 8 6067.62 655.852 29
1 -4 8 5341.71 675.829 30
1 -4 8 5611.8 673.398 28
1 -4 9 24588 1451.9 32
1 -4 9 22964.3 1311.67 18
1 -4 9 25214.7 1503.21 30
1 -4 9 21679.4 1272.13 29
1 -4 9 24025.8 1474.17 28
1 -4 10 482.691 261.641 8
1 -4 10 85.1303 126.41 32
1 -4 11 36535.4 1627.39 11
1 -4 11 41151.1 1713.84 31
1 -4 12 1900.34 255.079 11
1 -4 12 1656.89 269.026 31
1 -3 -3 14014.8 633.622 25
1 -3 0 10532 597.693 1
1 -3 2 455767 10625.8 1
1 -3 2 450088 10539.7 28
1 -3 3 51821.4 1711.26 28
1 -3 4 37005.6 1252.49 25
1 -3 5 427766 9918.96 25
1 -3 6 345.809 222.341 23
1 -3 6 41.7516 134.007 34
1 -3 6 307.595 168.117 9
1 -3 6 147.44 134.148 29
1 -3 6 457.954 225.723 33
1 -3 7 35298.6 1807.3 23
1 -3 7 33315.1 1744.71 34
1 -3 7 32857.6 1692.16 30
1 -3 7 34510.3 1683.63 29
1 -3 7 30558.4 1596.67 28
1 -3 7 33073.4 1587.75 18
1 -3 7 35221.2 1783.11 33
1 -3 7 35933.2 1698.6 13
1 -3 7 33749.8 1568.07 12
1 -3 7 35966.4 1669.99 24
1 -3 8 11169.7 1015.94 23
1 -3 8 13041.8 1064.17 34
1 -3 8 11503 901.29 18
1 -3 8 12381 1011.74 32
1 -3 8 13902.3 1078.14 30
1 -3 8 12123.3 981.254 29
1 -3 8 11286.7 970.58 28
1 -3 9 424.403 231.936 23
1 -3 9 756.204 273.343 32
1 -3 9 734.148 235.524 18
1 -3 9 51.3964 176.34 9
1 -3 9 141.036 171.091 29
1 -3 9 622.753 251.692 28
1 -3 10 32721.2 1730.43 8
1 -3 10 33940.6 1717.37 31
1 -3 10 31859.8 1657.11 32
1 -3 11 12876.9 867.634 11
1 -3 11 14030.7 930.82 8
1 -3 11 12605.4 851.359 32
1 -3 11 12701.1 873.502 31
1 -3 12 2535.98 293.966 8
1 -3 12 1305.99 262.965 31
1 -2 -4 67380.5 1714.99 25
1 -2 -3 150285 3615.47 25
1 -2 -2 66431.4 1761.19 25
1 -2 1 908989 20355.5 28
1 -2 2 43172 1321.28 28
1 -2 3 28085.6 904.446 25
1 -2 4 187950 4995.4 28
1 -2 4 198848 4598.42 25
1 -2 5 9594.9 680.462 28
1 -2 6 173114 4885.98 30
1 -2 6 169828 4877.41 9
1 -2 6 169023 4794.56 28
1 -2 6 172175 4993.23 34
1 -2 6 175950 5022.83 29
1 -2 6 171378 4935.3 33
1 -2 6 167694 4890.06 13
1 -2 7 102092 3355.1 24
1 -2 7 99693.3 3464.93 23
1 -2 7 97362.1 3369.62 9
1 -2 7 100624 3380.31 30
1 -2 7 100995 3436.64 34
1 -2 7 93879.2 3118.42 18
1 -2 7 97490.2 3358.27 32
1 -2 7 97467 3331.79 17
1 -2 7 98822.7 3453.19 29
1 -2 7 99775.5 3345.65 28
1 -2 7 96689.1 3384.36 13
1 -2 7 95720.8 3300.1 12
1 -2 8 1438.57 357.075 24
1 -2 8 2270.49 447.713 23
1 -2 8 1250.32 285.626 18
1 -2 8 1052.86 317.278 32
1 -2 8 1502.88 358.762 17
1 -2 8 1516.68 371.617 9
1 -2 8 1454.2 373.691 29
1 -2 8 1527.14 354.597 28
1 -2 8 1282.07 358.407 13
1 -2 9 76122.5 2871.18 24
1 -2 9 77039.6 2949.1 23
1 -2 9 75756.1 2938.93 31
1 -2 9 76188.4 2964.17 32
1 -2 9 79015.6 3002.07 29
1 -2 9 66634.3 2790.89 10
1 -2 10 43804.4 1979.7 11
1 -2 10 48064.7 2106.65 8
1 -2 10 48664.8 2113.59 32
1 -2 10 43364.7 1997.18 31
1 -2 11 1953.45 323.189 11
1 -2 11 1441.96 298.307 31
1 -2 11 1726.24 313.242 32
1 -2 11 2027.08 346.589 8
1 -1 -2 62609 1568.49 25
1 -1 -1 467343 10513.6 25
1 -1 0 571232 12437.7 28
1 -1 0 534104 12546.2 25
1 -1 1 115671 2754.07 25
1 -1 2 4482.99 224.914 25
1 -1 3 5582.59 377.066 28
1 -1 3 4859.75 223.894 25
1 -1 4 83320.4 2441.97 28
1 -1 5 271259 6860.89 28
1 -1 6 84160.3 2873.09 24
1 -1 6 79255.8 2822.63 34
1 -1 6 83285.2 2832.27 17
1 -1 6 85924 2853.63 30
1 -1 6 82480.4 2843.15 32
1 -1 6 80360.8 2778.74 9
1 -1 6 85776.8 3041.7 29
1 -1 6 84901 2823.09 28
1 -1 6 83459.2 2927.56 12
1 -1 7 16025.5 1123.79 24
1 -1 7 15876.1 1130.08 23
1 -1 7 14416.2 1045.54 34
1 -1 7 16239.1 1141.93 32
1 -1 7 16001.3 1124.85 17
1 -1 7 16797.6 1214.54 29
1 -1 7 16475.9 1103.26 28
1 -1 7 17623.1 1205.95 13
1 -1 7 16386.2 1079.61 10
1 -1 7 15285.8 1128.91 12
1 -1 8 42121.7 1983.53 24
1 -1 8 38852.8 1933.39 23
1 -1 8 40656.1 2004.15 32
1 -1 8 37989.5 1951.55 17
1 -1 8 39579.9 1931.27 31
1 -1 8 39528.9 2048.6 29
1 -1 8 40573 2026.64 13
1 -1 8 37195.8 1843.81 10
1 -1 9 42582.9 2015.94 24
1 -1 9 46239.7 2041.1 23
1 -1 9 40870.7 1951.73 11
1 -1 9 40130.7 1922.21 10
1 -1 9 41107.1 2054.84 32
1 -1 9 43977.3 2120.76 17
1 -1 9 43006.6 2021.78 31
1 -1 10 203.319 163.564 24
1 -1 10 377.692 214.786 11
1 -1 10 277.667 166.643 8
1 -1 10 492.639 223.873 32
1 -1 10 124.19 194.403 31
1 -1 11 553.447 253.877 31
1 -1 11 662.976 239.872 32
1 0 -3 116528 2796.81 35
1 0 -2 357480 8122.89 35
1 0 -1 308815 7045.62 35
1 0 1 134102 3292.78 10
1 0 1 141521 3251.49 35
1 0 2 207024 4348.65 35
1 0 2 209177 4574.67 28
1 0 3 70815.5 1957.91 28
1 0 3 63858.9 1640.32 26
1 0 4 215256 5157.95 28
1 0 4 194466 4718.39 26
1 0 5 162450 4353.73 10
1 0 5 154153 4682.19 29
1 0 6 39418.1 1806.28 24
1 0 6 40521.5 1729.35 22
1 0 6 38127 1642.36 10
1 0 6 39987.5 1791.76 32
1 0 6 38034.4 1715.74 31
1 0 6 37120.8 1878.54 29
1 0 6 37765.5 1818.74 13
1 0 6 37889.7 1866 12
1 0 7 9681.9 878.882 24
1 0 7 8887.98 830.055 23
1 0 7 9367.68 796.697 11
1 0 7 8988.03 823.244 22
1 0 7 9946.06 959.901 29
1 0 7 8588.1 834.347 32
1 0 7 9190.79 823.925 31
1 0 7 9188.14 780.729 10
1 0 7 8162.37 857.305 13
1 0 8 114831 3922.1 24
1 0 8 112046 3711.04 11
1 0 8 113510 3772.87 23
1 0 8 103794 3617.01 10
1 0 8 117050 3976.07 32
1 0 8 114313 3826.38 31
1 0 8 120321 4078.85 13
1 0 9 8015.87 816.794 24
1 0 9 8350.69 753.094 11
1 0 9 7598.99 728.328 8
1 0 9 8090.82 840.329 32
1 0 9 8116.72 808.924 31
1 0 10 1428.56 325.13 24
1 0 10 823.609 324.386 32
1 0 10 1107.54 346.778 31
1 0 11 6337.52 536.295 32
1 1 -5 347973 8000.93 35
1 1 -4 306468 7183.33 35
1 1 2 7836.79 433.795 10
1 1 2 8359.66 403.854 35
1 1 3 206572 5257.93 10
1 1 3 221616 4984.37 35
1 1 3 212036 4990.01 26
1 1 4 343470 8050.01 10
1 1 4 327250 7635.91 26
1 1 5 32838.8 1561.24 24
1 1 5 31448.5 1346.4 10
1 1 5 34556.8 1549.49 32
1 1 5 34130.6 1466.11 31
1 1 5 30814.3 1624.04 29
1 1 5 31597.5 1566.44 13
1 1 5 31036.3 1629.67 12
1 1 6 17191.7 1163.21 24
1 1 6 15129.8 977.516 11
1 1 6 16713.2 1093.38 22
1 1 6 17229.6 1010.22 10
1 1 6 16677.5 1129.4 32
1 1 6 16777.9 1135.67 17
1 1 6 17163.1 1081.14 31
1 1 6 14727.7 1167.31 29
1 1 6 16818.7 1186.79 13
1 1 6 15944.4 1215.23 12
1 1 7 105606 3759.98 24
1 1 7 100374 3416.51 11
1 1 7 111509 3715.72 22
1 1 7 99571.1 3378.35 10
1 1 7 107070 3740.76 32
1 1 7 108909 3612.21 31
1 1 7 106334 3838.24 13
1 1 8 11707.9 1026.64 24
1 1 8 9726.95 803.695 11
1 1 8 9140.02 920.35 32
1 1 8 9506.16 943.638 17
1 1 8 10616.8 913.128 31
1 1 8 11146.1 1011.14 13
1 1 9 12010.1 982.511 24
1 1 9 12616.8 1048.99 17
1 1 9 13494.2 964.415 31
1 1 9 12818.3 1021.49 32
1 1 10 5526.91 562.928 24
1 1 10 6234.53 623.194 32
1 1 11 1121.65 229.196 32
1 2 -5 156494 4089.28 35
1 2 -3 2818.28 301.308 36
1 2 -2 172195 4419.43 36
1 2 0 480978 11245.5 36
1 2 3 753809 17082.9 35
1 2 4 56668.8 1947.38 31
1 2 4 47476.9 2025.65 29
1 2 5 19066.4 1038.09 11
1 2 5 22153.2 1235.61 22
1 2 5 20065 1133.4 31
1 2 5 21267 1238.59 21
1 2 5 19086.7 1265.1 29
1 2 5 19187.7 1242.11 13
1 2 5 20519 1340.96 12
1 2 6 50861.6 1981.7 11
1 2 6 50284.3 2295.94 24
1 2 6 52666.1 2258.86 22
1 2 6 52764.5 2309.58 17
1 2 6 51679.5 2118.44 31
1 2 6 52412.3 2350.24 13
1 2 7 30972.8 1756.54 24
1 2 7 29397.3 1666.66 22
1 2 7 32088 1614.69 31
1 2 7 27249.4 1661.03 13
1 2 7 31718.2 1767.98 17
1 2 8 32276 1759.3 24
1 2 8 30142.8 1673.2 22
1 2 8 32515.1 1790.38 17
1 2 8 33623.6 1610.6 31
1 2 9 10152.1 843.019 24
1 2 9 9817.37 847.82 17
1 2 9 8808.94 799.926 32
1 2 10 571.428 178.912 24
1 2 10 1513.41 330.184 32
1 3 -6 29012.6 1275.78 35
1 3 -4 100198 2988.56 36
1 3 -3 206939 5420.52 36
1 3 -2 142255 3986.95 36
1 3 0 71934.8 2358.05 36
1 3 3 42210.1 1780.96 21
1 3 3 41350.3 1474.84 35
1 3 3 40046.3 1774.41 27
1 3 4 81498.8 2706.11 31
1 3 4 80581.7 2968.72 27
1 3 5 4525 587.773 22
1 3 5 3295.15 534.144 13
1 3 5 3922.53 573.248 21
1 3 6 1881.89 433.605 17
1 3 6 1521.47 365.24 22
1 3 6 1363.08 358.403 13
1 3 7 19417.3 1358.61 24
1 3 7 19421.4 1308.43 22
1 3 7 20355.9 1377.6 17
1 3 8 28079.8 1535.19 24
1 3 8 25077.8 1436.25 22
1 3 8 26119.7 1497.82 17
1 3 9 842.345 233.034 24
1 3 10 4637.6 347.857 24
1 4 -4 11835.8 843.413 36
1 4 -3 64363.5 2354.83 36
1 4 -2 444993 11025.2 36
1 4 -1 65743.8 2420.86 36
1 4 0 101655 3291.5 36
1 4 2 108479 3571.91 21
1 4 2 112055 3442.49 37
1 4 2 108804 3370.01 16
1 4 2 110278 3548.48 27
1 4 3 23154.4 1291.36 32
1 4 3 19071.7 1170.76 16
1 4 3 19371.5 1268.92 27
1 4 3 19346.6 1261.74 21
1 4 4 24248 1524.4 21
1 4 4 28994.8 1568.87 32
1 4 4 26847.3 1598.74 27
1 4 5 5895.16 762.789 32
1 4 5 5569.28 708.854 17
1 4 6 7233.09 789.688 22
1 4 6 5742.63 768.893 32
1 4 6 6227.76 748.254 17
1 4 7 49447.1 2152.92 22
1 4 7 46454.6 2117.61 17
1 4 8 1293.62 300.428 24
1 4 8 1778.88 329.65 17
1 4 9 4664.47 398.556 24
1 5 -6 195529 5604.04 37
1 5 -5 631.037 221.129 7
1 5 -5 494.305 237.721 37
1 5 -4 32090.1 1660.5 37
1 5 -4 28864.5 1453.43 7
1 5 -3 459970 11888.4 37
1 5 -3 475296 11815.5 36
1 5 -1 51843.4 2332.88 37
1 5 -1 51262.6 2251.02 36
1 5 0 43375.1 2086.27 37
1 5 1 140327 4455.9 21
1 5 1 137199 4122 16
1 5 1 147054 4414.27 27
1 5 1 144432 4533.97 37
1 5 2 29834.4 1524.37 37
1 5 2 27507.7 1516.91 35
1 5 2 26950.2 1587.88 21
1 5 2 27124.9 1433.68 16
1 5 2 30431.5 1639.32 27
1 5 3 81505.8 3273.24 21
1 5 3 91826.4 3375.71 27
1 5 4 478.871 232.733 22
1 5 4 352.261 225.244 21
1 5 4 627.655 276.805 27
1 5 5 16557.3 1246.96 24
1 5 5 14950.3 1130.47 17
1 5 6 76888.3 2837.63 24
1 5 6 65116.3 2583.38 17
1 5 7 5441.36 584.056 24
1 5 7 4593.24 528.497 22
1 5 7 4509.46 486.279 17
1 6 -7 149739 4574.32 37
1 6 -6 13306.4 1055.27 37
1 6 -5 13159.9 1088.03 37
1 6 -4 106867 3840.1 37
1 6 -3 127618 4404.91 37
1 6 -1 13758.7 1182.9 37
1 6 -1 13550.8 1014.64 21
1 6 0 2095.69 474.991 37
1 6 0 1872.12 415.632 21
1 6 0 1643.85 363.447 27
1 6 1 8497.35 873.152 37
1 6 1 9057.37 900.077 21
1 6 1 9321.8 877.431 27
1 6 1 8200.21 892.025 35
1 6 2 58914.1 2604.38 21
1 6 2 55808.3 2293.02 37
1 6 2 55617 2469.27 27
1 6 3 3638.27 605.509 21
1 6 3 4245.96 624.932 27
1 6 4 12173.5 1026.4 22
1 6 4 12481.6 943.363 17
1 6 5 77605.3 2835.43 24
1 6 5 74489.8 2800.93 22
1 6 5 74292.2 2552.3 17
1 6 6 15514.9 946.841 24
1 6 7 2928.7 293.477 24
1 7 -7 51257.6 2192.09 37
1 7 -6 22816.1 1525.29 35
1 7 -6 26473.9 1556.49 37
1 7 -5 98286.3 3643.77 37
1 7 -4 76759.5 3187.85 37
1 7 -3 2131.01 488.652 37
1 7 -2 49752.8 2477.93 37
1 7 -1 5817.67 777.156 37
1 7 -1 4397.35 581.914 21
1 7 -1 5051.75 591.786 27
1 7 0 22884.3 1400.94 21
1 7 0 22040.7 1477.06 37
1 7 0 17164.3 1389.08 35
1 7 0 18122.2 1203.16 27
1 7 1 55592.6 2418.4 21
1 7 1 51749.4 2255.7 27
1 7 1 52211.7 2306.49 37
1 7 2 63902.7 2559.49 27
1 7 3 16420.9 1144.87 22
1 7 4 42088.8 1759.28 24
1 7 4 42101.5 1832.44 22
1 7 5 11146.7 749.087 22
1 8 -7 3748.45 503.159 37
1 8 -6 24318.6 1441.84 37
1 8 -5 26823.6 1597.61 37
1 8 -4 224.682 235.872 37
1 8 -2 3954.28 619.578 37
1 8 -1 27025.1 1607.75 37
1 8 0 93976.1 3300.17 37
1 8 2 15444.8 1000.52 22
1 8 3 37753.7 1546.02 22
1 8 4 19226.9 855.063 22
1 9 -7 14978.9 853.046 37
1 9 -6 10247.7 779.218 37
1 9 -5 79.2008 151.779 37
1 9 -4 35003.6 1690.09 37
1 9 -2 13968.6 976.392 37
1 9 0 19474.3 992.91 22
1 9 1 1405.15 232.857 22
1 10 -5 10460.7 624.16 37
1 10 -4 40569.7 1471.27 37
1 10 -3 3812.75 365.335 37
2 -11 5 25993.6 1121.01 33
2 -11 6 2666.84 296.488 33
2 -10 -4 8206.87 519.813 3
2 -10 0 3462.62 512.351 4
2 -10 1 18854.4 1251.76 4
2 -10 2 14009.5 1083.02 4
2 -10 4 30017.5 1556.56 4
2 -10 5 17195.1 1051.61 4
2 -10 6 4263.03 460.413 18
2 -10 7 20909.2 1093.63 33
2 -10 7 21442.4 1025.17 18
2 -10 8 17151 839.509 33
2 -10 8 15371.8 764.243 18
2 -9 -5 14239.2 874.87 3
2 -9 -2 31483.2 1575.93 4
2 -9 -1 206.197 187.48 4
2 -9 0 90864.4 3484.27 4
2 -9 1 49354.4 2419.74 4
2 -9 2 10793.4 1040.92 4
2 -9 4 37513.3 1938.15 4
2 -9 5 3650.49 549.97 4
2 -9 6 12690.2 907.131 4
2 -9 7 21799.7 1316.05 33
2 -9 8 10039.2 740.837 18
2 -9 9 24758.2 1118.44 33
2 -8 -6 21451.3 1179.61 3
2 -8 -2 4016.42 596.915 4
2 -8 -2 3608.03 570.464 25
2 -8 -1 117730 4158.12 4
2 -8 -1 117261 4139.25 25
2 -8 0 35899.9 2024.32 4
2 -8 0 37170.8 2028.89 25
2 -8 1 -62.8663 186.629 4
2 -8 1 121.578 180.463 25
2 -8 2 24024.2 1607.86 4
2 -8 3 36937.7 2018.13 4
2 -8 3 36556.9 1970.91 25
2 -8 4 30419.5 1750.24 4
2 -8 4 28907.9 1687.45 25
2 -8 5 47832.6 2006.74 34
2 -8 5 47744.7 2169.19 4
2 -8 5 43565.4 1912.95 30
2 -8 5 46541.8 2147.97 25
2 -8 6 31487.3 1583.76 4
2 -8 6 31550.2 1596.65 34
2 -8 6 32028.7 1568.99 30
2 -8 7 2557.04 439.84 34
2 -8 7 2146.98 371.321 9
2 -8 7 2129.17 395.67 30
2 -8 8 56653.4 2128.27 9
2 -8 8 63422.3 2457.27 33
2 -8 8 58528.7 2190.95 30
2 -8 9 14279.1 932.302 33
2 -8 9 13531.8 882.258 18
2 -8 10 17.343 81.4236 11
2 -8 10 204.925 116.503 18
2 -7 -7 10108.1 778.586 3
2 -7 -3 3203.8 498.895 4
2 -7 -2 50618.1 2260.4 4
2 -7 -2 48946 2212.59 25
2 -7 -1 127667 4313.19 4
2 -7 -1 129709 4253.97 25
2 -7 0 27764.6 1663.21 4
2 -7 0 28110.9 1619.04 25
2 -7 1 53597.8 2465.59 4
2 -7 1 53478.5 2389.77 25
2 -7 2 54615.8 1994.5 28
2 -7 3 7841.89 838.104 4
2 -7 3 7021.17 641.224 28
2 -7 3 8746.97 859.262 25
2 -7 4 164277 4950.74 4
2 -7 4 148644 4520.33 28
2 -7 4 154203 4649.82 34
2 -7 4 156380 4840.69 25
2 -7 5 34660.8 1638.77 9
2 -7 5 34432 1753.52 34
2 -7 5 32762.9 1644.56 28
2 -7 5 35940.9 1784.09 4
2 -7 5 35776.2 1758.6 25
2 -7 6 17508.5 1114.07 4
2 -7 6 18516.5 1181.82 9
2 -7 6 19908.8 1202.29 8
2 -7 6 17275.9 1226.04 34
2 -7 6 19009.2 1220.48 30
2 -7 6 14417.7 1080.45 28
2 -7 7 25604.9 1447.29 9
2 -7 7 24934.6 1502.86 34
2 -7 7 28698.1 1672.01 33
2 -7 7 25842 1436.8 8
2 -7 7 26023.1 1474.27 30
2 -7 7 21509.9 1355.4 28
2 -7 8 25951.3 1500.77 33
2 -7 8 20255 1257.35 8
2 -7 8 25330 1453.49 18
2 -7 8 22963.4 1346.76 30
2 -7 8 23302.7 1347.64 9
2 -7 8 22455.1 1400.63 34
2 -7 9 41.5743 142.512 33
2 -7 9 36.1238 131.34 8
2 -7 9 -37.6253 144.199 30
2 -7 9 -38.415 139.671 18
2 -7 10 2897.46 364.291 18
2 -7 10 2344.35 340.388 31
2 -7 10 1877.58 305.746 8
2 -7 11 3226.69 305.929 11
2 -7 11 3529.21 310.985 31
2 -6 -8 12499.1 816.716 3
2 -6 -3 3785.35 484.019 25
2 -6 -2 58139.8 2305.23 4
2 -6 -2 56981.7 2264.38 25
2 -6 -1 1575.11 358.518 4
2 -6 -1 2694.06 425.042 25
2 -6 0 24676.9 1420.54 4
2 -6 0 25170.2 1389.25 25
2 -6 1 55475.1 2309.62 4
2 -6 1 52701.4 1803.4 28
2 -6 2 7591.19 776.807 4
2 -6 2 8232.19 616.469 28
2 -6 2 8843.83 779.922 25
2 -6 3 267712 7480.5 4
2 -6 3 273326 7115.91 28
2 -6 3 293145 7433.29 25
2 -6 4 38391.7 1804.02 4
2 -6 4 36705.8 1663.41 28
2 -6 4 39413.7 1781.74 25
2 -6 5 93.2434 149.504 34
2 -6 5 159.185 127.619 4
2 -6 5 84.5158 153.653 8
2 -6 5 163.32 156.492 9
2 -6 5 41.1689 99.8051 28
2 -6 5 38.676 93.7636 25
2 -6 6 50738 2232.16 8
2 -6 6 52638.5 2241.61 9
2 -6 6 51537.9 2228.85 30
2 -6 6 50712.7 2314.54 34
2 -6 6 53289.9 2238.56 28
2 -6 7 106731 3661.09 9
2 -6 7 107130 3806.76 33
2 -6 7 104756 3669.14 8
2 -6 7 106722 3645.7 30
2 -6 7 105262 3749.14 34
2 -6 7 95923.4 3506.82 28
2 -6 8 10901.9 971.44 34
2 -6 8 9473.42 892.95 9
2 -6 8 9380.63 910.119 33
2 -6 8 10098.1 924.787 8
2 -6 8 9570.17 886.477 18
2 -6 8 9398.32 878.307 30
2 -6 9 44504.5 1996.81 33
2 -6 9 41985.8 1892.78 18
2 -6 9 43040.2 1976.01 8
2 -6 10 50163.3 1974.46 8
2 -6 10 48234.6 1932.86 31
2 -6 11 4561.42 421.419 11
2 -6 11 3696.54 389.389 8
2 -5 -8 619.137 215.345 3
2 -5 -4 6939.93 559.863 25
2 -5 -3 98672.2 3028.54 25
2 -5 -2 29993.5 1351.24 25
2 -5 -1 161490 4516.09 25
2 -5 0 396742 9343.89 28
2 -5 0 410979 9912.67 25
2 -5 1 1845.24 240.618 28
2 -5 2 302593 7404.53 28
2 -5 2 303033 7680.56 25
2 -5 3 136545 3978.89 28
2 -5 3 151728 4143.82 25
2 -5 4 27106.8 1327.87 28
2 -5 4 30891.4 1389.5 25
2 -5 5 24277 1325.16 9
2 -5 5 23556.1 1345.95 8
2 -5 5 22102.2 1260.67 30
2 -5 5 21242 1202.28 29
2 -5 5 22574.4 1259.26 28
2 -5 5 24047.3 1174.99 25
2 -5 6 74135.6 2852.17 34
2 -5 6 72274.3 2737.52 9
2 -5 6 65705.9 2633.96 30
2 -5 6 69622 2580.69 29
2 -5 6 71260.9 2786.38 8
2 -5 6 69294.2 2660.51 28
2 -5 7 3721.13 594.156 34
2 -5 7 4024.95 594.211 9
2 -5 7 5011.16 661.951 33
2 -5 7 4498.39 643.682 8
2 -5 7 3856.76 580.285 18
2 -5 7 5778.09 682.266 30
2 -5 7 4450.85 577.565 29
2 -5 7 5423.11 655.802 28
2 -5 8 55925.9 2418.05 33
2 -5 8 55070.7 2232.43 32
2 -5 8 55461.6 2355.36 18
2 -5 8 54806.2 2462.93 8
2 -5 8 52817.5 2371.32 30
2 -5 8 51592.6 2197.33 29
2 -5 8 54505.5 2422.45 9
2 -5 8 54514.7 2393.95 28
2 -5 9 14173.5 997.44 18
2 -5 9 11449.8 997.472 8
2 -5 9 12464.5 905.239 29
2 -5 10 26510.1 1398.2 11
2 -5 10 27567 1444.12 8
2 -5 11 30046.5 1267.8 11
2 -5 11 29220.9 1281.57 8
2 -5 11 28955.2 1251.96 31
2 -4 -8 8042.51 756.097 3
2 -4 -4 21834.9 954.779 25
2 -4 -3 3155.1 337.845 25
2 -4 -2 452950 10745.2 25
2 -4 -1 128867 3129.54 28
2 -4 -1 150928 3716.08 25
2 -4 0 43673.6 1273.01 28
2 -4 0 46172.5 1623.82 25
2 -4 1 325201 7648.22 28
2 -4 2 565978 12964.5 28
2 -4 2 551658 13164.6 25
2 -4 3 687.293 182.149 28
2 -4 3 536.469 167.711 25
2 -4 4 21336.4 1100.32 28
2 -4 4 23091.9 1063.68 25
2 -4 5 73847.1 2659.25 9
2 -4 5 74313.1 2640.97 30
2 -4 5 78369.7 2703.81 29
2 -4 5 71260.5 2591.38 28
2 -4 5 77410.2 2266.03 25
2 -4 6 15649.9 1082.35 30
2 -4 6 15281.4 1098.99 9
2 -4 6 15608.1 1106.93 33
2 -4 6 16455.5 1103.12 29
2 -4 6 15277.1 1040.65 28
2 -4 6 14960.2 993.868 13
2 -4 6 15265.7 960.231 12
2 -4 7 44736.1 2080.99 30
2 -4 7 43017.2 2080.72 9
2 -4 7 41966.3 1906.11 32
2 -4 7 46146 2068.86 18
2 -4 7 44052.4 2119.92 34
2 -4 7 43739.1 2034.49 29
2 -4 7 44939.4 2079.54 33
2 -4 7 41601 2010.75 28
2 -4 7 43991.4 1970.78 13
2 -4 7 41647.6 1835.21 12
2 -4 8 18231.1 1306.02 34
2 -4 8 21279.6 1439.28 8
2 -4 8 17057.8 1181.64 18
2 -4 8 17937.7 1233.14 29
2 -4 8 17319.2 1173.84 32
2 -4 9 6077.1 638.455 18
2 -4 9 5570.5 635.551 32
2 -4 9 7197.59 772.92 31
2 -4 9 7923.11 772.978 29
2 -4 10 43060.2 1902.28 31
2 -4 11 10109.3 687.707 11
2 -4 11 9773.19 682.158 31
2 -4 11 9492.28 682.012 8
2 -3 -7 1170.02 317.934 3
2 -3 -4 3234.27 287.386 25
2 -3 -3 360634 8493.38 25
2 -3 -2 276099 6636.18 25
2 -3 -1 67549.2 1976.89 25
2 -3 0 168924 3910.54 28
2 -3 0 166320 4261.63 25
2 -3 1 564617 12799.5 28
2 -3 1 562358 13025.2 25
2 -3 2 6346.62 415.473 28
2 -3 2 5708.12 421.204 25
2 -3 3 92769.7 2734.32 28
2 -3 3 99530.1 2695.75 25
2 -3 4 276641 7013.64 28
2 -3 4 279477 6675.24 25
2 -3 5 905.871 243.141 30
2 -3 5 937.491 259.835 29
2 -3 5 564.608 189.532 28
2 -3 6 207482 5851.38 24
2 -3 6 202734 5871.1 23
2 -3 6 208009 5877.91 9
2 -3 6 208619 5926.84 34
2 -3 6 197500 5622.42 32
2 -3 6 202000 5719.18 18
2 -3 6 204008 5614.22 17
2 -3 6 213377 5962.23 29
2 -3 6 210499 5798.75 33
2 -3 6 202839 5758.62 13
2 -3 6 201361 5689.89 12
2 -3 7 42324.4 2005.49 24
2 -3 7 45830.8 2113.44 9
2 -3 7 40551.6 1905.69 18
2 -3 7 43429.7 1925.97 17
2 -3 7 40527.4 1942.16 33
2 -3 7 45511.9 2117.26 34
2 -3 7 45610.2 2117.36 29
2 -3 7 46277.2 2080.32 13
2 -3 7 41342.7 1935.03 12
2 -3 7 40894.2 1912.47 32
2 -3 8 9276.29 891.78 34
2 -3 8 8148.79 768.18 18
2 -3 8 8224.36 810.125 32
2 -3 8 8530.32 908.415 8
2 -3 8 10237 955.787 29
2 -3 8 8883.01 883.497 28
2 -3 8 8070.95 839.671 13
2 -3 9 37699.9 1915.23 11
2 -3 9 42706.7 2052.74 8
2 -3 9 36442.7 1799.82 32
2 -3 9 37978.5 1927.03 31
2 -3 9 39268.2 1926.46 29
2 -3 10 28336.1 1463.3 11
2 -3 10 27527.1 1458.73 31
2 -3 10 29107.9 1507.15 8
2 -3 11 124.704 120.926 11
2 -3 11 328.08 149.854 8
2 -3 11 -132.446 203.051 31
2 -2 -4 621656 14123.7 25
2 -2 -3 343720 7989.45 25
2 -2 -2 16779.3 670.828 25
2 -2 -1 1912.34 203.035 25
2 -2 0 198438 4687.01 10
2 -2 0 205806 4649.78 28
2 -2 1 66636.9 1772.15 28
2 -2 1 66934.2 1860.5 25
2 -2 2 248179 5902.56 28
2 -2 2 245030 5864.77 25
2 -2 3 83948.3 2401.99 28
2 -2 3 80597.5 2194.73 25
2 -2 4 98228.3 2509.13 25
2 -2 5 314498 8295.06 29
2 -2 6 39948 1863.1 24
2 -2 6 38980.5 1810.11 23
2 -2 6 39026.3 1772.36 32
2 -2 6 42090.2 1816.22 17
2 -2 6 43723 1938.01 34
2 -2 6 42443.5 2009.26 29
2 -2 6 34477.2 1730.97 28
2 -2 6 42418 1785.54 18
2 -2 6 39849.8 1878.03 13
2 -2 6 40803.9 1889.51 12
2 -2 7 197.597 207.431 12
2 -2 7 147.593 168.692 24
2 -2 7 229.608 176.04 23
2 -2 7 -48.0859 116.624 10
2 -2 7 271.936 182.221 32
2 -2 7 704.197 254.48 34
2 -2 7 98.1673 145.767 31
2 -2 7 184.519 185.464 17
2 -2 7 257.271 197.239 13
2 -2 8 17657.5 1255.42 24
2 -2 8 18782.1 1294.63 11
2 -2 8 18919.7 1325.45 8
2 -2 8 17094.6 1210.67 32
2 -2 8 18197.2 1255.35 17
2 -2 8 17260 1256.53 31
2 -2 8 18143.6 1332.56 29
2 -2 8 16978.9 1222.91 10
2 -2 9 70087.9 2747.66 11
2 -2 9 72092.2 2798.25 8
2 -2 9 66942.8 2659.63 32
2 -2 9 73675.5 2881.23 29
2 -2 9 68245.9 2748.77 31
2 -2 9 72678.3 2780.92 24
2 -2 10 615.838 215.589 11
2 -2 10 747.644 236.791 8
2 -2 10 655.712 234.197 31
2 -2 11 4187.18 423.073 31
2 -1 -3 20149.8 758.323 35
2 -1 -3 21579.6 767.862 25
2 -1 -2 2049.34 202.542 35
2 -1 -2 2139.99 206.929 25
2 -1 -1 455994 10499.7 35
2 -1 -1 461166 10490.5 25
2 -1 0 99784.7 2479.62 10
2 -1 1 390235 8952.66 10
2 -1 1 392766 8925.68 35
2 -1 1 381112 8943.56 25
2 -1 2 15380.3 683.548 10
2 -1 2 14440.1 607.786 25
2 -1 3 114599 3151.96 10
2 -1 4 160736 4379.22 28
2 -1 5 274871 7325.15 24
2 -1 5 282060 7153.3 32
2 -1 5 278703 7221.23 31
2 -1 5 279288 7168.27 10
2 -1 5 286479 7339.91 13
2 -1 6 5122.9 625.497 24
2 -1 6 4449.54 558.401 11
2 -1 6 4878.11 526.838 22
2 -1 6 4723.99 560.4 10
2 -1 6 3966.68 524.722 34
2 -1 6 4235.81 545.038 32
2 -1 6 2991.34 481.853 31
2 -1 6 5516.99 627.001 17
2 -1 6 5295.44 674.08 29
2 -1 6 4286.09 584.733 13
2 -1 7 1021.56 298.736 10
2 -1 7 1395.62 371.377 24
2 -1 7 665.457 265.059 11
2 -1 7 1315.82 345.215 8
2 -1 7 1334 342.425 32
2 -1 7 1243.24 357.353 17
2 -1 7 1029.84 320.945 31
2 -1 7 939.056 334.479 29
2 -1 7 1146.02 356.962 13
2 -1 8 70227.8 2747.36 24
2 -1 8 59836.3 2523.98 11
2 -1 8 54740.2 2427.85 10
2 -1 8 58863.7 2487.51 8
2 -1 8 63659.5 2614.66 31
2 -1 8 58962.2 2523.96 32
2 -1 8 62500.5 2627.39 17
2 -1 8 61761.3 2732.22 29
2 -1 8 65744.7 2736.05 13
2 -1 9 -47.0539 150.88 24
2 -1 9 127.968 163.481 11
2 -1 9 91.9958 167.242 31
2 -1 9 -39.9573 145.279 8
2 -1 9 -264.622 370.321 32
2 -1 9 96.0622 174.634 17
2 -1 10 12774.9 860.356 31
2 0 -5 539636 12341.3 35
2 0 -4 1644.65 201.633 35
2 0 -3 4341.95 330.765 35
2 0 -2 6075.8 395.216 35
2 0 -1 25606.2 934.097 35
2 0 0 734200 16644.9 35
2 0 1 229616 5496.46 10
2 0 1 227248 5452.73 35
2 0 2 60039.7 1678.06 35
2 0 3 143656 3843.86 10
2 0 4 511070 11987.6 10
2 0 4 518854 12087.1 31
2 0 5 2544.21 459.862 12
2 0 5 2254.21 375.882 11
2 0 5 2498.42 374.289 10
2 0 5 2899.71 427.643 31
2 0 5 2349.15 400.146 32
2 0 5 1895.52 407.281 29
2 0 5 2446.32 424.833 13
2 0 6 13747.7 1072.53 24
2 0 6 12061.2 935.746 11
2 0 6 14592.1 983.436 22
2 0 6 12028.8 916.015 10
2 0 6 11900.9 899.471 8
2 0 6 13432.6 1009.88 32
2 0 6 13396.2 1006.17 31
2 0 6 13856.5 1045.59 17
2 0 6 13347.8 1120.99 29
2 0 6 11342.6 999.478 13
2 0 6 15019.6 1172.64 12
2 0 7 47005.1 2202.07 24
2 0 7 42564.2 1974.76 11
2 0 7 45034.9 1981.63 22
2 0 7 41814.5 1942.12 10
2 0 7 41601.7 1877.47 8
2 0 7 43166.5 2051.1 32
2 0 7 43275.1 2121.07 17
2 0 7 41607 2017.79 31
2 0 7 41377.3 2142.27 13
2 0 7 45646.2 2265.92 12
2 0 8 1908.11 427.373 24
2 0 8 1488.55 341.347 11
2 0 8 1447.91 380.398 17
2 0 8 1129.95 378.011 32
2 0 8 1695.76 372.834 31
2 0 8 1388.72 376.281 13
2 0 9 47084.7 2041.23 24
2 0 9 42865 1921.5 32
2 0 9 47369.6 2084.45 17
2 0 9 43784.8 1912.42 31
2 0 10 9347.1 683.002 24
2 1 -6 86184.7 2437.23 35
2 1 -5 97486.4 2761.9 35
2 1 -4 184549 4750.35 35
2 1 -3 110416 3094.06 35
2 1 -2 4952.47 421.202 35
2 1 0 815439 18639.2 35
2 1 1 5049.73 394.152 35
2 1 2 42863.2 1388.15 35
2 1 3 393920 9121.8 35
2 1 4 68702.8 2584.3 24
2 1 4 71015.3 2395.43 11
2 1 4 71136.4 2427.9 21
2 1 4 72370.9 2477.8 31
2 1 4 70939.1 2474.04 16
2 1 4 68936.8 2634.67 29
2 1 4 67971.3 2435.74 32
2 1 4 67634.1 2660.71 12
2 1 5 68745.9 2479.48 11
2 1 5 76076.4 2591.15 22
2 1 5 70873.9 2598.55 32
2 1 5 67806.1 2547.26 31
2 1 5 66261 2754.19 29
2 1 5 70983.6 2739.11 13
2 1 5 62168.4 2445.54 21
2 1 5 66727.9 2785.64 12
2 1 6 16727.5 1103.9 11
2 1 6 17915.7 1170.37 22
2 1 6 17779.3 1218.55 32
2 1 6 18429.2 1275.71 17
2 1 6 17088 1162.75 31
2 1 6 17259.8 1309.69 29
2 1 6 15948.8 1226.31 13
2 1 6 17070 1326.31 12
2 1 7 4086.04 628.234 24
2 1 7 3321.85 498.713 11
2 1 7 4288.16 581.594 22
2 1 7 4017.43 609.203 32
2 1 7 3826.72 595.739 17
2 1 7 4710.26 626.63 31
2 1 7 4946.14 674.084 13
2 1 8 43425.6 2057.42 24
2 1 8 40871.8 2012.25 17
2 1 8 45259.3 1953.6 31
2 1 8 42680.9 2049.5 13
2 1 8 37473 1884.66 32
2 1 9 21719.4 1226.3 24
2 1 9 21587.5 1185.01 32
2 2 -6 185823 4936.32 35
2 2 -5 140727 3985.62 35
2 2 -4 145593 4113.11 35
2 2 -3 11382.9 767.986 35
2 2 -2 52150.3 1924.13 35
2 2 0 827.177 214.746 35
2 2 1 171332 4584.24 35
2 2 2 76374.5 2339.63 35
2 2 3 5828.38 591.86 21
2 2 3 7164.55 467.893 35
2 2 3 7335.16 649.848 32
2 2 3 6105.36 588.398 16
2 2 3 7492.97 665.704 31
2 2 3 6576.14 625.898 29
2 2 3 6825.96 672.97 27
2 2 4 66721.6 2659.23 24
2 2 4 70796.1 2551.62 32
2 2 4 68311 2466.43 31
2 2 4 66737.6 2535.15 16
2 2 4 67562.1 2593.81 29
2 2 4 65896.3 2521.11 21
2 2 4 66787.3 2615.11 13
2 2 4 65276.8 2689.6 12
2 2 5 16909.2 1258.04 24
2 2 5 19098.3 1213.78 22
2 2 5 17758.2 1199.31 21
2 2 5 16000.9 1145.95 32
2 2 5 16136.7 1215.35 13
2 2 5 17789.6 1312.93 12
2 2 6 3253 510.386 22
2 2 6 3625.53 603.759 32
2 2 6 3151.58 536.416 17
2 2 6 2383.59 490.452 13
2 2 7 55451.2 2332.52 22
2 2 7 53270.5 2352.02 32
2 2 7 61229 2573.64 17
2 2 7 58486.7 2481.31 13
2 2 8 62929.9 2464.18 24
2 2 8 61183.7 2448.64 17
2 2 8 56916.2 2296.59 32
2 2 9 58.4824 117.541 24
2 2 9 30.1901 109.77 17
2 3 -6 84524.2 2860.5 35
2 3 -5 217174 5983.2 35
2 3 -4 1640.75 333.387 35
2 3 0 31040.2 1512.54 35
2 3 1 33664.5 1536.86 35
2 3 2 45121.2 1738.08 35
2 3 2 44264.7 1833.26 32
2 3 2 43609.8 1803.09 16
2 3 2 40603.7 1862.46 27
2 3 3 20660.4 1237.47 32
2 3 3 20110.7 1213.42 16
2 3 3 18763.1 1264.36 27
2 3 4 42761.6 2103.93 24
2 3 4 43683.1 1974.67 32
2 3 4 40053.8 1973.26 21
2 3 4 39290.3 1930.81 13
2 3 5 920.393 320.061 24
2 3 5 876.218 289.66 22
2 3 5 734.844 285.139 21
2 3 5 660.803 254.729 13
2 3 6 43122 2138.14 24
2 3 6 40487.7 1954.48 22
2 3 6 39310.2 1971.32 32
2 3 6 43129.5 2086.33 17
2 3 6 41926.9 1963.05 13
2 3 7 67997.9 2678.97 24
2 3 7 63592 2482.64 22
2 3 7 70308.4 2686.09 17
2 3 8 2789.73 403.836 17
2 4 -7 21439.1 1249.1 35
2 4 -7 20223.2 1168.91 7
2 4 -6 333866 8820.45 35
2 4 -6 329509 8576.43 7
2 4 -6 342980 8787.45 37
2 4 -5 15089.5 1076.51 37
2 4 -5 13681.3 1063.29 35
2 4 -5 15212.9 1009.08 7
2 4 -4 52240.9 2091.27 7
2 4 -4 48891.9 2173.29 37
2 4 -3 131984 4235.61 37
2 4 -3 131967 4070.3 7
2 4 -2 216588 6011.9 7
2 4 -1 82082.7 3064.65 37
2 4 0 97095.3 3361.32 37
2 4 0 90885.2 3343.53 35
2 4 1 1620.75 359.241 35
2 4 1 1340.92 324.761 37
2 4 1 1226.38 290.19 16
2 4 1 1830.98 372.003 27
2 4 2 72112.9 2896.95 21
2 4 2 78171.8 2702.27 35
2 4 2 76291.1 2793.62 16
2 4 2 77405.9 2934.56 27
2 4 3 114274 3846.76 16
2 4 3 117671 4033.99 21
2 4 4 284.506 206.901 24
2 4 4 50.5891 137.123 22
2 4 5 11405.5 1015.21 24
2 4 5 10337.7 922.692 22
2 4 5 11283.5 985.879 17
2 4 6 62556.8 2513.71 24
2 4 6 58563 2363.91 22
2 4 6 59033.9 2417.67 17
2 4 7 11144.9 813.074 24
2 4 7 10174.7 741.923 22
2 4 7 10543 781.318 17
2 4 8 4286.61 366.674 24
2 5 -7 117017 3987.54 35
2 5 -7 123280 3832.8 7
2 5 -7 127554 4032.58 37
2 5 -6 28427 1603.49 37
2 5 -6 26772.8 1607.43 35
2 5 -6 27243.5 1466.94 7
2 5 -5 92643.8 3402.47 37
2 5 -5 92106.2 3468.23 35
2 5 -5 88019.3 3158.92 7
2 5 -4 50586 2341.2 37
2 5 -4 46504.5 2327.95 35
2 5 -4 51255.8 2200.07 7
2 5 -3 14692 1183.47 37
2 5 -2 48086.2 2332.27 37
2 5 -2 47208.5 2376.62 35
2 5 -1 37201.6 1983.25 37
2 5 -1 32117.7 1917.39 35
2 5 0 2594.49 509.535 35
2 5 0 3156.95 464.088 16
2 5 0 2929.96 531.588 37
2 5 0 3100.48 469.202 27
2 5 1 36245.6 1849.67 37
2 5 1 38460.2 1972.94 21
2 5 1 35624.5 1868.67 35
2 5 1 35483.8 1729.17 16
2 5 1 36104 1810.87 27
2 5 2 184357 5636.16 21
2 5 2 176829 5327.34 16
2 5 2 177882 5474.4 27
2 5 3 5787.26 710.336 24
2 5 3 3987.93 627.549 21
2 5 4 18962.1 1289.32 24
2 5 4 16431 1189.78 22
2 5 5 43930.1 1977.73 24
2 5 5 47021.2 2005.59 22
2 5 5 43394 1922.75 17
2 5 6 19045 1049.6 24
2 5 6 17475.6 1015.56 22
2 5 6 18792.4 999.639 17
2 6 -7 44834.2 2164.87 35
2 6 -7 50681.5 2209.12 37
2 6 -6 17965.9 1292.56 37
2 6 -6 15830 1262.16 35
2 6 -5 26096 1606.26 37
2 6 -5 19585 1481.74 35
2 6 -4 22215.6 1531.45 37
2 6 -4 18416.8 1445.48 35
2 6 -2 28764.4 1793.1 37
2 6 -2 24608.1 1742.52 35
2 6 -1 53392.7 2541.22 37
2 6 -1 54793.9 2379.83 21
2 6 -1 48496.5 2524.26 35
2 6 -1 50846.3 2092.81 16
2 6 0 42835.8 2144.27 37
2 6 0 43131 2111.57 21
2 6 0 36662.8 2067.54 35
2 6 0 41326.1 1855.34 16
2 6 1 146675 4720.69 37
2 6 1 162127 5058.72 21
2 6 1 159074 4682.91 16
2 6 1 151262 4675.5 27
2 6 2 3626.42 531.86 24
2 6 2 3454.79 578.355 21
2 6 3 23232.4 1395.34 22
2 6 3 22604.8 1276.09 17
2 6 4 23236.1 1164.97 17
2 6 5 8475.42 654.78 22
2 7 -8 30568.7 1436.07 37
2 7 -7 5717.85 664.579 37
2 7 -6 37968.7 1943.94 37
2 7 -5 8990.57 928.965 37
2 7 -4 27201.2 1710.76 37
2 7 -3 154489 4562.6 21
2 7 -2 9771.38 990.031 37
2 7 -2 9223.74 824.685 21
2 7 -1 34506.2 1895.81 37
2 7 -1 35327.8 1759.35 21
2 7 0 123644 4160.45 37
2 7 0 136907 4250.54 21
2 7 1 53160.7 2261 21
2 7 2 8878.56 781.602 22
2 7 3 11083 786.455 22
2 7 4 4160.48 400.474 22
2 8 -8 869.619 200.313 37
2 8 -7 25729.7 1299.9 37
2 8 -6 584.072 242.827 37
2 8 -5 11865.3 966.183 37
2 8 -4 59567.1 2494.33 37
2 8 -3 3674.99 553.473 37
2 8 -2 10434.7 898.179 37
2 8 1 11018.8 748.148 22
2 8 2 13688.9 736.257 22
2 9 -7 11753.7 628.773 37
2 9 -6 3585.45 397.903 37
2 9 -5 53876.2 1939.27 37
2 9 -3 15868.8 897.272 37
2 9 -1 9043.96 519.074 22
3 -10 0 53540.7 2331.95 4
3 -10 1 16252.5 1204.89 4
3 -10 2 155.236 208.022 4
3 -10 3 18287.9 1241.7 4
3 -10 4 8149.77 669.975 18
3 -10 5 26338.5 1283.61 18
3 -10 6 25793 1227.21 18
3 -10 7 6210.43 544.317 33
3 -10 7 5587.97 490.958 18
3 -10 8 3172.91 312.607 18
3 -10 8 3070.59 315.345 33
3 -9 -6 8752.81 641.266 3
3 -9 -5 1829.3 370.881 3
3 -9 -1 40339.7 2081.67 4
3 -9 0 9402.34 984.563 4
3 -9 1 13396.1 1195.77 4
3 -9 1 12580.5 1186.34 25
3 -9 3 31532.2 1818.81 4
3 -9 4 27558.3 1608.44 4
3 -9 5 52064.9 2028.89 34
3 -9 6 25845.9 1304.91 34
3 -9 6 25424.8 1410.23 18
3 -9 7 358.626 199.246 33
3 -9 7 298.799 181.206 18
3 -9 8 26859.6 1253.03 33
3 -9 8 26822.4 1249.18 18
3 -8 -7 11388 783.126 3
3 -8 -6 363.025 226.895 3
3 -8 -2 41200.1 2071.11 4
3 -8 -2 41732.7 2094.51 25
3 -8 -1 22171.2 1526.02 4
3 -8 -1 23045.1 1562.29 25
3 -8 0 10428.2 1029.62 4
3 -8 0 9312.5 979.479 25
3 -8 1 54362.5 2601.01 4
3 -8 1 55121 2606 25
3 -8 2 29278.1 1789.5 25
3 -8 3 1532.05 429.204 4
3 -8 3 897.118 325.109 25
3 -8 4 46700.3 2192.74 4
3 -8 4 41072.6 1958.33 34
3 -8 4 44438.9 2156.72 25
3 -8 5 28570.4 1569.27 4
3 -8 5 28111 1578.74 34
3 -8 5 26620.6 1516.24 25
3 -8 6 146.211 177.239 34
3 -8 6 204.571 214.746 18
3 -8 7 29572.2 1559.44 34
3 -8 7 26432.7 1523.43 33
3 -8 7 27274.2 1521.61 18
3 -8 8 2533.55 362.571 11
3 -8 8 3026.02 443.076 33
3 -8 9 1880.28 266.967 11
3 -8 9 1957.52 317.113 18
3 -7 -8 7578.93 617.803 3
3 -7 -7 44.9435 163.41 3
3 -7 -3 7352.25 755.821 4
3 -7 -3 8328.8 793.441 25
3 -7 -2 33840.3 1795.41 4
3 -7 -2 34405.4 1818.47 25
3 -7 -1 54390.3 2426.25 4
3 -7 -1 54012.3 2401.3 25
3 -7 0 114985 4035.6 4
3 -7 0 117217 3977.39 25
3 -7 1 35553.4 1919.01 4
3 -7 1 37980.1 1947.15 25
3 -7 2 10401.3 985.643 4
3 -7 2 11624.3 873.485 29
3 -7 2 12725.2 1061.87 25
3 -7 3 151486 4897.72 4
3 -7 3 157833 4935.14 25
3 -7 4 98057.9 3380.38 4
3 -7 4 85292.6 2945.26 30
3 -7 4 82435.3 2904.77 28
3 -7 4 102289 3432.61 25
3 -7 5 55109.5 2398.37 34
3 -7 5 54495.7 2259.69 8
3 -7 5 48500.9 2085.06 30
3 -7 5 45772.2 2006.96 28
3 -7 5 54136 2193.64 25
3 -7 6 93330.7 3202.47 9
3 -7 6 94235.2 3450.59 34
3 -7 6 94444.3 3305.7 8
3 -7 6 97795.2 3467.25 18
3 -7 6 88040.6 3140.28 30
3 -7 7 87475.5 3272.33 34
3 -7 7 85662.5 3136.55 8
3 -7 7 84203.7 3211.21 18
3 -7 7 84682.8 3054.87 30
3 -7 7 87578.5 3205.33 33
3 -7 8 13723.2 1061.97 34
3 -7 8 14922.2 1046.91 8
3 -7 8 16114.5 1069.79 33
3 -7 8 13985.4 1041.48 18
3 -7 9 12161.2 822.678 11
3 -7 9 12306.6 844.272 18
3 -7 9 10108.8 746.25 31
3 -7 10 6054.17 470.914 11
3 -6 -8 1184.94 294.128 3
3 -6 -7 11271.4 992.837 3
3 -6 -4 11439.8 827.926 25
3 -6 -3 185783 5332.94 4
3 -6 -3 189770 5342.6 25
3 -6 -2 35552 1736.28 4
3 -6 -2 40529.5 1818.05 25
3 -6 -1 199583 5819.98 4
3 -6 -1 212694 5887.99 25
3 -6 0 47333.4 2103.11 4
3 -6 0 49355 2116.88 25
3 -6 2 117313 3800.25 4
3 -6 2 116917 3563.79 29
3 -6 2 125779 3862.36 25
3 -6 3 41684.2 1908.42 4
3 -6 3 38209.7 1705.65 8
3 -6 3 38018.4 1737.94 29
3 -6 3 35843.8 1523.31 28
3 -6 3 40883.1 1893.64 25
3 -6 4 42.3974 125.907 4
3 -6 4 262.311 205.235 8
3 -6 4 220.764 154.508 30
3 -6 4 332.848 207.931 29
3 -6 4 105.46 112.768 28
3 -6 4 165.829 158.92 25
3 -6 5 83688.1 2955.42 9
3 -6 5 85143.2 3094.45 8
3 -6 5 79304.9 2881.22 30
3 -6 5 83046.3 2968.45 29
3 -6 5 83608.1 2779.96 25
3 -6 6 49107 2147.35 9
3 -6 6 45708.1 2213.01 34
3 -6 6 43262.5 2087.55 33
3 -6 6 45884.4 2176.12 8
3 -6 6 46972.4 2210.4 18
3 -6 6 41396 1987.29 30
3 -6 6 44073.4 2012.18 29
3 -6 6 38361.1 1925.88 28
3 -6 7 148618 4720.33 34
3 -6 7 136489 4551.6 8
3 -6 7 144664 4502.45 33
3 -6 7 139030 4551.4 18
3 -6 7 139405 4447.97 30
3 -6 7 140988 4371.21 29
3 -6 7 131761 4383.26 28
3 -6 7 127530 4351.76 10
3 -6 8 54064.3 2356.1 8
3 -6 8 51400.6 2173.19 33
3 -6 8 50219.7 2227.05 18
3 -6 8 50479.7 2095.02 29
3 -6 9 6025.18 630.725 11
3 -6 9 6815.74 701.59 8
3 -6 9 5840.35 603.753 18
3 -6 9 6577.73 580.67 29
3 -6 9 6663.47 653.592 31
3 -6 10 27.7573 125.881 11
3 -6 10 107.235 112.562 31
3 -6 11 13517 606.726 11
3 -5 -10 13712.3 775.136 6
3 -5 -9 993.465 254.775 3
3 -5 -8 6403.63 710.297 3
3 -5 -7 21942.5 1430.94 3
3 -5 -4 59779 2098.71 25
3 -5 -3 833.556 222.117 25
3 -5 -2 418740 10325.3 25
3 -5 -1 219393 5896.32 25
3 -5 0 3760.72 468.316 25
3 -5 1 118562 2990.43 10
3 -5 1 113610 2992.48 28
3 -5 2 123594 3487.49 28
3 -5 2 150367 4093.34 25
3 -5 3 41688.1 1798.09 29
3 -5 3 39365.5 1569.74 28
3 -5 3 44793.5 1799.22 25
3 -5 4 10207.2 800.773 9
3 -5 4 11405.1 913.219 8
3 -5 4 10333.7 791.727 30
3 -5 4 11048 887.13 29
3 -5 4 10203.9 761.907 28
3 -5 4 9968.68 744.691 25
3 -5 5 42465 1778.48 12
3 -5 5 46116.2 2129.86 8
3 -5 5 42998.5 2055.87 18
3 -5 5 45118.5 2009.94 9
3 -5 5 44181.1 1954.46 30
3 -5 5 45244.1 2039.63 29
3 -5 5 46832.8 1975.16 28
3 -5 6 1072.75 269.069 12
3 -5 6 704.535 254.655 33
3 -5 6 310.425 234.704 18
3 -5 6 553.913 292.691 8
3 -5 6 290.525 194.741 30
3 -5 6 296.333 207.452 29
3 -5 6 286.994 183.434 28
3 -5 6 38.6116 114.811 13
3 -5 7 95510.5 3448.85 10
3 -5 7 96104.8 3555.1 34
3 -5 7 92509.9 3540.41 8
3 -5 7 97229.4 3483.36 18
3 -5 7 95815.8 3329.25 33
3 -5 7 99219.9 3464.19 29
3 -5 7 89930.2 3371.91 28
3 -5 7 89754.4 3159.66 13
3 -5 7 88929.1 3075.12 12
3 -5 8 9215.34 903.558 34
3 -5 8 9918.33 964.519 8
3 -5 8 9285.66 864.128 18
3 -5 8 10713.4 937.899 31
3 -5 8 10282.8 900.831 29
3 -5 9 438.871 232.168 11
3 -5 9 554.015 274.386 8
3 -5 9 1114.44 298.669 31
3 -5 9 381.441 207.103 29
3 -5 10 15696.1 939.407 11
3 -5 10 15835.3 934.686 31
3 -5 11 5787.15 404.84 11
3 -4 -10 66.8866 114.65 6
3 -4 -9 621.612 235.824 3
3 -4 -8 12973.3 1029.77 3
3 -4 -7 3404.08 538.951 3
3 -4 -4 18678.2 920.995 25
3 -4 -3 422107 10079.9 25
3 -4 -2 288629 7178.09 25
3 -4 -1 102.675 116.422 25
3 -4 0 66210.6 1734.3 10
3 -4 0 66430.6 1674.93 28
3 -4 0 69594.9 2231.53 25
3 -4 1 460494 10722.2 10
3 -4 1 462945 10662.1 28
3 -4 1 477189 11169.6 25
3 -4 2 23296.2 965.683 28
3 -4 2 23887.1 1127.86 25
3 -4 3 96586.5 2974.82 28
3 -4 3 106810 3052.29 25
3 -4 4 44619.4 1970.6 8
3 -4 4 43879.5 1907.63 18
3 -4 4 45869 1834.55 30
3 -4 4 44700.7 1967.61 29
3 -4 4 44589.2 1801.08 28
3 -4 4 47242.7 1670.33 25
3 -4 5 1059.98 272.733 12
3 -4 5 977.408 260.889 33
3 -4 5 1171.38 340.844 8
3 -4 5 1906.94 370.158 30
3 -4 5 1175.4 323.43 29
3 -4 5 1278.59 326.115 18
3 -4 5 1017.2 284.524 28
3 -4 5 1465.83 313.419 13
3 -4 6 191814 5488.07 10
3 -4 6 183005 5292.16 33
3 -4 6 181364 5481.32 18
3 -4 6 184101 5675.34 8
3 -4 6 191212 5629.96 29
3 -4 6 177994 5403.59 28
3 -4 6 178983 5348.2 13
3 -4 6 177121 5298.07 12
3 -4 7 32325.5 1805.12 34
3 -4 7 32683.1 1751.67 18
3 -4 7 32684.4 1792.76 10
3 -4 7 31761.9 1756.34 31
3 -4 7 33048.3 1817.07 29
3 -4 7 33398.9 1750.87 13
3 -4 7 31478.5 1651.65 12
3 -4 8 -86.9336 158.039 12
3 -4 8 -53.3244 204.366 11
3 -4 8 249.286 226.087 34
3 -4 8 52.3669 155.459 31
3 -4 8 103.467 188.095 29
3 -4 8 432.641 217.988 13
3 -4 9 15761.4 1117.71 11
3 -4 9 16363.8 1143.31 8
3 -4 9 14832.9 1055.9 29
3 -4 10 22712.6 1173.31 8
3 -4 11 526.291 141.09 11
3 -4 11 361.336 190.165 31
3 -3 -10 511.368 218.756 6
3 -3 -8 4761.35 616.041 3
3 -3 -7 214554 6077.28 3
3 -3 -6 39359.1 1779.14 3
3 -3 -5 6386.81 459.151 25
3 -3 -4 85326.6 2474.49 25
3 -3 -3 205694 5169.13 25
3 -3 -2 13686.2 710.961 25
3 -3 -1 53666.6 1742.08 25
3 -3 0 217813 5151.58 10
3 -3 1 429060 9946.63 10
3 -3 1 430429 9885.75 28
3 -3 1 424325 10151.6 25
3 -3 2 556961 12530.6 10
3 -3 2 516267 12469.3 28
3 -3 2 542112 12552.1 25
3 -3 3 9859.18 671.571 10
3 -3 3 9670.81 609.694 25
3 -3 4 701.382 202.767 10
3 -3 4 634.322 235.186 29
3 -3 4 871.237 228.366 28
3 -3 4 393.975 126.932 25
3 -3 5 156842 4897.99 24
3 -3 5 156211 4779.25 12
3 -3 5 164923 4832.28 18
3 -3 5 158931 4961.52 8
3 -3 5 162079 4564.88 17
3 -3 5 166396 4843.44 10
3 -3 5 166398 5031.47 29
3 -3 5 168861 4777.56 28
3 -3 5 162617 4786.79 13
3 -3 6 139654 4567.79 24
3 -3 6 143218 4572.76 34
3 -3 6 139086 4466.16 18
3 -3 6 138321 4649.72 8
3 -3 6 135212 4190.98 32
3 -3 6 142478 4315.53 17
3 -3 6 147077 4571.12 31
3 -3 6 148332 4560.28 10
3 -3 6 151316 4767.2 29
3 -3 6 145456 4554.76 13
3 -3 6 144039 4532.06 12
3 -3 7 8981.48 894.142 11
3 -3 7 8986.89 879.754 10
3 -3 7 9103.25 878.065 34
3 -3 7 7908.5 883.916 8
3 -3 7 9367.18 806.458 32
3 -3 7 9879.48 845.278 17
3 -3 7 8536.2 897.532 29
3 -3 7 9390.43 914.909 13
3 -3 7 8669.53 867.17 12
3 -3 7 7909.07 849.284 24
3 -3 8 13392.9 1005.94 34
3 -3 8 12873.5 1090.09 8
3 -3 8 11556.8 923.427 17
3 -3 8 14342.7 1141.29 29
3 -3 8 12540.5 1051.42 13
3 -3 8 12321.3 1009.68 12
3 -3 9 25438.9 1428.87 8
3 -3 9 24569.2 1411.26 31
3 -3 9 27226.6 1484.82 29
3 -3 10 1484.24 291.514 11
3 -3 10 1196.87 256.647 31
3 -2 -10 11123.4 887.538 6
3 -2 -8 252051 6894.02 3
3 -2 -7 88877.8 3052.3 3
3 -2 -4 470478 10997.2 25
3 -2 -3 18789.2 825.991 25
3 -2 -2 77742.5 2240.29 25
3 -2 -1 8390.71 513.751 25
3 -2 0 64481.5 1760.59 10
3 -2 0 59276.8 1876.23 25
3 -2 1 405885 9352.82 10
3 -2 1 392270 9434.89 25
3 -2 2 151421 3945.17 10
3 -2 2 146802 3887.64 25
3 -2 3 7399.59 575.701 10
3 -2 4 35854.2 1696.94 24
3 -2 4 36756.7 1618.62 11
3 -2 4 38167.2 1613.81 10
3 -2 4 37492.5 1612.65 31
3 -2 4 35214 1575.1 14
3 -2 5 160515 5007.23 12
3 -2 5 170216 4952.58 11
3 -2 5 167963 4924.21 10
3 -2 5 165356 4984.37 8
3 -2 5 161617 4654.45 32
3 -2 5 162638 4898.46 31
3 -2 5 170879 4820.83 17
3 -2 5 171715 5208.05 29
3 -2 5 167188 4975.99 13
3 -2 6 2710.42 498.245 12
3 -2 6 2648.69 468.239 34
3 -2 6 3604.46 574.789 8
3 -2 6 3264.92 475.432 32
3 -2 6 2857.04 463.483 17
3 -2 6 2955.19 552.864 29
3 -2 6 3028.2 525.046 13
3 -2 7 15386.6 1191.58 24
3 -2 7 16221.7 1188.45 10
3 -2 7 17546.8 1155 34
3 -2 7 16053.6 1207.37 8
3 -2 7 17943.2 1219.23 17
3 -2 7 16169.3 1201.18 31
3 -2 7 13419.9 1022.2 32
3 -2 7 17644 1328.65 29
3 -2 7 15834.8 1218.48 12
3 -2 8 18158.9 1275.41 11
3 -2 8 19356.2 1277.83 8
3 -2 8 21880.8 1339.36 17
3 -2 8 19987.9 1327.48 31
3 -2 8 20770.7 1402.7 29
3 -2 8 20577.8 1354.75 24
3 -2 9 1672.4 349.889 11
3 -2 9 1623.84 340.452 31
3 -2 10 36037.7 1454.89 31
3 -1 -10 3364.27 500.572 6
3 -1 -9 18958.8 1257.03 6
3 -1 -7 2090.03 383.912 3
3 -1 -4 99.611 93.5375 35
3 -1 -3 309191 7732.17 35
3 -1 -3 333182 7714.2 25
3 -1 -2 37480.3 1344.79 35
3 -1 -2 39333.8 1345.72 25
3 -1 0 642428 14569.9 35
3 -1 0 622296 14580.5 25
3 -1 1 612317 14191.3 10
3 -1 1 618802 14171.7 35
3 -1 2 266.678 126.465 10
3 -1 3 62634.7 2136.08 10
3 -1 4 234694 6486.48 24
3 -1 4 238170 6118.63 32
3 -1 4 226064 6602.65 29
3 -1 4 237190 6350.8 14
3 -1 5 -51.1249 163.932 12
3 -1 5 48.8765 145.097 24
3 -1 5 -42.7495 126.908 11
3 -1 5 40.6611 120.709 8
3 -1 5 72.9052 108.215 32
3 -1 5 -41.4403 112.303 10
3 -1 5 220.039 210.825 29
3 -1 5 46.8897 160.733 13
3 -1 6 44538.1 2086.05 11
3 -1 6 46694.8 2084.37 10
3 -1 6 39848.8 1942.51 8
3 -1 6 42121.1 1940.05 32
3 -1 6 48238.4 2142.29 17
3 -1 6 44900.9 2100.11 31
3 -1 6 45505.6 2260.39 29
3 -1 6 47074.5 2217.57 13
3 -1 6 47051.6 2263.01 12
3 -1 7 23286.4 1509.86 24
3 -1 7 25030.8 1485 11
3 -1 7 22840 1372.76 32
3 -1 7 24341.6 1484.8 17
3 -1 7 23360 1468.52 31
3 -1 7 23652.2 1376.19 8
3 -1 7 24010.8 1558.16 13
3 -1 7 24316.6 1570.65 12
3 -1 8 49.7976 190.925 24
3 -1 8 224.269 188.386 11
3 -1 8 284.881 190.925 17
3 -1 8 427.785 244.459 31
3 -1 8 312.71 209.561 13
3 -1 9 43155 1824.81 17
3 -1 9 43701.6 1820.2 31
3 0 -9 95653.5 3348.12 6
3 0 -8 6414.6 694.856 6
3 0 -7 21356.8 1256.16 6
3 0 -6 66648.4 2103.86 35
3 0 -5 10185.1 654.721 35
3 0 -4 204745 5291.22 35
3 0 -3 185156 4828.05 35
3 0 -2 693.478 170.001 35
3 0 0 612092 14206.3 35
3 0 1 84789.1 2474.4 35
3 0 2 110363 3017.95 35
3 0 3 133433 4167.09 29
3 0 3 133639 3942.25 14
3 0 4 322.611 193.51 24
3 0 4 336.364 192.192 11
3 0 4 59.8406 88.8705 22
3 0 4 32.0161 77.6581 21
3 0 4 239.668 181.16 19
3 0 4 306.118 278.264 31
3 0 4 75.0801 120.408 16
3 0 4 344.234 223.018 29
3 0 4 82.2073 140.929 14
3 0 5 61555.1 2611.7 24
3 0 5 54940.5 2352.12 11
3 0 5 61458.2 2251.6 22
3 0 5 57956.2 2202.5 8
3 0 5 61453.1 2384.6 32
3 0 5 61970 2472.36 31
3 0 5 64947.8 2711.64 29
3 0 5 61417.2 2285.88 21
3 0 5 65753.6 2640.04 13
3 0 5 60795.7 2675.85 12
3 0 6 18979.2 1361.85 24
3 0 6 20547.5 1296.58 11
3 0 6 20264.7 1170.47 22
3 0 6 18970.2 1248.14 32
3 0 6 20942 1371.19 17
3 0 6 19764.6 1317.99 31
3 0 6 19045.9 1407.43 29
3 0 6 20073.2 1397.51 13
3 0 6 19532.8 1431.04 12
3 0 7 11257.7 945.535 11
3 0 7 11458 947.724 32
3 0 7 12665.3 1048.68 17
3 0 7 11969.7 1012.12 31
3 0 7 12769.3 1096.37 29
3 0 7 12322.8 1087.32 13
3 0 7 12472.9 1093.89 12
3 0 8 63372.5 2551.83 17
3 0 8 68418.4 2543.05 31
3 0 8 66483.1 2626.81 13
3 0 9 11699.3 797.398 17
3 0 9 10954 784.166 24
3 1 -9 38656.6 1836.19 6
3 1 -8 28105.2 1526.82 6
3 1 -7 21968.5 1286.2 6
3 1 -6 6644.46 573.349 35
3 1 -5 147127 4166.53 35
3 1 -4 310957 7856.97 35
3 1 -3 13491.5 851.757 35
3 1 -2 282864 7228.56 35
3 1 -1 360759 8886.54 35
3 1 0 5884.53 510.423 35
3 1 1 54207.8 1868.91 35
3 1 2 49567.1 1829.12 32
3 1 2 49117 1885.15 31
3 1 2 50930 1732.31 35
3 1 3 8219.22 801.165 12
3 1 3 8540.35 797.374 24
3 1 3 7860.61 683.741 21
3 1 3 7259.32 755.482 19
3 1 3 7624.03 674.959 32
3 1 3 8842.9 758.935 31
3 1 3 6831.49 692.309 29
3 1 3 7528.31 705.377 14
3 1 4 177934 5537.74 24
3 1 4 194043 5240.69 22
3 1 4 181738 5250.5 32
3 1 4 191627 5348.3 31
3 1 4 182066 5490.47 29
3 1 4 176255 5407.79 14
3 1 4 182948 5654.13 12
3 1 4 184388 5272.94 21
3 1 5 65626.4 2821.77 24
3 1 5 68983.9 2542.09 22
3 1 5 63700.5 2534.81 21
3 1 5 66171.3 2611.25 32
3 1 5 70364.9 2690.08 31
3 1 5 67305.4 2797.42 29
3 1 5 68243 2823.2 13
3 1 5 69520.7 2937.15 12
3 1 6 472.522 258.694 12
3 1 6 514.65 268.981 24
3 1 6 688.031 250.722 22
3 1 6 883.742 394.985 32
3 1 6 906.687 322.607 13
3 1 7 30916.5 1703.49 24
3 1 7 29868.1 1562.59 32
3 1 7 31989.1 1717.19 13
3 2 -9 43773.5 1953.42 6
3 2 -8 24372.7 1397.19 6
3 2 -7 1927.93 332.588 35
3 2 -7 1458.43 330.901 6
3 2 -6 172542 4929.14 35
3 2 -6 179025 5071.39 6
3 2 -6 167411 4931.48 37
3 2 -5 456467 11289.6 35
3 2 -4 512.692 191.52 35
3 2 -3 24108.8 1318.86 35
3 2 -1 26037.9 1352.76 35
3 2 0 4734.21 526.067 35
3 2 1 18806.5 1045.14 35
3 2 1 17660.5 1039.08 37
3 2 2 11690.3 929.015 24
3 2 2 13441.1 813.829 35
3 2 2 12134.6 1051.43 19
3 2 2 13692.8 927.462 16
3 2 2 12072.6 880.917 14
3 2 2 13336.4 973.45 12
3 2 3 205186 6101.48 24
3 2 3 215700 5886.7 32
3 2 3 217521 5971.26 16
3 2 3 205834 5771.63 29
3 2 3 203972 5939.91 14
3 2 3 208251 5948.29 21
3 2 3 210637 6106.95 12
3 2 4 69734 2900.56 24
3 2 4 71788.8 2658.4 22
3 2 4 68645 2709.59 21
3 2 4 69159.6 2683.12 32
3 2 4 66996.7 2717.78 16
3 2 4 68947.9 2812.61 13
3 2 4 72540 2917.34 12
3 2 5 115.515 156.538 24
3 2 5 261.755 167.211 22
3 2 5 47.78 153.223 21
3 2 5 -54.4436 147.558 13
3 2 6 24543.1 1533.84 24
3 2 6 25563.8 1376.15 22
3 2 6 25778.2 1533.77 17
3 2 6 25270 1508.09 13
3 2 7 76730 2819.05 24
3 2 7 76102.6 2812.79 17
3 2 7 78850.4 2721.44 13
3 2 8 1445.93 270.794 24
3 2 8 927.442 236.995 17
3 3 -7 46632.2 2014.46 37
3 3 -7 44732.8 1966.97 35
3 3 -6 165875 5077.64 37
3 3 -6 164138 5063.66 35
3 3 -6 178240 4935.82 2
3 3 -5 38916.9 1919.59 37
3 3 -5 40737.8 1966.04 35
3 3 -5 43533.8 1851.56 2
3 3 -4 53796.2 2322.24 37
3 3 -4 53688 2354.88 35
3 3 -4 54957.7 2217.66 7
3 3 -4 54419.4 2194 2
3 3 -3 181820 5622.77 37
3 3 -3 178714 5651.88 35
3 3 -3 196918 5520.14 7
3 3 -2 13553 1058.66 37
3 3 -1 142518 4465.83 37
3 3 -1 139576 4475.62 35
3 3 -1 142086 4413.66 19
3 3 -1 137881 4256.26 7
3 3 0 50746.4 2195.13 35
3 3 0 53098.3 2354.59 19
3 3 0 52353.4 2226.22 37
3 3 1 -41.283 100.068 24
3 3 1 163.986 140.533 37
3 3 1 -57.2962 138.881 19
3 3 1 280.892 168.468 35
3 3 1 79.5958 107.854 16
3 3 2 63984.9 2613.38 24
3 3 2 66056.1 2559.42 16
3 3 2 63681.1 2466.45 14
3 3 3 136988 4536.35 24
3 3 3 135983 4471.2 21
3 3 3 139306 4435.35 16
3 3 3 136257 4378.55 13
3 3 4 4052.47 624.212 24
3 3 4 3888.46 559.815 22
3 3 4 4340.87 601.593 13
3 3 4 4049.81 590.432 21
3 3 5 22584.1 1445.95 24
3 3 5 21795.6 1292.96 22
3 3 5 21499.8 1301.26 13
3 3 6 46797.9 2030.12 24
3 3 6 41915.2 1793.46 22
3 3 6 46823.6 2023.36 17
3 3 7 523.634 186.664 24
3 3 7 155.513 136.054 17
3 4 -9 283.046 160.562 7
3 4 -8 50582.5 2117.38 7
3 4 -7 118061 3968.13 37
3 4 -7 118724 3987.72 35
3 4 -7 120520 3894.01 7
3 4 -6 4070.57 598.635 37
3 4 -6 4141.1 620.069 35
3 4 -6 5035.94 620.51 7
3 4 -5 51890.4 2406.76 37
3 4 -5 53566.7 2464.4 35
3 4 -5 52919.9 2264.28 7
3 4 -4 23867.5 1547.22 37
3 4 -4 24916.5 1596.49 35
3 4 -4 22582.9 1396.95 7
3 4 -3 18636.6 1379.79 37
3 4 -3 18531.1 1394.36 35
3 4 -3 20375.5 1311.31 7
3 4 -2 89488.5 3441.92 37
3 4 -2 87444.4 3456.46 35
3 4 -1 110191 3974.08 37
3 4 -1 113335 4041.91 35
3 4 0 425.972 241.564 37
3 4 0 269.587 184.964 35
3 4 1 52316 2264.13 24
3 4 1 60059.8 2410.56 37
3 4 1 59675.8 2557.94 21
3 4 1 54375.1 2311.27 35
3 4 1 58893.1 2390.97 16
3 4 2 161432 5080.18 24
3 4 2 172212 5312.75 21
3 4 2 168685 5124.5 16
3 4 3 11501.8 997.731 24
3 4 3 11108.3 977.29 16
3 4 4 1872.11 402.894 24
3 4 4 3057.58 483.719 22
3 4 4 3308.52 542.992 21
3 4 5 25115.8 1343.06 24
3 4 5 24274.7 1282.89 22
3 4 5 23646 1344.48 17
3 4 6 13023.4 826.725 17
3 5 -8 25533.8 1424.8 37
3 5 -8 27861.4 1423.05 7
3 5 -7 17979.9 1295.33 35
3 5 -7 18853.9 1226.22 7
3 5 -6 6606.74 798.643 37
3 5 -6 7298.85 855.501 35
3 5 -6 6458.93 733.691 7
3 5 -5 1959.23 470.671 37
3 5 -5 1481.71 407.282 35
3 5 -5 1537.79 389.622 7
3 5 -4 71076.8 3105.84 37
3 5 -4 73988.6 3194.22 35
3 5 -2 199789 6192.73 37
3 5 -2 189353 6190.08 35
3 5 -1 10553.5 1047.55 37
3 5 -1 9597.24 1012.02 35
3 5 0 54637.1 2534.06 35
3 5 0 57434.9 2404.11 16
3 5 0 61151.9 2632.62 37
3 5 1 118842 4094.4 21
3 5 1 110292 3781.03 16
3 5 2 13716.8 1035.57 16
3 5 2 12241.8 1073.31 21
3 5 3 15011.9 1052.31 22
3 5 3 12530.9 1033.14 21
3 5 4 28849.2 1406.63 22
3 5 4 28387.7 1398.75 17
3 5 5 4589.48 436.609 22
3 5 5 4938.4 446.432 17
3 6 -8 25529.2 1365.71 37
3 6 -7 26871.3 1547.85 37
3 6 -6 87746.6 3357.06 37
3 6 -5 4772.24 703.51 37
3 6 -4 38226.1 2111.94 37
3 6 -4 36456.2 2105.46 35
3 6 -3 196868 6287.98 35
3 6 -2 13276.1 1186.7 37
3 6 -2 14988.8 1025.91 16
3 6 -1 23209.8 1528.35 37
3 6 -1 26231.8 1547.85 21
3 6 -1 22628 1304.95 16
3 6 0 42569.3 1883.42 16
3 6 0 44325.1 2104.97 21
3 6 1 21182 1347.79 21
3 6 2 17788.9 1159.38 21
3 6 3 5305.28 527.737 22
3 6 3 4973.48 453.517 17
3 6 4 537.854 141.273 22
3 7 -8 8349.99 655.991 37
3 7 -7 31350.6 1541.57 37
3 7 -6 4424.45 591.964 37
3 7 -5 12829.7 1058.62 37
3 7 -4 75792 2989.58 37
3 7 -4 73319.1 2499.16 21
3 7 -3 24342 1516.5 37
3 7 -3 26082.5 1314.05 21
3 7 -2 42669.6 2033.2 37
3 7 -2 46291.9 1903.72 21
3 7 -1 34405.3 1597.19 21
3 7 0 13493.6 912.388 21
3 7 1 11128.7 774.352 22
3 8 -7 907.092 208.945 37
3 8 -6 22899.9 1155.03 37
3 8 -5 33480.4 1506.9 37
3 8 -3 4597.18 498.306 37
3 8 0 5410.39 402.126 22
4 -11 5 12357.5 721.936 33
4 -10 -4 25406.3 1299.72 3
4 -10 -3 3088.37 478.325 3
4 -10 -2 952.603 302.191 3
4 -10 4 12553.7 833.335 18
4 -10 5 22799.8 1150.16 18
4 -10 6 4196.46 464.733 33
4 -10 6 4178.6 439.266 18
4 -10 7 269.902 123.412 18
4 -9 -7 6400.04 468.26 3
4 -9 -6 388.591 191.661 3
4 -9 -5 27277.6 1532.97 3
4 -9 0 19705.3 1469.47 25
4 -9 1 20561.6 1511.29 25
4 -9 3 15372.8 1071.53 18
4 -9 4 46089 2081.29 18
4 -9 4 48666.5 2048.06 34
4 -9 5 1939.13 379.289 34
4 -9 5 1419.07 354.332 18
4 -9 6 75.5787 129.57 34
4 -9 6 275.228 196.494 33
4 -9 6 120.632 161.655 18
4 -9 7 15554.8 940.478 34
4 -9 7 16895.1 992.447 18
4 -9 8 1926.09 289.033 18
4 -8 -8 1491.3 245.129 3
4 -8 -7 894.821 275.643 3
4 -8 -6 12159.2 1036.66 3
4 -8 -3 23356 1450.49 25
4 -8 -2 21972.1 1463.9 25
4 -8 -1 44851.8 2279.28 4
4 -8 -1 44097.6 2250.64 25
4 -8 0 85341.2 3440.84 4
4 -8 0 84004.3 3409.99 25
4 -8 1 73137.4 2787.51 29
4 -8 2 44373.1 2260.32 4
4 -8 2 38801.1 1869.18 18
4 -8 2 40791.8 1938.2 29
4 -8 2 44832.9 2249.97 25
4 -8 3 135375 4351.45 18
4 -8 3 129266 4197.45 29
4 -8 3 135206 4507.75 25
4 -8 4 59831.3 2538.15 18
4 -8 4 56427.8 2320.61 29
4 -8 4 56290.5 2438.54 25
4 -8 5 5234.2 688.501 18
4 -8 5 4213.21 544.924 29
4 -8 5 4448.26 640.016 34
4 -8 6 21553.6 1365.33 34
4 -8 6 18664.9 1217.75 33
4 -8 6 17917.2 1259.98 18
4 -8 7 7723.43 747.482 34
4 -8 7 6486.08 678.293 18
4 -8 8 13366.1 738.802 11
4 -8 8 16156.7 970.788 34
4 -7 -8 4406.64 537.261 3
4 -7 -7 3029.3 521.192 3
4 -7 -6 42870.9 2220.56 3
4 -7 -4 35517.3 1714.34 25
4 -7 -3 20876.4 1323.27 25
4 -7 -2 2778.23 486.858 25
4 -7 -1 109589 3883.39 4
4 -7 -1 109084 3851.61 25
4 -7 0 15398.2 1214.37 4
4 -7 0 16679.9 1252.69 25
4 -7 1 4775.96 608.016 29
4 -7 2 202593 5990.38 4
4 -7 2 185074 5570.34 18
4 -7 2 202082 5745.91 29
4 -7 2 194149 5900.42 25
4 -7 3 38780.4 1941.91 18
4 -7 3 40064.5 1938.85 29
4 -7 3 40229.3 1993.42 25
4 -7 4 193614 5852.08 18
4 -7 4 195835 5733.77 29
4 -7 4 188777 5633.26 25
4 -7 5 56822.9 2550.46 18
4 -7 5 55758.8 2405.88 29
4 -7 6 12098.5 937.184 11
4 -7 6 13173.3 1112.78 34
4 -7 6 12883.3 993.049 33
4 -7 6 15115.3 1173.58 18
4 -7 6 10553.5 860.77 31
4 -7 6 11642.3 957.184 29
4 -7 7 11969.6 902.663 11
4 -7 7 10536.1 961.736 34
4 -7 7 11971.7 985.663 18
4 -7 7 11241.2 873.779 29
4 -7 8 34946 1541.78 11
4 -7 8 35369.9 1684.27 34
4 -7 8 36132.5 1653.18 18
4 -7 8 33657.1 1448.49 29
4 -7 9 11323.5 682.657 11
4 -6 -10 3684.81 367.931 6
4 -6 -9 680.861 226.224 3
4 -6 -8 7333.02 771.789 3
4 -6 -7 24127.4 1559.62 3
4 -6 -6 17608.4 1354.33 3
4 -6 -4 52083.9 2095.2 25
4 -6 -3 619.269 224.178 25
4 -6 -2 207029 5874.83 25
4 -6 -1 56908.4 2351.25 25
4 -6 0 1459.96 366.943 4
4 -6 0 1517.25 366.865 25
4 -6 1 18511 1080.92 18
4 -6 1 19437.2 1253.65 25
4 -6 2 34644 1660.34 18
4 -6 2 32834.8 1688.58 29
4 -6 2 35258.7 1758.55 25
4 -6 3 10044.7 733.289 10
4 -6 3 9358.24 873.498 18
4 -6 3 12170.4 986.344 29
4 -6 3 9135.07 686.632 28
4 -6 3 10229.3 878.799 25
4 -6 4 54397.9 2149.39 10
4 -6 4 56400.6 2425.12 8
4 -6 4 51810.8 2365.1 18
4 -6 4 54171.9 2366.08 29
4 -6 4 46407 2005.84 28
4 -6 4 56072.9 2202.63 25
4 -6 5 12838.7 898.838 12
4 -6 5 10964.8 930.852 11
4 -6 5 11471.5 938.744 10
4 -6 5 10743.9 1022.45 8
4 -6 5 12249.6 1065.61 18
4 -6 5 12088.2 1035.18 29
4 -6 5 10544.5 890.041 28
4 -6 6 14786.8 1113.2 11
4 -6 6 12507.9 1020.12 10
4 -6 6 13830.3 1163.73 8
4 -6 6 13354.3 993.546 33
4 -6 6 14365.1 1169.27 18
4 -6 6 13508.4 1039.43 31
4 -6 6 14411.3 1120.45 29
4 -6 6 11463.7 861.808 12
4 -6 7 55264.3 2332.44 11
4 -6 7 56879.7 2477.7 8
4 -6 7 49306 2184.25 31
4 -6 7 50952.5 2262.26 29
4 -6 8 9643.19 823.641 11
4 -6 8 12183.3 940.468 34
4 -6 8 9572.97 796.511 31
4 -6 8 10582.1 835.804 29
4 -6 9 478.913 185.089 11
4 -6 9 27.9214 257.796 31
4 -6 9 490.994 171.667 29
4 -6 10 9561.7 535.589 11
4 -5 -10 2057.74 363.483 6
4 -5 -9 3336.21 484.414 3
4 -5 -8 8638.17 865.018 3
4 -5 -7 2587.06 508.702 3
4 -5 -6 138803 4621.43 3
4 -5 -5 49894.2 1908.41 25
4 -5 -4 932.122 242.946 25
4 -5 -3 145973 4250.92 25
4 -5 -2 180324 5060.34 25
4 -5 -1 7331.69 669.078 25
4 -5 1 62699.5 1897.05 10
4 -5 1 62389.9 2355.18 25
4 -5 2 28272.8 1233.11 10
4 -5 2 30631 1478.13 18
4 -5 2 30392.2 1563.38 29
4 -5 2 29278.9 1195.87 28
4 -5 2 33660.4 1554.01 25
4 -5 3 203615 5498.59 11
4 -5 3 205424 5457.52 10
4 -5 3 207078 5783.37 18
4 -5 3 206348 5855.47 29
4 -5 3 192327 5473.4 15
4 -5 3 190440 5321.41 28
4 -5 3 200288 5777.39 8
4 -5 3 201917 5575.94 25
4 -5 4 43975.3 1941.28 11
4 -5 4 45627.4 1939.76 10
4 -5 4 41639.2 2050.69 8
4 -5 4 43778.1 2064.92 18
4 -5 4 46869.4 2145.13 29
4 -5 4 40779.4 1821.95 28
4 -5 4 41468.6 1760.05 13
4 -5 4 43043.2 1781.74 25
4 -5 5 1508.48 352.738 12
4 -5 5 2338.94 451.581 11
4 -5 5 1497.78 333.433 33
4 -5 5 1821.37 412.613 18
4 -5 5 2793.09 475.88 10
4 -5 5 2448.78 499.35 8
4 -5 5 1546.19 367.834 31
4 -5 5 1913.52 446.329 29
4 -5 5 1691.72 347.558 13
4 -5 6 97672.4 3488.72 11
4 -5 6 92476 3388.96 10
4 -5 6 94955.9 3605.57 8
4 -5 6 85193.1 3269.61 31
4 -5 6 100949 3584.53 29
4 -5 6 94199.1 3246.13 13
4 -5 6 87869.2 3199.72 12
4 -5 7 26865 1590.97 11
4 -5 7 29085.3 1711.27 8
4 -5 7 29177.6 1658.42 34
4 -5 7 24447.6 1490.81 31
4 -5 7 26653.3 1601.12 29
4 -5 7 26525 1454.23 13
4 -5 7 26530.4 1439.7 12
4 -5 8 182.93 192.131 11
4 -5 8 343.142 187.565 34
4 -5 8 346.327 209.986 31
4 -5 8 486.856 245.914 29
4 -5 9 13510.7 884.816 11
4 -5 9 11911.2 821.33 31
4 -5 9 13872.2 867.703 29
4 -5 10 6748.17 474.392 11
4 -5 10 6471.91 468.312 31
4 -4 -11 -45.248 116.333 6
4 -4 -10 23590.5 1323.02 6
4 -4 -9 5619.69 671.378 3
4 -4 -8 365.638 210.113 3
4 -4 -7 96238 3514.12 3
4 -4 -6 35984.9 1843.78 3
4 -4 -5 10173 878.423 3
4 -4 -5 10096.4 705.844 25
4 -4 -4 74447.8 2457.54 25
4 -4 -3 177614 4826.1 25
4 -4 -2 294479 7451.87 25
4 -4 -1 179072 4889.08 25
4 -4 1 51118.6 1690.84 10
4 -4 1 52646.7 1958.72 25
4 -4 2 242783 6229.93 10
4 -4 2 237886 6653.29 29
4 -4 2 253177 6438.68 25
4 -4 3 126540 3801.22 11
4 -4 3 125813 3755.8 10
4 -4 3 127068 4009.86 8
4 -4 3 132072 3970.33 18
4 -4 3 120263 3678.19 31
4 -4 3 126598 4100.77 29
4 -4 3 119455 3807.6 15
4 -4 3 131124 3751.68 25
4 -4 4 35653.2 1726.95 11
4 -4 4 36868.4 1701.34 10
4 -4 4 32136.6 1540.72 20
4 -4 4 36049.8 1848.23 8
4 -4 4 37882.2 1818.59 18
4 -4 4 34828.7 1650.62 31
4 -4 4 37787.2 1891.72 29
4 -4 4 32673.2 1423.31 25
4 -4 5 106508 3678.66 11
4 -4 5 105097 3618.18 10
4 -4 5 99090.5 3538.51 31
4 -4 5 108839 3853.27 29
4 -4 5 107248 3587.3 13
4 -4 6 36659.4 1924.53 11
4 -4 6 35487.1 1866.18 10
4 -4 6 37793 1946.99 34
4 -4 6 33486.1 1928.47 8
4 -4 6 33393 1812.79 31
4 -4 6 40237.7 2050.89 29
4 -4 6 36182.3 1843.61 13
4 -4 6 33360.6 1789.89 12
4 -4 7 2018.01 426.44 12
4 -4 7 1952.48 433.491 11
4 -4 7 2041.28 429.158 34
4 -4 7 2001.75 467.265 8
4 -4 7 2271.71 457.87 31
4 -4 7 2289.67 494.892 29
4 -4 7 2138.47 441.212 13
4 -4 8 14128.4 1057.37 11
4 -4 8 10295.9 893.289 31
4 -4 8 13863.1 1041.72 29
4 -4 8 13140.3 971.763 13
4 -4 8 10981.2 875.812 12
4 -4 9 15190 952.567 11
4 -4 9 14289.2 915.414 31
4 -4 9 15717.3 963.892 29
4 -4 10 16489.8 770.634 31
4 -3 -11 49172.3 1851.53 6
4 -3 -10 4544.23 593.961 6
4 -3 -9 1035.55 308.055 3
4 -3 -8 40028.2 1978.75 3
4 -3 -7 106640 3685.19 3
4 -3 -6 10706.7 900.443 3
4 -3 -5 16671.2 1096.46 3
4 -3 -5 16692.5 910.656 25
4 -3 -4 53938.1 1901.58 25
4 -3 -3 4703.67 454.257 25
4 -3 -2 91063.8 2769.81 25
4 -3 -1 25853.3 1177.05 25
4 -3 0 3100.07 376.211 25
4 -3 1 192860 4927.13 10
4 -3 1 189991 5122.77 25
4 -3 2 124356 3556.27 10
4 -3 2 123996 3596.08 25
4 -3 3 1377.42 291.52 11
4 -3 3 947.121 243.975 10
4 -3 3 1316.52 300.108 18
4 -3 3 1160.62 296.227 8
4 -3 3 1475.59 292.134 31
4 -3 3 1030.87 277.309 15
4 -3 3 1225.85 267.662 14
4 -3 4 96479.6 3247.11 11
4 -3 4 92445.9 3153.92 10
4 -3 4 86558.2 2991.4 20
4 -3 4 91130.8 3284.46 8
4 -3 4 93333.8 3137.01 31
4 -3 4 91247.9 3137.22 14
4 -3 4 95082.9 3354.71 24
4 -3 5 75089.7 2954.98 12
4 -3 5 75529.1 2942.59 11
4 -3 5 80706.2 2952.21 10
4 -3 5 75409.9 2986.94 8
4 -3 5 70431 2604.62 17
4 -3 5 72536.8 2830.83 31
4 -3 5 82075.1 3169.5 29
4 -3 5 74831.9 2904.47 13
4 -3 5 73565.8 2983.55 24
4 -3 6 9489.45 940.85 11
4 -3 6 10210 950.425 10
4 -3 6 8809.49 866.97 34
4 -3 6 10999.6 1017.91 8
4 -3 6 10172.7 845.67 17
4 -3 6 9772.54 927.949 31
4 -3 6 11075.9 1051.71 29
4 -3 6 11448.1 1013.25 13
4 -3 6 10800.9 979.26 12
4 -3 7 43064.9 2092.22 11
4 -3 7 40260.5 2047.31 8
4 -3 7 40652.7 1864.99 34
4 -3 7 40500.8 1811.64 17
4 -3 7 39565.5 1994.8 31
4 -3 7 45251.7 2178.74 29
4 -3 7 40302 2029.61 13
4 -3 7 42178.7 2032.43 12
4 -3 8 20900.1 1306.59 29
4 -3 8 17842.1 1196.69 13
4 -2 -11 6836.38 642.472 6
4 -2 -10 47.7477 153.107 6
4 -2 -9 9096.35 894.578 6
4 -2 -8 51887.9 2283.86 3
4 -2 -7 1791.28 395.589 3
4 -2 -6 29144.4 1520.74 3
4 -2 -4 1952.55 293.6 25
4 -2 -3 438447 10517.8 25
4 -2 -2 193982 5085.18 25
4 -2 0 360835 8827.82 25
4 -2 2 1334.95 329.185 29
4 -2 2 1504.45 271.182 10
4 -2 3 27884.8 1521.21 24
4 -2 3 29879.2 1451.41 11
4 -2 3 31312.3 1443.62 10
4 -2 3 26902.6 1401.88 20
4 -2 3 26849.9 1397.83 8
4 -2 3 29523.7 1411.29 31
4 -2 3 29028.4 1614.36 29
4 -2 3 30389.4 1441.77 14
4 -2 4 93902.9 3408.16 24
4 -2 4 97724.4 3316.84 11
4 -2 4 96931.6 3262.62 10
4 -2 4 92671.2 3142.17 20
4 -2 4 94004.6 3282.31 8
4 -2 4 93509.1 3229.44 31
4 -2 4 96167.9 3542.66 29
4 -2 4 96892.7 3301.81 14
4 -2 5 16691.9 1248.55 24
4 -2 5 16625.4 1200.48 11
4 -2 5 17480 1206.22 10
4 -2 5 15632.2 1158.56 8
4 -2 5 15184.5 1135.2 31
4 -2 5 17653.5 1144.49 17
4 -2 5 16718.4 1306.33 29
4 -2 5 17005.1 1231.21 13
4 -2 6 56729.5 2541.52 24
4 -2 6 54822.8 2325.56 17
4 -2 6 55757.5 2443.85 31
4 -2 6 54455 2384.4 8
4 -2 7 9312.7 829.45 17
4 -2 8 810.113 303.936 11
4 -2 8 2221.07 426.846 31
4 -2 9 50070.7 1819.28 31
4 -1 -11 360.41 180.271 6
4 -1 -10 5198.41 646.611 6
4 -1 -9 54208.5 2199.46 2
4 -1 -9 51884.3 2360.99 6
4 -1 -8 -50.7239 162.65 6
4 -1 -7 14968.6 1107.65 6
4 -1 -6 33684.9 1667.61 6
4 -1 -5 301.391 150.751 35
4 -1 -4 336325 8393.49 35
4 -1 -3 154678 4307.77 35
4 -1 -2 68046.9 2282.72 35
4 -1 -1 256405 6525.3 35
4 -1 0 317464 7865.36 35
4 -1 1 20975.3 1012.69 35
4 -1 2 17312.6 1001.64 11
4 -1 2 17197.7 981.654 31
4 -1 2 16810.9 1123.08 29
4 -1 2 16180.1 983.769 14
4 -1 3 53154.6 2308.03 24
4 -1 3 59952.6 2262.18 11
4 -1 3 58594.6 2305.25 20
4 -1 3 53121.9 2230.51 19
4 -1 3 57093.3 2189.42 31
4 -1 3 58364 2144.97 16
4 -1 3 52946.5 2365.35 29
4 -1 3 57211.5 2241.23 14
4 -1 4 60541.1 2591.04 24
4 -1 4 64018.8 2690.26 12
4 -1 4 60871.5 2419.93 20
4 -1 4 59245.2 2382.54 19
4 -1 4 61436.5 2446.03 31
4 -1 4 63209.4 2709.96 29
4 -1 4 62648.7 2520.21 14
4 -1 5 161786 5119.73 24
4 -1 5 148099 4511.1 32
4 -1 5 161456 5160.51 29
4 -1 5 159651 5068.82 13
4 -1 5 160415 5158.37 12
4 -1 6 8633.57 893.735 24
4 -1 6 7992.97 819.067 11
4 -1 6 8547.86 829.304 17
4 -1 6 7651.7 862.567 29
4 -1 6 8038.5 875.625 13
4 -1 6 8131.23 889.611 12
4 -1 7 668.101 271.781 12
4 -1 7 594.812 268.947 24
4 -1 7 265.715 178.449 17
4 -1 7 611.381 283.235 29
4 -1 7 463.16 257.459 13
4 -1 8 48112.8 1902.13 17
4 -1 8 50539.6 2056.84 13
4 0 -11 1304.23 294.287 6
4 0 -10 17837 1209.57 6
4 0 -9 102.792 206.602 6
4 0 -8 52071.3 2194.02 2
4 0 -8 55095.4 2380.18 6
4 0 -7 31452.6 1573.04 2
4 0 -7 30128.2 1637.05 6
4 0 -6 1104.33 262.77 35
4 0 -6 1528.05 333.633 2
4 0 -6 1392.51 334.787 6
4 0 -5 402418 9985.82 35
4 0 -4 212259 5770.6 35
4 0 -3 16686.6 1003.57 35
4 0 -1 231722 6064.21 35
4 0 0 300.534 150.322 35
4 0 1 152064 4499.62 20
4 0 1 151773 4202.19 35
4 0 1 151964 4220.79 31
4 0 1 146177 4259.72 14
4 0 2 70387.3 2658.19 24
4 0 2 69423.4 2697.21 20
4 0 2 74455.1 2340.93 35
4 0 2 70893.9 2768.04 19
4 0 2 73627.3 2544.1 31
4 0 2 73316.3 2528.74 16
4 0 2 68917.7 2649.42 29
4 0 2 74466 2611.88 14
4 0 3 3387.58 535.8 24
4 0 3 3923.28 476.733 21
4 0 3 4271.73 599.092 19
4 0 3 4426.57 544.411 32
4 0 3 3893.28 503.109 16
4 0 3 3723.73 556.492 29
4 0 3 3725.46 527.505 14
4 0 4 150500 4857.39 24
4 0 4 140840 4626.34 19
4 0 4 145007 4375.11 32
4 0 4 152182 4617.5 16
4 0 4 152168 4407.38 21
4 0 4 152265 4825.22 29
4 0 4 146358 4717.86 14
4 0 4 152128 4964.31 12
4 0 5 11643.5 1067.75 24
4 0 5 11338.9 920.834 32
4 0 5 10990 1015.73 29
4 0 5 12753.5 1091.05 13
4 0 5 11871.1 1106.36 12
4 0 6 3271.48 554.849 24
4 0 6 2992.92 505.385 17
4 0 6 3701.66 564.35 29
4 0 6 4252.03 629.582 13
4 0 6 4245.3 634.071 12
4 0 7 1097.02 320.128 24
4 0 7 1201.38 306.487 17
4 0 7 1213.65 332.374 13
4 0 8 33426.4 1421.2 17
4 0 8 34489 1457.75 13
4 1 -10 1300.07 331.727 6
4 1 -9 88926.4 3269.89 6
4 1 -8 60063.2 2357.27 2
4 1 -8 55952.3 2449.28 6
4 1 -7 113.512 112.421 35
4 1 -7 338.612 198.727 2
4 1 -7 439.094 229.051 6
4 1 -6 63905.9 2505.03 2
4 1 -6 67913.1 2527.36 35
4 1 -6 65670.5 2598.54 6
4 1 -6 65180.3 2532.04 37
4 1 -5 158828 4664.72 2
4 1 -5 150232 4685 37
4 1 -5 156502 4675.52 35
4 1 -5 156982 4727.63 6
4 1 -4 1254.25 323.821 37
4 1 -4 787.504 252.064 35
4 1 -3 10830 857.612 35
4 1 -3 10201.1 855.987 37
4 1 -2 69702 2611.93 37
4 1 -1 13844.9 979.532 37
4 1 -1 14483.5 970.569 35
4 1 0 306522 7957.76 37
4 1 0 306923 8212.85 19
4 1 0 303999 7768.71 14
4 1 0 306414 7910.03 35
4 1 1 11880.5 824.425 35
4 1 1 11574.1 1008.39 19
4 1 1 11118.6 824.154 37
4 1 1 11547.9 849.405 14
4 1 2 2874.38 482.418 24
4 1 2 3372.76 409.372 35
4 1 2 3561.24 589.541 19
4 1 2 3544.32 476.732 29
4 1 2 4055.76 535.706 14
4 1 3 153190 4901.31 24
4 1 3 153891 4660.82 21
4 1 3 150803 5003.92 19
4 1 3 151828 4661.46 29
4 1 3 163099 4895.73 14
4 1 3 158931 5013.74 12
4 1 4 144692 4800.41 24
4 1 4 141191 4289.12 22
4 1 4 144384 4476.29 21
4 1 4 152510 4611 29
4 1 4 151769 4887.6 12
4 1 5 608.135 276.321 12
4 1 5 164.12 239.126 24
4 1 5 163.401 198.121 13
4 1 6 14252.4 1083.53 24
4 1 6 13876.1 1045.52 17
4 1 6 15314.2 1113.67 13
4 1 7 72033.2 2506.41 24
4 1 7 69883.7 2495.99 17
4 1 7 72558.4 2485.58 13
4 1 8 79.0289 86.3513 17
4 2 -9 43753.7 2043.45 6
4 2 -8 497.061 224.843 2
4 2 -8 657.803 281.295 6
4 2 -7 32018.7 1659.98 35
4 2 -7 34787.3 1806.75 6
4 2 -7 34120.1 1731.19 37
4 2 -7 34701 1709.66 2
4 2 -6 249207 7007.43 37
4 2 -6 237180 6908.56 35
4 2 -6 261352 7071.46 6
4 2 -6 249017 6893.94 2
4 2 -5 2096.32 440.147 37
4 2 -5 1870.75 395.2 2
4 2 -5 1741.69 393.067 35
4 2 -4 51027.6 2328.82 37
4 2 -4 52482.5 2334.33 35
4 2 -4 55935.6 2295.79 2
4 2 -3 36126.8 1879.6 37
4 2 -3 36101.8 1862.4 35
4 2 -3 36107.4 1696.02 19
4 2 -3 38982.2 1794.11 7
4 2 -3 39036.9 1838.64 2
4 2 -2 1449.82 370.173 37
4 2 -2 1523.68 349.484 2
4 2 -2 1476.12 359.465 35
4 2 -2 1704.36 360.879 19
4 2 -2 1672.4 347.774 7
4 2 -1 150895 4624.89 35
4 2 -1 148455 4668.09 19
4 2 -1 146983 4402.44 7
4 2 -1 149169 4659.8 37
4 2 -1 142299 4247.7 14
4 2 0 65444.3 2557.99 37
4 2 0 67589.5 2551.08 35
4 2 0 65745.2 2760.98 19
4 2 0 58951.9 2319.43 14
4 2 1 1132.21 283.026 37
4 2 1 1636.22 331.786 35
4 2 1 1149.26 293.272 16
4 2 1 1487.37 329.64 14
4 2 2 104495 3677.93 24
4 2 2 112263 3762.74 21
4 2 2 108925 4064.74 19
4 2 2 111845 3716.94 16
4 2 2 109549 3713.79 14
4 2 2 114417 3767.63 12
4 2 3 149320 4857.9 24
4 2 3 156891 4811 21
4 2 3 156444 4847.21 16
4 2 3 147074 4795.71 14
4 2 3 159527 4869.2 12
4 2 4 1930.09 410.989 12
4 2 4 1571.2 398.081 24
4 2 4 2488.6 409.761 22
4 2 4 1519.22 359.13 21
4 2 4 1134.98 326.944 13
4 2 5 16588.3 1163.09 24
4 2 5 17630 1185.71 13
4 2 6 6963.46 644.248 24
4 2 6 6723.44 650.598 17
4 2 6 7850.58 647.743 13
4 2 7 807.803 197.594 17
4 3 -10 62204.7 2270.99 7
4 3 -9 1872.45 384.715 7
4 3 -8 18364.2 1187.38 37
4 3 -8 18587.3 1232.63 7
4 3 -8 17601.9 1125.79 2
4 3 -7 54437.1 2402.14 37
4 3 -7 53440.4 2355.61 35
4 3 -7 55695.9 2369.02 7
4 3 -7 51796.6 2229.42 2
4 3 -6 8647.1 899.991 37
4 3 -6 9231.28 911.675 35
4 3 -6 8980.87 867.745 7
4 3 -6 9975.96 895.339 2
4 3 -5 57633 2645.01 37
4 3 -5 56575 2612.95 35
4 3 -5 65086.7 2594.71 7
4 3 -5 62209.5 2540.46 2
4 3 -4 14573.9 1229.73 37
4 3 -4 14246.6 1206.1 35
4 3 -4 15722.2 1031.91 19
4 3 -4 16507.4 1174.92 7
4 3 -4 18157.2 1242.21 2
4 3 -3 312.587 171.28 19
4 3 -2 139222 4650.99 37
4 3 -2 129398 4532.34 35
4 3 -2 134389 4403.69 19
4 3 -2 139889 4384.68 7
4 3 -2 131851 3984.33 14
4 3 -1 172083 5337.46 37
4 3 -1 162862 5230 35
4 3 -1 173877 5359.87 19
4 3 -1 160716 4747.8 14
4 3 0 205.561 176.237 37
4 3 0 200.297 148.744 35
4 3 0 744.743 300.907 19
4 3 0 159.818 160.684 14
4 3 1 18672.4 1179.82 37
4 3 1 15379.3 1074.75 35
4 3 1 18522.8 1228.89 16
4 3 1 16092.8 1103.58 14
4 3 2 104237 3617.5 24
4 3 2 110388 3883.74 21
4 3 2 116036 3869.19 16
4 3 2 117615 3768.2 14
4 3 3 14243.9 1016.69 22
4 3 3 14026.7 1085.84 16
4 3 3 14741.9 1112.34 21
4 3 3 15847.7 1108.09 13
4 3 4 19471.3 1134.87 22
4 3 4 20444.3 1260.77 21
4 3 4 20116.6 1166.62 13
4 3 5 7104.62 677.331 17
4 3 6 837.665 207.195 17
4 4 -10 312.291 150.136 7
4 4 -9 3067.47 457.962 7
4 4 -8 807.447 277.719 7
4 4 -8 721.37 256.839 37
4 4 -7 70928.1 2837.17 37
4 4 -7 63748.1 2721.23 35
4 4 -7 65211.4 2655.3 7
4 4 -6 78098.6 3154.89 37
4 4 -6 71437.5 3050 35
4 4 -6 73148.6 2916.61 7
4 4 -5 74106.6 3154.03 37
4 4 -5 69112 3081.22 35
4 4 -5 77395.1 2995.15 7
4 4 -4 20367 1510.8 37
4 4 -4 18115.1 1448.79 35
4 4 -4 20373.8 1384.41 7
4 4 -3 110920 4192.07 35
4 4 -2 165981 5446.06 37
4 4 -2 161325 5407.82 35
4 4 -1 121.116 194.188 37
4 4 -1 59.7825 125.504 35
4 4 0 18476 1284.01 37
4 4 0 17851.9 1269.14 35
4 4 0 16860.9 1193.56 16
4 4 1 117230 4060.28 21
4 4 1 115609 3905.42 16
4 4 2 20829.1 1315 16
4 4 3 64207.9 2378.17 22
4 4 3 64554.4 2525.31 21
4 4 4 11812.4 842.152 17
4 4 5 892.719 196.039 17
4 5 -8 16723.7 1107.07 37
4 5 -8 17833 1107.46 7
4 5 -7 38461 1945.17 37
4 5 -7 38628.8 1849.34 7
4 5 -6 109362 3959.64 37
4 5 -5 254.004 255.308 37
4 5 -4 30882.6 1913.88 37
4 5 -3 96598.7 3788.4 37
4 5 -2 5882.87 784.312 37
4 5 -1 24686.5 1553.49 37
4 5 -1 25269.4 1430.77 16
4 5 0 13783.5 1090.68 21
4 5 0 12041.2 950.695 16
4 5 1 93.6316 150.147 21
4 5 1 201.573 169.282 16
4 5 2 25186.4 1278.41 22
4 5 2 24732.7 1359.97 21
4 5 3 11517.5 743.484 17
4 6 -8 14941.7 929.449 37
4 6 -7 60049.4 2375.41 37
4 6 -6 393.941 238.876 37
4 6 -5 52638.5 2390.22 37
4 6 -3 16962.6 1238.95 37
4 6 -3 16331.6 1014.7 16
4 6 -2 19430 1279.81 37
4 6 -2 20532 1233.19 21
4 6 -2 20313.7 1137.75 16
4 6 -1 14535.7 999.922 21
4 6 -1 12897.3 856.852 16
4 6 0 699.856 228.15 21
4 6 1 11568.5 762.571 22
4 6 1 13739 853.454 21
4 6 2 18879.2 851.06 22
4 7 -7 2978.65 381.393 37
4 7 -6 8470.81 696.008 37
4 7 -5 24512.3 1287.82 37
4 7 -4 11619.6 670.689 21
4 7 -3 15198.3 811.234 21
4 7 -3 16006.2 966.121 37
4 7 -2 8496.31 580.527 21
4 7 -1 140.75 94.4307 21
4 7 0 13953 679.796 22
5 -10 -5 9423.53 690.674 3
5 -10 -4 109.226 152.874 3
5 -10 -3 6352.97 666.865 3
5 -10 4 17495.3 935.184 18
5 -10 5 116.056 112.552 34
5 -9 -7 743.541 204.421 3
5 -9 -6 12020.2 900.8 3
5 -9 -4 20453.1 1403.05 3
5 -9 -3 18172.9 1341.05 3
5 -9 -2 34875.5 1891.44 3
5 -9 -1 2253.27 438.751 29
5 -9 -1 1436.59 372.159 3
5 -9 0 63298.7 2561.75 29
5 -9 1 34259.8 1731.7 29
5 -9 2 977.111 290.67 29
5 -9 3 31485.7 1564.69 18
5 -9 3 30916.2 1561.31 29
5 -9 4 399.205 221.795 34
5 -9 4 209.748 176.304 18
5 -9 4 578.257 219.155 29
5 -9 5 14517.2 1015.93 34
5 -9 5 14240.9 986.769 18
5 -9 6 13797.2 920.258 34
5 -9 6 13322.4 886.619 18
5 -9 7 4641.43 455.807 34
5 -8 -8 1213 268.355 3
5 -8 -7 7274.14 727.785 3
5 -8 -6 2193.52 467.734 3
5 -8 -4 24597.7 1674.74 3
5 -8 -3 13621.2 1223.86 3
5 -8 -3 12324.7 1064.99 25
5 -8 -2 1047.04 373.853 3
5 -8 -2 939.11 326.702 25
5 -8 -1 174910 5444.1 3
5 -8 -1 174504 5595.08 25
5 -8 0 23109.4 1460.45 29
5 -8 0 20778.1 1514.75 25
5 -8 1 81846.5 3191.18 29
5 -8 1 86851.8 3438.69 25
5 -8 2 71504.5 2754.35 18
5 -8 2 80041.8 3029.04 29
5 -8 2 72719.4 3056.02 25
5 -8 3 1241.42 336.005 18
5 -8 3 1186.09 348.872 29
5 -8 3 985.329 325.967 25
5 -8 4 23096.6 1452.45 18
5 -8 4 23771.3 1436.06 29
5 -8 5 26847.1 1593.66 34
5 -8 5 29110.9 1615.66 18
5 -8 5 26745.4 1469.56 29
5 -8 6 25399.2 1431.68 34
5 -8 6 24131.1 1381.27 18
5 -8 6 22620.6 1237.15 29
5 -8 7 5899.88 590.403 34
5 -8 7 4501.6 445.105 29
5 -7 -9 4604.22 486.25 6
5 -7 -8 9919.29 850.619 3
5 -7 -7 12172.3 1055.57 3
5 -7 -6 17117 1352.57 3
5 -7 -4 21788.2 1567.29 3
5 -7 -4 18786 1259.72 25
5 -7 -3 128.448 220.211 3
5 -7 -3 309.308 197.635 25
5 -7 -2 52795.6 2466.43 3
5 -7 -2 48475.5 2316.12 25
5 -7 -1 2625.65 506.779 3
5 -7 -1 1371.66 387.788 25
5 -7 0 1928.13 333.249 15
5 -7 1 26758.9 1410.42 18
5 -7 1 27260.6 1621.77 29
5 -7 1 26013 1314.8 15
5 -7 1 30012.8 1741.66 25
5 -7 2 2162.69 428.709 18
5 -7 2 2094.88 474.525 29
5 -7 2 1809.54 424.801 25
5 -7 3 81956.7 3179.41 18
5 -7 3 86471.9 3298.69 29
5 -7 3 85037.3 3202.15 25
5 -7 4 43640 2142.39 18
5 -7 4 40094.9 2067.85 29
5 -7 5 27826.7 1641.06 18
5 -7 5 25766.9 1552.06 29
5 -7 6 8246.7 718.537 11
5 -7 6 9281.07 902.615 34
5 -7 6 8838.5 832.433 29
5 -7 7 34747.1 1515.12 11
5 -7 7 39909.6 1691.92 29
5 -7 8 3422.53 355.404 11
5 -7 8 3379.46 413.518 34
5 -7 8 4066.13 403.179 29
5 -6 -10 2714.17 282.62 2
5 -6 -10 3793.1 419.563 6
5 -6 -9 14253.8 977.509 3
5 -6 -8 13264.4 1077.52 3
5 -6 -7 3061.83 576.883 3
5 -6 -6 84559.4 3454.47 3
5 -6 -5 25784.6 1391.48 25
5 -6 -4 2102.82 498.538 3
5 -6 -4 1457.66 332.012 25
5 -6 -3 34400 1925.73 3
5 -6 -3 35336.3 1765.42 25
5 -6 -2 21475.8 1431.93 3
5 -6 -2 23255.5 1399.83 25
5 -6 -1 24123.4 1462.08 3
5 -6 -1 29433.6 1602.86 25
5 -6 1 60557.5 2293.93 18
5 -6 1 57884.7 2492.59 29
5 -6 1 55739.6 2192.88 15
5 -6 1 58624.4 2497.31 25
5 -6 2 53935.6 2287.1 18
5 -6 2 57337.1 2490.85 29
5 -6 2 50765.3 2120.66 15
5 -6 2 54899.8 2367.71 25
5 -6 3 111546 3797.46 18
5 -6 3 107954 3868.01 29
5 -6 3 102283 3600.66 25
5 -6 4 29413.3 1714.61 18
5 -6 4 31367.5 1776.42 29
5 -6 5 1149.39 301.889 12
5 -6 5 1860.21 391.3 11
5 -6 5 1535.35 414.273 18
5 -6 5 444.24 290.66 31
5 -6 5 1359.59 383.094 29
5 -6 6 57793.4 2386.41 11
5 -6 6 59362.8 2550.81 34
5 -6 6 58803.2 2521.86 29
5 -6 7 4474 557.246 11
5 -6 7 4312.01 562.272 34
5 -6 7 4571.67 580.309 29
5 -6 8 7229.35 597.027 11
5 -6 8 6050.21 556.697 34
5 -6 8 6805.62 594.572 29
5 -5 -11 2127.9 264.111 6
5 -5 -10 14395.4 844.008 2
5 -5 -10 15455.4 990.801 6
5 -5 -9 4103.25 570.712 3
5 -5 -8 1279.25 370.286 3
5 -5 -7 72266.5 3050.6 3
5 -5 -6 37053.7 2041.55 3
5 -5 -5 35619.3 1653.33 25
5 -5 -4 59641.6 2601.21 3
5 -5 -4 59105.4 2321.71 25
5 -5 -3 19889 1346.6 3
5 -5 -3 20855.3 1236.69 25
5 -5 -2 100841 3520.43 3
5 -5 -2 102420 3396.97 25
5 -5 -1 64106.3 2497.54 25
5 -5 0 94127.3 3255.44 25
5 -5 1 2447.61 397.477 18
5 -5 1 1958.26 359.876 15
5 -5 1 2075.87 422.211 29
5 -5 1 2604.76 444.93 25
5 -5 2 234090 6533.46 18
5 -5 2 235858 6804.22 29
5 -5 2 230190 6453.18 15
5 -5 2 241617 6580.96 25
5 -5 3 16655.2 1082.34 11
5 -5 3 15757.2 1035.84 10
5 -5 3 16582.9 1196.54 18
5 -5 3 15393.5 1220.41 29
5 -5 3 15455.7 987.42 14
5 -5 3 14788.5 1037.82 25
5 -5 4 234.906 180.322 11
5 -5 4 507.87 216.936 10
5 -5 4 424.966 212.581 20
5 -5 4 273.121 198.846 18
5 -5 4 413.919 237.884 29
5 -5 5 43607.6 2052.03 12
5 -5 5 42374.8 2059.46 11
5 -5 5 41701.8 2028.73 10
5 -5 5 41363.7 1949.82 31
5 -5 5 48889.4 2319.98 29
5 -5 5 43419.3 1972.93 13
5 -5 6 20725.7 1339.68 11
5 -5 6 21140.6 1381.23 34
5 -5 6 18079.8 1229.18 31
5 -5 6 21841.2 1440.52 29
5 -5 6 18263.8 1192.41 13
5 -5 6 20495.2 1284.33 12
5 -5 7 44182.6 1958.66 11
5 -5 7 41872 1878.74 34
5 -5 7 39323 1798.27 31
5 -5 7 39506.5 1782.1 12
5 -5 8 13288.1 869.941 11
5 -5 8 12491.2 817.094 31
5 -5 8 14626.4 918.011 29
5 -4 -11 12214.7 779.969 6
5 -4 -10 6865.57 628.168 2
5 -4 -10 7451.75 735.255 6
5 -4 -9 5678.89 704.314 3
5 -4 -9 4138.39 623.614 6
5 -4 -8 29656.2 1745.66 3
5 -4 -7 23642.5 1549.87 3
5 -4 -6 6623.85 803.849 3
5 -4 -5 3135.18 531.283 3
5 -4 -5 2914.79 423.513 25
5 -4 -4 10854.3 956.437 3
5 -4 -4 12364 874.213 25
5 -4 -3 62242.1 2531.67 3
5 -4 -3 62975 2344.25 25
5 -4 -2 103015 3331.35 25
5 -4 0 2426.13 442.607 29
5 -4 0 3755.64 493.102 25
5 -4 1 325849 8599.19 15
5 -4 1 335651 8346.27 14
5 -4 1 343587 8656.48 25
5 -4 2 71642.5 2476.74 11
5 -4 2 66356.8 2283.16 31
5 -4 2 69600.4 2618.79 15
5 -4 2 66721 2397.41 14
5 -4 2 65698.3 2507.58 25
5 -4 3 169.592 170.636 11
5 -4 3 490.708 235.818 20
5 -4 3 587.038 284.851 31
5 -4 3 512.162 197.053 14
5 -4 4 58754.7 2428.5 11
5 -4 4 56460.2 2360.52 10
5 -4 4 54338.6 2241.69 20
5 -4 4 50797.5 2211.5 31
5 -4 5 41112.2 2060.75 12
5 -4 5 44110.1 2108.87 11
5 -4 5 40641.4 1974.25 31
5 -4 5 44027.9 2228.74 29
5 -4 5 40582.4 1991.84 13
5 -4 6 47630.2 2178.36 11
5 -4 6 43154.1 2015.87 34
5 -4 6 39471.5 1961.25 31
5 -4 6 48867.5 2291.94 29
5 -4 6 42049.6 2018.66 13
5 -4 6 42758.9 2060.62 12
5 -4 7 25876.1 1445.2 11
5 -4 7 23617.5 1355.47 31
5 -4 7 28068.1 1541.23 29
5 -4 7 25444.5 1399.98 13
5 -4 7 25649.2 1407.29 12
5 -4 8 1431.89 306.98 29
5 -4 8 1828.33 316.859 13
5 -3 -11 5392.49 559.632 6
5 -3 -10 294.933 161.134 2
5 -3 -10 47.8371 142.054 6
5 -3 -9 7053.31 803.048 6
5 -3 -8 33641.7 1861.86 3
5 -3 -7 6018.86 753.987 3
5 -3 -6 48483.8 2264.83 3
5 -3 -5 65982 2679.44 3
5 -3 -4 18904.9 1233.7 3
5 -3 -4 16289.6 1018.83 25
5 -3 -3 351090 8877.7 25
5 -3 -2 96658.1 3135.94 25
5 -3 0 86104 3174.85 29
5 -3 0 100626 3148.73 25
5 -3 1 108863 3243.42 11
5 -3 1 101210 3434.24 20
5 -3 1 100959 3037.57 31
5 -3 1 102474 3594.26 29
5 -3 1 107448 3252.39 14
5 -3 2 35176.7 1610.83 11
5 -3 2 33823.2 1698.17 20
5 -3 2 33040.2 1484.47 31
5 -3 2 33414.7 1814.87 29
5 -3 2 34086.9 1583.05 14
5 -3 3 26279 1458.6 11
5 -3 3 26624.5 1491.24 20
5 -3 3 24896.6 1370.85 31
5 -3 3 28467.1 1696.45 29
5 -3 3 25817.9 1431.46 14
5 -3 4 17734 1248.07 11
5 -3 4 19527.8 1219.59 20
5 -3 4 17928.1 1074.27 17
5 -3 4 17300.2 1188.65 31
5 -3 4 18655.4 1388.74 29
5 -3 4 18262 1229.35 14
5 -3 5 28656.3 1652.31 11
5 -3 5 25712.5 1355.06 17
5 -3 5 27392.2 1564.93 31
5 -3 5 27784.2 1727.29 29
5 -3 5 27348.5 1612.56 13
5 -3 6 104145 3624.79 11
5 -3 6 95390.9 3456.64 31
5 -3 6 106534 3652.07 13
5 -3 6 96552.9 3570.66 12
5 -3 7 15521.2 1060.87 31
5 -3 7 13378.7 1005.37 13
5 -3 7 14693 1042.23 12
5 -3 8 268.393 149.135 13
5 -2 -12 7628.56 495.513 6
5 -2 -11 37.3677 150.204 6
5 -2 -10 305.322 179.229 2
5 -2 -10 199.126 181.084 6
5 -2 -9 17858.3 1224.34 2
5 -2 -9 20913.3 1409.89 6
5 -2 -8 7923.14 868.923 6
5 -2 -7 78056.8 3086.05 6
5 -2 -5 6966.36 747.678 6
5 -2 -4 360692 9332.8 6
5 -2 -1 25967.4 1310.68 20
5 -2 -1 21240.1 1243.55 29
5 -2 0 135650 4083 15
5 -2 0 140115 3899.01 14
5 -2 1 137045 4357.21 20
5 -2 1 140110 3998.72 31
5 -2 1 146057 3971.81 16
5 -2 1 139524 4464.32 29
5 -2 1 138932 4370.45 15
5 -2 1 143010 4162.89 14
5 -2 2 90879.3 3302.92 20
5 -2 2 93484.1 3069.91 31
5 -2 2 97598.5 3013.53 16
5 -2 2 94232.8 3402.19 15
5 -2 2 91093.4 3426.46 29
5 -2 2 98070.7 3226.18 14
5 -2 3 12698.1 1009.48 11
5 -2 3 12719.9 1024.6 20
5 -2 3 13426.8 1025.34 19
5 -2 3 13062.3 986.981 31
5 -2 3 13456.5 915.15 16
5 -2 3 14471.7 1165.86 29
5 -2 3 11585.4 960.621 14
5 -2 3 12803.9 1055.42 24
5 -2 4 9842.72 975.193 12
5 -2 4 9618.45 900.167 11
5 -2 4 8094.19 795.032 20
5 -2 4 7622.32 743.547 19
5 -2 4 9821.46 886.161 31
5 -2 4 9300.01 968.592 29
5 -2 4 9864.82 955.837 24
5 -2 5 177578 5168.36 17
5 -2 5 165810 5244.27 31
5 -2 5 176691 5567.19 29
5 -2 5 186203 5614.26 12
5 -2 6 15464.9 1040.88 17
5 -2 6 17498.1 1239.29 29
5 -2 6 17019.7 1240.29 12
5 -2 7 283.562 196.407 12
5 -2 7 79.8683 145.232 29
5 -1 -12 360.652 145.914 6
5 -1 -11 3643.16 496.217 6
5 -1 -10 9777.96 799.457 2
5 -1 -10 9816.58 905.772 6
5 -1 -9 1529.01 370.033 2
5 -1 -9 1831.91 432.335 6
5 -1 -8 151879 4792.6 2
5 -1 -8 154734 4982.67 6
5 -1 -7 25023.1 1493.23 2
5 -1 -7 26508.2 1594.69 6
5 -1 -6 2821.94 484.53 2
5 -1 -6 2989.99 535.728 6
5 -1 -5 135599 4429.74 2
5 -1 -5 150351 4384.55 35
5 -1 -5 143761 4537.2 6
5 -1 -4 153480 4553.75 35
5 -1 -4 148263 4618.92 6
5 -1 -3 2354.96 392.256 35
5 -1 -3 1553.16 351.291 2
5 -1 -2 40521.8 1734.4 20
5 -1 -1 123846 3882.13 20
5 -1 -1 128609 3865.43 35
5 -1 -1 122491 3837.79 15
5 -1 0 33546.9 1535.94 35
5 -1 0 29322.4 1524.54 29
5 -1 0 34073.9 1654.9 15
5 -1 0 33986.7 1531.52 14
5 -1 1 139751 4393.07 20
5 -1 1 139732 4010.97 16
5 -1 1 130305 4333.63 15
5 -1 1 131936 4268.56 29
5 -1 1 139477 4171.35 14
5 -1 2 1673.4 375.088 24
5 -1 2 2426 473.133 20
5 -1 2 2659.68 496.149 19
5 -1 2 1861.08 344.21 16
5 -1 2 2342.26 458.711 29
5 -1 2 2278.11 410.868 14
5 -1 3 51.6414 140.099 24
5 -1 3 567.672 250.262 20
5 -1 3 411.896 225.078 19
5 -1 3 331.975 174.338 16
5 -1 3 435.789 238.124 29
5 -1 3 441.196 222.393 14
5 -1 4 24881.8 1570.83 24
5 -1 4 24478.3 1604.34 12
5 -1 4 24947.4 1458.25 19
5 -1 4 29988.3 1633.94 31
5 -1 4 26796 1625.39 29
5 -1 4 25349.6 1556.02 14
5 -1 5 48083.1 2126.92 17
5 -1 5 50192.2 2271.41 29
5 -1 5 50531.3 2334.27 13
5 -1 5 51341.2 2376.14 12
5 -1 5 45072.4 2195.81 24
5 -1 6 1286.79 351.968 12
5 -1 6 1084.03 278.384 17
5 -1 6 649.327 252.482 29
5 -1 6 1000.64 327.352 13
5 -1 7 24503.2 1274.91 13
5 0 -11 3336.03 466.171 6
5 0 -10 826.259 306.62 6
5 0 -9 66464.9 2598.18 2
5 0 -9 66854.1 2777.9 6
5 0 -8 22023.1 1382.84 2
5 0 -8 21622.5 1446.92 6
5 0 -7 3735.71 566.946 2
5 0 -7 3399.22 497.603 35
5 0 -7 3056.7 538.549 6
5 0 -6 1810.13 378.921 35
5 0 -6 1257.66 343.574 2
5 0 -6 1725.29 412.086 6
5 0 -5 105387 3611.9 2
5 0 -5 106711 3618.1 35
5 0 -5 100154 3612.07 6
5 0 -4 939.901 311.976 37
5 0 -4 747.475 222.379 20
5 0 -4 705.229 273.78 35
5 0 -4 699.29 265.538 6
5 0 -3 100477 3420.36 2
5 0 -3 96785 3436.23 37
5 0 -3 98647.9 3216.79 20
5 0 -3 99291.7 3407.58 35
5 0 -3 95896.9 3356.18 6
5 0 -2 9835.73 875.168 37
5 0 -2 10899.5 864.162 20
5 0 -2 9786.54 778.414 15
5 0 -2 9476.1 839.342 35
5 0 -2 9844.8 855.81 2
5 0 -1 33211.2 1664.18 20
5 0 -1 34314.3 1648.79 35
5 0 -1 29666 1418.55 7
5 0 -1 33050.9 1598 15
5 0 -1 30994.4 1578.95 2
5 0 0 271332 7107.72 35
5 0 0 266962 7267.89 15
5 0 0 282063 7120.11 14
5 0 1 75304.8 3042.19 20
5 0 1 79505.3 2732.64 35
5 0 1 77859 3144.34 19
5 0 1 79881.1 2799.54 16
5 0 1 83122.8 2939.32 14
5 0 2 362.748 212.917 24
5 0 2 464.72 253.906 19
5 0 2 128.104 171.742 16
5 0 2 130.977 175.589 29
5 0 2 524.12 251.777 14
5 0 3 79807.9 3203.74 12
5 0 3 77425.1 3017.49 24
5 0 3 78987.4 2764.34 21
5 0 3 76471.2 3117.14 19
5 0 3 75958.4 2895.07 16
5 0 3 80078.3 2957.3 29
5 0 3 86949.6 3158.44 14
5 0 4 185717 5621.93 24
5 0 4 181379 5452.31 29
5 0 4 195597 5851.65 12
5 0 5 500.703 258.048 12
5 0 5 876.199 296.258 24
5 0 5 928.562 279.005 17
5 0 5 953.713 304.674 13
5 0 6 22644.8 1214.96 17
5 0 6 23074.4 1297.66 13
5 0 7 7258.57 528.53 17
5 0 7 7858.92 577.895 13
5 1 -10 34540.3 1739.12 6
5 1 -9 86755.5 3236.79 6
5 1 -9 83348.2 3002.21 2
5 1 -8 192.376 184.336 2
5 1 -8 55.1086 176.722 6
5 1 -7 9668.1 888.672 35
5 1 -7 11211.8 1007.03 6
5 1 -7 10006 919.198 2
5 1 -6 79136.9 3114.09 37
5 1 -6 74275.4 2994.85 35
5 1 -6 82719.2 3143.24 6
5 1 -6 75721 2992.44 2
5 1 -5 168.94 152.637 37
5 1 -5 54.3887 147.422 35
5 1 -5 202.461 184.052 2
5 1 -4 59606 2626.24 37
5 1 -4 60613.4 2601.86 35
5 1 -4 60177.7 2544.53 2
5 1 -3 9923.4 863.342 7
5 1 -3 8483.77 833.897 2
5 1 -2 1014.07 323.734 37
5 1 -2 483.395 248.961 2
5 1 -2 722.303 265.665 35
5 1 -2 545.277 227.783 7
5 1 -1 259854 7328.75 37
5 1 -1 262467 7289.26 35
5 1 -1 278229 7546.58 19
5 1 -1 252352 6961.11 7
5 1 -1 263565 7052.08 14
5 1 0 116296 3836.38 35
5 1 0 118799 4202.17 19
5 1 0 117085 3815.69 14
5 1 1 8507.99 744.814 35
5 1 1 9245.44 827.163 16
5 1 1 8344.88 813.84 14
5 1 2 65753.7 2588.16 21
5 1 2 66996.8 2955.98 19
5 1 2 64919.7 2623.13 16
5 1 2 66520.8 2707.74 14
5 1 2 70699.8 2812.39 12
5 1 3 41774.6 1969.01 16
5 1 3 38615.4 1966.37 14
5 1 3 40225.2 1850.26 21
5 1 3 44673.6 2097.9 12
5 1 4 10695 951.553 13
5 1 4 12765.1 996.851 12
5 1 5 14881.9 1003.16 17
5 1 5 14809.9 1027.22 13
5 1 6 10755.7 723.375 17
5 1 6 9164.41 652.326 13
5 2 -11 10540.3 711.61 7
5 2 -10 41435.4 1814.24 7
5 2 -9 78.0649 156.903 2
5 2 -8 8289.71 794.45 2
5 2 -7 13075 1103.52 37
5 2 -7 12137.4 1050.57 35
5 2 -7 12931 1041.57 2
5 2 -6 779.337 348.59 37
5 2 -6 103.616 208.496 2
5 2 -6 1115.27 341.325 35
5 2 -5 95180.4 3721.58 37
5 2 -5 92989.5 3650.7 35
5 2 -5 103998 3626.45 2
5 2 -4 34867.5 2009.78 37
5 2 -4 33717.2 1939.65 35
5 2 -4 34176.6 1710.58 19
5 2 -4 37597.1 1897.78 7
5 2 -4 33273.7 1830.54 2
5 2 -3 1738.67 380.993 19
5 2 -3 247.768 208.45 7
5 2 -2 97313.7 3714.57 37
5 2 -2 97752.4 3669.73 35
5 2 -2 102924 3675.63 19
5 2 -2 99063.7 3441.91 7
5 2 -2 93578.2 3263.01 14
5 2 -1 131699 4416.02 37
5 2 -1 129151 4366.96 35
5 2 -1 135453 4564.51 19
5 2 -1 124191 4060.71 14
5 2 0 2410.91 440.537 35
5 2 0 2237.84 516.758 19
5 2 0 2560.91 452.044 16
5 2 0 2403.29 432.508 14
5 2 1 24880.3 1461.3 14
5 2 2 43674.1 2025.59 21
5 2 2 43719.6 2034.63 14
5 2 3 3752.8 512.007 21
5 2 3 4045.8 554.838 13
5 2 4 28744.1 1423.59 13
5 2 5 4084.74 392.751 13
5 3 -11 3286.54 345.905 7
5 3 -10 14160.5 913.089 7
5 3 -9 16457 1090.82 7
5 3 -8 20792.2 1320.19 7
5 3 -7 3589.13 597.516 37
5 3 -7 2949.46 528.092 35
5 3 -7 3166.1 534.381 7
5 3 -7 4601.62 611.394 2
5 3 -6 126282 4546.35 37
5 3 -6 126087 4524.52 35
5 3 -6 139496 4455.01 7
5 3 -6 135500 4381.65 2
5 3 -5 47363.1 2422.49 37
5 3 -5 43192.4 2307.45 35
5 3 -5 47786.8 2253.12 7
5 3 -4 2930.05 616.832 37
5 3 -4 3089.18 602.574 35
5 3 -4 3254.68 511.436 19
5 3 -4 4056.39 605.226 7
5 3 -3 40485.9 2265.33 37
5 3 -3 38554.1 2194.96 35
5 3 -3 43158.5 2083.41 19
5 3 -3 45216.6 2134.6 7
5 3 -3 43917.4 1887.59 14
5 3 -2 238214 7030.39 37
5 3 -2 238109 6836.56 19
5 3 -2 234133 6364.17 14
5 3 -1 12777.7 1106.08 37
5 3 -1 12858.9 1155.26 19
5 3 -1 11538.6 1055.33 35
5 3 -1 13963 993.82 14
5 3 0 64964.5 2640.2 16
5 3 0 66767.3 2526.22 14
5 3 1 29460.2 1638.58 21
5 3 1 30468.2 1631.13 16
5 3 1 30156.7 1517.35 14
5 3 2 1951.76 385.261 21
5 3 2 1915.37 386.652 16
5 3 2 2167.24 366.351 13
5 3 3 39642.7 1701.3 21
5 3 4 2870.24 382.086 17
5 4 -10 15458.3 849.381 7
5 4 -9 15936.7 991.147 7
5 4 -8 418.79 215.533 7
5 4 -7 53777 2380.69 37
5 4 -7 51434 2248.59 7
5 4 -6 44856 2269.42 37
5 4 -6 46466.8 2152.23 7
5 4 -5 898.341 339.862 37
5 4 -5 1360.99 370.726 7
5 4 -3 58939 2728.44 37
5 4 -2 1067.99 360.311 37
5 4 -1 24253.8 1485.38 37
5 4 -1 26588.4 1469.34 16
5 4 0 7974.85 755.629 16
5 4 1 2052.03 375.185 16
5 4 2 69084.8 2416.5 21
5 4 3 18314.1 920.777 17
5 5 -7 82625.1 2955.1 37
5 5 -6 593.602 275.042 37
5 5 -5 13803.8 1110.04 37
5 5 -3 4014.56 590.035 37
5 5 -3 3090.74 457.06 16
5 5 -2 16555.3 1127.73 37
5 5 -2 16202.9 1088.49 21
5 5 -2 16591.1 1035.25 16
5 5 -1 9098.68 773.913 21
5 5 -1 8897.38 715.331 16
5 5 0 270.962 159.091 21
5 5 0 264.612 142.653 16
5 5 1 39250.4 1535.82 21
5 6 -6 16391.2 991.298 37
5 6 -5 6285.68 614.84 37
5 6 -5 5538.81 481.075 21
5 6 -5 5508.96 461.977 16
5 6 -4 1982.06 352.811 37
5 6 -4 1573.28 269.993 21
5 6 -4 1369.28 242.007 16
5 6 -3 29929 1270.05 21
5 6 -3 28272.8 1159.5 16
5 6 -2 16855.1 865.483 21
5 6 -2 14046.1 718.985 16
5 6 -1 437.843 138.739 21
6 -10 -5 3554.53 410.38 3
6 -10 -4 1185.23 239.248 29
6 -10 -3 13722.2 860.55 29
6 -10 -2 18874.8 1069.55 29
6 -10 -1 5379.88 570.539 29
6 -10 0 16582.3 1010.26 29
6 -10 1 194.75 136.337 29
6 -10 2 2597.88 361.334 29
6 -10 3 18956.5 984.682 34
6 -10 4 97.4948 110.548 34
6 -10 5 13832 711.607 34
6 -9 -7 3339.91 399.922 3
6 -9 -7 2961.21 346.503 6
6 -9 -5 8761 842.222 3
6 -9 -4 60552.5 2572.52 3
6 -9 -3 22526.7 1443.83 3
6 -9 -1 56747.5 2426.68 29
6 -9 0 1592.71 397.109 29
6 -9 1 4068.99 585.123 29
6 -9 2 19882.7 1263.78 29
6 -9 3 7755.29 730.601 29
6 -9 4 20749.3 1236.21 34
6 -9 4 21143.9 1164.31 29
6 -9 5 17381.4 1033.63 34
6 -9 5 16799 909.593 29
6 -9 6 3467.29 392.211 34
6 -8 -8 6880.48 588.054 6
6 -8 -7 8581.42 793.681 3
6 -8 -5 25482.6 1657.47 3
6 -8 -4 128.501 190.758 3
6 -8 -3 251.267 263.781 3
6 -8 -2 23041.2 1515.22 3
6 -8 -2 21896.3 1527.41 25
6 -8 -1 5186.77 714.508 29
6 -8 -1 5119.31 748.505 25
6 -8 0 50567.3 2380.81 29
6 -8 1 16655.9 1272.2 29
6 -8 1 18162.2 1384.15 25
6 -8 2 26504 1612.1 29
6 -8 3 46622.4 2183.47 29
6 -8 4 33453.5 1715.27 29
6 -8 5 8138.04 780.287 34
6 -8 5 8730.47 754.907 29
6 -8 6 518.269 217.849 34
6 -8 6 464.115 182.986 29
6 -7 -9 11293.2 773.495 6
6 -7 -8 8166.34 771.399 3
6 -7 -7 55.3519 189.745 3
6 -7 -5 2511.54 554.633 3
6 -7 -4 273.559 274.958 3
6 -7 -4 258.029 165.575 25
6 -7 -3 41878.7 2264.84 3
6 -7 -3 42992.7 2143.65 25
6 -7 -2 18422.7 1375.97 3
6 -7 -2 16911.7 1307.3 25
6 -7 -1 72288 2825.19 3
6 -7 -1 68426.9 2977.32 25
6 -7 0 33137.4 1880.15 29
6 -7 0 30671.4 1555.8 15
6 -7 0 32240.7 1889.96 25
6 -7 1 25880.6 1655.94 29
6 -7 1 24040.6 1372.53 15
6 -7 1 29101.1 1748.09 25
6 -7 2 7715.13 874.812 29
6 -7 2 7053.38 705.911 15
6 -7 2 6653.59 804.916 25
6 -7 3 77044.1 3131.19 29
6 -7 4 2803.75 450.872 20
6 -7 4 2967.29 526.906 29
6 -7 5 1926.23 408.838 29
6 -7 6 30599.2 1532.51 34
6 -7 6 31898.4 1515.25 29
6 -7 7 1388.32 260.717 34
6 -7 7 1455.24 259.922 29
6 -6 -10 12813.9 693.935 2
6 -6 -10 15649.4 867.575 6
6 -6 -9 4643.07 579.763 6
6 -6 -8 2723.21 503.351 3
6 -6 -7 34077.6 1953.54 3
6 -6 -5 19351.8 1495.32 3
6 -6 -5 19437.6 1246.4 25
6 -6 -4 9620.31 1031.42 3
6 -6 -4 8900.17 868.433 25
6 -6 -3 28587.5 1803.73 3
6 -6 -3 29827.2 1691.98 25
6 -6 -2 25803.7 1637.4 3
6 -6 -2 28644 1670.45 25
6 -6 -1 120542 4013.95 3
6 -6 0 14135 1180.32 29
6 -6 0 12452.4 980.358 15
6 -6 0 14121.9 1160.86 25
6 -6 1 1775.29 388.576 15
6 -6 1 2249.68 490.694 29
6 -6 1 1952.34 447.688 25
6 -6 2 96914.3 3677.97 29
6 -6 2 93213.4 3343.98 15
6 -6 2 95910.2 3499.09 25
6 -6 3 11095.4 975 20
6 -6 3 10924.5 1042.88 29
6 -6 4 22417.4 1285.45 11
6 -6 4 23742.3 1338.82 20
6 -6 4 23937.3 1560.48 29
6 -6 5 23516.3 1432.46 29
6 -6 5 18830.5 1177.98 12
6 -6 6 2616.44 431.432 34
6 -6 6 2986 469.322 29
6 -6 7 25021.6 1200.6 29
6 -5 -11 10062.5 608.212 6
6 -5 -10 2533.15 357.983 2
6 -5 -10 2619.83 415.21 6
6 -5 -9 48.9432 156.94 6
6 -5 -8 3034.44 563.416 3
6 -5 -7 633.504 334.956 3
6 -5 -6 34467.4 2019.69 3
6 -5 -5 8091.84 942.861 3
6 -5 -5 8135.35 783.671 25
6 -5 -4 27590.2 1749.51 3
6 -5 -4 27443.1 1540.14 25
6 -5 -3 35921.9 1968.81 3
6 -5 -3 30915 1703.87 6
6 -5 -3 33698.8 1760.99 25
6 -5 -2 258643 7382.17 3
6 -5 -2 262787 7265.36 25
6 -5 -1 33034.6 1838.98 29
6 -5 0 3648.01 615.873 29
6 -5 0 3291.3 509.665 15
6 -5 0 2999.56 397.175 14
6 -5 0 3187.27 539.441 25
6 -5 1 109581 3764.3 15
6 -5 1 109631 3435.75 14
6 -5 1 118426 3956.65 25
6 -5 2 20509.2 1396.84 20
6 -5 2 20766.9 1346.34 15
6 -5 2 20160.3 1169.96 14
6 -5 3 41679.1 2024.77 20
6 -5 4 19114.8 1244.12 11
6 -5 4 18525 1185.38 20
6 -5 4 18139.2 1363.43 29
6 -5 4 20889.9 1260.43 13
6 -5 5 1435.67 360.213 12
6 -5 5 814.939 309.793 29
6 -5 5 1138.13 292.453 13
6 -5 6 28393 1517.64 29
6 -5 6 26453 1379.77 12
6 -5 7 19086.1 1049.29 29
6 -5 8 6199.78 427.807 29
6 -4 -11 5362.44 512.465 6
6 -4 -10 307.671 194.378 2
6 -4 -10 127.828 154.983 6
6 -4 -9 3531.87 529.521 2
6 -4 -9 2562.5 492.977 6
6 -4 -8 20019.1 1419.41 6
6 -4 -7 25145.9 1660.52 3
6 -4 -6 67965.5 3026.26 3
6 -4 -6 76132 3109.59 6
6 -4 -5 26203.7 1644.75 6
6 -4 -4 417.535 270.573 3
6 -4 -4 264.236 192.27 6
6 -4 -3 133237 4335.16 6
6 -4 -3 142348 4398.93 25
6 -4 -2 29924.3 1637.17 2
6 -4 -2 30858.7 1641.51 25
6 -4 -1 3569.14 505.167 2
6 -4 -1 4879.72 673.742 29
6 -4 -1 4826.54 514.223 14
6 -4 0 47836.9 2326.97 29
6 -4 0 50044.1 1962.69 14
6 -4 1 12722.1 1070.66 20
6 -4 1 12293.8 1107.36 29
6 -4 1 13811.3 949.549 14
6 -4 2 66202.2 2741.79 20
6 -4 2 63022.3 2707.66 15
6 -4 2 66837.9 2935.4 29
6 -4 2 66505 2533.52 14
6 -4 3 63244 2651.94 20
6 -4 3 65067.1 2425.05 31
6 -4 3 67697 2945.23 29
6 -4 3 68697 2635.01 14
6 -4 4 20559 1259.55 20
6 -4 4 21724 1294.9 31
6 -4 4 22613.6 1522.16 29
6 -4 4 20392.3 1319.9 13
6 -4 5 17968.2 1153.45 31
6 -4 5 17793.6 1273.97 29
6 -4 5 15843.6 1121.6 13
6 -4 5 16523.2 1182.43 12
6 -4 6 49093.7 2024.34 13
6 -4 6 52955.1 2114.28 12
6 -4 7 6776.39 550.862 13
6 -4 7 7998.94 610.801 12
6 -3 -11 2200.03 359.237 6
6 -3 -10 4297.93 526.278 2
6 -3 -10 3892.75 554.871 6
6 -3 -9 5943.73 699.793 2
6 -3 -9 5654.39 719.317 6
6 -3 -8 6286.94 757.667 2
6 -3 -8 5698.33 763.509 6
6 -3 -6 13722.1 1166.25 6
6 -3 -5 1782.45 428.76 6
6 -3 -4 100450 3609.53 2
6 -3 -4 100126 3259.49 20
6 -3 -4 97820.4 3551.32 6
6 -3 -3 65532.9 2674.84 2
6 -3 -3 66758.4 2517.59 20
6 -3 -3 64159.7 2579.8 6
6 -3 -2 54556.4 2295.52 2
6 -3 -2 50582.5 2183.61 20
6 -3 -2 48798.7 2234.54 29
6 -3 -1 31096.6 1595.18 2
6 -3 -1 33751.9 1761.13 20
6 -3 -1 32395.6 1774.19 29
6 -3 0 24140.2 1543.1 29
6 -3 0 23845.5 1450.6 15
6 -3 0 24754.3 1320.55 14
6 -3 1 48618 2288.82 20
6 -3 1 47723.7 2339.84 29
6 -3 1 52785.8 2350.4 15
6 -3 1 52113.7 2140.54 14
6 -3 2 146915 4806.13 20
6 -3 2 147522 4948.27 29
6 -3 2 153952 4651.57 14
6 -3 3 10995.7 982.537 20
6 -3 3 10988.4 933.826 19
6 -3 3 14223.3 1052.91 31
6 -3 3 13284.9 1165.56 29
6 -3 3 12998.1 1035.66 14
6 -3 4 9262.36 931.614 12
6 -3 4 9413.05 837.207 20
6 -3 4 9345.11 950.792 29
6 -3 5 89950.3 3245.45 29
6 -3 5 84296.8 3128.33 13
6 -3 5 86052.6 3202.82 12
6 -3 6 8707.71 749.13 29
6 -3 6 7851.36 718.208 13
6 -3 7 912.91 214.531 29
6 -3 7 948.901 219.197 13
6 -2 -12 1256.96 208.956 6
6 -2 -11 13225.9 900.264 6
6 -2 -10 3809.67 499.277 2
6 -2 -10 4313 593.221 6
6 -2 -9 5865.87 698.686 2
6 -2 -9 5314.89 715.377 6
6 -2 -8 94911.8 3485.65 2
6 -2 -8 93337.1 3581.13 6
6 -2 -7 21158.6 1426.31 2
6 -2 -6 554.724 260.785 2
6 -2 -6 813.995 315.467 6
6 -2 -5 44497.1 2199.08 6
6 -2 -4 74145.4 2982.78 2
6 -2 -4 78274.6 2730.42 20
6 -2 -4 77210.5 2997.04 6
6 -2 -3 32883.8 1752.55 2
6 -2 -3 33213.5 1616.53 20
6 -2 -3 29415.3 1543.46 29
6 -2 -3 30010 1615.78 6
6 -2 -2 19985.9 1304.36 2
6 -2 -2 21050.7 1286.5 20
6 -2 -2 21163.1 1278.69 29
6 -2 -2 18718.9 1145.76 6
6 -2 -1 2026.9 428.012 20
6 -2 -1 1773.26 371.536 2
6 -2 -1 1919.65 417.633 15
6 -2 -1 1860.96 393.055 29
6 -2 -1 2315.58 397.492 14
6 -2 0 46629.9 1828.09 16
6 -2 0 49488.7 2220.74 29
6 -2 0 45190 2175.67 15
6 -2 0 47747.4 2032.63 14
6 -2 1 36801.7 1968.39 20
6 -2 1 39150.6 1672.99 16
6 -2 1 42005.1 2100.41 15
6 -2 1 39768.3 2009.61 29
6 -2 1 39298 1873.82 14
6 -2 2 23216 1495.11 20
6 -2 2 23823 1509.09 19
6 -2 2 20621.7 1187.01 16
6 -2 2 21994.9 1465.8 29
6 -2 3 1400.78 373.878 20
6 -2 3 1960.29 413.209 19
6 -2 3 1827.39 426.116 29
6 -2 4 122241 4077.73 12
6 -2 4 110602 3563.03 17
6 -2 4 112405 3885.91 29
6 -2 5 17330.5 1135.1 29
6 -2 5 18466.3 1222.16 12
6 -2 6 12538.4 865.814 12
6 -1 -11 141.27 135.39 6
6 -1 -10 1437.25 316.326 2
6 -1 -10 1985.54 410.757 6
6 -1 -9 24725.9 1447.76 2
6 -1 -9 22269 1477.84 6
6 -1 -8 24271.5 1517.36 2
6 -1 -8 25347.1 1609.27 6
6 -1 -7 604.475 274.919 2
6 -1 -6 30268.9 1729.99 2
6 -1 -6 27608.3 1697.87 6
6 -1 -5 28871.4 1420.69 20
6 -1 -5 28035.7 1644.88 35
6 -1 -5 28528.4 1707.98 6
6 -1 -4 65718.4 2717.17 2
6 -1 -4 61319 2401.12 20
6 -1 -4 62442.9 2647.49 35
6 -1 -4 63035.2 2644.07 6
6 -1 -3 83917.4 3216.99 2
6 -1 -3 87446.4 3087.55 20
6 -1 -3 86193.1 3233.11 35
6 -1 -3 87848.4 3168.52 6
6 -1 -2 30539.1 1632.8 20
6 -1 -2 32253.3 1698.89 35
6 -1 -2 26840.8 1416.55 7
6 -1 -2 30864.4 1632.28 15
6 -1 -2 26191.7 1549.92 2
6 -1 -1 2459.72 436.315 2
6 -1 -1 2571.9 486.334 20
6 -1 -1 2326.54 452.65 15
6 -1 -1 3211.64 481.955 14
6 -1 0 163288 4742.07 16
6 -1 0 165810 5172.15 15
6 -1 0 157119 4796.47 29
6 -1 0 168472 4979.73 14
6 -1 1 165838 5294.81 20
6 -1 1 164923 5346.6 19
6 -1 1 165766 4837.62 16
6 -1 1 160539 4931.99 29
6 -1 1 169472 5079.28 14
6 -1 2 10797.6 1021.67 19
6 -1 2 8897.04 796.422 16
6 -1 2 9908.74 884.642 29
6 -1 2 9657.3 905.125 14
6 -1 3 81154.5 3192.17 12
6 -1 3 75462 2981.83 19
6 -1 3 83310.6 3096.71 14
6 -1 4 21779.6 1368.22 13
6 -1 4 22273.5 1403.11 12
6 -1 5 16423.1 1091.23 13
6 -1 5 18773.8 1137.76 12
6 -1 6 7409.06 596.524 13
6 0 -12 5117.1 386.802 7
6 0 -10 13449.6 1013.31 6
6 0 -10 12999 896.03 2
6 0 -9 40169.9 2018.41 6
6 0 -9 39702 1890.47 2
6 0 -8 1185.42 348.903 2
6 0 -8 1367.45 385.485 6
6 0 -7 3873.78 598.572 2
6 0 -7 4560.18 667.289 6
6 0 -6 13300.6 1131.58 2
6 0 -6 14296.4 1167.28 35
6 0 -6 16012.8 1241.07 6
6 0 -5 6334.69 777.963 35
6 0 -5 5691.61 733.2 6
6 0 -5 7358.07 837.273 2
6 0 -4 155142 4665.39 20
6 0 -4 147879 4932.08 35
6 0 -4 151453 4552.56 15
6 0 -4 153320 4947.82 2
6 0 -3 22325.3 1380.91 20
6 0 -3 21174.9 1330.61 7
6 0 -3 22700.2 1328.71 15
6 0 -3 23174.5 1477.53 2
6 0 -2 14322.2 1121.89 20
6 0 -2 14135.2 1124.52 35
6 0 -2 11785.6 931.79 7
6 0 -2 13605 1034.58 15
6 0 -2 12775.2 1052.66 2
6 0 -1 218681 6418.67 20
6 0 -1 213802 6234.8 35
6 0 -1 227063 6628.32 19
6 0 -1 199583 5767.5 7
6 0 -1 219676 6261.28 15
6 0 -1 219813 6158.23 14
6 0 0 36167.7 1740.85 16
6 0 0 35485 1821.59 14
6 0 1 18431.4 1400.64 19
6 0 1 18041.1 1177 16
6 0 1 18364.6 1263.54 14
6 0 2 14869.6 1153.79 12
6 0 2 14065 950.112 21
6 0 2 16562.1 1262.6 19
6 0 2 14191.7 1037.31 16
6 0 2 15203.8 1139.04 14
6 0 3 44221.3 2055.95 12
6 0 4 19842.3 1154.48 17
6 0 4 21640.1 1276.83 13
6 0 4 21900 1237.13 12
6 0 5 38266.6 1500.38 17
6 0 5 38587 1598.58 13
6 1 -12 101.409 67.0018 7
6 1 -11 3003.93 379.258 7
6 1 -10 18473.6 1022.64 2
6 1 -9 1285.76 326.999 2
6 1 -8 11952 990.646 2
6 1 -7 6992.21 802.598 35
6 1 -7 6689.45 770.766 2
6 1 -6 1713.77 425.395 2
6 1 -6 1681.22 419.701 35
6 1 -5 117568 4266.26 35
6 1 -5 116705 3841.48 19
6 1 -5 118347 4082.74 7
6 1 -5 125082 4209.8 2
6 1 -4 25558.3 1690.85 35
6 1 -4 28725.3 1599.84 19
6 1 -4 27708.3 1612.07 7
6 1 -3 386.704 241.473 2
6 1 -3 310.298 212.818 35
6 1 -3 108.648 147.34 19
6 1 -3 534.997 235.854 7
6 1 -2 77375 3135.51 35
6 1 -2 81466.6 3205.22 19
6 1 -2 74095.7 2813.71 7
6 1 -2 76182.6 2897.61 14
6 1 -1 77068.8 3022.79 35
6 1 -1 79599 3244.96 19
6 1 -1 75930.3 2924.93 14
6 1 0 9792.89 1025.62 19
6 1 0 9965.16 882.171 16
6 1 0 10394.3 917.802 14
6 1 1 9714.83 838.033 21
6 1 1 7283.29 886.992 19
6 1 1 10173 870.665 16
6 1 1 8707.85 832.344 14
6 1 1 9347.6 817.105 12
6 1 2 14049.7 963.301 21
6 1 2 16001.7 1080.78 16
6 1 2 15918.1 1116.62 14
6 1 2 16453.3 1048.45 12
6 1 3 15152.7 1015.37 13
6 1 3 12162.3 815.899 12
6 1 4 53508.2 1957.43 17
6 1 4 52911 1945.08 13
6 1 5 2235.42 262.171 17
6 2 -11 15113.3 787.195 7
6 2 -10 1317.13 286.473 7
6 2 -9 40448.5 1819.13 7
6 2 -9 38433.6 1692.35 2
6 2 -8 1971.18 395.937 2
6 2 -8 1828.51 395.899 7
6 2 -7 1870.09 402.383 2
6 2 -7 2022.7 435.459 7
6 2 -6 73325.9 2929.26 2
6 2 -5 109059 4192.42 35
6 2 -5 113674 3749.43 19
6 2 -5 120084 4073.43 7
6 2 -4 4701.42 625.607 19
6 2 -4 5199.63 672.772 7
6 2 -3 62974.7 2876.38 35
6 2 -3 69009.8 2787.07 19
6 2 -3 66601.6 2672.09 7
6 2 -3 63891.8 2546.29 14
6 2 -2 86507.8 3368.08 19
6 2 -2 84723.8 3065.33 14
6 2 -1 11079.5 1060.39 19
6 2 -1 12316.3 956.554 14
6 2 0 22377.4 1318.99 14
6 2 1 564.157 224.238 21
6 2 1 712.4 240.237 14
6 2 2 4944.53 522.725 21
6 2 2 5184.03 545.688 13
6 2 3 45066 1594.07 13
6 2 4 12884.3 675.254 17
6 3 -10 29289.5 1254.03 7
6 3 -9 1636.48 319.426 7
6 3 -8 1701.8 345.792 7
6 3 -7 43725.1 1999.07 7
6 3 -5 9407.15 876.769 7
6 3 -5 9276.34 758.26 14
6 3 -4 15251.6 989.676 14
6 3 -3 27418.6 1379.06 14
6 3 -2 5987.38 665.158 16
6 3 -2 4194.55 505.87 14
6 3 -1 75646.6 2791.78 16
6 3 -1 76783.7 2582.03 14
6 3 0 4883.73 569.027 21
6 3 0 4903.37 562.136 16
6 3 1 799.047 226.685 21
6 3 1 961.962 251.794 16
6 4 -3 146.68 160.271 16
6 4 -2 63746.3 2389.81 21
6 4 -2 63364.3 2303.63 16
6 4 -1 8094.88 655.989 16
6 4 0 4645.81 465.028 21
6 5 -5 2896.66 341.32 16
6 5 -4 128.061 107.612 21
6 5 -4 280.772 123.678 16
6 5 -3 35759.1 1396.88 21
6 5 -3 35092.7 1337.89 16
6 5 -2 43695.4 1519.28 21
6 5 -2 41183 1428.95 16
6 5 -1 1663.43 221.711 21
7 -10 -4 14881.8 837.176 29
7 -10 -3 270.764 141.34 29
7 -10 -2 940.053 239.865 29
7 -10 -1 9884.36 752.34 29
7 -10 0 127.756 139.593 29
7 -10 1 9627.27 704.715 29
7 -10 2 15005.4 816.003 34
7 -10 2 14402.5 810.409 29
7 -10 3 636.09 172.955 34
7 -10 3 640.858 149.527 29
7 -9 -7 202.848 115.396 2
7 -9 -3 7595.42 765.638 29
7 -9 -2 10314.1 916.478 29
7 -9 -1 2080.46 425.322 29
7 -9 0 37988.3 1860.03 29
7 -9 1 20382.1 1259.59 29
7 -9 2 11661.1 898.215 29
7 -9 3 4153.42 498.429 29
7 -9 4 30544 1340.08 34
7 -9 4 27609.6 1230.18 29
7 -9 5 904.039 192.733 34
7 -8 -8 1179.78 235.774 2
7 -8 -8 1007.89 219.513 6
7 -8 -7 440.345 201.346 6
7 -8 -6 18539 1260.49 3
7 -8 -5 776.547 301.121 3
7 -8 -4 13249.6 1126.38 3
7 -8 -3 10333.4 967.939 3
7 -8 -2 4389.44 667.757 29
7 -8 -2 3946.2 504.493 15
7 -8 -1 26624.2 1657.73 29
7 -8 -1 24446 1301.32 15
7 -8 0 34070.8 1885.55 29
7 -8 1 8302.21 877.33 29
7 -8 2 8737.21 854.542 29
7 -8 3 33422.6 1561.82 20
7 -8 3 35000.5 1719.03 29
7 -8 4 -36.8073 141.066 29
7 -8 5 7892.35 612.835 29
7 -8 6 10522.5 579.244 34
7 -7 -9 140.23 116.87 2
7 -7 -9 283.529 139.771 6
7 -7 -8 455.087 195.257 6
7 -7 -7 5220.97 650.159 6
7 -7 -6 964.982 387.101 3
7 -7 -6 577.554 292.032 6
7 -7 -5 20119.6 1475.26 3
7 -7 -5 15636.5 1208.78 6
7 -7 -4 30017 1861.62 3
7 -7 -2 22681.9 1626.52 29
7 -7 -2 27200.9 1696.5 25
7 -7 -1 55267.1 2613.94 29
7 -7 -1 53359.6 2262.94 15
7 -7 0 11746.5 1111.37 29
7 -7 0 11344.4 925.313 15
7 -7 1 10190 1009.9 29
7 -7 1 9620.82 848.492 15
7 -7 2 34065.6 1824.09 20
7 -7 2 36878.5 1958.16 29
7 -7 3 538.969 246.608 20
7 -7 3 928.648 331.193 29
7 -7 4 20308.2 1255.62 29
7 -7 5 29718.6 1394.55 34
7 -7 5 30953.6 1435.43 29
7 -7 6 1747.53 265.488 29
7 -6 -10 245.245 112.52 2
7 -6 -10 370.022 153.647 6
7 -6 -9 2184.72 357.572 2
7 -6 -8 762.137 289.135 6
7 -6 -7 4977.11 689.004 6
7 -6 -6 29435.5 1776.74 6
7 -6 -5 52423 2466.76 6
7 -6 -4 21048.7 1407.68 6
7 -6 -3 3087.94 551.181 25
7 -6 -2 85657.3 3211.92 2
7 -6 -2 91887.5 3577.08 29
7 -6 -2 85258.8 3415.28 25
7 -6 -1 4567.87 720.361 29
7 -6 -1 5381.96 676.923 15
7 -6 -1 5082.4 728.982 25
7 -6 0 8248.95 835.274 15
7 -6 0 7124.76 855.237 25
7 -6 1 33528.9 1885.88 20
7 -6 1 31207.9 1714.51 15
7 -6 2 3178.89 545.574 20
7 -6 3 42050.1 1928.24 20
7 -6 4 7242.84 685.493 12
7 -6 4 8511.15 830.688 29
7 -6 5 12380.8 892.215 29
7 -6 5 11721.9 785.037 12
7 -6 6 18116.2 926.73 29
7 -5 -11 1322.03 196.59 6
7 -5 -10 2906.84 364.096 2
7 -5 -10 2284.57 369.305 6
7 -5 -9 3281.16 477.384 2
7 -5 -8 7935.41 828.751 2
7 -5 -8 8040.33 850.382 6
7 -5 -7 10668.6 1038.29 6
7 -5 -6 43590.6 2255.01 6
7 -5 -5 8798.29 768.341 20
7 -5 -5 7747.09 886.676 6
7 -5 -4 4536.6 592.76 20
7 -5 -4 2398.44 486.253 6
7 -5 -3 76608.3 3106.81 2
7 -5 -3 75248.4 2550.93 14
7 -5 -2 551.677 251.004 2
7 -5 -2 574.609 328.584 29
7 -5 -2 722.772 211.157 14
7 -5 -1 19355.4 1392.43 20
7 -5 -1 20320 1483.25 29
7 -5 -1 17244.3 1268.66 15
7 -5 -1 16196.8 1016.19 14
7 -5 0 41783.5 2217.44 29
7 -5 0 40608.3 2037.73 15
7 -5 0 39621.9 1740.92 14
7 -5 1 8977.52 950.513 20
7 -5 1 9512.26 999.042 29
7 -5 1 9939.28 952.762 15
7 -5 1 8722.69 755.007 14
7 -5 2 56845.3 2468.22 20
7 -5 2 58614.4 2632.11 29
7 -5 3 32125.6 1649.89 20
7 -5 3 32049.7 1804.25 29
7 -5 3 29291.3 1497.09 13
7 -5 4 18018.4 1160.5 12
7 -5 4 18207 1238.25 29
7 -5 5 9506.34 772.88 29
7 -5 5 7065.23 644.411 12
7 -5 6 32495.2 1300.38 29
7 -5 6 29657.5 1197.51 12
7 -4 -11 4697.98 437.809 6
7 -4 -10 9711.14 719.231 2
7 -4 -10 10318.8 807.313 6
7 -4 -9 3687.86 521.582 2
7 -4 -8 10025.6 944.658 2
7 -4 -8 10241.2 988.07 6
7 -4 -7 64111.1 2804.33 2
7 -4 -7 63971.8 2812.86 6
7 -4 -6 16246.4 1301.11 6
7 -4 -5 2965.56 449.816 20
7 -4 -5 3182.97 604.382 2
7 -4 -5 3463.3 596.426 6
7 -4 -4 45927 2302.57 2
7 -4 -4 47219 2063.17 20
7 -4 -4 41388.8 2106.59 6
7 -4 -3 5652.94 738.937 2
7 -4 -3 6044.62 703.699 20
7 -4 -3 5204.39 724.044 29
7 -4 -3 5738.28 666.089 6
7 -4 -2 27336.6 1591.71 2
7 -4 -2 30508 1721.57 20
7 -4 -2 26984.6 1719.7 29
7 -4 -2 31025.2 1502.85 14
7 -4 -1 50939.6 2388.88 20
7 -4 -1 47344 2397.98 29
7 -4 -1 48121.6 2322.4 15
7 -4 -1 51611.9 2090.19 14
7 -4 0 10309.2 1036.49 29
7 -4 0 11616.9 1031.84 15
7 -4 0 9393.02 813.983 14
7 -4 1 70992.6 3003.88 20
7 -4 1 79480 3083.07 15
7 -4 1 73939 3080.95 29
7 -4 1 69545.1 2690.38 14
7 -4 2 86526.7 3307.33 20
7 -4 2 89346.7 3435.76 29
7 -4 2 88199.4 3111.9 14
7 -4 3 7496.39 763.232 20
7 -4 3 7603.69 835.064 29
7 -4 4 1502.06 371.604 29
7 -4 4 1568.54 341.086 13
7 -4 5 26475.5 1289.37 29
7 -4 5 22856.3 1164.03 13
7 -4 6 1899.89 263.147 29
7 -4 6 2728.55 315.25 12
7 -3 -11 12443.7 756.706 6
7 -3 -11 9094.64 552.687 2
7 -3 -10 2101.43 353.388 2
7 -3 -10 2290.19 410.238 6
7 -3 -9 134.686 180.508 2
7 -3 -9 252.19 193.349 6
7 -3 -8 40178.7 2035.32 2
7 -3 -7 12028.5 1084.17 2
7 -3 -7 11725.1 1099.1 6
7 -3 -6 2701.32 544.949 6
7 -3 -5 9834.99 1006.72 2
7 -3 -5 9776.31 814.591 20
7 -3 -5 10590.9 1019.99 6
7 -3 -4 896.956 288.598 20
7 -3 -4 1488.06 415.088 2
7 -3 -4 905.84 305.885 29
7 -3 -4 1328.92 370.851 6
7 -3 -3 79998.5 3177.09 2
7 -3 -3 85352.8 3106.21 20
7 -3 -3 80684.1 3104.7 29
7 -3 -3 78258.4 2923.42 6
7 -3 -2 3874.99 581.266 2
7 -3 -2 4974.35 672.471 20
7 -3 -2 3505.38 582.627 29
7 -3 -2 4261 642.493 15
7 -3 -2 3948.86 537.974 14
7 -3 -1 15035.7 1202.6 20
7 -3 -1 12536.8 1081.21 29
7 -3 -1 14113.5 1160.3 15
7 -3 -1 12542.1 972.802 14
7 -3 -1 12009.6 919.455 2
7 -3 0 6583.17 792.014 29
7 -3 0 7542.36 861.303 15
7 -3 0 7389.34 745.793 14
7 -3 1 189206 5822.89 20
7 -3 1 187861 5741.49 29
7 -3 1 186463 5519.92 14
7 -3 2 8142.06 857.582 20
7 -3 2 7705.54 801.056 19
7 -3 2 8171.3 851.837 29
7 -3 2 8691.64 826.417 14
7 -3 3 5391.6 684.269 12
7 -3 3 4377.21 591.299 29
7 -3 4 33238.2 1606.77 13
7 -3 4 34843.6 1694.31 12
7 -3 5 2464.12 357.17 13
7 -3 5 3699.67 444.631 12
7 -3 6 8587.83 508.896 13
7 -2 -11 1172.77 205.797 2
7 -2 -11 1051.29 249.552 6
7 -2 -10 1353.81 288.233 2
7 -2 -10 934.329 283.941 6
7 -2 -9 25917.8 1463.82 2
7 -2 -9 26923.4 1566.91 6
7 -2 -8 11805.6 1036.68 2
7 -2 -7 17035.4 1294.5 2
7 -2 -7 18056.3 1362.27 6
7 -2 -6 9293.07 961.125 6
7 -2 -5 17721 1342.32 2
7 -2 -5 18988.3 1160.67 20
7 -2 -5 15420.8 1236.63 6
7 -2 -4 19814.9 1427.09 2
7 -2 -4 21763.1 1323.46 20
7 -2 -4 21106.2 1398.08 6
7 -2 -3 53884.1 2365.99 20
7 -2 -3 56347.7 2466.81 15
7 -2 -3 52686.3 2435.95 2
7 -2 -2 86683.9 3302.18 20
7 -2 -2 90331.2 3354.88 15
7 -2 -2 87266.5 3135.19 14
7 -2 -2 82404.6 3143.25 2
7 -2 -1 6849.76 804.486 20
7 -2 -1 6314.96 612.378 16
7 -2 -1 7343.18 735.977 29
7 -2 -1 7754.59 858.173 15
7 -2 -1 8444.94 818.077 14
7 -2 -1 7812.82 737.499 2
7 -2 0 189692 5238.9 16
7 -2 1 9907 968.033 20
7 -2 1 9678.55 970.931 19
7 -2 2 13807.6 1079.27 19
7 -2 3 9316.11 858.809 12
7 -2 4 1729.68 347.584 12
7 -2 5 29335.1 1228.21 12
7 -1 -11 17.1555 85.7265 2
7 -1 -10 2781.19 442.786 6
7 -1 -10 3273.19 427.749 2
7 -1 -9 12222.4 991.069 6
7 -1 -9 11909.4 937.993 2
7 -1 -8 8645.85 850.593 2
7 -1 -7 14688.5 1181.72 2
7 -1 -7 15466.3 1234.22 6
7 -1 -6 6162.82 779.236 6
7 -1 -6 7156.91 835.259 2
7 -1 -5 32567 1599.83 20
7 -1 -5 29006.9 1761.51 2
7 -1 -4 199268 5826.34 20
7 -1 -4 208164 5929.76 15
7 -1 -4 194474 6095.53 2
7 -1 -3 6139.57 737.256 20
7 -1 -3 5642.94 645.571 7
7 -1 -3 6082.33 718.999 15
7 -1 -3 5714.03 722.068 2
7 -1 -2 13130 1091.74 20
7 -1 -2 12123.3 1034.1 15
7 -1 -2 13413.7 1044.88 14
7 -1 -2 11351.2 973.28 2
7 -1 -1 68687.2 2904.65 20
7 -1 -1 71018.8 3028.93 19
7 -1 -1 68485.1 2565.65 16
7 -1 -1 74438.9 2837.81 14
7 -1 0 53935.8 2171.76 16
7 -1 0 56311.5 2389.57 14
7 -1 1 21195.1 1441.7 19
7 -1 1 22335.2 1236.83 16
7 -1 1 23222.1 1399.61 14
7 -1 2 26297.7 1480.18 12
7 -1 2 24781.1 1451.11 19
7 -1 2 24832.7 1418.75 14
7 -1 3 6222.13 643.425 13
7 -1 3 6306.71 638.145 12
7 -1 4 17854 986.508 13
7 -1 4 16639.9 898.403 12
7 -1 5 26314.9 998.481 13
7 0 -11 625.658 182.527 7
7 0 -10 6481.47 569.224 2
7 0 -9 6094.26 627.939 2
7 0 -8 25122.3 1452.57 2
7 0 -7 1407.04 385.426 2
7 0 -6 1266.77 373.276 2
7 0 -6 1869.2 365.56 19
7 0 -5 105839 3709.54 19
7 0 -5 121115 3962.62 7
7 0 -4 22351.9 1565.01 35
7 0 -4 24176.1 1493.53 19
7 0 -4 24829 1458.81 7
7 0 -4 25508.3 1569.27 2
7 0 -3 2573.4 510.773 19
7 0 -3 2099.06 403.103 7
7 0 -3 3742.15 574.358 2
7 0 -3 2837.65 492.484 14
7 0 -2 8909.18 926.809 19
7 0 -2 10653.3 927.032 14
7 0 -1 34244.2 1939.7 19
7 0 -1 33315.5 1639.42 16
7 0 -1 30469.4 1663.42 14
7 0 0 29067.7 1511.23 12
7 0 0 28410.4 1485.82 16
7 0 0 28516.1 1568.66 14
7 0 1 29553.1 1658.68 19
7 0 1 29343.2 1460.94 16
7 0 1 32054.5 1613.81 14
7 0 1 30285.6 1487.49 12
7 0 2 1306.68 281.955 12
7 0 3 17284.7 980.786 13
7 0 4 49305.5 1583.78 13
7 1 -11 936.144 181.285 7
7 1 -10 2778.69 374.111 7
7 1 -9 27287.8 1369.67 7
7 1 -9 25665.9 1290.07 2
7 1 -8 16069.3 1096.22 7
7 1 -8 16571.4 1087.4 2
7 1 -7 2841.29 486.369 2
7 1 -6 89256 3276.52 7
7 1 -6 95309.5 3371.64 2
7 1 -5 55612.7 2292.12 19
7 1 -5 61890.2 2489.44 7
7 1 -4 12111.6 997.518 19
7 1 -4 12686.3 980.126 7
7 1 -4 12162.5 962.945 14
7 1 -3 8338.49 838.848 19
7 1 -3 7567.75 752.945 14
7 1 -2 2405.11 483.447 19
7 1 -2 2909.6 465.024 16
7 1 -2 2173.28 402.331 14
7 1 -1 19090.5 1306.33 19
7 1 -1 15435.8 1054.32 16
7 1 -1 16133 1098.49 14
7 1 0 35569.2 1604.38 21
7 1 0 39856.8 1918.46 19
7 1 0 36943.9 1691.69 16
7 1 0 38849.1 1744.37 14
7 1 1 7161.28 627.345 16
7 1 2 8314.31 617 13
7 2 -10 27643.6 1147.71 7
7 2 -9 11350.7 764.219 7
7 2 -8 5795.96 592.141 7
7 2 -6 38167.4 1784.22 7
7 2 -5 8679.69 711.997 19
7 2 -5 10661.3 867.362 7
7 2 -5 9518.83 768.583 14
7 2 -4 22764.1 1280.09 19
7 2 -4 23354.1 1256.86 14
7 2 -3 4193.17 550.863 19
7 2 -3 4092.82 494.958 14
7 2 -2 3717.26 493.89 16
7 2 -2 3677.18 466.677 14
7 2 -1 63368.8 2324.55 21
7 2 -1 64622.1 2346.56 16
7 2 -1 64911.7 2244.66 14
7 2 0 9994.88 688.269 21
7 2 0 9809.44 712.785 16
7 3 -8 603.608 132.649 14
7 3 -7 11070.4 628.811 14
7 3 -6 592.422 154.408 14
7 3 -5 20399 940.604 14
7 3 -4 196.299 143.098 16
7 3 -4 357.712 137.471 14
7 3 -3 9060.35 695.842 16
7 3 -2 67150.8 2269.49 21
7 3 -2 66070.2 2243.47 16
7 3 -1 18786.6 918.141 21
7 3 -1 18211.2 917.795 16
7 4 -6 21706.1 936.763 16
7 4 -5 10002.9 600.335 16
7 4 -4 3327.79 341.433 21
7 4 -4 3104.56 323.348 16
7 4 -3 43880.3 1444.28 21
7 4 -3 40619.9 1389.3 16
8 -10 -3 5772.89 438.587 20
8 -10 -3 5938.66 492.005 29
8 -10 -2 11131.1 697.243 20
8 -10 -2 11292.4 715.452 29
8 -10 -1 775.732 208.276 20
8 -10 -1 765.528 205.842 29
8 -10 0 6351.53 512.678 29
8 -10 1 11999 669.539 20
8 -10 1 10170.2 611.99 29
8 -9 -6 2704.86 338.125 29
8 -9 -5 288.705 150.705 29
8 -9 -4 7251.2 554.44 20
8 -9 -4 7831.36 706.091 29
8 -9 -3 10721.8 788.997 20
8 -9 -3 11333.4 880.287 29
8 -9 -2 4642.07 574.669 29
8 -9 -1 19064.8 1156.44 20
8 -9 -1 18869.8 1158.67 29
8 -9 0 14565.2 979.203 29
8 -9 1 1097.56 266.914 20
8 -9 1 1624.85 324.326 29
8 -9 2 7360.7 561.257 20
8 -9 2 7674.69 609.256 29
8 -9 3 12245.2 695.106 34
8 -9 3 11225.8 656.668 29
8 -8 -7 6560.73 555.271 2
8 -8 -7 6704.78 585.199 29
8 -8 -6 34.444 138.452 2
8 -8 -6 38.6892 140.67 29
8 -8 -5 15714.1 827.548 20
8 -8 -4 12449.8 873.581 20
8 -8 -4 13785.6 887.951 15
8 -8 -3 13168.5 979.239 20
8 -8 -3 13200.9 888.469 15
8 -8 -2 18724.8 1233.94 20
8 -8 -2 18139.7 1271.57 29
8 -8 -2 16162 1003.64 15
8 -8 -1 18938.9 1268.32 20
8 -8 -1 20570.3 1347.61 29
8 -8 0 434.107 241.215 29
8 -8 1 5384.61 618.961 20
8 -8 1 6355.62 682.039 29
8 -8 2 34337.5 1506.39 20
8 -8 2 33106.7 1569.5 29
8 -8 3 1049.89 247.653 29
8 -8 4 11534.5 660.068 34
8 -8 4 12494 685.075 29
8 -7 -7 4327.43 540.35 2
8 -7 -6 12998.7 1008.56 2
8 -7 -5 21050.1 1353.78 2
8 -7 -5 21919.5 1121.85 20
8 -7 -5 19408.7 1347.48 29
8 -7 -4 4842.04 630.019 2
8 -7 -4 4360.97 563.1 20
8 -7 -4 4161.67 653.279 29
8 -7 -3 7559.96 777.803 20
8 -7 -3 5419.48 752.905 29
8 -7 -3 6281.74 691.533 15
8 -7 -2 32224.9 1743.67 20
8 -7 -2 29190.1 1767.98 29
8 -7 -2 28745 1555.57 15
8 -7 -1 11200.9 1000.69 20
8 -7 -1 11299.9 1043.06 29
8 -7 -1 9224.13 826.907 15
8 -7 0 9258.62 807.892 15
8 -7 1 7138.68 745.007 20
8 -7 2 1356.22 320.998 20
8 -7 4 20233.4 948.269 34
8 -6 -9 4606.62 445.04 2
8 -6 -9 3427.82 397.663 6
8 -6 -8 3414.34 475.275 2
8 -6 -8 3238.63 461.182 6
8 -6 -7 12377.5 976.79 2
8 -6 -7 9319.07 834.269 6
8 -6 -6 30841.2 1721.81 2
8 -6 -5 211.822 154.421 20
8 -6 -5 495.916 306.103 2
8 -6 -5 462.532 252.736 29
8 -6 -4 1228.51 323.879 20
8 -6 -4 1912.28 436.949 2
8 -6 -3 31963.2 1720.04 20
8 -6 -3 31154 1872.17 29
8 -6 -3 30779.6 1724.54 15
8 -6 -2 162.72 197.219 20
8 -6 -2 102.591 175.849 15
8 -6 -2 62.1426 225.95 29
8 -6 -1 25090.7 1590.71 20
8 -6 -1 26924.5 1683.77 29
8 -6 -1 26132.4 1541.77 15
8 -6 0 11736 1066.19 29
8 -6 0 10997.8 959.974 15
8 -6 1 13511.1 1066.75 20
8 -6 1 12823.9 1069.52 29
8 -6 2 38695.7 1780.26 20
8 -6 2 37713.7 1837 29
8 -6 3 30717.2 1419.08 12
8 -6 3 32291.1 1532.61 29
8 -6 4 1070.74 214.909 12
8 -6 4 844.628 215.039 29
8 -5 -10 7432.14 493.569 2
8 -5 -9 6163.7 570.424 2
8 -5 -9 4785.34 526.352 6
8 -5 -8 3128.05 476.883 2
8 -5 -8 2844.82 470.609 6
8 -5 -7 31822.3 1688.13 6
8 -5 -6 279.33 224.716 2
8 -5 -6 502.712 243.85 6
8 -5 -5 675.148 232.292 20
8 -5 -5 693.093 305.501 2
8 -5 -5 722.983 323.605 29
8 -5 -4 22587.2 1484.48 2
8 -5 -4 22297.5 1345.31 20
8 -5 -4 21105.5 1471.16 29
8 -5 -3 406.314 230.433 20
8 -5 -3 294.387 206.121 2
8 -5 -3 223.618 224.834 15
8 -5 -3 479.787 272.062 29
8 -5 -2 78585.7 3055.21 20
8 -5 -2 75320.7 3118.33 29
8 -5 -2 77831.4 3051.77 15
8 -5 -2 70535.4 2535.99 14
8 -5 -1 34568.2 1886.31 20
8 -5 -1 33682.2 1886.79 29
8 -5 -1 29970.3 1450.81 14
8 -5 0 7541.04 840.223 29
8 -5 1 19355.1 1316.38 20
8 -5 1 22568.5 1412.88 29
8 -5 2 34604.3 1683.41 20
8 -5 2 36702.5 1765.23 29
8 -5 3 2195.62 380.655 12
8 -5 3 2897.94 426.226 29
8 -5 4 1141.46 239.453 12
8 -4 -10 1391.61 244.548 2
8 -4 -9 139.919 152.853 2
8 -4 -9 -74.509 162.792 6
8 -4 -8 16693 1137.88 2
8 -4 -8 15287.9 1092.95 6
8 -4 -7 3200.95 534.395 6
8 -4 -6 22622.6 1496.06 2
8 -4 -6 20732 1377.03 6
8 -4 -5 809.231 256.331 20
8 -4 -5 754.344 306.984 2
8 -4 -5 679.5 270.065 6
8 -4 -4 3725.23 542.741 20
8 -4 -4 3346.43 571.33 2
8 -4 -4 3904.15 515.111 14
8 -4 -3 35748.4 1834.22 20
8 -4 -3 31938.6 1780.66 29
8 -4 -3 31942.7 1584.15 14
8 -4 -3 31930.5 1737.2 2
8 -4 -2 81685 3142.4 20
8 -4 -2 77749.2 3064.45 29
8 -4 -2 86262.6 3257.93 15
8 -4 -2 76126.5 2793.98 14
8 -4 -1 7382.71 833.996 20
8 -4 -1 6605.87 759.825 29
8 -4 -1 8081.98 869.92 15
8 -4 -1 7253.01 700.831 14
8 -4 0 10797.5 956.982 29
8 -4 0 10682.6 846.619 14
8 -4 1 67243.2 2647.44 20
8 -4 1 63844.8 2517.52 19
8 -4 1 58174.2 2302.9 14
8 -4 2 363.381 207.76 20
8 -4 3 2986.69 392.825 13
8 -4 3 3071.24 440.558 12
8 -4 4 11935.2 718.938 12
8 -3 -10 270.155 139.736 2
8 -3 -9 4494.36 531.144 2
8 -3 -9 4853.78 561.902 6
8 -3 -8 3284.97 494.864 2
8 -3 -8 2483.58 463.946 6
8 -3 -7 7728.76 813.933 6
8 -3 -6 1393.96 400.961 2
8 -3 -6 1387.39 359.059 6
8 -3 -5 38200.1 2001.02 2
8 -3 -5 36515.3 1691.16 20
8 -3 -4 2937.86 484.724 20
8 -3 -4 2405.43 499.745 2
8 -3 -4 3232.59 551.129 15
8 -3 -3 135653 4416.58 20
8 -3 -3 138764 4592.58 15
8 -3 -3 138170 4317.56 14
8 -3 -3 136325 4403.04 2
8 -3 -2 2809.06 518.124 20
8 -3 -2 2897.84 531.635 15
8 -3 -2 3277.01 504.957 14
8 -3 -1 9241.44 916.888 20
8 -3 -1 9142.31 923.988 15
8 -3 -1 8445.77 796.72 14
8 -3 0 32760 1782.59 19
8 -3 0 31698.2 1611.98 14
8 -3 1 887.154 284.524 19
8 -3 1 79.2194 151.912 14
8 -3 2 23227 1306.33 12
8 -3 3 14075.8 855.993 13
8 -3 3 16533.2 942.398 12
8 -3 4 1496.66 216.84 13
8 -3 4 1613.86 232.895 12
8 -2 -11 208.779 108.467 7
8 -2 -10 1336.8 247.252 2
8 -2 -9 2743.79 414.71 2
8 -2 -8 24920.1 1418.72 6
8 -2 -8 25204.5 1415.98 2
8 -2 -6 2604.09 497.529 2
8 -2 -6 2231.06 430.682 15
8 -2 -5 20754.6 1275.13 7
8 -2 -5 21780.5 1346.11 15
8 -2 -5 23038.2 1473.58 2
8 -2 -4 100647 3452.68 20
8 -2 -4 107221 3619.12 15
8 -2 -4 100495 3488.54 14
8 -2 -4 99003.8 3591.28 2
8 -2 -3 22380.9 1388.26 20
8 -2 -3 22561.2 1414.28 15
8 -2 -3 20298.7 1302.41 14
8 -2 -3 21332.5 1324.42 2
8 -2 -2 4615.67 633.867 20
8 -2 -2 3507.72 558.043 15
8 -2 0 2787.35 504.844 19
8 -2 1 26667.4 1399.08 12
8 -2 1 24574.6 1369.88 19
8 -2 2 14448.1 901.906 12
8 -2 3 166.121 112.606 12
8 -1 -11 637.034 134.368 7
8 -1 -10 654.551 172.1 2
8 -1 -10 463.722 167.776 7
8 -1 -9 8389.51 665.473 2
8 -1 -8 37365.3 1699.72 7
8 -1 -8 38146.4 1728.86 2
8 -1 -7 1525.08 370.476 2
8 -1 -7 1758.59 371.204 7
8 -1 -6 822.498 288.094 2
8 -1 -6 1054.25 276.017 19
8 -1 -6 1112.56 311.931 7
8 -1 -5 29912.9 1565.52 19
8 -1 -5 28606.2 1496.96 7
8 -1 -5 30107 1446.84 15
8 -1 -5 31483.6 1683.71 2
8 -1 -4 13190.1 1042.83 19
8 -1 -4 11886.9 889.392 15
8 -1 -4 12195.1 982.536 14
8 -1 -4 11988.4 976.394 2
8 -1 -3 10159.1 929.571 19
8 -1 -3 9155.69 843.667 14
8 -1 -2 18595.6 1278.14 19
8 -1 -2 16582.7 1136.27 14
8 -1 -1 1632.54 381.045 19
8 -1 -1 1762.16 365.063 14
8 -1 0 48952.9 1899.87 12
8 -1 0 48029.3 2097.23 19
8 -1 0 49000.3 2012.47 14
8 -1 1 38398.7 1609.48 14
8 -1 1 34651.1 1418.15 12
8 -1 2 4322.25 440.173 13
8 0 -10 81.7737 89.3505 7
8 0 -9 46607.4 1709.74 2
8 0 -8 10613.9 788.39 7
8 0 -8 12779.2 856.174 2
8 0 -7 2719.42 419.851 7
8 0 -7 2799.3 433.568 2
8 0 -6 15821.8 925.843 19
8 0 -6 18920 1119.51 7
8 0 -5 3172.63 453.094 19
8 0 -5 3477.39 469.02 7
8 0 -5 4089.27 527.914 14
8 0 -4 12365.5 929.51 19
8 0 -4 12121.2 921.301 14
8 0 -3 5472.19 637.706 19
8 0 -3 4594.08 516.107 16
8 0 -3 5430.2 609.445 14
8 0 -2 6869.34 613.376 16
8 0 -2 6494.86 654.882 14
8 0 -1 37481.9 1710.49 19
8 0 -1 32442 1530.62 14
8 0 0 55585.3 2018.6 14
8 0 1 5391.6 472.372 13
8 1 -10 20291.6 779.123 7
8 1 -10 16607.3 691.108 14
8 1 -8 3572.67 408.66 7
8 1 -7 8493.85 656.561 7
8 1 -7 7453.39 600.589 14
8 1 -6 6293.32 573.19 7
8 1 -6 6485.18 579.645 14
8 1 -5 5127.58 487.611 19
8 1 -5 6621.18 592.268 14
8 1 -4 14329.4 891.136 19
8 1 -4 13507.3 873.997 16
8 1 -4 14554.7 905.19 14
8 1 -3 2317.5 356.777 16
8 1 -3 2494.84 363.289 14
8 1 -2 8080.56 609.722 16
8 1 -2 8721.24 639.427 14
8 1 -1 49447.5 1715.17 16
8 1 -1 52568.3 1757.5 14
8 2 -7 1071.7 170.689 14
8 2 -6 10224.2 571.348 14
8 2 -5 32022.7 1252.8 16
8 2 -5 27209.6 1071.91 14
8 2 -4 1659.13 268.681 16
8 2 -4 1533.99 208.744 14
8 2 -3 2817.99 317.888 21
8 2 -3 2541.47 309.692 16
8 2 -2 50896 1603.89 16
9 -9 -3 183.944 94.6683 20
9 -9 -2 3781.85 382.716 20
9 -9 -1 12189.1 706.796 20
9 -9 -1 11168 706.398 29
9 -9 0 2805.76 326.282 29
9 -8 -5 7723.32 627.557 29
9 -8 -4 1141.71 214.071 20
9 -8 -4 1744 332.817 29
9 -8 -3 1980.74 319.191 20
9 -8 -3 2978.57 436.598 29
9 -8 -2 3771.32 463.124 20
9 -8 -2 4722.05 543.394 29
9 -8 -1 1098.89 267.37 20
9 -8 -1 1781.41 333.514 29
9 -8 0 18354.8 1010.49 29
9 -8 1 17981.2 877.445 20
9 -8 1 18798.5 937.522 29
9 -7 -7 1663.59 266.298 2
9 -7 -7 1908.22 282.156 15
9 -7 -6 9743.81 700.631 15
9 -7 -5 993.84 254.871 15
9 -7 -4 1709.92 300.767 20
9 -7 -4 1872.19 352.747 15
9 -7 -4 1982.01 378.709 29
9 -7 -3 6308.35 618.503 20
9 -7 -3 7850.6 741.554 29
9 -7 -3 6092.86 616.648 15
9 -7 -2 38.3773 147.084 20
9 -7 -2 35.4395 135.825 15
9 -7 -2 41.7226 143.023 29
9 -7 -1 28007.8 1431.52 20
9 -7 -1 28902.3 1466.08 29
9 -7 0 18436.6 1076.64 29
9 -7 1 1551.5 277.717 20
9 -7 1 1258.99 265.895 29
9 -7 2 9630.83 601.542 29
9 -6 -8 136.677 123.479 2
9 -6 -8 45.7113 107.297 15
9 -6 -7 9987.86 733.08 2
9 -6 -7 11124 767.991 15
9 -6 -6 1044.59 271.493 2
9 -6 -6 1398.91 313.422 15
9 -6 -5 11974.1 739.436 20
9 -6 -5 15272.9 1025.45 15
9 -6 -4 12406.8 851.431 20
9 -6 -3 544.442 235.96 20
9 -6 -2 36539.7 1725.6 20
9 -6 -1 11886 914.773 20
9 -6 1 9198.29 690.002 20
9 -6 2 15328.9 786.855 12
9 -5 -9 941.68 181.181 2
9 -5 -9 1199.26 187.593 15
9 -5 -7 174.451 158.254 2
9 -5 -7 138.947 157.558 15
9 -5 -6 11432.5 871.729 2
9 -5 -6 11232.4 876.059 15
9 -5 -5 13340.5 818.437 20
9 -5 -5 16887 1124.23 15
9 -5 -4 2888.92 428.27 20
9 -5 -4 3483.15 522.65 15
9 -5 -3 32181.8 1594.35 20
9 -5 -3 35080.1 1740.82 15
9 -5 -2 36629.1 1736.56 20
9 -5 -2 35203.1 1760.64 15
9 -5 -1 1927.81 379.071 20
9 -5 0 1313.41 290.056 19
9 -5 2 1418.77 247.624 12
9 -4 -9 146.936 119.428 2
9 -4 -9 293.721 110.224 15
9 -4 -8 5619.58 507.385 15
9 -4 -7 6163.18 595.243 15
9 -4 -7 5808.04 598.402 2
9 -4 -6 33866.1 1626.57 15
9 -4 -6 35037.3 1647.73 2
9 -4 -5 3215.63 404.471 20
9 -4 -5 3884.2 535.9 15
9 -4 -5 3081.7 462.648 2
9 -4 -4 24337.3 1273.13 20
9 -4 -4 26906.7 1468.95 15
9 -4 -4 22945.2 1196.67 14
9 -4 -3 31003.9 1526.66 20
9 -4 -3 31968.7 1637.16 15
9 -4 -3 27599.9 1345.55 14
9 -4 -2 875.691 282.112 20
9 -4 -2 1019.2 313.809 15
9 -4 -2 894.575 236.4 14
9 -4 -1 3492.69 499.474 20
9 -4 -1 3438.81 499.354 19
9 -4 -1 2765.89 379.715 14
9 -4 0 21317.9 1155.89 19
9 -4 1 -85.8005 120.087 12
9 -4 2 44943.2 1521.15 12
9 -3 -9 1259.73 224.674 2
9 -3 -9 1040.63 191.403 7
9 -3 -8 20808.7 934.364 15
9 -3 -7 31641.3 1336.88 15
9 -3 -7 30111.3 1321.18 14
9 -3 -7 33420.4 1485.75 2
9 -3 -6 7404.65 656.884 15
9 -3 -6 6871.18 613.884 14
9 -3 -6 8230.74 721.773 2
9 -3 -5 3206.25 464.867 15
9 -3 -5 3437.56 444.615 14
9 -3 -5 2989.78 449.404 2
9 -3 -4 41800.6 1806.24 15
9 -3 -4 35614.9 1627.22 14
9 -3 -3 88.1047 151.05 19
9 -3 -3 241.14 168.768 15
9 -3 -3 175.514 164.806 14
9 -3 -2 4313.52 551.614 19
9 -3 -2 3416.93 443.695 14
9 -3 -1 8827.78 758.011 19
9 -3 -1 7579.84 641.891 14
9 -3 0 1016.15 242.284 12
9 -3 0 1002.37 239.643 19
9 -3 0 1056.5 230.93 14
9 -3 1 26947.9 1142 13
9 -3 1 31433.6 1191.21 12
9 -2 -9 3932.04 346.006 7
9 -2 -9 3951.42 343.644 14
9 -2 -9 4639.85 388.696 2
9 -2 -8 14950.6 813.547 14
9 -2 -8 14753.7 840.031 2
9 -2 -7 1442.08 295.505 2
9 -2 -7 1049.93 243.783 14
9 -2 -6 813.313 250.336 2
9 -2 -6 785.038 206.155 19
9 -2 -6 747.707 184.904 15
9 -2 -6 583.567 204.794 14
9 -2 -5 22696 1196.64 19
9 -2 -5 23123.4 1104.93 15
9 -2 -5 23420.1 1226.99 14
9 -2 -5 25103.7 1249.89 2
9 -2 -4 183.941 178.394 19
9 -2 -4 208.743 163.359 14
9 -2 -3 29498.5 1474.33 19
9 -2 -2 10160.2 804.804 19
9 -2 -1 2260.6 294.418 12
9 -2 0 25079.8 1110.77 19
9 -1 -7 409.686 155.424 14
9 -1 -6 2070.43 255.65 19
9 -1 -6 3117.28 391.026 14
9 -1 -5 2940.06 360.761 19
9 -1 -5 4162.65 462.692 14
9 -1 -4 31774.1 1388.6 19
9 -1 -4 32615.3 1421.09 14
9 -1 -3 12663.4 823.193 19
9 -1 -3 11983 787.664 14
9 -1 -2 1455.12 284.805 19
9 -1 -2 1418.49 260.565 14
9 -1 -1 10351 631.949 14
9 0 -8 803.492 146.042 14
9 0 -7 694.979 154.328 14
9 0 -6 1999.55 273.109 14
9 0 -5 17461.2 862.57 14
9 0 -4 23732.3 1027.8 14
9 0 -3 3039.92 319.709 14
10 -6 -5 5982.24 478.543 15
10 -6 -4 2757.93 343.14 15
10 -6 -2 6438.59 481.423 19
10 -5 -6 5268.37 414.507 15
10 -5 -5 -21.4521 82.2156 19
10 -5 -5 45.5808 95.6811 15
10 -5 -4 2418.52 325.619 19
10 -5 -3 14665.7 819.936 19
10 -5 -2 690.665 176.132 19
10 -4 -5 194.978 103.092 19
10 -4 -4 7297.08 540.931 19
10 -4 -3 4226.58 412.184 19
10 -3 -4 53.8227 72.1244 19
10 -3 -3 16143.1 753.605 19
-8 10 -1 10473 637.268 37
-7 -3 6 661.599 192.475 38
-7 -3 7 14724.3 863.913 38
-7 -3 8 1185.1 236.179 38
-7 -3 9 291.069 123.607 38
-7 -2 6 40282.4 1773.96 38
-7 -2 7 27442.5 1406.76 38
-7 -2 8 5784.08 597.154 38
-7 -2 9 12420.5 826.67 38
-7 -1 6 92284.7 3221.53 38
-7 -1 7 2682.33 469.82 38
-7 -1 8 17664.1 1161.98 38
-7 0 3 2116.73 512.26 1
-7 0 4 23353.8 1659.72 1
-7 0 5 114384 4235.17 1
-7 0 6 1923.28 406.251 38
-7 0 7 1145.68 338.292 38
-7 0 8 23793.4 1423.23 38
-7 1 1 77210.9 3273.64 1
-7 1 2 12914.2 1218.43 1
-7 1 3 5797.87 814.809 1
-7 1 5 31640 1905.9 1
-7 1 6 6940.4 851.897 1
-7 2 0 220611 6710.72 1
-7 2 1 8243.17 976.153 1
-7 2 2 94717.6 3782.6 1
-7 2 3 59608 2796.3 1
-7 2 5 16172.9 1305.98 1
-7 2 6 8697.12 932.011 1
-7 3 0 8416.7 970.659 1
-7 3 1 15679.6 1327.47 1
-7 3 5 10387.6 973.07 26
-7 3 5 8825.22 954.887 1
-7 3 6 1855.07 443.765 1
-7 3 6 2202.35 468.046 26
-7 3 11 8259.44 541.367 23
-7 4 5 2577.02 491.613 26
-7 4 6 16134 1313.66 36
-7 4 6 14456.5 1199.82 26
-7 4 11 3451.53 339.544 23
-7 5 -1 9246.18 925.506 36
-7 5 0 41322.3 2133.4 36
-7 5 1 19760.4 1440.45 36
-7 5 2 824.982 326.809 36
-7 5 4 2413.52 528.14 36
-7 5 4 1557.91 379.806 26
-7 5 5 7071.8 818.992 26
-7 5 5 8521.46 976.217 36
-7 6 0 8681.55 951.489 36
-7 6 1 5113.73 752.744 36
-7 6 2 87879.5 3577.13 36
-7 6 3 4006.18 680.666 36
-7 6 4 22035.8 1626.18 36
-7 6 4 21052.2 1411.13 26
-7 9 4 6202.12 574.412 5
-7 10 -2 15878.8 932.255 37
-7 11 -1 1271.72 218.8 37
-7 11 0 8510.82 610.702 37
-7 11 1 2042.54 297.558 37
-6 -5 4 132.397 116.607 38
-6 -5 5 2436 326.556 38
-6 -5 6 19457.6 982.414 38
-6 -5 7 666.517 185.011 38
-6 -5 8 13087.5 726.742 38
-6 -4 3 99.4648 127.085 38
-6 -4 4 6962.32 670.521 38
-6 -4 5 4834.07 576.121 38
-6 -4 6 278.521 192.985 38
-6 -4 7 42764.2 1848.46 38
-6 -4 8 11685.7 840.412 38
-6 -4 9 445.313 187.214 38
-6 -4 10 16364.7 845.781 38
-6 -3 3 31441.7 1613.4 38
-6 -3 4 19291 1267.52 38
-6 -3 5 11857.9 989.31 38
-6 -3 6 73234.7 2868.62 38
-6 -3 7 48799.2 2192.78 38
-6 -3 8 1770.94 394.949 38
-6 -3 9 1244.71 312.797 38
-6 -3 10 31491.5 1445.76 38
-6 -2 2 95287.3 3829.69 1
-6 -2 3 72349.3 3251.93 1
-6 -2 3 74226.1 2838.98 38
-6 -2 4 5466.18 701.364 38
-6 -2 4 6425.09 877.938 1
-6 -2 5 134714 4381.28 38
-6 -2 5 123370 4593.08 1
-6 -2 6 73031 3203.47 1
-6 -2 6 81528.8 3138.01 38
-6 -2 7 2347.38 479.89 38
-6 -2 8 2158.08 458.046 38
-6 -2 9 40754.7 1960.01 38
-6 -2 10 1511.06 351.568 38
-6 -1 1 90855.3 3689.21 1
-6 -1 2 88112.6 3634.59 1
-6 -1 3 136.435 233.861 1
-6 -1 4 28542.6 1616.07 38
-6 -1 4 29779 1871.62 1
-6 -1 5 131028 4416.9 38
-6 -1 5 137914 4752.31 1
-6 -1 6 1973.96 490.409 1
-6 -1 6 2350.1 481.888 38
-6 -1 7 7728.17 891.499 1
-6 -1 7 8079.8 882.031 38
-6 -1 8 12556.1 1097.79 38
-6 -1 9 1335.73 361.733 38
-6 0 0 43161.8 2258.08 1
-6 0 1 243954 7287.54 1
-6 0 2 13487.4 1199.19 1
-6 0 3 22450 1565.8 1
-6 0 5 8427.33 840.765 38
-6 0 5 6647.85 822.602 1
-6 0 6 15290 1231.14 1
-6 0 6 14549.7 1161.83 38
-6 0 7 4589.8 665.532 1
-6 0 7 4644.03 691.884 38
-6 0 8 1695.93 426.891 38
-6 0 9 39414 2056.8 38
-6 0 11 50.437 96.6564 23
-6 1 -1 197819 6023.52 1
-6 1 0 189036 5905.61 1
-6 1 1 2930.82 555.838 1
-6 1 2 35768.2 1975.98 1
-6 1 3 95171.6 3595.65 1
-6 1 5 30253.2 1612.39 38
-6 1 5 33007.2 1834.89 1
-6 1 6 31065.8 1720.17 38
-6 1 6 31028.9 1772.05 1
-6 1 6 32915.9 1835.9 26
-6 1 7 1340.94 349.049 1
-6 1 7 1112.3 390.071 26
-6 1 7 1169.75 364.533 38
-6 1 10 1406.55 328.191 23
-6 1 11 192.811 160.635 23
-6 1 12 9722.62 596.882 23
-6 2 -1 44775.4 2198.89 1
-6 2 0 53640.7 2476.56 1
-6 2 4 84771.9 3045.31 26
-6 2 5 48680.4 2206.29 26
-6 2 5 48355.5 2259.12 1
-6 2 6 805.934 263.794 38
-6 2 6 778.78 286.485 26
-6 2 6 614.534 278.036 1
-6 2 7 22646.4 1393.92 1
-6 2 7 22628.7 1533.23 26
-6 2 8 97161.4 3752.29 26
-6 2 11 14563.8 953.257 23
-6 2 12 1341.16 237.185 23
-6 3 3 72124.2 2611.83 26
-6 3 4 102129 3456.69 26
-6 3 5 2132.24 435.908 26
-6 3 6 11979.8 1050.1 26
-6 3 7 122643 4292.59 26
-6 3 8 5741.98 778.052 26
-6 3 12 3185.24 335.87 23
-6 4 -2 76403.1 2846.57 36
-6 4 3 146452 4414.4 26
-6 4 4 637.794 259.35 26
-6 4 5 27251.9 1573.33 26
-6 4 6 64166.3 2729.48 26
-6 4 6 65112.3 2750.79 36
-6 4 7 23272.8 1547.91 26
-6 5 -2 23570.3 1460.87 36
-6 5 -1 127611 4268.15 36
-6 5 0 2942.03 522.675 36
-6 5 1 40554 2050.74 36
-6 5 2 259354 7211.64 36
-6 5 2 244568 6708.54 26
-6 5 3 31877.5 1641.9 26
-6 5 3 35758.5 1932.12 36
-6 5 4 30006.8 1786.18 36
-6 5 4 26512.3 1529.71 26
-6 5 5 7286.11 800.632 26
-6 5 5 6895.41 846.142 36
-6 5 5 6469.98 692.611 5
-6 5 6 30185.6 1767.3 26
-6 5 6 31346.9 1803.08 36
-6 5 7 823.772 311.372 26
-6 6 -2 107211 3838.21 36
-6 6 -1 2834.45 542.113 36
-6 6 0 15066.9 1233.76 36
-6 6 1 124320 4374.09 36
-6 6 2 26066.3 1454.77 26
-6 6 3 28597.4 1599.67 26
-6 6 3 30026.5 1851.65 36
-6 6 4 8404.78 793.352 5
-6 6 4 9197.98 892.797 26
-6 6 4 9514.13 1028.1 36
-6 6 5 20776.6 1512.17 36
-6 6 5 17943.7 1219.96 5
-6 6 5 17646.5 1299.2 26
-6 6 6 2402.59 487.61 26
-6 6 6 1950.57 426.944 5
-6 7 -2 7354.08 873.404 36
-6 7 -1 28152.2 1780.18 36
-6 7 0 32987.6 1981.22 36
-6 7 1 69715 3094.1 36
-6 7 2 18214.9 1259.58 26
-6 7 2 18263.5 1464.92 36
-6 7 3 38744.2 1849.96 5
-6 7 3 38875 1983.26 26
-6 7 3 41567.4 2305.77 36
-6 7 4 278.417 202.518 26
-6 7 4 347.499 252.74 36
-6 7 4 143.386 163.915 5
-6 7 5 1830 408.546 5
-6 7 6 24153.7 1457.64 5
-6 8 0 53981.5 2691.43 36
-6 8 2 22534.3 1355.37 5
-6 8 3 143.152 182.905 5
-6 8 4 193.306 194.299 5
-6 8 5 20965.6 1325.16 5
-6 8 6 3263.33 499.793 5
-6 8 6 3214.49 395.69 27
-6 9 1 53570 2208.18 5
-6 9 2 32947.7 1663.55 5
-6 9 3 20872.2 1280.77 5
-6 9 4 53410.7 2212.72 5
-6 9 5 7692.01 717.526 5
-6 9 5 7311.82 618.144 27
-6 10 -3 21098.3 1164.71 37
-6 10 0 17418.2 1013.29 5
-6 10 1 5987.98 606.084 5
-6 10 2 19429.2 1133.56 5
-6 10 2 21034.1 1319.59 37
-6 10 3 12568.5 867.133 5
-6 10 4 942.504 239.361 5
-6 10 4 624.252 187.216 27
-6 11 -3 1987.43 261.991 37
-6 11 -2 597.948 192.524 37
-6 11 -1 7784.91 652.736 37
-6 11 0 4985.33 392.352 5
-6 11 1 2370.55 359.503 37
-6 11 1 2051.74 269.816 5
-6 11 2 6966.13 486.744 5
-5 -6 2 14877.7 791.045 4
-5 -6 2 15749.6 801.954 38
-5 -6 3 32798.4 1377.82 38
-5 -6 4 1396.54 281.904 38
-5 -6 5 6509.32 597.046 38
-5 -6 6 17939.4 1012.15 38
-5 -6 7 2948.11 388.135 38
-5 -6 8 35847.5 1422.31 38
-5 -5 1 9551.2 736.943 38
-5 -5 2 18814.2 1151.38 38
-5 -5 3 3966.1 552.444 38
-5 -5 4 30674 1609.09 38
-5 -5 5 13149.3 1010.49 38
-5 -5 6 716.973 287.807 38
-5 -5 7 86813.8 3064.36 38
-5 -5 8 44476.1 1900.47 38
-5 -5 9 233.306 156.528 38
-5 -5 11 8649.78 471.058 9
-5 -4 0 9342.52 782.073 38
-5 -4 1 30988.6 1625.84 38
-5 -4 2 1300.55 364.867 38
-5 -4 3 72907 2915.7 38
-5 -4 4 32704.6 1796.34 38
-5 -4 5 1569.86 405.905 38
-5 -4 6 52101 2365.59 38
-5 -4 7 59209.7 2550.32 38
-5 -4 8 642.81 287.749 38
-5 -4 9 17161.9 1146.95 38
-5 -4 11 11284.7 665.48 9
-5 -3 1 14557.7 1301.31 1
-5 -3 1 15690.4 1158.76 38
-5 -3 2 272483 7527.84 38
-5 -3 2 259910 7971.02 1
-5 -3 3 46988.3 2226.47 38
-5 -3 3 43946.6 2442.13 1
-5 -3 4 4828.23 762.461 1
-5 -3 4 4759.93 669.045 38
-5 -3 5 57617.9 2538.87 38
-5 -3 5 49679.5 2584.14 1
-5 -3 6 145119 4788.87 38
-5 -3 6 140079 4897.23 1
-5 -3 7 4365.47 654.026 38
-5 -3 7 2897.79 497.061 28
-5 -3 7 3901.65 640.38 1
-5 -3 8 22811.8 1490.99 38
-5 -3 9 16432 1210.74 38
-5 -3 10 15955.4 1121.3 38
-5 -3 11 3697.43 421.606 32
-5 -3 12 695.804 145.596 32
-5 -2 0 2879.72 570.006 1
-5 -2 1 152755 5211.65 1
-5 -2 1 153426 4744.63 38
-5 -2 2 109202 4224.43 1
-5 -2 2 119947 3927.4 38
-5 -2 3 607.075 281.497 38
-5 -2 3 1113.42 381.07 1
-5 -2 4 37722.3 1931.96 38
-5 -2 5 102730 3973.45 1
-5 -2 5 117456 3974.42 38
-5 -2 6 61.4716 149.006 1
-5 -2 6 56.6655 153.568 38
-5 -2 7 14723.2 1208.28 1
-5 -2 7 13392 1027.18 28
-5 -2 7 15709.1 1244.82 38
-5 -2 8 8358.83 901.923 38
-5 -2 9 113.905 218.284 38
-5 -2 10 38991.2 1951.44 38
-5 -2 11 12155.2 827.952 32
-5 -2 12 1234.52 216.893 32
-5 -1 -1 10648.2 1021.27 1
-5 -1 0 142208 4781.9 1
-5 -1 1 315700 8789.18 1
-5 -1 2 3525.27 582.776 1
-5 -1 3 9536.49 850.351 38
-5 -1 3 10075.4 974.256 1
-5 -1 4 65050.2 2611.22 38
-5 -1 5 252.401 202.992 38
-5 -1 5 274.997 188.622 1
-5 -1 6 83691.9 3257.71 38
-5 -1 6 85547.2 3259.26 1
-5 -1 7 10868.4 1023.89 38
-5 -1 7 11511.3 1015.34 1
-5 -1 8 -60.3369 219.379 38
-5 -1 9 84101.3 3336.93 38
-5 -1 9 81921.7 2953.29 23
-5 -1 10 33073.3 1635.38 23
-5 -1 11 35.7942 130.144 23
-5 -1 11 34.4894 118.229 32
-5 -1 12 996.292 222.375 23
-5 -1 12 1158.35 223.196 32
-5 0 -1 91719.1 3396.34 1
-5 0 0 319897 8709.77 1
-5 0 1 42078.8 2058 1
-5 0 2 10952.5 965.439 1
-5 0 3 110683 3781.9 1
-5 0 4 724.339 262.143 1
-5 0 4 624.846 242.569 38
-5 0 5 114525 3847.23 38
-5 0 5 118765 3934.77 1
-5 0 6 2214.88 446.907 1
-5 0 6 2062.6 435.527 38
-5 0 7 3450.29 582.783 38
-5 0 7 3560.74 537.295 1
-5 0 8 17725.4 1360.41 38
-5 0 9 62803.3 2816.74 38
-5 0 10 344.655 223.507 23
-5 0 10 588.179 227.939 32
-5 0 11 3681.26 519.906 23
-5 0 11 2759.94 408.991 32
-5 0 12 8461.5 672.131 23
-5 0 13 -31.4511 63.2137 23
-5 1 -1 155485 4814.23 1
-5 1 0 33975.9 1742.17 1
-5 1 3 2673.97 401.407 26
-5 1 4 158489 4737.53 38
-5 1 4 178939 4902.19 26
-5 1 5 153778 4697.6 26
-5 1 5 148630 4611.52 38
-5 1 5 158807 4709.16 1
-5 1 6 3235.62 528.101 26
-5 1 6 3012.74 511.349 38
-5 1 6 3204.21 483.118 1
-5 1 7 26163.2 1613.63 38
-5 1 7 25239.9 1599.41 26
-5 1 7 28154.5 1462.88 1
-5 1 8 161323 5294.71 26
-5 1 10 8719.67 771.909 32
-5 1 11 2876.15 483.347 23
-5 1 12 487.524 193.271 23
-5 1 13 5180.7 384.044 23
-5 2 -2 103641 3509.92 1
-5 2 2 10316.3 702.21 26
-5 2 3 112507 3409.8 26
-5 2 4 409891 10192.2 26
-5 2 5 7164.69 690.522 38
-5 2 5 7089.82 711.376 26
-5 2 6 17712.1 1218.4 26
-5 2 6 16963 1177.25 38
-5 2 7 81580.9 3148.03 26
-5 2 7 76940.7 2735.88 1
-5 2 9 20088.1 1473.88 26
-5 2 12 9689.92 719.223 23
-5 3 1 17854.7 890.03 26
-5 3 2 101542 3043.98 26
-5 3 3 344375 8634.03 26
-5 3 4 17512.6 1061.53 26
-5 3 5 66318.8 2532.1 26
-5 3 6 46172 2109.04 26
-5 3 7 5845.25 728.194 26
-5 3 9 8049.53 898.415 26
-5 3 12 8958.17 636.089 23
-5 4 -2 78474.9 2792.31 36
-5 4 1 50273.6 1800.42 26
-5 4 2 101392 3117.92 26
-5 4 3 60928.8 2237.7 26
-5 4 4 12140.1 852.83 5
-5 4 4 14669 983.391 26
-5 4 5 3028.83 486.515 26
-5 4 5 2818.65 453.394 5
-5 4 6 6015.14 689.683 36
-5 4 6 6510.25 713.92 5
-5 4 6 7496.31 782.519 26
-5 4 8 25385 1614.46 26
-5 5 -3 17590.8 1166.65 36
-5 5 -2 260459 7163.47 36
-5 5 -1 2922.42 480.405 36
-5 5 0 91615.9 3253.5 36
-5 5 1 65347 2605.93 36
-5 5 3 19729.1 1118.12 5
-5 5 3 20204.6 1324.52 36
-5 5 4 58488 2352.73 26
-5 5 4 60010 2311.79 5
-5 5 4 57491.1 2509.93 36
-5 5 5 36027.5 1888.61 36
-5 5 5 34760.3 1736.59 5
-5 5 5 35599.2 1811.12 26
-5 5 6 34803.3 1846.83 26
-5 5 6 33420.3 1778.22 5
-5 5 7 61264.3 2675.59 26
-5 5 7 63567.2 2687.38 5
-5 6 -3 119764 4053.02 36
-5 6 -2 61671.1 2618.25 36
-5 6 -1 69198.8 2820.88 36
-5 6 0 93772.5 3462.21 36
-5 6 1 26954.8 1621.38 36
-5 6 2 21792.1 1250.65 5
-5 6 2 26115.7 1591.32 36
-5 6 3 32199.5 1855.66 36
-5 6 3 32655.9 1623.25 5
-5 6 4 1521.7 367.924 5
-5 6 4 1438.12 412.114 36
-5 6 5 28855.9 1722 36
-5 6 5 26408.7 1556.23 5
-5 6 5 27363.5 1605.16 26
-5 6 6 74610.9 2961.65 5
-5 6 6 71709.3 2604.3 27
-5 6 7 2967.11 543.107 5
-5 7 -3 88118.7 3398.39 36
-5 7 -2 2610.07 518.158 36
-5 7 -1 32075.1 1895.74 36
-5 7 0 2028.62 487.975 36
-5 7 2 49060.4 2500.88 36
-5 7 2 51901.6 2234.68 5
-5 7 3 296.103 246.681 5
-5 7 3 269.028 230.634 36
-5 7 4 20029.3 1505.63 36
-5 7 4 20239.3 1353.23 5
-5 7 5 57826.6 2490.58 5
-5 7 5 51791.5 2416.66 26
-5 7 6 15124.1 1155.69 5
-5 7 6 11756.4 913.829 27
-5 7 7 10219.6 918.298 5
-5 7 7 8646.27 713.084 27
-5 8 -3 2001.67 467.027 36
-5 8 -2 78654.5 3308.94 36
-5 8 -1 83781 3493.23 36
-5 8 0 25682.3 1764.26 36
-5 8 1 182699 6012.04 36
-5 8 2 844.866 307.743 5
-5 8 2 1359.4 425.399 36
-5 8 3 13584.3 1115.53 5
-5 8 3 14838 1329.98 36
-5 8 4 23001.6 1473.01 5
-5 8 5 13873.9 1107.58 5
-5 8 6 2870.72 491.337 5
-5 8 6 2827.33 426.815 27
-5 8 7 4381.33 454.339 27
-5 9 -4 403.213 230.534 37
-5 9 1 949.074 338.782 5
-5 9 2 34027.9 1825.02 5
-5 9 3 18415.4 1273.46 5
-5 9 4 17394 1203.57 5
-5 9 5 1573.99 355.041 5
-5 9 5 1480.74 311.314 27
-5 9 6 8626.29 630.414 27
-5 9 6 7807.17 685.801 5
-5 10 -4 19379.9 1112.88 37
-5 10 -3 1911.16 401.696 37
-5 10 -2 5265.55 671.01 37
-5 10 -1 27079 1628.48 37
-5 10 0 35460.8 1750.2 5
-5 10 1 11328.4 997.453 37
-5 10 1 9221.31 842.48 5
-5 10 2 7705.71 759.813 5
-5 10 2 9337.49 862.847 37
-5 10 3 5824.25 634.181 5
-5 10 4 216.768 163.622 27
-5 10 4 103.365 132.09 5
-5 10 5 6723.91 508.3 27
-5 10 5 6930.01 567.707 5
-5 11 -4 3134.77 325.989 37
-5 11 -3 7702.9 610.9 37
-5 11 -3 5081.94 413.002 5
-5 11 -2 14671.9 935.449 37
-5 11 -2 13420.8 784.965 5
-5 11 -1 17606.3 969.973 5
-5 11 -1 17928.6 1079.95 37
-5 11 0 1587.06 332.83 37
-5 11 0 1508.67 292.241 5
-5 11 1 13506 857.253 37
-5 11 1 11783.1 790.414 5
-5 11 2 1777.45 292.452 5
-5 11 2 2093.73 320.004 27
-5 11 3 597.718 164.108 5
-5 11 3 544.254 156.932 27
-4 -8 5 3702.57 312.94 4
-4 -7 1 108.396 94.7625 38
-4 -7 2 8456.28 636.84 38
-4 -7 2 8078.95 598.608 4
-4 -7 3 18267.6 1023.66 38
-4 -7 3 17942 1034.99 4
-4 -7 4 14577.1 920.115 38
-4 -7 5 28254.5 1349.79 38
-4 -7 6 8520.31 676.232 38
-4 -7 7 2655.88 366.473 4
-4 -7 8 34850.6 1382.43 38
-4 -7 9 10470.2 555.732 9
-4 -7 9 9517.29 563.693 38
-4 -6 -1 14786.3 807.126 38
-4 -6 0 1145.12 268.853 38
-4 -6 1 14586.7 1011.82 38
-4 -6 2 22120.1 1323.08 38
-4 -6 3 18299.2 1214.61 38
-4 -6 4 84683.6 3107.98 38
-4 -6 5 56369.9 2373.12 38
-4 -6 6 1154.81 327.425 38
-4 -6 9 3601.26 452.409 38
-4 -6 10 4460.93 431.246 38
-4 -6 10 4235.85 417.502 9
-4 -6 11 5941.1 397.033 9
-4 -5 -2 29481 1338.64 38
-4 -5 -1 166.049 142.346 38
-4 -5 0 16070.6 1156.15 38
-4 -5 1 30731.4 1711.81 38
-4 -5 2 5618.37 709.959 38
-4 -5 3 103970 4050.9 1
-4 -5 3 104933 3745.64 38
-4 -5 4 35783.4 2120.63 1
-4 -5 4 38180.1 1975.16 38
-4 -5 5 553.054 268.217 38
-4 -5 5 200.565 229.3 1
-4 -5 6 112559 3940.41 38
-4 -5 7 39890 2009.28 38
-4 -5 9 26712 1476.17 38
-4 -5 10 9730.6 772.564 38
-4 -5 11 10703.8 625.938 30
-4 -5 11 9935.08 654.37 9
-4 -5 12 9140.01 476.595 9
-4 -4 0 19543.7 1459.42 1
-4 -4 1 488.502 293.18 1
-4 -4 2 195302 5959.16 38
-4 -4 2 203491 6442.12 1
-4 -4 3 134963 4840.52 1
-4 -4 3 133663 4472.94 38
-4 -4 4 21144.8 1420.71 38
-4 -4 4 19942.3 1534.65 1
-4 -4 5 73220.1 3220.51 1
-4 -4 5 78818 3087.3 38
-4 -4 6 78341.7 3138.12 38
-4 -4 6 79523.1 3279.85 1
-4 -4 7 66190.2 2860.72 1
-4 -4 7 68635.2 2799.27 28
-4 -4 7 69784.8 2885.41 38
-4 -4 10 267.922 195.213 38
-4 -4 11 20277.4 1061.39 9
-4 -4 11 19607.1 980.864 30
-4 -4 12 3210.46 353.201 32
-4 -3 0 64.9537 176.03 1
-4 -3 1 193018 6161.54 1
-4 -3 2 156821 4892.22 38
-4 -3 2 159791 5307.08 1
-4 -3 3 504.459 275.66 1
-4 -3 3 296.493 189.554 38
-4 -3 4 18537.9 1273.13 38
-4 -3 5 60752.2 2738.79 1
-4 -3 5 65294.6 2683.77 38
-4 -3 6 8927.94 935.126 1
-4 -3 6 9028.5 911.05 38
-4 -3 7 57183.1 2565.34 38
-4 -3 7 57515.7 2427.39 28
-4 -3 7 56606.8 2525.09 1
-4 -3 8 20224.3 1408.99 38
-4 -3 8 18587.5 1251.72 28
-4 -3 9 1411.29 329.296 23
-4 -3 10 65922.7 2706.43 38
-4 -3 11 27352.9 1257.15 30
-4 -3 11 31316.9 1410.35 9
-4 -3 12 138.775 130.314 32
-4 -2 -1 1453.9 390.633 1
-4 -2 0 72460.2 2974.7 1
-4 -2 1 166053 5263.58 1
-4 -2 2 2395.36 480.137 1
-4 -2 2 1553.64 343.762 38
-4 -2 3 39187.9 1840.26 38
-4 -2 3 41078.1 2024.55 1
-4 -2 4 57215 2350.55 38
-4 -2 5 1659.5 382.845 1
-4 -2 5 2138.42 429.109 38
-4 -2 6 274991 7543.16 1
-4 -2 6 268763 7568.56 38
-4 -2 7 38758.4 1989.03 38
-4 -2 7 33899.2 1771.41 1
-4 -2 7 36182.8 1746.81 28
-4 -2 8 694.459 297.904 38
-4 -2 8 537.353 224.21 23
-4 -2 8 740.474 253.564 28
-4 -2 9 38402.9 1895.49 23
-4 -2 10 37721.5 1859.76 23
-4 -2 10 36792 1652.84 30
-4 -2 11 1092.18 301.874 32
-4 -2 11 1176.29 306.162 23
-4 -2 11 694.514 224.089 9
-4 -2 12 4005.99 461.4 32
-4 -2 12 3672.47 450.512 23
-4 -2 13 2756.99 288.009 32
-4 -1 -1 15076.1 1109.5 1
-4 -1 0 344993 9104.66 1
-4 -1 1 15062.4 1084.22 1
-4 -1 2 83197.6 2988.24 1
-4 -1 3 10444.9 860.565 1
-4 -1 4 866.851 266.898 38
-4 -1 4 1329.91 315.41 1
-4 -1 5 157615 4857.17 38
-4 -1 5 169612 4871.64 1
-4 -1 6 69686.9 2781.71 38
-4 -1 6 72611.5 2666.75 1
-4 -1 7 106.334 182.318 38
-4 -1 7 257.76 148.095 28
-4 -1 7 282.123 169.278 1
-4 -1 8 59712 2636.2 38
-4 -1 8 57241.4 2221.42 28
-4 -1 9 93061.1 3397.47 23
-4 -1 9 84890.9 3439.94 38
-4 -1 10 1137.03 354.272 23
-4 -1 10 1145.79 290.164 9
-4 -1 11 7241.66 759.007 23
-4 -1 11 7079.74 720.497 32
-4 -1 12 4804.8 523.172 32
-4 -1 12 4294.45 524.639 23
-4 -1 13 915.474 173.203 32
-4 0 -2 83035.4 2915.19 1
-4 0 -1 167142 4922.52 1
-4 0 0 229.511 153.839 1
-4 0 1 235129 6348.84 1
-4 0 2 68616.5 2455.08 1
-4 0 3 19864.3 1067.98 26
-4 0 4 234017 6299.85 1
-4 0 4 237436 6314.01 26
-4 0 5 410765 10450.7 38
-4 0 5 413144 10357.7 1
-4 0 5 426021 10526 26
-4 0 6 1749.27 388.286 26
-4 0 6 1275.96 299.89 1
-4 0 6 1817.77 391.196 38
-4 0 6 1951.09 302.978 28
-4 0 7 33080.6 1506.28 1
-4 0 7 37794.5 1897.9 26
-4 0 7 32445.3 1777.69 38
-4 0 8 53945.3 2492.65 38
-4 0 10 17964.6 1252.76 32
-4 0 11 702.666 250.221 32
-4 0 11 879.422 320.132 23
-4 0 12 1747.45 320.448 32
-4 0 12 2289.48 398.621 23
-4 0 13 12309.8 709.134 23
-4 1 -2 17666 1070.29 1
-4 1 1 291862 7068.27 26
-4 1 2 74227.2 2293.98 26
-4 1 3 167470 4524.79 26
-4 1 4 344619 8607.1 26
-4 1 5 834.497 260.472 26
-4 1 5 529.12 136.121 28
-4 1 6 36410.4 1748.9 26
-4 1 6 37343.9 1559.53 1
-4 1 6 35015.5 1756.5 38
-4 1 7 16451 1205.51 38
-4 1 8 229.531 208.648 26
-4 1 8 44.3642 152.094 32
-4 1 9 54923.3 2372.15 32
-4 1 9 54431.7 2584.56 26
-4 1 10 4372.81 605.348 32
-4 1 11 539.657 230.858 32
-4 1 12 17781.6 1082.41 23
-4 1 12 16399 925.665 32
-4 1 13 8260.02 539.884 23
-4 2 0 382323 8861.37 26
-4 2 1 931.485 176.113 26
-4 2 2 202613 5143.05 26
-4 2 3 419437 10085.1 26
-4 2 4 1081.57 246.604 26
-4 2 5 52290.8 2044.06 26
-4 2 6 25463.6 1406.83 26
-4 2 8 42590 2148.62 26
-4 2 8 43350.2 1945.08 32
-4 2 9 7940.42 900.106 26
-4 2 9 9054.32 858.396 32
-4 2 10 -45.2465 134.325 32
-4 2 11 5744.61 589.707 32
-4 2 12 6818.16 515.838 32
-4 3 -3 1302.74 253.02 36
-4 3 3 4480.42 444.665 26
-4 3 4 52530.5 1946.92 26
-4 3 5 16268.9 1023.91 26
-4 3 6 9196.77 718.281 36
-4 3 6 10194.8 857.391 5
-4 3 7 98766.8 3498.32 26
-4 3 8 33305.4 1841.51 26
-4 3 8 32056 1601.35 32
-4 3 9 798.664 301.871 26
-4 3 9 783.962 264.497 32
-4 3 10 3799.42 502.65 32
-4 3 11 42877.4 1650.26 32
-4 3 12 3230.87 377.681 23
-4 4 -3 150165 4312.94 36
-4 4 -2 285443 7371.51 36
-4 4 -1 57215 2098.48 36
-4 4 3 177913 5004.15 36
-4 4 4 70125 2549.77 36
-4 4 5 10664.8 836.743 26
-4 4 5 10980.2 856.5 5
-4 4 5 9926.25 816.343 36
-4 4 6 30422 1627.93 26
-4 4 6 34168.1 1712.96 5
-4 4 7 86353.6 3239.99 26
-4 4 7 85751.8 3250.63 5
-4 4 8 439.818 231.015 26
-4 5 -3 236362 6454.73 36
-4 5 -2 37093.9 1711.02 36
-4 5 -1 73401.7 2653.32 36
-4 5 0 23128.4 1286.47 36
-4 5 2 179378 5206.29 36
-4 5 3 138752 4152.5 5
-4 5 3 147076 4391.48 36
-4 5 4 730.758 282.862 36
-4 5 4 952.389 268.425 5
-4 5 5 45692.6 2119 36
-4 5 5 58368.8 2307.06 5
-4 5 6 124410 3908.28 27
-4 5 6 125493 4154.51 26
-4 5 6 130796 4253.3 5
-4 5 7 2251.3 403.866 27
-4 5 7 1537.53 382.35 26
-4 5 7 1825.12 431.15 5
-4 5 8 5911.93 617.247 27
-4 6 -4 60108.1 2448.76 36
-4 6 -3 12169 991.721 36
-4 6 -2 42087.6 2018.8 36
-4 6 -1 20044.3 1309.34 36
-4 6 0 1912.02 422.253 36
-4 6 2 197982 5919.33 36
-4 6 3 707.409 288.165 36
-4 6 3 1120.41 296.114 5
-4 6 4 51621 2249.52 5
-4 6 4 52146.8 2395.64 36
-4 6 5 89346.5 3314.94 5
-4 6 6 15966.2 1193.39 26
-4 6 6 16392 1137.09 27
-4 6 6 17183.8 1261.78 5
-4 6 7 20294.6 1397 5
-4 6 7 20071.9 1240.84 27
-4 6 8 6829.39 644.606 27
-4 7 -4 207980 6167.27 36
-4 7 -3 46664.8 2264.07 36
-4 7 -2 200175 6118.14 36
-4 7 -1 4917.46 697.205 36
-4 7 0 17497.4 1332.11 36
-4 7 1 107147 3962.99 36
-4 7 2 2527.69 527.997 36
-4 7 3 17366.4 1371.02 36
-4 7 3 17900.7 1260.82 5
-4 7 4 33976 1852.16 5
-4 7 4 35515.6 1960.16 36
-4 7 5 22349.1 1435.76 26
-4 7 5 22429.8 1473.06 5
-4 7 6 38725.3 1989.31 5
-4 7 6 39501.4 1891.81 27
-4 7 7 2417.38 419.343 27
-4 7 8 3148.47 400.065 24
-4 8 -5 5592.3 657.784 37
-4 8 -4 63383.3 2720.87 36
-4 8 -3 150842 5040.72 36
-4 8 -2 44255.6 2331.09 36
-4 8 -1 81722.5 3417.82 36
-4 8 1 46684.4 2453.88 36
-4 8 2 21116.6 1573.11 36
-4 8 3 27293.2 1745.07 36
-4 8 3 25032.7 1585.97 5
-4 8 4 15111.2 1193.55 5
-4 8 5 6269.39 703.044 27
-4 8 5 4576.75 631.832 5
-4 8 6 9779.41 823.278 27
-4 8 7 733.276 219.662 27
-4 9 -5 1721.88 360.3 37
-4 9 -4 54053.7 2404.87 37
-4 9 -3 17069.4 1317.03 37
-4 9 2 19155.9 1417.46 37
-4 9 2 19589.6 1369.52 5
-4 9 3 317.091 221.984 5
-4 9 4 2899.98 492.583 27
-4 9 4 3114.25 503.882 5
-4 9 5 21748.7 1231.66 27
-4 9 6 126.391 138.12 5
-4 9 6 197.784 137.02 27
-4 10 -5 24959.3 1226.95 37
-4 10 -4 15266.5 1061.43 37
-4 10 -3 22227 1401.28 37
-4 10 -2 29653.6 1698.69 37
-4 10 -1 16997.4 1271.53 37
-4 10 0 8088.38 873.681 37
-4 10 1 28707.1 1612.16 5
-4 10 1 32126 1716.87 37
-4 10 2 1442.69 351.307 5
-4 10 3 2953.63 452.116 27
-4 10 3 3010.3 467.582 5
-4 10 4 21248.4 1109.62 27
-4 10 5 1306.25 228.233 27
-4 10 5 1427.23 247.404 5
-4 11 -4 2777.46 357.925 37
-4 11 -3 28900.6 1365.16 37
-4 11 -2 14433 954.966 37
-4 11 -1 412.463 199.986 5
-4 11 0 16958.8 1017.97 5
-4 11 0 17766.3 1040.69 37
-4 11 1 154.33 144.92 5
-4 11 2 9634.16 663.716 5
-4 11 3 13596 686.261 27
-3 -8 1 5407.65 467.636 38
-3 -8 2 19246 990.473 38
-3 -8 2 17604.2 923.121 4
-3 -8 3 4812.9 504.783 38
-3 -8 3 5071.26 518.027 4
-3 -8 4 19104.4 1089.04 4
-3 -8 5 34356.2 1486.25 38
-3 -8 6 25153.6 1185.28 38
-3 -8 6 22683.7 1153.11 4
-3 -8 7 799.864 206.366 4
-3 -8 7 780.483 209.912 38
-3 -8 8 33368 1117.1 9
-3 -7 -1 11848.6 785.715 38
-3 -7 0 11795 748.439 4
-3 -7 0 13999.5 937.653 38
-3 -7 1 33629.7 1618.37 4
-3 -7 1 31514.6 1605.78 38
-3 -7 2 47738.5 2098.97 38
-3 -7 3 27078.9 1525.44 38
-3 -7 4 86007.9 3140.8 38
-3 -7 6 4343.53 571.463 38
-3 -7 7 35318.4 1677.83 38
-3 -7 8 9292.02 748.737 38
-3 -7 10 6989.46 501.108 9
-3 -7 10 8084.56 545.85 30
-3 -6 -3 5715.7 515.702 38
-3 -6 2 14576 1164.71 38
-3 -6 3 221309 6556.14 38
-3 -6 3 226048 6901.83 1
-3 -6 4 37436.4 2146.63 1
-3 -6 4 40514 2045.12 38
-3 -6 5 5105.23 742.312 1
-3 -6 6 81750 3153.5 38
-3 -6 7 27895.9 1608.93 38
-3 -6 8 25527 1463.92 38
-3 -6 9 20002.5 1200.12 38
-3 -6 10 7797.28 646.583 9
-3 -6 11 6041.08 488.858 9
-3 -6 11 5482.76 457.194 30
-3 -5 0 68411.8 2973.03 1
-3 -5 1 13945.5 1261.71 1
-3 -5 2 232782 7167.28 1
-3 -5 3 85607.6 3244.85 38
-3 -5 3 79433.2 3419.44 1
-3 -5 4 78102.2 3076.17 38
-3 -5 5 2179.88 493.476 1
-3 -5 5 1904.37 454.295 38
-3 -5 6 6543.11 813.177 1
-3 -5 7 19553.5 1363.4 1
-3 -5 7 20136.6 1371.83 28
-3 -5 7 20085.7 1366.98 38
-3 -5 8 28169.3 1464.92 33
-3 -5 8 27766.4 1622.38 38
-3 -5 9 9413.61 872.902 38
-3 -5 10 3984.47 528.165 38
-3 -5 11 48861.2 1822.84 30
-3 -5 12 2666.97 285.32 30
-3 -5 12 3319.65 339.336 9
-3 -5 12 3435.63 363.498 32
-3 -4 -1 60503.1 2645.28 1
-3 -4 0 315.455 229.494 1
-3 -4 1 131816 4637.11 1
-3 -4 2 104078 3928.25 1
-3 -4 3 20827.8 1323.06 38
-3 -4 3 20592 1475.98 1
-3 -4 4 22740.3 1398.98 38
-3 -4 5 56787.8 2425.14 38
-3 -4 5 55301.3 2514.06 1
-3 -4 6 4600.35 644.67 1
-3 -4 7 121249 4130.31 28
-3 -4 7 122317 3957.08 33
-3 -4 7 124822 4122.92 1
-3 -4 7 128940 4258.72 38
-3 -4 8 50270.9 2214.24 33
-3 -4 8 52395.1 2396.81 38
-3 -4 8 52104.8 2309.36 28
-3 -4 9 -52.859 212.473 38
-3 -4 10 43955.2 2030.69 38
-3 -4 11 9537.15 731.651 30
-3 -4 11 8486.8 716.819 9
-3 -4 12 58.2933 106.029 32
-3 -4 12 171.264 125.85 9
-3 -4 12 295.215 117.163 30
-3 -4 13 2217.95 247.53 32
-3 -3 -1 -53.3744 182.966 1
-3 -3 0 59975.3 2617.64 1
-3 -3 1 165351 5185.1 1
-3 -3 2 16629.7 1204.08 1
-3 -3 3 209832 5797.97 38
-3 -3 3 201110 6022.97 1
-3 -3 4 54958.7 2265.89 38
-3 -3 4 58587 2434.4 1
-3 -3 5 44921.9 2015.72 38
-3 -3 5 43183.6 2020.21 1
-3 -3 6 190085 5584.51 1
-3 -3 7 45219.2 1998.29 1
-3 -3 7 42370.8 1973.22 33
-3 -3 7 46156.9 1986.81 23
-3 -3 7 47182.6 2066.62 28
-3 -3 8 239.216 183.484 23
-3 -3 8 328.809 180.149 28
-3 -3 8 379.448 236.965 38
-3 -3 9 60668.8 2561.44 23
-3 -3 9 58932 2438.69 28
-3 -3 9 62453.8 2647.01 38
-3 -3 10 20122.6 1333.44 38
-3 -3 10 18766.4 1291.8 23
-3 -3 10 19522.5 1210.02 30
-3 -3 11 5543.14 643.114 23
-3 -3 11 5548.07 594.071 9
-3 -3 11 5273.69 560.859 30
-3 -3 12 5433.68 557.219 32
-3 -3 13 2396.65 292.241 32
-3 -2 -2 14872.7 1039.02 1
-3 -2 -1 21711.1 1325.37 1
-3 -2 0 4716.63 586.182 1
-3 -2 1 29558.7 1525.85 1
-3 -2 2 163740 4782.41 1
-3 -2 4 787.991 228.045 1
-3 -2 5 477477 11963.9 38
-3 -2 5 490650 11942.8 1
-3 -2 6 191343 5262.72 1
-3 -2 6 179987 5179.36 33
-3 -2 6 185947 5419.13 38
-3 -2 7 1709.87 365.606 23
-3 -2 7 1343.48 295.4 1
-3 -2 7 1218.9 322.428 33
-3 -2 7 1460.72 326.004 28
-3 -2 8 26359.4 1425.75 28
-3 -2 8 27587.4 1624.47 38
-3 -2 8 24464 1493.02 23
-3 -2 9 45867.7 2220.36 38
-3 -2 9 45704.3 2221 23
-3 -2 9 42843 1946.51 28
-3 -2 10 14625.9 1043.16 9
-3 -2 10 14583.3 1180.97 23
-3 -2 10 14056.3 999.047 30
-3 -2 11 5590 570.568 30
-3 -2 11 6236.84 614.512 9
-3 -2 11 6207.68 698.427 32
-3 -2 11 5044.18 659.333 23
-3 -2 12 109.747 140.217 32
-3 -2 12 77.8312 149.159 23
-3 -2 13 1036.33 208.252 32
-3 -1 -2 54310.8 2094.29 1
-3 -1 -1 62319 2293.23 1
-3 -1 0 6269.32 590.156 1
-3 -1 1 383302 9493.37 1
-3 -1 2 322453 8089.37 1
-3 -1 4 340221 8560.85 1
-3 -1 4 351639 8721.63 26
-3 -1 5 161402 4508.94 1
-3 -1 5 165797 4760.05 26
-3 -1 6 6730.11 586.764 28
-3 -1 6 5635.84 640.499 38
-3 -1 6 7850.24 743.832 26
-3 -1 6 7219.83 596.279 1
-3 -1 7 21084.1 1149.92 28
-3 -1 7 19786.6 1021.52 1
-3 -1 8 27671.9 1644.73 38
-3 -1 8 29350.7 1434.89 28
-3 -1 9 37002.4 1712.06 30
-3 -1 9 38498 2011.88 38
-3 -1 10 39781.8 1815.03 9
-3 -1 10 41771.6 2153.26 23
-3 -1 10 39010.6 1752.75 30
-3 -1 11 1236.37 358.268 23
-3 -1 11 1708.41 389.241 32
-3 -1 12 1081.02 290.675 32
-3 -1 12 1599.74 349.154 23
-3 -1 13 10844 656.742 32
-3 -1 13 11861.4 718.7 23
-3 0 -2 113757 3366.72 1
-3 0 -1 88489 2749.93 1
-3 0 2 711.113 174.821 26
-3 0 3 196145 5078.31 26
-3 0 4 213518 5616.68 26
-3 0 4 217209 5526.4 1
-3 0 5 8479.7 693.745 26
-3 0 5 9103.23 589.598 28
-3 0 5 9285.27 620.964 1
-3 0 6 67619.6 2562.92 38
-3 0 6 68903 2234.35 28
-3 0 6 70864.3 2212.98 1
-3 0 7 23888.8 1408.14 26
-3 0 7 24219.7 1154.37 28
-3 0 7 23908.8 1421.98 38
-3 0 8 6338.08 582.441 28
-3 0 8 6832.86 781.522 26
-3 0 9 80684.5 2853.2 9
-3 0 9 94582.5 3352.24 32
-3 0 10 9256.71 913.051 32
-3 0 11 -54.3741 197.746 23
-3 0 11 628.749 255.541 32
-3 0 12 15350.5 978.358 32
-3 0 13 9636.6 576.949 32
-3 1 -3 65129.2 2101.03 1
-3 1 0 681477 15349.8 26
-3 1 1 72911.2 2011.8 26
-3 1 2 38286.8 1293.88 26
-3 1 3 327745 7882.84 26
-3 1 4 121.601 69.5846 28
-3 1 4 557.108 176.179 26
-3 1 5 60346.9 1782.6 28
-3 1 5 58941 2119.83 26
-3 1 6 1035.99 185.04 28
-3 1 6 656.726 158.195 1
-3 1 6 977.437 264.515 38
-3 1 6 1021.91 273.336 26
-3 1 7 3108.45 461.714 32
-3 1 7 3128.06 479.542 26
-3 1 8 130207 4293.98 32
-3 1 8 143259 4494.63 26
-3 1 9 17507.5 1259.59 32
-3 1 9 16508.2 1254.61 26
-3 1 10 4190.03 620.116 32
-3 1 11 2832.41 473.937 32
-3 1 12 10848.2 775.613 32
-3 1 12 13283.5 902.66 23
-3 1 13 464.804 127.653 23
-3 2 -1 389768 8815.24 26
-3 2 3 11929.9 324.91 28
-3 2 3 18477.2 792.172 26
-3 2 4 447882 10706.3 26
-3 2 6 6144.72 629.004 5
-3 2 6 7119.84 648.536 26
-3 2 6 4846.31 407.733 36
-3 2 7 81347.8 2881.03 32
-3 2 7 83755 2990.42 26
-3 2 8 242034 6747.31 32
-3 2 8 237079 6805.39 26
-3 2 9 5763.25 713.884 32
-3 2 9 6672.6 771.574 26
-3 2 10 11563.4 996.28 32
-3 2 11 16782.1 1088.86 32
-3 2 12 24.4269 198.637 32
-3 2 12 517.155 193.918 23
-3 3 -3 11816.4 683.227 36
-3 3 4 79165.2 2476.08 36
-3 3 5 5998.91 562.515 26
-3 3 5 5881 512.072 36
-3 3 6 36322.9 1569.05 32
-3 3 6 34616.3 1638.84 26
-3 3 6 37210.2 1750.56 5
-3 3 7 202079 5775.58 32
-3 3 7 211133 5902.2 26
-3 3 8 4492.2 607.044 32
-3 3 8 4820.86 637.846 26
-3 3 9 68859.1 2691.78 32
-3 3 9 61748.9 2600.09 26
-3 3 10 219.093 281.05 32
-3 3 11 3478.49 463.096 32
-3 4 -4 53376.4 1911.4 36
-3 4 -3 123239 3564.31 36
-3 4 -2 28210.1 1256.27 36
-3 4 -1 508545 12127.8 36
-3 4 0 73089.9 2378.56 36
-3 4 2 300776 7538.25 36
-3 4 3 414428 10118.1 36
-3 4 4 17409.3 1020.25 36
-3 4 5 29682.1 1392.18 36
-3 4 5 30109.5 1486.66 22
-3 4 5 30522.2 1530 5
-3 4 6 69980.8 2698.4 22
-3 4 6 73444.4 2662.68 26
-3 4 6 65071.8 2410.88 32
-3 4 6 70188.6 2527.98 27
-3 4 7 3116.99 484.95 32
-3 4 7 2457.63 433.371 27
-3 4 7 3638.89 547.308 26
-3 4 8 12933 1038.25 26
-3 4 8 11089.2 942.533 32
-3 4 9 566.099 293.95 32
-3 4 9 299.75 163.923 24
-3 4 10 -104.344 242.162 32
-3 4 11 6279.99 482.76 32
-3 5 -4 13052.5 897.919 36
-3 5 -3 50344.1 2001.55 36
-3 5 -2 147626 4316.69 36
-3 5 -1 137134 4068.82 36
-3 5 0 3199.08 430.108 36
-3 5 1 195612 5464.98 36
-3 5 2 390480 9876.87 36
-3 5 3 1402.61 336.812 36
-3 5 4 53406.8 2106.91 22
-3 5 4 55461.6 2220.99 5
-3 5 4 53306.5 2213.82 36
-3 5 5 64275.6 2526.44 22
-3 5 5 63545.1 2539.38 5
-3 5 6 10634.7 954.457 22
-3 5 6 9994.64 811.51 32
-3 5 6 11223.4 932.422 26
-3 5 6 10787.2 900.349 27
-3 5 7 19727.2 1223.85 32
-3 5 7 21872.5 1443.51 5
-3 5 7 19579.9 1280.24 27
-3 5 7 20429.2 1314.5 26
-3 5 8 5834.4 662.991 32
-3 5 9 719.189 220.44 24
-3 5 9 1205.4 349.729 32
-3 6 -4 -44.5961 143.001 36
-3 6 -3 42868.5 1981.18 36
-3 6 -2 131787 4214.38 36
-3 6 -1 29710.9 1604.3 36
-3 6 1 207861 6052.97 36
-3 6 2 34439.9 1819.28 36
-3 6 3 181839 5538.87 36
-3 6 4 10960.2 901.124 22
-3 6 4 11760.3 986.25 36
-3 6 4 11288.4 957.249 5
-3 6 5 4017.79 577.15 22
-3 6 6 29418.9 1639.15 27
-3 6 6 29506.6 1692.32 22
-3 6 6 27004.7 1561.52 26
-3 6 6 29496.6 1685.53 5
-3 6 7 11849.8 971.379 27
-3 6 7 10971.6 980.563 5
-3 6 9 7056.33 565.114 24
-3 7 -5 58229.6 2409.71 37
-3 7 -4 104940 3707.58 36
-3 7 -3 169389 5312.9 36
-3 7 -2 12252.1 1061.24 36
-3 7 -1 40387.9 2081.45 36
-3 7 1 53780.7 2523.37 36
-3 7 2 31868.1 1870.59 36
-3 7 3 7859.25 862.569 36
-3 7 3 6132.07 739.918 5
-3 7 4 537.699 244.279 37
-3 7 4 47.189 114.42 22
-3 7 5 10314.3 951.236 22
-3 7 5 12247.8 1036.05 27
-3 7 6 19688.6 1313.05 22
-3 7 6 21430.3 1358.57 27
-3 7 6 23295.8 1438.2 5
-3 7 7 -43.6194 158.596 5
-3 7 7 -41.3941 132.734 27
-3 7 8 6996.12 590.536 24
-3 8 -5 31089.3 1691.9 37
-3 8 -4 46632.4 2278.17 37
-3 8 -4 49193.1 2315.35 36
-3 8 -3 1516.9 417.327 36
-3 8 -2 33224.9 1946.88 36
-3 8 -1 59147 2756.88 36
-3 8 0 8967.58 995.324 36
-3 8 1 24700.2 1677.08 36
-3 8 2 40703.5 2191.44 36
-3 8 2 43514.9 2272.42 37
-3 8 3 328.355 239.247 37
-3 8 4 28664.7 1657.63 5
-3 8 5 37279.2 1742.87 22
-3 8 5 39853.8 1920.9 5
-3 8 5 39370.6 1912.66 27
-3 8 6 120.544 168.803 5
-3 8 6 563.94 229.062 27
-3 8 7 10454.3 726.971 24
-3 9 -5 55711.9 2350.53 37
-3 9 -4 28597.5 1689.56 37
-3 9 -3 35027.3 1965.48 37
-3 9 -2 38913.3 2140.19 37
-3 9 0 10663.7 1084.1 37
-3 9 1 41839.1 2192.04 37
-3 9 2 106.471 182.501 37
-3 9 3 11954.2 1003.03 5
-3 9 4 42709.2 1951.4 27
-3 9 4 43864.1 1949.96 5
-3 9 5 1846.34 351.95 27
-3 9 5 1841.06 340.653 5
-3 10 -5 27987.4 1405.01 37
-3 10 -4 11045.2 913.874 37
-3 10 -3 18506.9 1270.65 37
-3 10 -2 52.5887 168.63 37
-3 10 0 52038.3 2311.94 37
-3 10 1 2935.71 479.365 37
-3 10 2 27929.6 1452.36 5
-3 10 2 25740.1 1374.12 27
-3 10 3 21592.7 1156.86 5
-3 10 4 3907.51 404.738 5
-3 11 -5 5771.76 458.202 37
-3 11 -4 29330.3 1304.7 37
-3 11 -3 946.748 257.264 37
-3 11 -2 13203.5 885.501 37
-3 11 -1 23916.5 1220.39 5
-3 11 -1 22716.3 1191.31 37
-3 11 0 1316.45 257.772 37
-3 11 0 1191.68 249.279 27
-3 11 1 5302.05 460.08 27
-3 11 1 6498.53 538.389 5
-3 11 2 3957.53 354.979 5
-3 11 2 3824.68 343.856 27
-2 -9 2 17570 860.206 4
-2 -9 3 17052 909.738 38
-2 -9 3 16862.8 923.365 4
-2 -9 4 14178.5 855.873 4
-2 -9 4 13300.5 796.118 38
-2 -9 5 54546.2 1870.02 38
-2 -9 6 3284.56 373.025 4
-2 -8 -2 13616.1 724.455 38
-2 -8 -1 12191.7 796.487 38
-2 -8 0 34690.1 1560.48 38
-2 -8 0 31636.4 1324.18 4
-2 -8 1 38035.4 1721.57 4
-2 -8 1 38765.7 1769.41 38
-2 -8 2 11408.8 936.488 4
-2 -8 3 3968.46 571.765 4
-2 -8 3 3212.4 494.979 38
-2 -8 4 60118.5 2418.16 38
-2 -8 4 62585.1 2548.32 4
-2 -8 5 12065.4 931.55 38
-2 -8 6 653.072 237.896 38
-2 -8 6 744.666 256.117 4
-2 -8 7 25791.4 1276.32 38
-2 -8 7 23066 1217.05 4
-2 -8 8 692.82 188.263 9
-2 -8 9 14121.5 720.338 9
-2 -8 10 6121.56 376.679 9
-2 -7 0 132855 4293.32 4
-2 -7 4 28595.3 1661.56 38
-2 -7 5 9837.76 928.928 38
-2 -7 6 40441.8 1982.71 38
-2 -7 7 6718.43 712.478 38
-2 -7 7 5747.87 661.216 4
-2 -7 7 5619.43 594.707 33
-2 -7 8 33179.2 1581.41 38
-2 -7 8 29383.8 1417.5 33
-2 -7 9 21787.6 1169.25 9
-2 -7 10 5830.58 517.576 9
-2 -7 10 5705.3 522.662 30
-2 -7 11 5824.17 434.665 9
-2 -7 11 5622.75 431.653 30
-2 -6 0 42500.1 2206.56 1
-2 -6 1 57837.3 2746.84 1
-2 -6 2 27085.7 1796.59 1
-2 -6 3 21768 1574.02 1
-2 -6 4 22684.3 1455.16 38
-2 -6 5 19622.5 1447.84 1
-2 -6 5 23434 1468.79 38
-2 -6 6 16974.4 1244.51 38
-2 -6 6 18555.5 1209.43 33
-2 -6 6 18430.9 1334.64 1
-2 -6 7 52386.5 2291.17 1
-2 -6 7 52462 2328.02 38
-2 -6 7 50523.3 2208.71 33
-2 -6 8 101044 3492.92 38
-2 -6 8 98661.7 3414.38 33
-2 -6 9 13186.5 969.232 38
-2 -6 9 13191.7 973.452 33
-2 -6 10 2982.84 440.975 30
-2 -6 10 3139.15 445.96 9
-2 -6 11 16967.5 934.614 30
-2 -6 11 17408.6 952.009 9
-2 -6 12 2222.75 263.953 32
-2 -6 12 2208.56 253.444 30
-2 -5 -1 43936.5 2156.37 1
-2 -5 0 4471.69 679.461 1
-2 -5 1 41287.7 2195.55 1
-2 -5 2 54522.6 2569.08 1
-2 -5 3 14152.1 1197.4 1
-2 -5 4 49134.2 2202.24 38
-2 -5 4 52294.3 2423.1 1
-2 -5 5 88472.8 3274.43 38
-2 -5 5 96473.8 3494.26 1
-2 -5 6 29705.1 1630.07 38
-2 -5 6 28952.2 1631.68 1
-2 -5 6 27300.5 1583.25 28
-2 -5 6 26385 1504.16 33
-2 -5 7 120398 4021.91 1
-2 -5 7 121395 4090.79 33
-2 -5 7 127901 4196.74 28
-2 -5 7 129658 4191.71 38
-2 -5 8 8357.02 846.206 33
-2 -5 8 7942.59 831.803 28
-2 -5 8 9144.23 870.229 38
-2 -5 9 559.653 252.988 38
-2 -5 9 397.206 225.388 33
-2 -5 10 40951.1 1817.01 38
-2 -5 10 42091.7 1901.47 30
-2 -5 11 3036.37 422.322 30
-2 -5 12 8089.02 576.493 9
-2 -5 12 7156.6 513.417 8
-2 -5 12 7660.35 544.816 30
-2 -4 -1 2498.33 465.687 1
-2 -4 0 112034 3899.49 1
-2 -4 1 90006 3360.62 1
-2 -4 2 240684 6854.14 1
-2 -4 4 54089.6 2323.74 1
-2 -4 5 14868.7 1084.67 1
-2 -4 5 15410.4 1061.37 38
-2 -4 6 348719 9116.35 1
-2 -4 6 363613 9118.7 28
-2 -4 6 338225 9070.16 33
-2 -4 6 348603 9147.05 38
-2 -4 7 22268.3 1383.87 33
-2 -4 7 20410.6 1307.09 23
-2 -4 7 23016 1402.63 38
-2 -4 7 23452.3 1401.33 28
-2 -4 7 22844.3 1279.76 1
-2 -4 8 989.358 334.759 33
-2 -4 8 1575.36 390.228 23
-2 -4 8 981.491 304.174 28
-2 -4 8 898.155 303.275 38
-2 -4 9 35027.4 1864.83 33
-2 -4 9 36559.6 1830.57 38
-2 -4 9 30515.1 1688.65 28
-2 -4 9 33874.9 1831.67 23
-2 -4 10 13029.5 1006.07 9
-2 -4 10 12939 992.891 30
-2 -4 10 12883.2 988.2 38
-2 -4 11 23890.6 1285.98 30
-2 -4 11 24574.4 1321.18 9
-2 -4 12 7693.44 598.439 9
-2 -4 12 7498.34 642.005 32
-2 -4 13 1860.05 234.547 8
-2 -3 -2 49115.5 2013.43 1
-2 -3 -1 40540.1 1864.03 1
-2 -3 0 33577.7 1662.81 1
-2 -3 1 70801.1 2620.09 1
-2 -3 2 750266 17875.6 1
-2 -3 4 1633.5 326.448 1
-2 -3 5 228613 6206.94 1
-2 -3 5 230565 6217.83 38
-2 -3 6 96056.1 3149.06 28
-2 -3 6 92641.5 3170.25 38
-2 -3 6 92263.8 3160.5 33
-2 -3 6 92085.7 3035.13 1
-2 -3 7 21724.6 1354.43 23
-2 -3 7 22319.9 1361.61 38
-2 -3 7 22275 1376.99 33
-2 -3 7 24794.4 1207.49 1
-2 -3 7 25653.7 1382.27 28
-2 -3 8 3611.57 568.167 33
-2 -3 8 2484.67 470.177 38
-2 -3 8 3096.42 482.367 28
-2 -3 8 3949.96 595.032 23
-2 -3 9 5989.08 726.423 38
-2 -3 9 5181.49 643.696 28
-2 -3 9 5164.8 700.763 23
-2 -3 10 25450.1 1597.04 23
-2 -3 10 24884.1 1456.58 9
-2 -3 10 25713.4 1452.13 30
-2 -3 11 30109.2 1477.36 30
-2 -3 11 28739.4 1586.15 32
-2 -3 11 28381.4 1464.17 9
-2 -3 11 28994.8 1639.71 23
-2 -3 12 427.994 198.286 32
-2 -3 12 390.403 165.808 9
-2 -3 13 1118.34 210.843 8
-2 -3 13 674.521 176.151 32
-2 -2 -2 79628.6 2633.77 1
-2 -2 -1 171614 4799.99 1
-2 -2 0 1149.15 256.546 1
-2 -2 1 887207 20566.7 1
-2 -2 2 54361.6 1948.51 1
-2 -2 3 11626.9 753.25 1
-2 -2 4 159604 4366.25 1
-2 -2 5 151446 4204.24 1
-2 -2 6 207016 5470.71 1
-2 -2 6 204848 5769.84 38
-2 -2 6 217535 5671.58 28
-2 -2 7 37539.2 1835.04 23
-2 -2 7 39073.1 1827.61 38
-2 -2 7 39001.2 1724.9 28
-2 -2 7 40010.7 1881.83 33
-2 -2 8 6233.48 751.885 23
-2 -2 8 7951.92 730.875 28
-2 -2 8 5713.47 696.5 38
-2 -2 9 1968.84 451.087 23
-2 -2 9 1749.83 365.587 28
-2 -2 9 1682.51 373.843 30
-2 -2 9 1398.9 368.97 9
-2 -2 9 2401.2 465.012 38
-2 -2 10 52527.7 2465.87 23
-2 -2 10 50733.9 2190.57 9
-2 -2 10 48460.6 2120.38 28
-2 -2 10 54815.5 2234.2 30
-2 -2 10 54697 2422.24 32
-2 -2 11 15600.5 1184.05 23
-2 -2 11 13896.5 966.007 9
-2 -2 11 16032.1 1156.85 32
-2 -2 12 158.698 179.943 23
-2 -2 12 121.892 106.581 31
-2 -2 12 225.196 164.042 32
-2 -2 13 12946.2 726.003 32
-2 -1 -2 43477.6 1586.17 1
-2 -1 -1 5273.33 460.397 1
-2 -1 0 835765 19186.9 1
-2 -1 1 256128 6320.15 1
-2 -1 3 113645 3169.23 1
-2 -1 3 119305 3281.82 26
-2 -1 4 191324 5089.17 26
-2 -1 4 193143 4899.25 1
-2 -1 5 95887.3 2776.24 1
-2 -1 5 100777 2892.05 28
-2 -1 6 85072 2458.57 1
-2 -1 6 88097.6 2724.71 28
-2 -1 6 85985.3 2923.32 26
-2 -1 7 5417.35 541.345 28
-2 -1 7 4992.6 601.931 38
-2 -1 8 7849.06 698.284 28
-2 -1 8 7060.83 761.094 38
-2 -1 8 8713.49 745.348 30
-2 -1 9 131679 4022.27 30
-2 -1 9 122472 3905.23 28
-2 -1 9 127066 3996.85 9
-2 -1 10 30055.8 1706.65 32
-2 -1 10 26694.4 1433.93 9
-2 -1 10 25478 1656.14 23
-2 -1 10 26562 1432.67 30
-2 -1 11 1522 305.637 31
-2 -1 11 1301.8 370.462 32
-2 -1 12 15457.6 1022.57 23
-2 -1 12 14701.6 985.87 32
-2 -1 13 4453.7 405.962 32
-2 -1 13 4203.12 365.638 8
-2 0 -3 157355 3972.08 1
-2 0 -2 58213.6 1782.84 1
-2 0 1 26006.8 896.087 26
-2 0 2 7133.05 427.106 26
-2 0 3 4463.03 368.218 26
-2 0 4 2337.74 250.916 28
-2 0 4 2706.51 258.257 1
-2 0 5 511300 11762.3 1
-2 0 5 507052 11933.9 28
-2 0 5 516658 12178.7 26
-2 0 6 2039 344.275 26
-2 0 6 1158.53 220.435 28
-2 0 7 33442.6 1430.84 30
-2 0 7 31965.3 1386.92 28
-2 0 7 33680.5 1597.79 26
-2 0 7 31089.1 1612.32 38
-2 0 8 81022.8 2710.28 28
-2 0 8 80507.4 2741.35 30
-2 0 8 85442.4 3081.95 32
-2 0 8 87476 3071.58 26
-2 0 9 42460.4 2081.79 32
-2 0 9 37600.2 1721.97 9
-2 0 10 1674.41 407.535 32
-2 0 11 1993.91 428.176 23
-2 0 11 3084.24 516.635 32
-2 0 12 6198.88 611.481 23
-2 0 12 6779.5 633.006 32
-2 0 13 1977.25 265.062 32
-2 1 0 93738.1 2259.08 26
-2 1 1 438773 9980.18 26
-2 1 2 1770.7 189.762 26
-2 1 3 21171.2 851.201 26
-2 1 3 21388.8 696.206 28
-2 1 4 454371 10401.7 28
-2 1 5 409268 9402.46 28
-2 1 5 407923 9760.63 26
-2 1 5 397429 9267.96 1
-2 1 6 42182.1 1693.73 26
-2 1 6 39927.6 1425.96 28
-2 1 7 98242.9 3327.78 32
-2 1 7 102924 3297.51 26
-2 1 7 97824.8 2950.37 28
-2 1 8 120111 4029.05 32
-2 1 8 121100 3915.13 26
-2 1 9 6334.84 709.554 26
-2 1 9 6169.48 756.118 32
-2 1 10 4198.13 619.729 32
-2 1 11 1590.44 358.514 32
-2 1 11 1478.49 368.746 23
-2 1 12 1525.67 285.97 23
-2 1 12 1133.84 306.143 32
-2 2 -3 97420.1 2558.77 36
-2 2 4 580408 13292.3 36
-2 2 4 573393 13041.8 28
-2 2 4 591027 13490 26
-2 2 5 41743.3 1332.53 36
-2 2 5 44902.8 1646.18 26
-2 2 6 450941 11345.8 22
-2 2 6 450326 11263.5 32
-2 2 6 457100 11389.9 5
-2 2 6 481919 11263.9 26
-2 2 7 44311.9 1867.83 27
-2 2 7 46328.4 2031.72 32
-2 2 7 47437.3 1978.91 26
-2 2 7 48591.7 2121.4 17
-2 2 8 37079.5 1721.19 24
-2 2 8 36197.8 1866.25 32
-2 2 8 35795.4 1749.22 26
-2 2 9 15373.8 1196.53 32
-2 2 9 16197.7 1080.66 24
-2 2 10 1878.27 337.196 24
-2 2 10 1924.29 422.818 32
-2 2 11 37.7927 129.552 23
-2 2 11 -194.322 294.15 32
-2 2 12 13536.7 748.983 32
-2 3 -4 320969 7689.63 36
-2 3 -3 104709 2901.73 36
-2 3 -2 6511.62 454.378 36
-2 3 -1 619693 14290.7 36
-2 3 0 176235 4471.47 36
-2 3 2 267912 6564.56 36
-2 3 3 358029 8574.63 36
-2 3 4 2941.19 338.117 36
-2 3 5 10361.6 598.274 36
-2 3 5 12573.5 792.153 26
-2 3 6 18214.1 1111.15 32
-2 3 6 19840 1215.85 22
-2 3 6 19805.2 1130.82 27
-2 3 6 17429.5 1149.73 5
-2 3 6 18389.5 1162.82 17
-2 3 6 20100.7 1126.89 26
-2 3 7 1217.63 329.75 5
-2 3 7 1099.76 321.704 22
-2 3 7 1404.91 348.414 32
-2 3 7 1052.21 294.252 27
-2 3 7 930.779 260.914 26
-2 3 8 26476.3 1490.26 24
-2 3 8 28465.9 1617.53 32
-2 3 9 51.3924 264.28 32
-2 3 9 259.236 181.432 24
-2 3 10 1471.98 296.773 24
-2 3 10 1268.74 383.588 32
-2 3 11 20905.3 1086.44 32
-2 4 -4 26248.4 1175.69 36
-2 4 -3 1461.23 270.265 36
-2 4 -2 654243 15294.9 36
-2 4 -1 376440 9145.24 36
-2 4 0 48843.6 1754.45 36
-2 4 1 159098 4349.44 36
-2 4 2 461918 11148.2 36
-2 4 3 3021.52 401.028 36
-2 4 4 19666.4 1051.23 36
-2 4 5 32460.2 1583.68 22
-2 4 5 33883.4 1504.62 32
-2 4 5 30961.1 1562.81 5
-2 4 6 516.903 239.503 27
-2 4 6 920.371 300.556 5
-2 4 6 40.7646 288.299 32
-2 4 6 493.744 210.993 17
-2 4 6 711.283 257.26 22
-2 4 6 810.696 238.836 26
-2 4 7 100548 3522.15 27
-2 4 7 99734.1 3552.87 17
-2 4 7 105003 3637.5 5
-2 4 7 97849.9 3346.15 26
-2 4 7 98497.6 3484.76 32
-2 4 7 107418 3734.5 22
-2 4 8 7232.58 767.679 24
-2 4 8 6802.74 776.016 32
-2 4 9 269.619 261.423 32
-2 4 9 741.909 259.804 24
-2 4 10 14436 858.634 24
-2 4 10 15011.7 961.24 32
-2 5 -5 24481.7 1220.84 36
-2 5 -4 33356.2 1524.81 36
-2 5 -3 167553 4750.11 36
-2 5 -2 330304 8418.44 36
-2 5 -1 2435.08 388.667 36
-2 5 1 168988 4870.85 36
-2 5 2 27967.5 1452.21 36
-2 5 3 93407.9 3178.01 36
-2 5 4 5634.54 632.714 5
-2 5 4 6102.35 612.308 36
-2 5 4 6595.84 617.021 32
-2 5 4 6194.99 639.844 22
-2 5 5 272.457 213.24 27
-2 5 5 458.261 215.195 5
-2 5 5 326.302 187.479 22
-2 5 5 76.7146 223.035 32
-2 5 6 57903.5 2495.48 22
-2 5 6 54829.4 2242.62 26
-2 5 6 57014.9 2429.08 27
-2 5 6 56213.1 2428.2 5
-2 5 6 54526.1 2285.19 32
-2 5 7 44085.2 2209.94 22
-2 5 7 46051.8 2087.3 32
-2 5 7 47115.7 2190.88 27
-2 5 7 48022 2203.39 5
-2 5 8 1502.95 354.963 24
-2 5 8 1479.28 426.394 32
-2 5 9 9347.95 748.696 24
-2 5 9 10661.8 808.236 32
-2 5 10 11638.9 631.46 24
-2 6 -5 120.708 129.026 36
-2 6 -5 41.2059 122.335 37
-2 6 -4 42856.2 1943.07 36
-2 6 -3 312361 8292.7 36
-2 6 -2 9177.97 836.049 36
-2 6 -1 60096.5 2466.82 36
-2 6 1 2992.05 502.725 36
-2 6 2 61569.2 2578.16 36
-2 6 3 3749.25 514.176 22
-2 6 3 4197.36 581.71 36
-2 6 4 2071.89 427.467 5
-2 6 4 1983.09 403.048 22
-2 6 5 56687.8 2411.68 5
-2 6 5 53682.6 2399.4 22
-2 6 5 52304.6 2389.59 27
-2 6 6 73248.2 2968.34 22
-2 6 6 72698.5 2908.95 27
-2 6 6 72552.3 2875.71 5
-2 6 7 2893.31 490.217 27
-2 6 7 3330.7 543.183 22
-2 6 8 13007.3 922.607 24
-2 6 9 11874.9 711.108 24
-2 7 -5 35717.1 1808.36 36
-2 7 -5 37582.8 1868.78 37
-2 7 -4 171041 5385.43 37
-2 7 -4 179134 5377.63 36
-2 7 -3 7297.81 802.123 36
-2 7 -2 63601.5 2710.54 36
-2 7 0 26922.7 1660.52 36
-2 7 1 138861 4673.18 36
-2 7 2 49078.4 2374.96 37
-2 7 2 47771.4 2065.59 22
-2 7 2 50125.8 2357.09 36
-2 7 3 4110.51 612.416 5
-2 7 3 3034.55 530.197 37
-2 7 3 2912.15 499.624 36
-2 7 3 3342.01 519.352 22
-2 7 4 37717.6 1973.26 27
-2 7 4 39604.1 1945.87 22
-2 7 4 36079.3 1896.24 5
-2 7 5 86488 3284.99 27
-2 7 5 88188.8 3218.13 5
-2 7 5 85792.1 3249.11 22
-2 7 6 346.642 210.174 5
-2 7 6 388.851 228.26 22
-2 7 6 240.469 202.035 27
-2 7 8 4956.41 460.88 24
-2 8 -6 33502.7 1675.98 37
-2 8 -5 52911.4 2340.89 37
-2 8 -5 46760.2 2216.16 36
-2 8 -4 31729.7 1838.75 37
-2 8 -4 35440 1896.54 36
-2 8 -3 40561.9 2105.84 36
-2 8 -3 37526.1 2063.98 37
-2 8 -2 24139.3 1618.62 37
-2 8 -2 22133.8 1535.69 36
-2 8 0 35305.2 2017.72 36
-2 8 0 36854.3 2098.89 37
-2 8 1 122935 4384.04 36
-2 8 1 128469 4493.96 37
-2 8 2 4220.64 558.884 22
-2 8 2 3846.47 608.125 37
-2 8 2 4011.64 610.508 36
-2 8 3 33487.8 1712.06 22
-2 8 3 34546.2 1831.25 5
-2 8 4 33052.7 1720.29 5
-2 8 4 32750.5 1676.07 22
-2 8 5 2205.25 394.255 5
-2 8 5 2739.31 440.839 22
-2 8 5 2335.88 445.471 27
-2 8 7 1438.52 241.134 24
-2 9 -6 14088.9 981.776 37
-2 9 -5 4374.54 606.395 37
-2 9 -4 38265.1 1987.73 37
-2 9 -3 59324.5 2674.01 37
-2 9 -2 12078.4 1114.25 37
-2 9 -1 44725.2 2304.42 37
-2 9 0 92384.8 3559.9 37
-2 9 1 592.341 269.4 37
-2 9 2 31342.9 1673.46 5
-2 9 2 29989.8 1645.56 27
-2 9 3 21497.2 1303.95 27
-2 9 3 20334.4 1227.47 5
-2 9 4 7037.16 625.645 5
-2 10 -6 4313.57 460.994 37
-2 10 -5 17131.6 1082.83 37
-2 10 -4 30961.3 1605.59 37
-2 10 -3 4147.05 576.277 37
-2 10 -1 18058.9 1219.91 37
-2 10 0 2594.08 448.101 5
-2 10 0 2469.48 435.319 37
-2 10 1 9489.9 783.99 5
-2 10 1 9872.99 773.329 27
-2 10 2 15176.8 918.534 27
-2 10 2 15641.1 923.426 5
-2 10 3 1176.82 239.12 27
-2 11 -5 22856.4 995.24 37
-2 11 -4 579.822 181.14 37
-2 11 -3 28519 1287.9 37
-2 11 -2 27659.6 1250.81 5
-2 11 -1 11144.7 706.884 5
-2 11 -1 9545.46 656.291 37
-2 11 0 8849.94 573.568 5
-1 -10 3 4120.12 382.322 4
-1 -10 4 40754.4 1463.18 4
-1 -10 6 123.379 83.6331 4
-1 -9 0 16607.9 829.786 4
-1 -9 1 39398.5 1656.56 4
-1 -9 1 38154.8 1656.41 38
-1 -9 2 15800.6 1006.3 38
-1 -9 2 14441 1003.1 4
-1 -9 3 5357.39 626.667 4
-1 -9 3 5963.35 611.101 38
-1 -9 4 36573.9 1618.1 38
-1 -9 4 35666.4 1716.51 4
-1 -9 5 39.1011 134.037 4
-1 -9 6 9165.13 722.922 4
-1 -8 0 104990 3566.26 4
-1 -8 1 30232.6 1717.63 4
-1 -8 2 4550.97 678.303 4
-1 -8 3 81577.7 3245.57 4
-1 -8 3 80441.7 3067.02 38
-1 -8 4 291.704 204.212 38
-1 -8 5 26899.5 1583.52 4
-1 -8 5 24722.4 1438.43 38
-1 -8 6 22469.9 1300.27 38
-1 -8 6 23796.2 1403.28 4
-1 -8 6 22990.3 1309.12 33
-1 -8 7 3763.35 499.501 33
-1 -8 7 4317.97 525.96 4
-1 -8 7 3397.92 435.836 9
-1 -8 8 39436.7 1600.82 9
-1 -8 8 40318 1695.4 33
-1 -8 9 13293.5 837.525 30
-1 -8 9 13717.8 796.701 9
-1 -8 10 129.505 104.718 30
-1 -8 10 259.594 114.663 9
-1 -7 -1 60248.2 2522.84 4
-1 -7 0 21293.2 1465.48 4
-1 -7 1 6078.28 811.142 1
-1 -7 2 46101.4 2420.03 1
-1 -7 3 3129.29 595.28 1
-1 -7 4 79589.3 3040.6 38
-1 -7 4 75023 3184.4 1
-1 -7 5 97589 3455.57 38
-1 -7 5 94834.9 3592.99 1
-1 -7 5 93603.5 3435.76 28
-1 -7 6 24844.2 1460.04 38
-1 -7 6 25938.5 1533.3 4
-1 -7 6 23305 1464.9 28
-1 -7 7 52199.3 2184 38
-1 -7 7 51074.8 2176.6 4
-1 -7 7 51535.8 2292.55 33
-1 -7 8 35731 1778.83 33
-1 -7 9 7813.76 731.892 33
-1 -7 9 8238.04 716.458 9
-1 -7 10 555.813 198.403 9
-1 -7 11 15812.8 829.377 30
-1 -7 11 15336.8 789.953 32
-1 -7 11 16652.3 831.924 9
-1 -6 -1 9818.02 958.275 1
-1 -6 0 1511.65 415.882 1
-1 -6 1 14760.2 1241.65 1
-1 -6 2 61094.3 2751.71 1
-1 -6 3 124303 4348.33 1
-1 -6 4 104572 3590.07 38
-1 -6 4 102021 3769.97 1
-1 -6 5 13603.5 1047.65 38
-1 -6 5 13097.5 1097.03 1
-1 -6 5 14773.9 1098.88 28
-1 -6 6 14348.9 1063.2 38
-1 -6 6 13601 1063.47 28
-1 -6 7 153432 4693.06 38
-1 -6 7 159910 4953.03 33
-1 -6 7 148831 4596.02 4
-1 -6 7 150144 4822.78 28
-1 -6 8 4180.41 618.53 33
-1 -6 8 4093.97 542.335 38
-1 -6 9 8372.95 833.964 33
-1 -6 9 7766.55 767.147 9
-1 -6 10 21088 1113.91 8
-1 -6 10 21857.7 1249.75 9
-1 -6 10 21557.6 1249.5 30
-1 -6 11 215.038 129.645 8
-1 -6 11 245.154 157.687 9
-1 -6 11 582.215 196.608 30
-1 -6 11 213.418 152.473 32
-1 -6 12 16335.5 772.565 32
-1 -5 -2 33136.8 1652.78 1
-1 -5 -1 168671 5171.3 1
-1 -5 0 53269.9 2387.5 1
-1 -5 1 57343.4 2517.01 1
-1 -5 2 143715 4637.45 1
-1 -5 4 31821.4 1677.19 1
-1 -5 4 29798.5 1520.19 38
-1 -5 5 811.576 256.337 38
-1 -5 5 1057.88 300.861 1
-1 -5 6 203327 5751.28 38
-1 -5 6 200063 5733.56 1
-1 -5 7 9872.84 848.599 38
-1 -5 7 9042.5 770.25 1
-1 -5 7 10728.7 924.462 28
-1 -5 7 10283.9 953.606 33
-1 -5 8 31614.3 1794.02 33
-1 -5 8 33316 1759.86 28
-1 -5 8 35330.7 1721.29 38
-1 -5 9 18134.4 1301.21 33
-1 -5 9 18801.3 1254.62 9
-1 -5 9 15264.7 1143.31 28
-1 -5 9 16775.4 1099.28 38
-1 -5 10 4237.83 569.987 30
-1 -5 10 4472.72 584.172 9
-1 -5 11 24972.3 1333.11 32
-1 -5 11 27798.3 1367.62 30
-1 -5 12 10210 680.611 32
-1 -5 12 10406.5 666.99 8
-1 -4 -2 116112 3629.42 1
-1 -4 -1 255326 6931.74 1
-1 -4 0 111590 3665.93 1
-1 -4 1 74072.4 2726.65 1
-1 -4 2 445253 11167.8 1
-1 -4 4 10786.4 837.434 1
-1 -4 5 44748.8 1854.19 38
-1 -4 5 48163.7 1939.58 1
-1 -4 6 5793.42 611.855 38
-1 -4 6 5697.6 623.355 28
-1 -4 6 6017.35 576.838 1
-1 -4 6 6006.1 668.862 23
-1 -4 7 61890.1 2606.44 23
-1 -4 7 61532.5 2605.59 33
-1 -4 7 65733.5 2219.85 1
-1 -4 7 67368.5 2579.51 28
-1 -4 7 64709 2479.02 38
-1 -4 8 40057.6 1882.58 38
-1 -4 8 38176.5 1903.46 28
-1 -4 8 44997.8 2141.18 33
-1 -4 8 41669.1 2089.7 23
-1 -4 9 621.894 299.689 23
-1 -4 9 738.916 316.648 33
-1 -4 9 1634.54 362.022 38
-1 -4 9 1226.99 342.593 30
-1 -4 9 1771.92 382.76 28
-1 -4 10 34421.5 1763.14 9
-1 -4 10 36302.2 1782.99 30
-1 -4 11 38388.3 1743.88 9
-1 -4 11 38238.7 1798.36 32
-1 -4 11 38284.4 1727.47 30
-1 -4 12 1007.9 243.744 32
-1 -4 13 1529.77 214.185 8
-1 -3 -2 461774 11155.5 1
-1 -3 -1 4854.34 507.104 1
-1 -3 0 72616.6 2486.03 1
-1 -3 1 641568 15205.3 1
-1 -3 2 142243 4059.8 1
-1 -3 3 200881 5362.38 1
-1 -3 4 101727 3087.98 1
-1 -3 5 25070.9 1222.62 28
-1 -3 5 25319.6 1183.18 1
-1 -3 6 31899.8 1489.52 38
-1 -3 6 29152.6 1541.46 33
-1 -3 6 32770 1515.34 28
-1 -3 6 34851 1356.59 1
-1 -3 7 42826.4 2036.49 23
-1 -3 7 44002.7 2049.44 33
-1 -3 7 46238.7 1944.84 28
-1 -3 7 46481.2 1953.04 38
-1 -3 8 41827.8 2103.12 23
-1 -3 8 41991.7 2099.52 33
-1 -3 8 43869.1 1955.37 38
-1 -3 8 44946.7 1988.23 28
-1 -3 9 5977.26 758.859 23
-1 -3 9 5875.37 688.759 9
-1 -3 9 6852.33 733.005 30
-1 -3 9 5674.13 666.955 28
-1 -3 10 89748.4 3219.07 30
-1 -3 10 94543.9 3477.33 23
-1 -3 10 88107.4 3206.42 9
-1 -3 11 2154.3 392.695 9
-1 -3 12 1465.2 264.319 31
-1 -3 12 905.568 241.84 32
-1 -3 13 2146.43 260.527 32
-1 -2 -3 745845 17009.6 1
-1 -2 -2 75304.2 2287.74 1
-1 -2 -1 3197.19 351.723 1
-1 -2 0 477420 11281.8 1
-1 -2 1 244771 6096.11 1
-1 -2 3 3871.6 372.465 1
-1 -2 4 17435.3 835.602 1
-1 -2 5 173519 4424.69 1
-1 -2 5 170107 4614.92 28
-1 -2 6 280853 6982.29 28
-1 -2 6 265817 6456.74 1
-1 -2 7 61168.5 2480.25 23
-1 -2 7 60818.8 2328.94 38
-1 -2 7 62050 2289.37 28
-1 -2 7 61234.8 2477.57 33
-1 -2 8 11350.3 1015.73 23
-1 -2 8 10709.3 863.603 28
-1 -2 8 9833.71 851.52 30
-1 -2 8 11784.7 927.032 38
-1 -2 8 10944.1 887.27 9
-1 -2 9 167538 4995.81 9
-1 -2 9 169520 5002.68 30
-1 -2 9 155003 4855.98 28
-1 -2 10 7682.89 774.133 28
-1 -2 10 7230.88 745.21 9
-1 -2 10 8729.42 823.289 30
-1 -2 11 2557.37 475.719 23
-1 -2 11 2080.8 379.809 31
-1 -2 12 2989.24 365.287 31
-1 -2 13 1322.82 195.733 8
-1 -1 -3 214460 5060.53 1
-1 -1 -2 7669.74 439.747 1
-1 -1 -1 16474.6 700.46 1
-1 -1 0 63190.9 1794.28 1
-1 -1 1 71655 1974.1 1
-1 -1 2 495313 11194.6 1
-1 -1 2 479497 11271 26
-1 -1 3 1410.43 183.561 1
-1 -1 4 313269 7324.55 1
-1 -1 4 312908 7500.51 28
-1 -1 4 309259 7584.75 26
-1 -1 5 356888 8131.75 1
-1 -1 5 349252 8513.76 28
-1 -1 5 344779 8619.98 26
-1 -1 6 27450.4 1238.87 28
-1 -1 6 28678.6 1333.83 26
-1 -1 7 2140.07 376.555 38
-1 -1 7 2262.46 354.875 28
-1 -1 7 2815.87 404.283 30
-1 -1 7 1794.65 332.916 9
-1 -1 8 68938.7 2694 32
-1 -1 8 69477.1 2537.09 30
-1 -1 8 63152.6 2465.67 9
-1 -1 8 64684.6 2433.32 28
-1 -1 9 30012.7 1575.12 9
-1 -1 9 33628.2 1821.49 32
-1 -1 9 30704.4 1617.33 30
-1 -1 9 33273.9 1861.94 23
-1 -1 9 30217.8 1596.11 28
-1 -1 10 14609.3 1160.64 32
-1 -1 10 11800.7 1064.29 23
-1 -1 11 9244.5 750.505 31
-1 -1 11 10614.4 920.784 23
-1 -1 11 11224.6 945.888 32
-1 -1 12 2885.22 400.892 23
-1 -1 12 2611.68 387.752 32
-1 -1 12 2882.45 382.304 8
-1 0 -3 63940.1 1566 1
-1 0 -2 197897 4624.92 1
-1 0 0 2913.93 151.187 26
-1 0 1 293826 6706 26
-1 0 2 337793 7784.54 26
-1 0 3 115363 2741.6 1
-1 0 3 117256 2873.55 28
-1 0 4 589815 13190.6 1
-1 0 4 589594 13489.5 28
-1 0 4 584039 13578.9 26
-1 0 5 177123 4537.91 28
-1 0 5 177672 4628.79 26
-1 0 6 9364.13 633.571 28
-1 0 6 9431.97 678.94 26
-1 0 7 26121.5 1433.8 32
-1 0 7 26709.5 1446.14 17
-1 0 7 27027.8 1305.65 30
-1 0 7 27792.7 1340.94 26
-1 0 7 25218.7 1250.64 28
-1 0 8 25953.2 1370.18 24
-1 0 8 25746.3 1359.48 28
-1 0 8 24330.3 1321.1 9
-1 0 9 24080 1349.17 24
-1 0 9 25469.4 1583.9 32
-1 0 9 25198.1 1402.73 31
-1 0 10 14296.4 991.159 31
-1 0 10 15612.3 1211.6 23
-1 0 10 14963.7 988.442 24
-1 0 10 14859.7 1174.7 32
-1 0 11 1911.2 396.668 32
-1 0 11 2417.59 435.7 23
-1 0 12 7337.02 627.173 32
-1 1 -3 5872.66 254.496 36
-1 1 2 59292.5 1452.2 28
-1 1 4 181404 4227.34 36
-1 1 4 185218 4482.22 28
-1 1 4 192591 4627.15 26
-1 1 5 207186 5128.56 28
-1 1 5 205578 5259.28 26
-1 1 6 11951.6 849.582 32
-1 1 6 12581.6 740.717 28
-1 1 6 12641 781.425 26
-1 1 7 45654.9 1909.53 24
-1 1 7 45100 2013.61 22
-1 1 7 49042.2 2086.01 32
-1 1 7 45085.9 2030.53 17
-1 1 7 46844.3 1842.15 26
-1 1 7 46372.8 1823.64 31
-1 1 8 8351.31 775.115 24
-1 1 8 7291.17 686.079 31
-1 1 8 8438.13 842.422 17
-1 1 8 8549.47 855.067 32
-1 1 8 6994.7 621.909 10
-1 1 9 31713.1 1659.27 24
-1 1 9 37010.5 1956.51 32
-1 1 10 2224.46 451.833 23
-1 1 10 2582.9 493.917 32
-1 1 10 2830.59 442.86 24
-1 1 11 2657.04 345.882 24
-1 1 11 2880.54 483.018 32
-1 1 12 17485.3 893.425 32
-1 2 -4 230643 5434.14 36
-1 2 -3 32966.2 1063.94 36
-1 2 -2 50183.9 1453.68 36
-1 2 -1 999999 22444.3 36
-1 2 0 244633 5775.51 36
-1 2 1 38165.6 1188.52 36
-1 2 2 66899.9 1856.1 36
-1 2 2 65356 1550.26 10
-1 2 3 132432 3328.37 36
-1 2 3 129586 3105.88 10
-1 2 4 58599.7 1675.42 10
-1 2 4 64403.8 1687.06 36
-1 2 5 13339.3 645.395 10
-1 2 5 15579.8 815.496 26
-1 2 6 927.237 258.678 5
-1 2 6 926.96 252.545 22
-1 2 6 1188.59 300.259 17
-1 2 6 492.69 195.478 32
-1 2 6 571.09 198.829 27
-1 2 6 939.567 221.482 26
-1 2 6 522.788 140.831 10
-1 2 7 20070.3 1299.8 17
-1 2 7 20271.4 1288.56 32
-1 2 7 19547.9 1088.74 26
-1 2 8 119157 4100.95 32
-1 2 8 118571 3962.65 24
-1 2 8 122473 4145.14 17
-1 2 9 5616.8 657.021 24
-1 2 9 6110.06 735.613 32
-1 2 10 1444.27 314.159 24
-1 2 10 1605.81 425.79 32
-1 2 11 14976.7 787.378 24
-1 2 11 15781.4 969.518 32
-1 3 -4 46188.3 1532.52 36
-1 3 -3 55532.8 1775.99 36
-1 3 -2 522218 12162.3 36
-1 3 -1 631306 14569.5 36
-1 3 1 7709.2 529.644 36
-1 3 2 385122 9231.26 36
-1 3 3 12108.5 692.108 36
-1 3 4 254741 6172.81 36
-1 3 5 614.987 207.264 32
-1 3 5 358.492 179.401 22
-1 3 5 562.478 200.075 27
-1 3 5 348.35 141.891 26
-1 3 6 1106.07 298.898 5
-1 3 6 1136.2 311.193 32
-1 3 6 712.135 259.859 17
-1 3 6 1015.69 289.258 22
-1 3 6 994.966 239.588 26
-1 3 7 120798 4055.15 32
-1 3 7 121822 4102.49 17
-1 3 7 121342 4115.53 22
-1 3 7 122438 4049.86 27
-1 3 8 30390.9 1728.17 32
-1 3 8 32261.5 1717.53 24
-1 3 8 28613.5 1687.99 17
-1 3 9 1497.15 361.718 24
-1 3 9 1095.61 396.84 32
-1 3 10 8846.58 778.295 32
-1 3 10 7233.66 644.039 24
-1 3 11 8003.3 472.894 24
-1 3 11 12954.4 717.94 32
-1 4 -5 63773 2085.75 36
-1 4 -4 4452.62 445.882 36
-1 4 -3 776888 18072.1 36
-1 4 -2 518788 12366.7 36
-1 4 -1 243563 6281.77 36
-1 4 1 74197.5 2486.31 36
-1 4 2 6775.93 602.086 36
-1 4 3 141110 4010.78 36
-1 4 4 33556.5 1487.31 32
-1 4 4 31503.4 1484.96 5
-1 4 4 31386.1 1506.98 22
-1 4 4 33362.3 1302.03 36
-1 4 5 5453.14 621.843 32
-1 4 5 6092.53 663.479 27
-1 4 5 5155.07 604.537 17
-1 4 5 5354.27 601.423 5
-1 4 5 5993.97 651.791 22
-1 4 6 104856 3617.66 22
-1 4 6 103410 3517.42 32
-1 4 6 100440 3548.25 17
-1 4 6 105155 3599.01 27
-1 4 6 94582 3138.97 26
-1 4 6 104322 3490.44 5
-1 4 7 52067 2402.68 22
-1 4 7 49582.9 2324.91 17
-1 4 7 51941.1 2311.64 32
-1 4 7 56714 2433.47 27
-1 4 8 3316.95 536.418 24
-1 4 8 4605.9 646.265 32
-1 4 8 3434.05 552.52 17
-1 4 8 4081.3 617.259 22
-1 4 9 18250.8 1136.63 24
-1 4 9 17109.3 1127.33 32
-1 4 10 8204.21 589.079 24
-1 5 -5 9416.39 728.559 36
-1 5 -4 83961.5 2827.14 36
-1 5 -3 167320 4782.09 36
-1 5 -2 12889.6 901.38 36
-1 5 -1 54414.2 2161.72 36
-1 5 0 10388.5 829.326 36
-1 5 1 164.646 172.847 36
-1 5 2 270597 7233.88 36
-1 5 3 103706 3232.8 32
-1 5 3 99655.3 3262.62 36
-1 5 4 34030.7 1626.99 5
-1 5 4 28641.7 1563.28 22
-1 5 4 33683.8 1607.55 32
-1 5 4 29895.8 1618.65 27
-1 5 5 86359 3158.34 22
-1 5 5 81640 2994.01 5
-1 5 5 81020.6 2982.24 32
-1 5 5 83168.7 3150.13 27
-1 5 6 97028.3 3505.26 17
-1 5 6 101287 3675.55 22
-1 5 6 102575 3559.68 32
-1 5 6 105892 3717.9 27
-1 5 6 102369 3521.43 5
-1 5 7 275.823 184.971 17
-1 5 7 381.252 247.121 22
-1 5 7 856.161 395.286 32
-1 5 8 13497.4 1002.02 24
-1 5 9 1098.59 253.055 24
-1 6 -5 51892.3 2177.09 37
-1 6 -5 50616.7 2122.46 36
-1 6 -4 135333 4331.81 37
-1 6 -4 140649 4327.17 36
-1 6 -3 68023.5 2676.25 37
-1 6 -3 68550.7 2654.87 36
-1 6 -2 273676 7476.96 36
-1 6 0 1729.61 416.417 37
-1 6 0 2847.34 482.971 36
-1 6 1 132906 4474.13 37
-1 6 1 139446 4437.72 36
-1 6 2 155796 4926.52 21
-1 6 2 166687 5133.84 37
-1 6 2 174215 5111.29 36
-1 6 3 11724.3 939.839 5
-1 6 3 10800.6 911.132 37
-1 6 3 11454 900.059 36
-1 6 4 34057.2 1808.2 22
-1 6 4 34353.5 1745.11 5
-1 6 5 54397.9 2446.42 22
-1 6 5 58592.9 2539.78 27
-1 6 5 51891 2260.47 5
-1 6 6 125.232 143.098 5
-1 6 6 -52.6626 201.832 27
-1 6 6 53.181 170.528 22
-1 6 7 14383.2 1042.51 24
-1 6 7 12316.4 999.941 22
-1 6 8 1167.8 260.71 24
-1 7 -6 39410.6 1855.01 36
-1 7 -6 40064.6 1886.9 37
-1 7 -5 18302.5 1265.18 36
-1 7 -5 21868 1383.17 37
-1 7 -4 3440.99 547.757 36
-1 7 -4 2742.58 517.634 37
-1 7 -3 90785.2 3450.1 37
-1 7 -3 89088.4 3362.37 36
-1 7 -2 87142.9 3425.94 37
-1 7 -2 91919 3432.59 36
-1 7 -1 22001.5 1508.9 37
-1 7 -1 21607.8 1457.06 36
-1 7 0 117317 4326.49 37
-1 7 0 130624 4360.11 36
-1 7 1 111845 3991.73 36
-1 7 1 114251 4084.46 37
-1 7 2 3771.21 593.655 37
-1 7 2 3870.48 580.176 36
-1 7 3 60309.7 2579.37 22
-1 7 3 60925.8 2522.16 5
-1 7 3 61122.6 2646.82 27
-1 7 4 18716.2 1323.19 22
-1 7 4 21684.9 1317.28 5
-1 7 5 750.122 297.374 22
-1 7 6 23674.9 1356.31 22
-1 7 7 3676.34 435.089 24
-1 8 -6 29784 1610.64 37
-1 8 -5 1053.46 326.759 36
-1 8 -5 1722.76 423.812 37
-1 8 -4 77964.1 3169.24 37
-1 8 -4 79891 3148.62 36
-1 8 -3 103241 3841.6 37
-1 8 -3 99802.9 3740.57 36
-1 8 -2 13647.4 1196.94 37
-1 8 -1 87871.7 3538.71 37
-1 8 -1 87210.8 3451.08 36
-1 8 0 91088.3 3612.2 37
-1 8 0 92621 3554.11 36
-1 8 1 5702.36 740.311 36
-1 8 1 6945.45 816.994 37
-1 8 2 36907.9 1852.28 22
-1 8 2 38980.8 1901.78 5
-1 8 2 36347 1906.54 27
-1 8 3 7486.13 774.076 22
-1 8 3 8016.04 761.569 5
-1 8 3 7806.69 809.537 27
-1 8 4 1669.04 370.975 22
-1 8 4 585.33 256.782 27
-1 8 5 3816.17 476.168 22
-1 9 -7 8913.31 684.93 37
-1 9 -6 7853.51 739.283 37
-1 9 -5 18175.3 1240.45 37
-1 9 -4 23568 1502.29 37
-1 9 -3 5067.17 692.165 37
-1 9 -1 58653.4 2601.58 37
-1 9 0 2031.89 439.751 37
-1 9 1 38450.3 1804.42 5
-1 9 1 37690 1661.13 22
-1 9 1 36218.9 1753.24 27
-1 9 2 6163.69 592.663 22
-1 9 2 5872.69 633.266 27
-1 9 3 57.7837 92.6514 22
-1 9 3 67.7808 142.288 27
-1 9 4 12701.9 756.947 24
-1 9 4 11085.4 646.696 22
-1 10 -6 22659.2 1111.25 37
-1 10 -5 47546 1924.67 37
-1 10 -4 4892.86 574.967 37
-1 10 -3 23869.4 1344.64 37
-1 10 -2 21471.6 1264.11 37
-1 10 -1 4284.52 534.992 37
-1 11 -4 13365.3 716.587 37
-1 11 -3 9805.41 575.936 5
-1 11 -2 270.966 119.756 37
0 -10 1 17781.9 918.373 4
0 -10 2 495.709 191.771 4
0 -10 3 8916.63 717.694 4
0 -10 5 1586.94 244.1 33
0 -10 5 1724.69 306.897 4
0 -10 6 14151.9 724.543 33
0 -10 6 15613.1 816.122 4
0 -10 8 1167.97 173.68 18
0 -9 -1 13960.1 824.975 4
0 -9 0 58684.9 2301.25 4
0 -9 1 240.485 233.224 4
0 -9 2 11128.8 897.759 38
0 -9 2 10643.3 959.678 4
0 -9 3 24453.4 1502.94 4
0 -9 3 25279.2 1389.08 38
0 -9 5 45563.1 2036.26 4
0 -9 6 19492.8 1161.1 4
0 -9 7 388.818 186.926 33
0 -9 8 31005 1362.73 33
0 -9 9 14753.4 781.325 33
0 -8 -1 45822.1 2094.58 4
0 -8 0 796.098 330.977 4
0 -8 1 23461.6 1583.69 4
0 -8 2 81299.3 3340.52 4
0 -8 3 3969.21 649.226 4
0 -8 3 4639.61 626.06 38
0 -8 4 113571 3712.65 38
0 -8 4 103330 3583.66 28
0 -8 4 110713 3970.75 4
0 -8 5 29029.9 1518.26 38
0 -8 5 28279.9 1655.69 4
0 -8 6 19738 1277.8 4
0 -8 6 17330.8 1051.05 9
0 -8 7 3354.23 534.284 33
0 -8 7 3989.86 514.531 4
0 -8 7 3749.38 479.932 9
0 -8 8 26952.2 1312.39 9
0 -8 8 27830.9 1494.44 33
0 -8 9 1995.2 359.695 33
0 -8 9 1867.28 305.086 9
0 -8 9 1942.26 335.856 30
0 -8 10 2174.36 300.169 18
0 -8 10 1600.11 259.79 30
0 -8 10 1779.64 261.869 9
0 -7 -2 9859.14 872.448 4
0 -7 -1 7283.11 821.083 4
0 -7 0 68912.5 2955.14 4
0 -7 1 64151.7 2865.56 4
0 -7 2 3272.22 590.228 1
0 -7 4 163150 4881.53 38
0 -7 4 158304 5149.43 1
0 -7 4 157379 5138.96 4
0 -7 4 160578 4884.36 28
0 -7 5 13613.8 1009.77 38
0 -7 5 15707.2 1189.71 4
0 -7 5 15449.9 1116.07 28
0 -7 6 27860.2 1438.1 38
0 -7 6 24892.7 1484.64 4
0 -7 6 26942.9 1543.22 28
0 -7 7 67140.8 2512.16 4
0 -7 7 66604.1 2669.9 28
0 -7 7 67266.5 2588.41 9
0 -7 8 211.057 192.024 33
0 -7 8 686.412 260.101 9
0 -7 9 26220.8 1390.99 9
0 -7 9 26700.3 1427.12 30
0 -7 9 27585.8 1524.14 33
0 -7 10 16556.6 991.436 9
0 -7 10 18625.5 1008.02 18
0 -7 10 19308 1131.44 33
0 -6 -2 11510.1 949.219 4
0 -6 -1 131098 4346.71 4
0 -6 0 196832 5935.54 1
0 -6 1 32506.3 1829.48 1
0 -6 2 54901 2480.16 1
0 -6 4 10592.2 846.979 38
0 -6 4 10771.6 865.674 28
0 -6 4 10792.2 950.44 1
0 -6 5 31230.3 1528.32 38
0 -6 5 32215.1 1678.26 1
0 -6 5 29745.5 1578.78 28
0 -6 6 64897.1 2422.24 38
0 -6 6 65415.4 2609.18 28
0 -6 6 63874.8 2504.49 4
0 -6 7 224.625 157.213 38
0 -6 7 98.6923 146.533 28
0 -6 8 42647.3 2148.8 33
0 -6 8 43747.5 2029.23 9
0 -6 8 43297.2 2050.11 28
0 -6 9 15769.7 1072.92 8
0 -6 9 18157.7 1203.7 9
0 -6 9 18471.5 1284.68 33
0 -6 10 799.003 257.339 8
0 -6 10 1362.79 315.375 9
0 -6 10 971.15 286.57 30
0 -6 10 577.75 218.755 18
0 -6 11 17361.2 945.95 8
0 -6 11 17773 999.422 30
0 -6 11 18318.6 1007.72 9
0 -6 12 4469.66 355.68 8
0 -6 12 5490.68 419.381 31
0 -5 -1 178914 5212.57 1
0 -5 0 42839.5 1968.69 1
0 -5 1 68625.3 2631.98 1
0 -5 2 193158 5568.81 1
0 -5 3 588.226 216.43 1
0 -5 4 21821.4 1259.97 1
0 -5 5 130478 3917.36 38
0 -5 5 132904 4023.39 34
0 -5 5 134990 4086.75 1
0 -5 5 138091 4120.69 28
0 -5 6 7033.92 646.984 38
0 -5 6 7654.53 735.968 34
0 -5 6 7264.68 675.025 4
0 -5 6 7924.61 756.396 28
0 -5 7 158391 4535.42 38
0 -5 7 154577 4797.79 34
0 -5 7 152533 4940.73 33
0 -5 8 42259.8 2125.93 33
0 -5 8 42412 2024.23 9
0 -5 9 9100.01 901.207 33
0 -5 9 6525.75 731.11 28
0 -5 9 6403.26 731.464 30
0 -5 9 7225.9 767.87 9
0 -5 10 36047.2 1748.27 9
0 -5 10 34362.6 1707.71 32
0 -5 10 31812.6 1508.81 18
0 -5 10 35421.1 1749.14 30
0 -5 11 23648.6 1261.89 30
0 -5 11 25306.9 1293.51 8
0 -5 11 23586.9 1243.82 32
0 -5 12 2000.66 303.158 8
0 -5 12 1971.67 288.066 31
0 -4 -2 445632 10820.2 1
0 -4 -1 71895.3 2479.4 1
0 -4 0 74932.3 2572.24 1
0 -4 1 360866 9070.07 1
0 -4 3 6507.83 590.241 1
0 -4 4 14731.2 892.906 28
0 -4 4 16218 948.768 1
0 -4 5 82936.4 2672.04 1
0 -4 6 98124.1 3410.21 23
0 -4 6 100810 3120.93 38
0 -4 6 99515.3 3342.97 34
0 -4 7 126813 4327.93 23
0 -4 7 133607 4366.13 33
0 -4 7 137958 4291.73 34
0 -4 7 136355 4198.34 28
0 -4 7 131243 3945.75 38
0 -4 8 5636.77 720.845 23
0 -4 8 6100.04 611.176 38
0 -4 8 6964.73 743.798 30
0 -4 8 5676.13 678.026 9
0 -4 8 5494.29 660.537 28
0 -4 9 13465.8 1059.97 30
0 -4 9 11704.4 984.317 28
0 -4 9 12089.7 912.009 18
0 -4 10 31948.5 1656.29 30
0 -4 10 29193.3 1616.58 32
0 -4 11 311.045 182.628 32
0 -4 12 743.817 197.484 11
0 -4 12 551.547 180.237 32
0 -4 12 724.41 224.374 8
0 -4 12 475.101 160.901 31
0 -3 -2 38120.9 1393.44 1
0 -3 -1 40426 1494.08 1
0 -3 0 17138.7 895.445 1
0 -3 1 3686.06 397.207 1
0 -3 3 129095 3569.68 1
0 -3 4 235686 5931.22 1
0 -3 5 199091 5011.12 1
0 -3 5 195487 5279.01 28
0 -3 6 577817 14125.5 34
0 -3 6 585681 13990.9 28
0 -3 7 4420.54 541.222 28
0 -3 7 3732.19 470.003 38
0 -3 8 1650.02 366.105 28
0 -3 8 1495.62 360.131 30
0 -3 8 1916.14 364.607 29
0 -3 8 1598.98 375.555 9
0 -3 9 48294.2 2199.78 28
0 -3 9 51089.8 2272.07 9
0 -3 9 48099.3 1980.8 18
0 -3 9 52398.1 2286.04 30
0 -3 9 52215.6 2338.83 32
0 -3 9 53288 2420.49 23
0 -3 10 2081.59 451.603 23
0 -3 10 2930.51 515.34 32
0 -3 10 2633.02 488.606 30
0 -3 10 2558.7 462.766 9
0 -3 11 12190.9 930.652 32
0 -3 11 12682.5 917.602 31
0 -3 12 3625.85 428.171 8
0 -3 12 3553.3 413.209 32
0 -3 12 3491.61 388.45 31
0 -2 -2 10933.2 526.141 1
0 -2 -1 273100 6526.09 1
0 -2 0 37509.9 1259.45 1
0 -2 1 780030 17753.2 1
0 -2 2 177547 4432.5 1
0 -2 3 15766.6 735.946 28
0 -2 3 15858.5 700.771 1
0 -2 4 78655.3 2044.34 1
0 -2 4 64896.3 2168.58 28
0 -2 5 416806 10060.7 28
0 -2 6 35870 1681.71 33
0 -2 6 38478 1718.72 34
0 -2 6 38698.6 1607.17 28
0 -2 7 8089.03 678.835 24
0 -2 7 8345.41 731.149 28
0 -2 7 7524.55 784.648 23
0 -2 7 8947.2 827.735 33
0 -2 7 8140.43 782.268 34
0 -2 7 8330.33 748.102 9
0 -2 7 9649.07 794.998 30
0 -2 7 9989.3 811.735 29
0 -2 8 71158.7 2597.07 24
0 -2 8 74799.3 2939.58 23
0 -2 8 72748.8 2752.1 9
0 -2 8 71463.2 2808.15 32
0 -2 8 76197.6 2778.97 29
0 -2 8 72656.6 2753.98 30
0 -2 8 64431 2612.01 28
0 -2 9 7913.13 801.306 9
0 -2 9 7616.3 786.649 30
0 -2 9 7529.93 723.165 24
0 -2 9 6756.78 797.319 23
0 -2 9 7076.72 801.826 32
0 -2 9 7394.23 772.748 28
0 -2 10 32289.2 1757.33 23
0 -2 10 30216.8 1709.44 32
0 -2 11 7052.1 694.391 23
0 -2 11 6042.25 603.18 11
0 -2 11 6906.35 702.421 32
0 -2 11 6421.12 638.257 31
0 -2 12 1026.72 224.777 8
0 -2 12 1064.64 229.659 32
0 -1 -3 11512.5 338.516 25
0 -1 -2 4884.32 232.125 1
0 -1 -1 263345 6055.62 1
0 -1 0 13567.2 502.498 1
0 -1 2 58097.8 1543.9 1
0 -1 2 61250.7 1632.19 28
0 -1 3 13505.2 634.961 26
0 -1 3 13243.1 625.638 28
0 -1 4 400857 9361.14 28
0 -1 4 392516 9342.18 26
0 -1 5 58346.8 1932.57 28
0 -1 6 58106.4 2053.83 28
0 -1 7 25617.9 1296.59 28
0 -1 7 22085.2 1223.8 24
0 -1 7 22514.1 1252.88 9
0 -1 7 21779.1 1322.34 29
0 -1 7 20385.3 1264.97 32
0 -1 7 22486.3 1302.66 17
0 -1 7 22462.5 1262.43 30
0 -1 8 14792.6 1038.37 24
0 -1 8 14090.9 1132.48 23
0 -1 8 13635 1014.5 9
0 -1 8 15839.1 1141.54 17
0 -1 8 16638.9 1182.49 32
0 -1 8 14842.7 1060.52 28
0 -1 8 16388.7 1191.68 29
0 -1 9 77232.6 2836.32 24
0 -1 9 77469.2 2908.82 31
0 -1 9 69440.2 2757.49 10
0 -1 9 76249.9 3036.77 23
0 -1 9 77564 3054.9 32
0 -1 10 62297.6 2360.83 24
0 -1 10 60263.2 2505.91 23
0 -1 10 56870.5 2307.17 11
0 -1 10 59512.2 2547.26 32
0 -1 10 58180.7 2379.1 31
0 -1 11 41.445 132.93 32
0 -1 11 321.813 178.704 8
0 -1 12 5788.75 509.722 32
0 0 1 115095 2664.5 28
0 0 2 301918 6821.56 28
0 0 2 293409 6766.19 26
0 0 3 91041.3 2368.91 28
0 0 3 89745.6 2311.64 26
0 0 4 202235 5062.49 28
0 0 4 208686 5011.19 26
0 0 5 32252.2 1261.56 28
0 0 5 31928.6 1191.17 26
0 0 6 7762.9 641.497 30
0 0 6 8467.32 772.112 29
0 0 6 9692.98 687.838 28
0 0 6 8552.39 592.252 26
0 0 7 19200.6 1181.37 24
0 0 7 18274.7 1107.86 28
0 0 7 19738.3 1132.47 9
0 0 7 20452.1 1318.6 29
0 0 7 18959.4 1253.09 13
0 0 8 56153.2 2319.56 24
0 0 8 53896.5 2241.48 31
0 0 8 50537.7 2110.39 10
0 0 9 76678.1 2892.31 24
0 0 9 69861.1 2670.72 10
0 0 9 78157.4 3000.11 23
0 0 9 81311.8 2904.92 31
0 0 9 73922.6 2734.22 11
0 0 10 1032.12 283.866 24
0 0 10 1220.15 313.193 23
0 0 10 671.576 332.409 31
0 0 11 174.043 257.674 31
0 0 11 684.62 196.635 24
0 0 12 5024.21 438.214 32
0 1 -4 348170 7763.34 35
0 1 -3 13385.4 463.143 36
0 1 -2 59779.3 1556.2 36
0 1 -1 630021 14160.8 36
0 1 1 287070 6365.65 10
0 1 1 272604 6473.52 36
0 1 2 4656.91 250.047 10
0 1 2 4471.31 232.469 36
0 1 3 10613.1 321.251 35
0 1 3 12787.6 558.932 28
0 1 4 160685 4161.56 28
0 1 4 164934 4056.78 26
0 1 5 186663 4917.72 10
0 1 5 199204 4866.8 26
0 1 6 6369.43 628.621 24
0 1 6 6225.25 622.554 22
0 1 6 5439.09 605.449 17
0 1 6 6695.76 662.03 32
0 1 6 6424.85 696.492 29
0 1 6 6605.96 587.635 31
0 1 6 5788.47 646.239 13
0 1 6 5803.13 471.498 26
0 1 6 6434.54 538.633 10
0 1 7 21222.1 1321.26 24
0 1 7 19704.6 1122.72 11
0 1 7 21656.9 1337.4 22
0 1 7 20994.2 1330.11 32
0 1 7 24227.2 1282.89 31
0 1 7 22040.8 1360.05 17
0 1 7 19996.5 1109.13 10
0 1 7 20971.1 1366.62 13
0 1 8 127010 3994.15 24
0 1 8 110349 3536.03 11
0 1 8 105676 3468.55 10
0 1 8 117731 4015.19 17
0 1 8 117225 3724.44 31
0 1 8 109227 3934.83 32
0 1 9 21626.6 1438.85 17
0 1 9 22048.1 1377.55 24
0 1 9 19024.4 1267.06 23
0 1 9 21248 1259.49 31
0 1 10 873.381 268.547 24
0 1 10 826.116 352.294 31
0 1 11 9259.09 626.253 24
0 2 -4 68088.8 1896.77 36
0 2 -3 16437.7 701.681 36
0 2 -2 199274 4890.49 36
0 2 -1 918147 20778.7 36
0 2 1 289305 6911.14 36
0 2 2 11284.6 554.107 36
0 2 3 18397.7 677.244 36
0 2 3 17214.9 688.418 10
0 2 4 244600 5932.09 10
0 2 5 10775.6 800.065 32
0 2 5 10212.3 771.062 22
0 2 5 9853.89 612.394 10
0 2 5 10524.7 796.461 27
0 2 5 11839.5 647.393 26
0 2 6 16194.8 886.869 10
0 2 6 16872 1121.27 22
0 2 6 16166.8 1100.61 32
0 2 6 16842.4 1130.04 27
0 2 6 17170.5 1185.56 13
0 2 6 16771.4 1131.48 17
0 2 6 16510.3 996.854 31
0 2 7 110380 3750.97 24
0 2 7 107121 3731.42 22
0 2 7 110849 3758.01 32
0 2 7 105816 3758.55 17
0 2 7 104386 3428.01 31
0 2 7 109255 3810.14 13
0 2 8 38778.5 1956.34 24
0 2 8 37937.8 1965.27 22
0 2 8 35787.2 1684.17 31
0 2 8 38646.6 1977.62 32
0 2 8 35851.9 1940.59 17
0 2 9 5980.61 686.417 24
0 2 9 4338.13 622.319 17
0 2 9 4252.71 640.519 32
0 2 10 8053.68 690.283 24
0 2 10 8666.97 770.68 32
0 2 11 3641.59 403.866 32
0 2 11 2495.12 273.349 24
0 3 -5 207450 5204.83 36
0 3 -4 254197 6295.65 36
0 3 -3 140810 3789.77 36
0 3 -2 436185 10390.2 36
0 3 -1 4835.63 439.868 36
0 3 0 19214.3 953.005 36
0 3 1 40035.1 1508.6 36
0 3 2 40369.6 1480.68 36
0 3 3 471312 11021.7 36
0 3 4 21744.4 1147.63 32
0 3 4 19891.2 1152.09 21
0 3 5 19535.9 1042.78 31
0 3 5 22083.7 1248.91 32
0 3 5 19051.7 1183.08 17
0 3 5 19274.4 1217 27
0 3 5 19041.9 925.04 26
0 3 5 19773.5 1117.32 5
0 3 6 139445 4142.66 31
0 3 6 145337 4579.24 17
0 3 6 145842 4594.26 27
0 3 6 138772 4482.38 13
0 3 6 148868 4545.24 32
0 3 7 54165.7 2394.52 32
0 3 7 52686.1 2393.48 24
0 3 7 51499.3 2375.51 22
0 3 7 54017.9 2423.71 17
0 3 8 11802.3 1014 24
0 3 8 12681.7 1057.76 22
0 3 8 12774.8 1062.32 32
0 3 8 10474.4 972.196 17
0 3 9 8124.74 751.011 24
0 3 9 8717.79 816.03 32
0 3 9 7064.98 726.774 17
0 3 10 2350.99 335.766 24
0 3 10 2323.46 388.991 32
0 4 -5 87518.3 2732.81 36
0 4 -4 16021.3 917.594 36
0 4 -3 4986.78 503.585 36
0 4 -2 3395.1 423.628 36
0 4 0 81714.5 2715.45 36
0 4 1 74214.2 2533.54 36
0 4 2 437778 10680 36
0 4 3 194622 5082.72 36
0 4 3 200866 5321.89 32
0 4 4 4501.75 590.779 21
0 4 4 5806.75 623.522 32
0 4 4 4369.44 504.575 5
0 4 5 70371 2743.86 17
0 4 5 71711 2818.5 27
0 4 5 73073 2736.64 32
0 4 5 69006.1 2732.46 22
0 4 5 66939.7 2521.77 5
0 4 6 23705.4 1487.09 22
0 4 6 23508.9 1465.22 32
0 4 6 20866.8 1406.17 17
0 4 6 22677.9 1475.34 27
0 4 7 17041.3 1242.67 24
0 4 7 15817.8 1203.82 17
0 4 7 17168.3 1241.02 32
0 4 8 5836.76 713.271 32
0 4 8 4737.41 606.674 17
0 4 8 5153.62 648.432 24
0 4 9 358.896 177.014 24
0 4 10 1475.5 196.418 24
0 5 -5 142505 4178.01 36
0 5 -5 137393 4205.01 37
0 5 -4 23903.7 1288.88 36
0 5 -4 22610.1 1297.75 37
0 5 -3 371.579 173.59 37
0 5 -3 511.389 208.025 36
0 5 -2 197449 5563.78 36
0 5 -2 192830 5573.67 37
0 5 -1 65086.5 2566.48 37
0 5 0 42037.1 1962.26 37
0 5 0 43892.1 1941.74 36
0 5 1 173834 5211.89 37
0 5 1 177522 5150.2 36
0 5 2 153413 4580.16 36
0 5 2 155739 4690.43 21
0 5 2 154279 4658.94 37
0 5 3 23799.9 1277.97 5
0 5 3 22426.9 1414 21
0 5 3 22872.6 1389.91 27
0 5 4 40840.1 1997.75 22
0 5 4 42902.9 1978.9 32
0 5 4 41170.6 2044.41 27
0 5 4 41093.7 1824.16 5
0 5 5 22220.6 1393.01 17
0 5 5 21004.4 1410.73 22
0 5 5 23576.8 1433.97 32
0 5 5 21416.2 1250.01 5
0 5 6 1518.19 372.484 17
0 5 6 1873.76 431.954 22
0 5 7 31242.7 1657.68 24
0 5 7 28904.6 1619.97 22
0 5 7 28872.3 1509.52 17
0 5 8 492.054 208.958 24
0 5 9 992.78 184.956 24
0 6 -6 66805.5 2584.74 37
0 6 -5 32578.7 1664.9 36
0 6 -5 31978.3 1687.43 37
0 6 -4 11405.4 966.661 37
0 6 -4 10349.7 897.282 36
0 6 -3 302546 8233.36 37
0 6 -3 298774 8157.3 36
0 6 -2 55440.5 2478.85 37
0 6 -2 58345.1 2476.77 36
0 6 -1 39145.1 2012.33 37
0 6 -1 36106.9 1879.38 36
0 6 0 185467 5419.89 21
0 6 0 202575 5836.59 36
0 6 0 191321 5865.85 37
0 6 1 123101 4027.31 21
0 6 1 123590 4125.77 36
0 6 1 122937 4203.29 37
0 6 2 10282.4 916.193 37
0 6 2 9713.1 933.499 21
0 6 3 37972.4 1768.11 5
0 6 3 34741.6 1908.24 27
0 6 4 22804.9 1451.46 22
0 6 4 20964.5 1438.66 27
0 6 4 20275.4 1217.44 5
0 6 5 5368.43 687.095 22
0 6 5 6332.93 753.143 27
0 6 6 51434 2240.06 22
0 6 7 1685.52 333.086 22
0 6 8 3390.91 334.708 24
0 7 -7 72464.1 2667.69 37
0 7 -6 27747.5 1575.6 37
0 7 -5 15297.7 1183.6 37
0 7 -4 171682 5372.39 37
0 7 -4 165977 5282.35 36
0 7 -3 104290 3832.94 36
0 7 -3 112113 3976.62 37
0 7 -1 60901.3 2725.59 36
0 7 -1 63444.9 2843.75 37
0 7 0 64973.6 2569.61 21
0 7 0 65678.1 2882.03 37
0 7 1 7924.84 827.43 21
0 7 1 8300.23 889.12 37
0 7 2 10868 902.53 5
0 7 2 10960.9 937.989 37
0 7 2 11123.6 1001.89 27
0 7 3 7107.28 786.753 22
0 7 3 6928.04 790.364 27
0 7 4 1234.42 355.167 22
0 7 4 1339.96 351.86 27
0 7 5 22702.6 1314.24 24
0 7 5 24523.2 1364.43 22
0 7 6 13622.2 853.709 24
0 7 6 12957.7 856.378 22
0 8 -7 4313.83 533.524 37
0 8 -6 19642.5 1286.63 37
0 8 -5 31055.5 1757.63 37
0 8 -4 121020 4245.32 37
0 8 -3 4158.21 660.924 37
0 8 -1 22872.1 1553.53 37
0 8 0 284.099 228.44 37
0 8 0 181.348 164.907 27
0 8 1 40213.3 1850.15 5
0 8 1 41123.7 1940.12 27
0 8 1 42805.8 2004.68 37
0 8 2 7211.82 757.568 22
0 8 2 9624.71 847.445 27
0 8 3 2989.82 456.304 22
0 8 3 2148.89 395.697 27
0 8 4 23372 1179.21 24
0 8 4 22004.7 1184.28 22
0 8 5 47040.3 1654.96 22
0 9 -7 363.411 172.338 37
0 9 -6 19928.8 1196.15 37
0 9 -5 46629.9 2080.37 37
0 9 -4 847.559 308.666 37
0 9 -3 25958.1 1538.26 37
0 9 -2 10583.4 946.235 37
0 9 -1 522.577 257.745 37
0 9 0 51327.6 2002.86 22
0 9 1 13424.2 871.299 22
0 9 2 14664.4 848.409 22
0 9 3 25437.3 1027.99 22
0 10 -6 15213.5 830.568 37
0 10 -5 2196.15 345.443 37
0 10 -4 15965.5 969.92 37
0 10 -2 498.618 185.354 37
1 -11 3 9596.42 605.38 4
1 -10 0 11443 794.541 4
1 -10 1 3465.53 486.51 4
1 -10 2 22361 1296.42 4
1 -10 3 22870.1 1318.98 4
1 -10 5 47371.3 1897.49 4
1 -10 6 24697 1231.41 33
1 -10 7 692.33 202.115 33
1 -10 8 13395.4 716.132 33
1 -10 8 15677.3 733.653 18
1 -9 -1 39205.7 1826.35 4
1 -9 0 1657.02 413.143 4
1 -9 1 61419 2692.8 4
1 -9 2 22101.8 1296 38
1 -9 2 22364.6 1497.8 4
1 -9 3 4956.14 688.709 4
1 -9 4 22855.5 1467.91 4
1 -9 5 18000.1 1213.53 4
1 -9 6 7296.93 691.396 4
1 -9 7 10640.9 883.537 33
1 -9 8 20584.7 1157.1 33
1 -9 9 8220.24 619.32 33
1 -9 10 8697.86 468.974 18
1 -8 -6 418.806 142.521 3
1 -8 -2 41186.6 1914.27 4
1 -8 -1 4723.5 658.545 25
1 -8 -1 6104.58 754.334 4
1 -8 0 88498.8 3467.63 25
1 -8 0 96324.1 3626.91 4
1 -8 1 87879.6 3475.68 4
1 -8 1 82905.3 3337.59 25
1 -8 2 14394.7 1237 4
1 -8 3 93456 3217.16 38
1 -8 4 79169.4 2700.36 38
1 -8 4 77630.1 3084.61 4
1 -8 4 68204.8 2639.26 28
1 -8 4 73376.3 2961.26 25
1 -8 5 892.024 318.451 4
1 -8 5 680.478 231.18 28
1 -8 5 903.878 285.991 25
1 -8 6 26027.9 1333.5 9
1 -8 6 27240.4 1496.68 4
1 -8 7 44553.6 1838.56 9
1 -8 7 43425.6 1911.79 30
1 -8 8 2662.97 419.995 30
1 -8 8 3317.16 523.515 33
1 -8 8 2448.5 388.156 9
1 -8 9 17649.8 962.003 9
1 -8 9 20016.7 1156.05 33
1 -8 9 18043.1 1046.85 18
1 -8 9 17242.7 996.036 30
1 -8 10 13841.8 766.62 18
1 -8 10 13775.9 760.142 30
1 -7 -2 3140.43 504.719 25
1 -7 -2 3504.53 539.146 4
1 -7 -1 105798 3771.56 4
1 -7 -1 103328 3681.13 25
1 -7 0 119649 4202.98 4
1 -7 1 21059.3 1470.53 4
1 -7 2 83518.8 2847.22 28
1 -7 2 86700.7 3350.84 4
1 -7 3 80548 3173.62 4
1 -7 3 78531.4 2786.66 28
1 -7 4 3267.11 445.299 38
1 -7 4 2848.7 538.036 4
1 -7 4 3600.51 494.58 28
1 -7 5 18879.4 1233.04 25
1 -7 5 17815.1 1240.82 4
1 -7 5 17918.9 1175.99 28
1 -7 5 17853.3 1118.46 34
1 -7 5 18435.2 1129.24 9
1 -7 6 37769.8 1841.44 28
1 -7 6 39071.3 1831.22 4
1 -7 6 39134.5 1823.41 34
1 -7 6 38599.4 1795.17 9
1 -7 6 35828.1 1732.59 25
1 -7 7 4210.37 580.281 28
1 -7 7 5593.84 645.436 9
1 -7 8 55543.9 2179.75 8
1 -7 8 58806.8 2338.92 9
1 -7 8 54934.7 2313.86 30
1 -7 8 57295 2515.45 33
1 -7 9 12587.8 915.319 9
1 -7 9 12679.6 924.552 18
1 -7 9 12246.4 854.956 8
1 -7 9 12050.2 910.06 30
1 -7 10 908.036 243.602 9
1 -7 10 736.161 211.839 18
1 -7 10 994.872 226.435 8
1 -7 10 580.333 199.99 30
1 -7 11 15387.3 782.531 31
1 -7 11 14039 682.317 8
1 -6 -2 168726 4966.8 4
1 -6 -2 162900 4856.06 25
1 -6 -1 129595 4198.81 4
1 -6 0 1993.84 423.187 4
1 -6 1 11503.7 977.184 4
1 -6 3 60606 2540.72 4
1 -6 3 65810.4 2346.89 28
1 -6 4 128646 3881.95 34
1 -6 4 128225 3929.18 28
1 -6 4 128198 4129.14 4
1 -6 5 50488.7 2075.46 34
1 -6 5 44707 2013.56 4
1 -6 5 46950.1 2017.97 28
1 -6 6 3358.32 474.269 4
1 -6 6 4652.86 605.028 34
1 -6 6 3588.44 522.902 28
1 -6 6 3211.02 495.434 9
1 -6 6 3832.58 482.564 25
1 -6 6 4067.93 535.696 8
1 -6 7 159750 4896.66 9
1 -6 7 164119 4966.09 34
1 -6 7 157877 4803.66 8
1 -6 7 153713 4856.61 28
1 -6 8 31753.8 1696.34 9
1 -6 8 31612.7 1664.06 8
1 -6 8 32044.8 1714.7 30
1 -6 8 31190.4 1688.47 28
1 -6 9 16141.4 1181 33
1 -6 9 14250.2 1065.55 9
1 -6 9 16748.8 1106.73 18
1 -6 9 14750.9 1066.83 8
1 -6 9 14860 1091.06 30
1 -6 10 934.176 259.44 9
1 -6 10 1084.73 274.113 18
1 -6 10 1210.86 308.523 8
1 -6 11 17510 941.602 8
1 -6 12 14.9836 70.3307 11
1 -6 12 14.8735 67.4464 31
1 -6 12 -13.9147 63.0988 8
1 -5 -3 98500.5 3009.19 25
1 -5 0 8205.78 721.906 1
1 -5 1 49292.6 2018.27 1
1 -5 3 150563 4479.1 1
1 -5 3 156007 4304.37 28
1 -5 4 78494.6 2647.35 28
1 -5 5 8144.71 741.285 34
1 -5 5 7529.01 689.54 28
1 -5 6 144551 4085.57 25
1 -5 6 150398 4531.24 9
1 -5 6 148661 4581.73 34
1 -5 6 146210 4472.82 28
1 -5 7 54903.2 2350.3 30
1 -5 7 57709.4 2404.42 9
1 -5 7 55149.4 2401.11 34
1 -5 7 57232.7 2516.39 33
1 -5 7 52852.6 2306.18 28
1 -5 8 797.429 302.785 34
1 -5 8 1068.47 320.961 9
1 -5 8 611.447 278.398 33
1 -5 8 997.596 302.842 28
1 -5 9 1384.77 344.15 32
1 -5 9 2102.05 438.775 9
1 -5 9 1763.56 411.095 33
1 -5 9 1335.45 327.89 18
1 -5 10 52576.8 2128.44 32
1 -5 10 54350.2 2266.58 8
1 -5 10 56003.7 2276.44 9
1 -5 11 2146.93 354.712 31
1 -5 11 1444.99 307.193 8
1 -5 12 23028.8 973.507 11
1 -5 12 23172.1 971.811 31
1 -4 -3 146029 3883.1 25
1 -4 -1 72247.8 2343.33 1
1 -4 0 75740.8 2443.06 1
1 -4 1 217741 5696.99 1
1 -4 2 455293 10982.2 1
1 -4 3 723109 16782 28
1 -4 4 3178.89 396.265 28
1 -4 5 59831.2 2280.31 34
1 -4 5 56464.1 1908.09 25
1 -4 6 180701 5332.83 34
1 -4 6 178632 5018.03 29
1 -4 6 185578 5254.06 9
1 -4 7 2589.57 492.343 23
1 -4 7 4199.82 596.453 33
1 -4 7 3418.87 545.986 34
1 -4 7 2921.53 443.074 29
1 -4 8 8015.88 816.948 9
1 -4 8 7137.61 801.902 33
1 -4 8 7533.54 741.668 18
1 -4 8 6067.62 655.852 29
1 -4 8 5341.71 675.829 30
1 -4 8 5611.8 673.398 28
1 -4 9 24588 1451.9 32
1 -4 9 22964.3 1311.67 18
1 -4 9 25214.7 1503.21 30
1 -4 9 21679.4 1272.13 29
1 -4 9 24025.8 1474.17 28
1 -4 10 482.691 261.641 8
1 -4 10 85.1303 126.41 32
1 -4 11 36535.4 1627.39 11
1 -4 11 41151.1 1713.84 31
1 -4 12 1900.34 255.079 11
1 -4 12 1656.89 269.026 31
1 -3 -3 14014.8 633.622 25
1 -3 0 10532 597.693 1
1 -3 2 455767 10625.8 1
1 -3 2 450088 10539.7 28
1 -3 3 51821.4 1711.26 28
1 -3 4 37005.6 1252.49 25
1 -3 5 427766 9918.96 25
1 -3 6 345.809 222.341 23
1 -3 6 41.7516 134.007 34
1 -3 6 307.595 168.117 9
1 -3 6 147.44 134.148 29
1 -3 6 457.954 225.723 33
1 -3 7 35298.6 1807.3 23
1 -3 7 33315.1 1744.71 34
1 -3 7 32857.6 1692.16 30
1 -3 7 34510.3 1683.63 29
1 -3 7 30558.4 1596.67 28
1 -3 7 33073.4 1587.75 18
1 -3 7 35221.2 1783.11 33
1 -3 7 35933.2 1698.6 13
1 -3 7 33749.8 1568.07 12
1 -3 7 35966.4 1669.99 24
1 -3 8 11169.7 1015.94 23
1 -3 8 13041.8 1064.17 34
1 -3 8 11503 901.29 18
1 -3 8 12381 1011.74 32
1 -3 8 13902.3 1078.14 30
1 -3 8 12123.3 981.254 29
1 -3 8 11286.7 970.58 28
1 -3 9 424.403 231.936 23
1 -3 9 756.204 273.343 32
1 -3 9 734.148 235.524 18
1 -3 9 51.3964 176.34 9
1 -3 9 141.036 171.091 29
1 -3 9 622.753 251.692 28
1 -3 10 32721.2 1730.43 8
1 -3 10 33940.6 1717.37 31
1 -3 10 31859.8 1657.11 32
1 -3 11 12876.9 867.634 11
1 -3 11 14030.7 930.82 8
1 -3 11 12605.4 851.359 32
1 -3 11 12701.1 873.502 31
1 -3 12 2535.98 293.966 8
1 -3 12 1305.99 262.965 31
1 -2 -4 67380.5 1714.99 25
1 -2 -3 150285 3615.47 25
1 -2 -2 66431.4 1761.19 25
1 -2 1 908989 20355.5 28
1 -2 2 43172 1321.28 28
1 -2 3 28085.6 904.446 25
1 -2 4 187950 4995.4 28
1 -2 4 198848 4598.42 25
1 -2 5 9594.9 680.462 28
1 -2 6 173114 4885.98 30
1 -2 6 169828 4877.41 9
1 -2 6 169023 4794.56 28
1 -2 6 172175 4993.23 34
1 -2 6 175950 5022.83 29
1 -2 6 171378 4935.3 33
1 -2 6 167694 4890.06 13
1 -2 7 102092 3355.1 24
1 -2 7 99693.3 3464.93 23
1 -2 7 97362.1 3369.62 9
1 -2 7 100624 3380.31 30
1 -2 7 100995 3436.64 34
1 -2 7 93879.2 3118.42 18
1 -2 7 97490.2 3358.27 32
1 -2 7 97467 3331.79 17
1 -2 7 98822.7 3453.19 29
1 -2 7 99775.5 3345.65 28
1 -2 7 96689.1 3384.36 13
1 -2 7 95720.8 3300.1 12
1 -2 8 1438.57 357.075 24
1 -2 8 2270.49 447.713 23
1 -2 8 1250.32 285.626 18
1 -2 8 1052.86 317.278 32
1 -2 8 1502.88 358.762 17
1 -2 8 1516.68 371.617 9
1 -2 8 1454.2 373.691 29
1 -2 8 1527.14 354.597 28
1 -2 8 1282.07 358.407 13
1 -2 9 76122.5 2871.18 24
1 -2 9 77039.6 2949.1 23
1 -2 9 75756.1 2938.93 31
1 -2 9 76188.4 2964.17 32
1 -2 9 79015.6 3002.07 29
1 -2 9 66634.3 2790.89 10
1 -2 10 43804.4 1979.7 11
1 -2 10 48064.7 2106.65 8
1 -2 10 48664.8 2113.59 32
1 -2 10 43364.7 1997.18 31
1 -2 11 1953.45 323.189 11
1 -2 11 1441.96 298.307 31
1 -2 11 1726.24 313.242 32
1 -2 11 2027.08 346.589 8
1 -1 -2 62609 1568.49 25
1 -1 -1 467343 10513.6 25
1 -1 0 571232 12437.7 28
1 -1 0 534104 12546.2 25
1 -1 1 115671 2754.07 25
1 -1 2 4482.99 224.914 25
1 -1 3 5582.59 377.066 28
1 -1 3 4859.75 223.894 25
1 -1 4 83320.4 2441.97 28
1 -1 5 271259 6860.89 28
1 -1 6 84160.3 2873.09 24
1 -1 6 79255.8 2822.63 34
1 -1 6 83285.2 2832.27 17
1 -1 6 85924 2853.63 30
1 -1 6 82480.4 2843.15 32
1 -1 6 80360.8 2778.74 9
1 -1 6 85776.8 3041.7 29
1 -1 6 84901 2823.09 28
1 -1 6 83459.2 2927.56 12
1 -1 7 16025.5 1123.79 24
1 -1 7 15876.1 1130.08 23
1 -1 7 14416.2 1045.54 34
1 -1 7 16239.1 1141.93 32
1 -1 7 16001.3 1124.85 17
1 -1 7 16797.6 1214.54 29
1 -1 7 16475.9 1103.26 28
1 -1 7 17623.1 1205.95 13
1 -1 7 16386.2 1079.61 10
1 -1 7 15285.8 1128.91 12
1 -1 8 42121.7 1983.53 24
1 -1 8 38852.8 1933.39 23
1 -1 8 40656.1 2004.15 32
1 -1 8 37989.5 1951.55 17
1 -1 8 39579.9 1931.27 31
1 -1 8 39528.9 2048.6 29
1 -1 8 40573 2026.64 13
1 -1 8 37195.8 1843.81 10
1 -1 9 42582.9 2015.94 24
1 -1 9 46239.7 2041.1 23
1 -1 9 40870.7 1951.73 11
1 -1 9 40130.7 1922.21 10
1 -1 9 41107.1 2054.84 32
1 -1 9 43977.3 2120.76 17
1 -1 9 43006.6 2021.78 31
1 -1 10 203.319 163.564 24
1 -1 10 377.692 214.786 11
1 -1 10 277.667 166.643 8
1 -1 10 492.639 223.873 32
1 -1 10 124.19 194.403 31
1 -1 11 553.447 253.877 31
1 -1 11 662.976 239.872 32
1 0 -3 116528 2796.81 35
1 0 -2 357480 8122.89 35
1 0 -1 308815 7045.62 35
1 0 1 134102 3292.78 10
1 0 1 141521 3251.49 35
1 0 2 207024 4348.65 35
1 0 2 209177 4574.67 28
1 0 3 70815.5 1957.91 28
1 0 3 63858.9 1640.32 26
1 0 4 215256 5157.95 28
1 0 4 194466 4718.39 26
1 0 5 162450 4353.73 10
1 0 5 154153 4682.19 29
1 0 6 39418.1 1806.28 24
1 0 6 40521.5 1729.35 22
1 0 6 38127 1642.36 10
1 0 6 39987.5 1791.76 32
1 0 6 38034.4 1715.74 31
1 0 6 37120.8 1878.54 29
1 0 6 37765.5 1818.74 13
1 0 6 37889.7 1866 12
1 0 7 9681.9 878.882 24
1 0 7 8887.98 830.055 23
1 0 7 9367.68 796.697 11
1 0 7 8988.03 823.244 22
1 0 7 9946.06 959.901 29
1 0 7 8588.1 834.347 32
1 0 7 9190.79 823.925 31
1 0 7 9188.14 780.729 10
1 0 7 8162.37 857.305 13
1 0 8 114831 3922.1 24
1 0 8 112046 3711.04 11
1 0 8 113510 3772.87 23
1 0 8 103794 3617.01 10
1 0 8 117050 3976.07 32
1 0 8 114313 3826.38 31
1 0 8 120321 4078.85 13
1 0 9 8015.87 816.794 24
1 0 9 8350.69 753.094 11
1 0 9 7598.99 728.328 8
1 0 9 8090.82 840.329 32
1 0 9 8116.72 808.924 31
1 0 10 1428.56 325.13 24
1 0 10 823.609 324.386 32
1 0 10 1107.54 346.778 31
1 0 11 6337.52 536.295 32
1 1 -5 347973 8000.93 35
1 1 -4 306468 7183.33 35
1 1 2 7836.79 433.795 10
1 1 2 8359.66 403.854 35
1 1 3 206572 5257.93 10
1 1 3 221616 4984.37 35
1 1 3 212036 4990.01 26
1 1 4 343470 8050.01 10
1 1 4 327250 7635.91 26
1 1 5 32838.8 1561.24 24
1 1 5 31448.5 1346.4 10
1 1 5 34556.8 1549.49 32
1 1 5 34130.6 1466.11 31
1 1 5 30814.3 1624.04 29
1 1 5 31597.5 1566.44 13
1 1 5 31036.3 1629.67 12
1 1 6 17191.7 1163.21 24
1 1 6 15129.8 977.516 11
1 1 6 16713.2 1093.38 22
1 1 6 17229.6 1010.22 10
1 1 6 16677.5 1129.4 32
1 1 6 16777.9 1135.67 17
1 1 6 17163.1 1081.14 31
1 1 6 14727.7 1167.31 29
1 1 6 16818.7 1186.79 13
1 1 6 15944.4 1215.23 12
1 1 7 105606 3759.98 24
1 1 7 100374 3416.51 11
1 1 7 111509 3715.72 22
1 1 7 99571.1 3378.35 10
1 1 7 107070 3740.76 32
1 1 7 108909 3612.21 31
1 1 7 106334 3838.24 13
1 1 8 11707.9 1026.64 24
1 1 8 9726.95 803.695 11
1 1 8 9140.02 920.35 32
1 1 8 9506.16 943.638 17
1 1 8 10616.8 913.128 31
1 1 8 11146.1 1011.14 13
1 1 9 12010.1 982.511 24
1 1 9 12616.8 1048.99 17
1 1 9 13494.2 964.415 31
1 1 9 12818.3 1021.49 32
1 1 10 5526.91 562.928 24
1 1 10 6234.53 623.194 32
1 1 11 1121.65 229.196 32
1 2 -5 156494 4089.28 35
1 2 -3 2818.28 301.308 36
1 2 -2 172195 4419.43 36
1 2 0 480978 11245.5 36
1 2 3 753809 17082.9 35
1 2 4 56668.8 1947.38 31
1 2 4 47476.9 2025.65 29
1 2 5 19066.4 1038.09 11
1 2 5 22153.2 1235.61 22
1 2 5 20065 1133.4 31
1 2 5 21267 1238.59 21
1 2 5 19086.7 1265.1 29
1 2 5 19187.7 1242.11 13
1 2 5 20519 1340.96 12
1 2 6 50861.6 1981.7 11
1 2 6 50284.3 2295.94 24
1 2 6 52666.1 2258.86 22
1 2 6 52764.5 2309.58 17
1 2 6 51679.5 2118.44 31
1 2 6 52412.3 2350.24 13
1 2 7 30972.8 1756.54 24
1 2 7 29397.3 1666.66 22
1 2 7 32088 1614.69 31
1 2 7 27249.4 1661.03 13
1 2 7 31718.2 1767.98 17
1 2 8 32276 1759.3 24
1 2 8 30142.8 1673.2 22
1 2 8 32515.1 1790.38 17
1 2 8 33623.6 1610.6 31
1 2 9 10152.1 843.019 24
1 2 9 9817.37 847.82 17
1 2 9 8808.94 799.926 32
1 2 10 571.428 178.912 24
1 2 10 1513.41 330.184 32
1 3 -6 29012.6 1275.78 35
1 3 -4 100198 2988.56 36
1 3 -3 206939 5420.52 36
1 3 -2 142255 3986.95 36
1 3 0 71934.8 2358.05 36
1 3 3 42210.1 1780.96 21
1 3 3 41350.3 1474.84 35
1 3 3 40046.3 1774.41 27
1 3 4 81498.8 2706.11 31
1 3 4 80581.7 2968.72 27
1 3 5 4525 587.773 22
1 3 5 3295.15 534.144 13
1 3 5 3922.53 573.248 21
1 3 6 1881.89 433.605 17
1 3 6 1521.47 365.24 22
1 3 6 1363.08 358.403 13
1 3 7 19417.3 1358.61 24
1 3 7 19421.4 1308.43 22
1 3 7 20355.9 1377.6 17
1 3 8 28079.8 1535.19 24
1 3 8 25077.8 1436.25 22
1 3 8 26119.7 1497.82 17
1 3 9 842.345 233.034 24
1 3 10 4637.6 347.857 24
1 4 -4 11835.8 843.413 36
1 4 -3 64363.5 2354.83 36
1 4 -2 444993 11025.2 36
1 4 -1 65743.8 2420.86 36
1 4 0 101655 3291.5 36
1 4 2 108479 3571.91 21
1 4 2 112055 3442.49 37
1 4 2 108804 3370.01 16
1 4 2 110278 3548.48 27
1 4 3 23154.4 1291.36 32
1 4 3 19071.7 1170.76 16
1 4 3 19371.5 1268.92 27
1 4 3 19346.6 1261.74 21
1 4 4 24248 1524.4 21
1 4 4 28994.8 1568.87 32
1 4 4 26847.3 1598.74 27
1 4 5 5895.16 762.789 32
1 4 5 5569.28 708.854 17
1 4 6 7233.09 789.688 22
1 4 6 5742.63 768.893 32
1 4 6 6227.76 748.254 17
1 4 7 49447.1 2152.92 22
1 4 7 46454.6 2117.61 17
1 4 8 1293.62 300.428 24
1 4 8 1778.88 329.65 17
1 4 9 4664.47 398.556 24
1 5 -6 195529 5604.04 37
1 5 -5 631.037 221.129 7
1 5 -5 494.305 237.721 37
1 5 -4 32090.1 1660.5 37
1 5 -4 28864.5 1453.43 7
1 5 -3 459970 11888.4 37
1 5 -3 475296 11815.5 36
1 5 -1 51843.4 2332.88 37
1 5 -1 51262.6 2251.02 36
1 5 0 43375.1 2086.27 37
1 5 1 140327 4455.9 21
1 5 1 137199 4122 16
1 5 1 147054 4414.27 27
1 5 1 144432 4533.97 37
1 5 2 29834.4 1524.37 37
1 5 2 27507.7 1516.91 35
1 5 2 26950.2 1587.88 21
1 5 2 27124.9 1433.68 16
1 5 2 30431.5 1639.32 27
1 5 3 81505.8 3273.24 21
1 5 3 91826.4 3375.71 27
1 5 4 478.871 232.733 22
1 5 4 352.261 225.244 21
1 5 4 627.655 276.805 27
1 5 5 16557.3 1246.96 24
1 5 5 14950.3 1130.47 17
1 5 6 76888.3 2837.63 24
1 5 6 65116.3 2583.38 17
1 5 7 5441.36 584.056 24
1 5 7 4593.24 528.497 22
1 5 7 4509.46 486.279 17
1 6 -7 149739 4574.32 37
1 6 -6 13306.4 1055.27 37
1 6 -5 13159.9 1088.03 37
1 6 -4 106867 3840.1 37
1 6 -3 127618 4404.91 37
1 6 -1 13758.7 1182.9 37
1 6 -1 13550.8 1014.64 21
1 6 0 2095.69 474.991 37
1 6 0 1872.12 415.632 21
1 6 0 1643.85 363.447 27
1 6 1 8497.35 873.152 37
1 6 1 9057.37 900.077 21
1 6 1 9321.8 877.431 27
1 6 1 8200.21 892.025 35
1 6 2 58914.1 2604.38 21
1 6 2 55808.3 2293.02 37
1 6 2 55617 2469.27 27
1 6 3 3638.27 605.509 21
1 6 3 4245.96 624.932 27
1 6 4 12173.5 1026.4 22
1 6 4 12481.6 943.363 17
1 6 5 77605.3 2835.43 24
1 6 5 74489.8 2800.93 22
1 6 5 74292.2 2552.3 17
1 6 6 15514.9 946.841 24
1 6 7 2928.7 293.477 24
1 7 -7 51257.6 2192.09 37
1 7 -6 22816.1 1525.29 35
1 7 -6 26473.9 1556.49 37
1 7 -5 98286.3 3643.77 37
1 7 -4 76759.5 3187.85 37
1 7 -3 2131.01 488.652 37
1 7 -2 49752.8 2477.93 37
1 7 -1 5817.67 777.156 37
1 7 -1 4397.35 581.914 21
1 7 -1 5051.75 591.786 27
1 7 0 22884.3 1400.94 21
1 7 0 22040.7 1477.06 37
1 7 0 17164.3 1389.08 35
1 7 0 18122.2 1203.16 27
1 7 1 55592.6 2418.4 21
1 7 1 51749.4 2255.7 27
1 7 1 52211.7 2306.49 37
1 7 2 63902.7 2559.49 27
1 7 3 16420.9 1144.87 22
1 7 4 42088.8 1759.28 24
1 7 4 42101.5 1832.44 22
1 7 5 11146.7 749.087 22
1 8 -7 3748.45 503.159 37
1 8 -6 24318.6 1441.84 37
1 8 -5 26823.6 1597.61 37
1 8 -4 224.682 235.872 37
1 8 -2 3954.28 619.578 37
1 8 -1 27025.1 1607.75 37
1 8 0 93976.1 3300.17 37
1 8 2 15444.8 1000.52 22
1 8 3 37753.7 1546.02 22
1 8 4 19226.9 855.063 22
1 9 -7 14978.9 853.046 37
1 9 -6 10247.7 779.218 37
1 9 -5 79.2008 151.779 37
1 9 -4 35003.6 1690.09 37
1 9 -2 13968.6 976.392 37
1 9 0 19474.3 992.91 22
1 9 1 1405.15 232.857 22
1 10 -5 10460.7 624.16 37
1 10 -4 40569.7 1471.27 37
1 10 -3 3812.75 365.335 37
2 -11 5 25993.6 1121.01 33
2 -11 6 2666.84 296.488 33
2 -10 -4 8206.87 519.813 3
2 -10 0 3462.62 512.351 4
2 -10 1 18854.4 1251.76 4
2 -10 2 14009.5 1083.02 4
2 -10 4 30017.5 1556.56 4
2 -10 5 17195.1 1051.61 4
2 -10 6 4263.03 460.413 18
2 -10 7 20909.2 1093.63 33
2 -10 7 21442.4 1025.17 18
2 -10 8 17151 839.509 33
2 -10 8 15371.8 764.243 18
2 -9 -5 14239.2 874.87 3
2 -9 -2 31483.2 1575.93 4
2 -9 -1 206.197 187.48 4
2 -9 0 90864.4 3484.27 4
2 -9 1 49354.4 2419.74 4
2 -9 2 10793.4 1040.92 4
2 -9 4 37513.3 1938.15 4
2 -9 5 3650.49 549.97 4
2 -9 6 12690.2 907.131 4
2 -9 7 21799.7 1316.05 33
2 -9 8 10039.2 740.837 18
2 -9 9 24758.2 1118.44 33
2 -8 -6 21451.3 1179.61 3
2 -8 -2 4016.42 596.915 4
2 -8 -2 3608.03 570.464 25
2 -8 -1 117730 4158.12 4
2 -8 -1 117261 4139.25 25
2 -8 0 35899.9 2024.32 4
2 -8 0 37170.8 2028.89 25
2 -8 1 -62.8663 186.629 4
2 -8 1 121.578 180.463 25
2 -8 2 24024.2 1607.86 4
2 -8 3 36937.7 2018.13 4
2 -8 3 36556.9 1970.91 25
2 -8 4 30419.5 1750.24 4
2 -8 4 28907.9 1687.45 25
2 -8 5 47832.6 2006.74 34
2 -8 5 47744.7 2169.19 4
2 -8 5 43565.4 1912.95 30
2 -8 5 46541.8 2147.97 25
2 -8 6 31487.3 1583.76 4
2 -8 6 31550.2 1596.65 34
2 -8 6 32028.7 1568.99 30
2 -8 7 2557.04 439.84 34
2 -8 7 2146.98 371.321 9
2 -8 7 2129.17 395.67 30
2 -8 8 56653.4 2128.27 9
2 -8 8 63422.3 2457.27 33
2 -8 8 58528.7 2190.95 30
2 -8 9 14279.1 932.302 33
2 -8 9 13531.8 882.258 18
2 -8 10 17.343 81.4236 11
2 -8 10 204.925 116.503 18
2 -7 -7 10108.1 778.586 3
2 -7 -3 3203.8 498.895 4
2 -7 -2 50618.1 2260.4 4
2 -7 -2 48946 2212.59 25
2 -7 -1 127667 4313.19 4
2 -7 -1 129709 4253.97 25
2 -7 0 27764.6 1663.21 4
2 -7 0 28110.9 1619.04 25
2 -7 1 53597.8 2465.59 4
2 -7 1 53478.5 2389.77 25
2 -7 2 54615.8 1994.5 28
2 -7 3 7841.89 838.104 4
2 -7 3 7021.17 641.224 28
2 -7 3 8746.97 859.262 25
2 -7 4 164277 4950.74 4
2 -7 4 148644 4520.33 28
2 -7 4 154203 4649.82 34
2 -7 4 156380 4840.69 25
2 -7 5 34660.8 1638.77 9
2 -7 5 34432 1753.52 34
2 -7 5 32762.9 1644.56 28
2 -7 5 35940.9 1784.09 4
2 -7 5 35776.2 1758.6 25
2 -7 6 17508.5 1114.07 4
2 -7 6 18516.5 1181.82 9
2 -7 6 19908.8 1202.29 8
2 -7 6 17275.9 1226.04 34
2 -7 6 19009.2 1220.48 30
2 -7 6 14417.7 1080.45 28
2 -7 7 25604.9 1447.29 9
2 -7 7 24934.6 1502.86 34
2 -7 7 28698.1 1672.01 33
2 -7 7 25842 1436.8 8
2 -7 7 26023.1 1474.27 30
2 -7 7 21509.9 1355.4 28
2 -7 8 25951.3 1500.77 33
2 -7 8 20255 1257.35 8
2 -7 8 25330 1453.49 18
2 -7 8 22963.4 1346.76 30
2 -7 8 23302.7 1347.64 9
2 -7 8 22455.1 1400.63 34
2 -7 9 41.5743 142.512 33
2 -7 9 36.1238 131.34 8
2 -7 9 -37.6253 144.199 30
2 -7 9 -38.415 139.671 18
2 -7 10 2897.46 364.291 18
2 -7 10 2344.35 340.388 31
2 -7 10 1877.58 305.746 8
2 -7 11 3226.69 305.929 11
2 -7 11 3529.21 310.985 31
2 -6 -8 12499.1 816.716 3
2 -6 -3 3785.35 484.019 25
2 -6 -2 58139.8 2305.23 4
2 -6 -2 56981.7 2264.38 25
2 -6 -1 1575.11 358.518 4
2 -6 -1 2694.06 425.042 25
2 -6 0 24676.9 1420.54 4
2 -6 0 25170.2 1389.25 25
2 -6 1 55475.1 2309.62 4
2 -6 1 52701.4 1803.4 28
2 -6 2 7591.19 776.807 4
2 -6 2 8232.19 616.469 28
2 -6 2 8843.83 779.922 25
2 -6 3 267712 7480.5 4
2 -6 3 273326 7115.91 28
2 -6 3 293145 7433.29 25
2 -6 4 38391.7 1804.02 4
2 -6 4 36705.8 1663.41 28
2 -6 4 39413.7 1781.74 25
2 -6 5 93.2434 149.504 34
2 -6 5 159.185 127.619 4
2 -6 5 84.5158 153.653 8
2 -6 5 163.32 156.492 9
2 -6 5 41.1689 99.8051 28
2 -6 5 38.676 93.7636 25
2 -6 6 50738 2232.16 8
2 -6 6 52638.5 2241.61 9
2 -6 6 51537.9 2228.85 30
2 -6 6 50712.7 2314.54 34
2 -6 6 53289.9 2238.56 28
2 -6 7 106731 3661.09 9
2 -6 7 107130 3806.76 33
2 -6 7 104756 3669.14 8
2 -6 7 106722 3645.7 30
2 -6 7 105262 3749.14 34
2 -6 7 95923.4 3506.82 28
2 -6 8 10901.9 971.44 34
2 -6 8 9473.42 892.95 9
2 -6 8 9380.63 910.119 33
2 -6 8 10098.1 924.787 8
2 -6 8 9570.17 886.477 18
2 -6 8 9398.32 878.307 30
2 -6 9 44504.5 1996.81 33
2 -6 9 41985.8 1892.78 18
2 -6 9 43040.2 1976.01 8
2 -6 10 50163.3 1974.46 8
2 -6 10 48234.6 1932.86 31
2 -6 11 4561.42 421.419 11
2 -6 11 3696.54 389.389 8
2 -5 -8 619.137 215.345 3
2 -5 -4 6939.93 559.863 25
2 -5 -3 98672.2 3028.54 25
2 -5 -2 29993.5 1351.24 25
2 -5 -1 161490 4516.09 25
2 -5 0 396742 9343.89 28
2 -5 0 410979 9912.67 25
2 -5 1 1845.24 240.618 28
2 -5 2 302593 7404.53 28
2 -5 2 303033 7680.56 25
2 -5 3 136545 3978.89 28
2 -5 3 151728 4143.82 25
2 -5 4 27106.8 1327.87 28
2 -5 4 30891.4 1389.5 25
2 -5 5 24277 1325.16 9
2 -5 5 23556.1 1345.95 8
2 -5 5 22102.2 1260.67 30
2 -5 5 21242 1202.28 29
2 -5 5 22574.4 1259.26 28
2 -5 5 24047.3 1174.99 25
2 -5 6 74135.6 2852.17 34
2 -5 6 72274.3 2737.52 9
2 -5 6 65705.9 2633.96 30
2 -5 6 69622 2580.69 29
2 -5 6 71260.9 2786.38 8
2 -5 6 69294.2 2660.51 28
2 -5 7 3721.13 594.156 34
2 -5 7 4024.95 594.211 9
2 -5 7 5011.16 661.951 33
2 -5 7 4498.39 643.682 8
2 -5 7 3856.76 580.285 18
2 -5 7 5778.09 682.266 30
2 -5 7 4450.85 577.565 29
2 -5 7 5423.11 655.802 28
2 -5 8 55925.9 2418.05 33
2 -5 8 55070.7 2232.43 32
2 -5 8 55461.6 2355.36 18
2 -5 8 54806.2 2462.93 8
2 -5 8 52817.5 2371.32 30
2 -5 8 51592.6 2197.33 29
2 -5 8 54505.5 2422.45 9
2 -5 8 54514.7 2393.95 28
2 -5 9 14173.5 997.44 18
2 -5 9 11449.8 997.472 8
2 -5 9 12464.5 905.239 29
2 -5 10 26510.1 1398.2 11
2 -5 10 27567 1444.12 8
2 -5 11 30046.5 1267.8 11
2 -5 11 29220.9 1281.57 8
2 -5 11 28955.2 1251.96 31
2 -4 -8 8042.51 756.097 3
2 -4 -4 21834.9 954.779 25
2 -4 -3 3155.1 337.845 25
2 -4 -2 452950 10745.2 25
2 -4 -1 128867 3129.54 28
2 -4 -1 150928 3716.08 25
2 -4 0 43673.6 1273.01 28
2 -4 0 46172.5 1623.82 25
2 -4 1 325201 7648.22 28
2 -4 2 565978 12964.5 28
2 -4 2 551658 13164.6 25
2 -4 3 687.293 182.149 28
2 -4 3 536.469 167.711 25
2 -4 4 21336.4 1100.32 28
2 -4 4 23091.9 1063.68 25
2 -4 5 73847.1 2659.25 9
2 -4 5 74313.1 2640.97 30
2 -4 5 78369.7 2703.81 29
2 -4 5 71260.5 2591.38 28
2 -4 5 77410.2 2266.03 25
2 -4 6 15649.9 1082.35 30
2 -4 6 15281.4 1098.99 9
2 -4 6 15608.1 1106.93 33
2 -4 6 16455.5 1103.12 29
2 -4 6 15277.1 1040.65 28
2 -4 6 14960.2 993.868 13
2 -4 6 15265.7 960.231 12
2 -4 7 44736.1 2080.99 30
2 -4 7 43017.2 2080.72 9
2 -4 7 41966.3 1906.11 32
2 -4 7 46146 2068.86 18
2 -4 7 44052.4 2119.92 34
2 -4 7 43739.1 2034.49 29
2 -4 7 44939.4 2079.54 33
2 -4 7 41601 2010.75 28
2 -4 7 43991.4 1970.78 13
2 -4 7 41647.6 1835.21 12
2 -4 8 18231.1 1306.02 34
2 -4 8 21279.6 1439.28 8
2 -4 8 17057.8 1181.64 18
2 -4 8 17937.7 1233.14 29
2 -4 8 17319.2 1173.84 32
2 -4 9 6077.1 638.455 18
2 -4 9 5570.5 635.551 32
2 -4 9 7197.59 772.92 31
2 -4 9 7923.11 772.978 29
2 -4 10 43060.2 1902.28 31
2 -4 11 10109.3 687.707 11
2 -4 11 9773.19 682.158 31
2 -4 11 9492.28 682.012 8
2 -3 -7 1170.02 317.934 3
2 -3 -4 3234.27 287.386 25
2 -3 -3 360634 8493.38 25
2 -3 -2 276099 6636.18 25
2 -3 -1 67549.2 1976.89 25
2 -3 0 168924 3910.54 28
2 -3 0 166320 4261.63 25
2 -3 1 564617 12799.5 28
2 -3 1 562358 13025.2 25
2 -3 2 6346.62 415.473 28
2 -3 2 5708.12 421.204 25
2 -3 3 92769.7 2734.32 28
2 -3 3 99530.1 2695.75 25
2 -3 4 276641 7013.64 28
2 -3 4 279477 6675.24 25
2 -3 5 905.871 243.141 30
2 -3 5 937.491 259.835 29
2 -3 5 564.608 189.532 28
2 -3 6 207482 5851.38 24
2 -3 6 202734 5871.1 23
2 -3 6 208009 5877.91 9
2 -3 6 208619 5926.84 34
2 -3 6 197500 5622.42 32
2 -3 6 202000 5719.18 18
2 -3 6 204008 5614.22 17
2 -3 6 213377 5962.23 29
2 -3 6 210499 5798.75 33
2 -3 6 202839 5758.62 13
2 -3 6 201361 5689.89 12
2 -3 7 42324.4 2005.49 24
2 -3 7 45830.8 2113.44 9
2 -3 7 40551.6 1905.69 18
2 -3 7 43429.7 1925.97 17
2 -3 7 40527.4 1942.16 33
2 -3 7 45511.9 2117.26 34
2 -3 7 45610.2 2117.36 29
2 -3 7 46277.2 2080.32 13
2 -3 7 41342.7 1935.03 12
2 -3 7 40894.2 1912.47 32
2 -3 8 9276.29 891.78 34
2 -3 8 8148.79 768.18 18
2 -3 8 8224.36 810.125 32
2 -3 8 8530.32 908.415 8
2 -3 8 10237 955.787 29
2 -3 8 8883.01 883.497 28
2 -3 8 8070.95 839.671 13
2 -3 9 37699.9 1915.23 11
2 -3 9 42706.7 2052.74 8
2 -3 9 36442.7 1799.82 32
2 -3 9 37978.5 1927.03 31
2 -3 9 39268.2 1926.46 29
2 -3 10 28336.1 1463.3 11
2 -3 10 27527.1 1458.73 31
2 -3 10 29107.9 1507.15 8
2 -3 11 124.704 120.926 11
2 -3 11 328.08 149.854 8
2 -3 11 -132.446 203.051 31
2 -2 -4 621656 14123.7 25
2 -2 -3 343720 7989.45 25
2 -2 -2 16779.3 670.828 25
2 -2 -1 1912.34 203.035 25
2 -2 0 198438 4687.01 10
2 -2 0 205806 4649.78 28
2 -2 1 66636.9 1772.15 28
2 -2 1 66934.2 1860.5 25
2 -2 2 248179 5902.56 28
2 -2 2 245030 5864.77 25
2 -2 3 83948.3 2401.99 28
2 -2 3 80597.5 2194.73 25
2 -2 4 98228.3 2509.13 25
2 -2 5 314498 8295.06 29
2 -2 6 39948 1863.1 24
2 -2 6 38980.5 1810.11 23
2 -2 6 39026.3 1772.36 32
2 -2 6 42090.2 1816.22 17
2 -2 6 43723 1938.01 34
2 -2 6 42443.5 2009.26 29
2 -2 6 34477.2 1730.97 28
2 -2 6 42418 1785.54 18
2 -2 6 39849.8 1878.03 13
2 -2 6 40803.9 1889.51 12
2 -2 7 197.597 207.431 12
2 -2 7 147.593 168.692 24
2 -2 7 229.608 176.04 23
2 -2 7 -48.0859 116.624 10
2 -2 7 271.936 182.221 32
2 -2 7 704.197 254.48 34
2 -2 7 98.1673 145.767 31
2 -2 7 184.519 185.464 17
2 -2 7 257.271 197.239 13
2 -2 8 17657.5 1255.42 24
2 -2 8 18782.1 1294.63 11
2 -2 8 18919.7 1325.45 8
2 -2 8 17094.6 1210.67 32
2 -2 8 18197.2 1255.35 17
2 -2 8 17260 1256.53 31
2 -2 8 18143.6 1332.56 29
2 -2 8 16978.9 1222.91 10
2 -2 9 70087.9 2747.66 11
2 -2 9 72092.2 2798.25 8
2 -2 9 66942.8 2659.63 32
2 -2 9 73675.5 2881.23 29
2 -2 9 68245.9 2748.77 31
2 -2 9 72678.3 2780.92 24
2 -2 10 615.838 215.589 11
2 -2 10 747.644 236.791 8
2 -2 10 655.712 234.197 31
2 -2 11 4187.18 423.073 31
2 -1 -3 20149.8 758.323 35
2 -1 -3 21579.6 767.862 25
2 -1 -2 2049.34 202.542 35
2 -1 -2 2139.99 206.929 25
2 -1 -1 455994 10499.7 35
2 -1 -1 461166 10490.5 25
2 -1 0 99784.7 2479.62 10
2 -1 1 390235 8952.66 10
2 -1 1 392766 8925.68 35
2 -1 1 381112 8943.56 25
2 -1 2 15380.3 683.548 10
2 -1 2 14440.1 607.786 25
2 -1 3 114599 3151.96 10
2 -1 4 160736 4379.22 28
2 -1 5 274871 7325.15 24
2 -1 5 282060 7153.3 32
2 -1 5 278703 7221.23 31
2 -1 5 279288 7168.27 10
2 -1 5 286479 7339.91 13
2 -1 6 5122.9 625.497 24
2 -1 6 4449.54 558.401 11
2 -1 6 4878.11 526.838 22
2 -1 6 4723.99 560.4 10
2 -1 6 3966.68 524.722 34
2 -1 6 4235.81 545.038 32
2 -1 6 2991.34 481.853 31
2 -1 6 5516.99 627.001 17
2 -1 6 5295.44 674.08 29
2 -1 6 4286.09 584.733 13
2 -1 7 1021.56 298.736 10
2 -1 7 1395.62 371.377 24
2 -1 7 665.457 265.059 11
2 -1 7 1315.82 345.215 8
2 -1 7 1334 342.425 32
2 -1 7 1243.24 357.353 17
2 -1 7 1029.84 320.945 31
2 -1 7 939.056 334.479 29
2 -1 7 1146.02 356.962 13
2 -1 8 70227.8 2747.36 24
2 -1 8 59836.3 2523.98 11
2 -1 8 54740.2 2427.85 10
2 -1 8 58863.7 2487.51 8
2 -1 8 63659.5 2614.66 31
2 -1 8 58962.2 2523.96 32
2 -1 8 62500.5 2627.39 17
2 -1 8 61761.3 2732.22 29
2 -1 8 65744.7 2736.05 13
2 -1 9 -47.0539 150.88 24
2 -1 9 127.968 163.481 11
2 -1 9 91.9958 167.242 31
2 -1 9 -39.9573 145.279 8
2 -1 9 -264.622 370.321 32
2 -1 9 96.0622 174.634 17
2 -1 10 12774.9 860.356 31
2 0 -5 539636 12341.3 35
2 0 -4 1644.65 201.633 35
2 0 -3 4341.95 330.765 35
2 0 -2 6075.8 395.216 35
2 0 -1 25606.2 934.097 35
2 0 0 734200 16644.9 35
2 0 1 229616 5496.46 10
2 0 1 227248 5452.73 35
2 0 2 60039.7 1678.06 35
2 0 3 143656 3843.86 10
2 0 4 511070 11987.6 10
2 0 4 518854 12087.1 31
2 0 5 2544.21 459.862 12
2 0 5 2254.21 375.882 11
2 0 5 2498.42 374.289 10
2 0 5 2899.71 427.643 31
2 0 5 2349.15 400.146 32
2 0 5 1895.52 407.281 29
2 0 5 2446.32 424.833 13
2 0 6 13747.7 1072.53 24
2 0 6 12061.2 935.746 11
2 0 6 14592.1 983.436 22
2 0 6 12028.8 916.015 10
2 0 6 11900.9 899.471 8
2 0 6 13432.6 1009.88 32
2 0 6 13396.2 1006.17 31
2 0 6 13856.5 1045.59 17
2 0 6 13347.8 1120.99 29
2 0 6 11342.6 999.478 13
2 0 6 15019.6 1172.64 12
2 0 7 47005.1 2202.07 24
2 0 7 42564.2 1974.76 11
2 0 7 45034.9 1981.63 22
2 0 7 41814.5 1942.12 10
2 0 7 41601.7 1877.47 8
2 0 7 43166.5 2051.1 32
2 0 7 43275.1 2121.07 17
2 0 7 41607 2017.79 31
2 0 7 41377.3 2142.27 13
2 0 7 45646.2 2265.92 12
2 0 8 1908.11 427.373 24
2 0 8 1488.55 341.347 11
2 0 8 1447.91 380.398 17
2 0 8 1129.95 378.011 32
2 0 8 1695.76 372.834 31
2 0 8 1388.72 376.281 13
2 0 9 47084.7 2041.23 24
2 0 9 42865 1921.5 32
2 0 9 47369.6 2084.45 17
2 0 9 43784.8 1912.42 31
2 0 10 9347.1 683.002 24
2 1 -6 86184.7 2437.23 35
2 1 -5 97486.4 2761.9 35
2 1 -4 184549 4750.35 35
2 1 -3 110416 3094.06 35
2 1 -2 4952.47 421.202 35
2 1 0 815439 18639.2 35
2 1 1 5049.73 394.152 35
2 1 2 42863.2 1388.15 35
2 1 3 393920 9121.8 35
2 1 4 68702.8 2584.3 24
2 1 4 71015.3 2395.43 11
2 1 4 71136.4 2427.9 21
2 1 4 72370.9 2477.8 31
2 1 4 70939.1 2474.04 16
2 1 4 68936.8 2634.67 29
2 1 4 67971.3 2435.74 32
2 1 4 67634.1 2660.71 12
2 1 5 68745.9 2479.48 11
2 1 5 76076.4 2591.15 22
2 1 5 70873.9 2598.55 32
2 1 5 67806.1 2547.26 31
2 1 5 66261 2754.19 29
2 1 5 70983.6 2739.11 13
2 1 5 62168.4 2445.54 21
2 1 5 66727.9 2785.64 12
2 1 6 16727.5 1103.9 11
2 1 6 17915.7 1170.37 22
2 1 6 17779.3 1218.55 32
2 1 6 18429.2 1275.71 17
2 1 6 17088 1162.75 31
2 1 6 17259.8 1309.69 29
2 1 6 15948.8 1226.31 13
2 1 6 17070 1326.31 12
2 1 7 4086.04 628.234 24
2 1 7 3321.85 498.713 11
2 1 7 4288.16 581.594 22
2 1 7 4017.43 609.203 32
2 1 7 3826.72 595.739 17
2 1 7 4710.26 626.63 31
2 1 7 4946.14 674.084 13
2 1 8 43425.6 2057.42 24
2 1 8 40871.8 2012.25 17
2 1 8 45259.3 1953.6 31
2 1 8 42680.9 2049.5 13
2 1 8 37473 1884.66 32
2 1 9 21719.4 1226.3 24
2 1 9 21587.5 1185.01 32
2 2 -6 185823 4936.32 35
2 2 -5 140727 3985.62 35
2 2 -4 145593 4113.11 35
2 2 -3 11382.9 767.986 35
2 2 -2 52150.3 1924.13 35
2 2 0 827.177 214.746 35
2 2 1 171332 4584.24 35
2 2 2 76374.5 2339.63 35
2 2 3 5828.38 591.86 21
2 2 3 7164.55 467.893 35
2 2 3 7335.16 649.848 32
2 2 3 6105.36 588.398 16
2 2 3 7492.97 665.704 31
2 2 3 6576.14 625.898 29
2 2 3 6825.96 672.97 27
2 2 4 66721.6 2659.23 24
2 2 4 70796.1 2551.62 32
2 2 4 68311 2466.43 31
2 2 4 66737.6 2535.15 16
2 2 4 67562.1 2593.81 29
2 2 4 65896.3 2521.11 21
2 2 4 66787.3 2615.11 13
2 2 4 65276.8 2689.6 12
2 2 5 16909.2 1258.04 24
2 2 5 19098.3 1213.78 22
2 2 5 17758.2 1199.31 21
2 2 5 16000.9 1145.95 32
2 2 5 16136.7 1215.35 13
2 2 5 17789.6 1312.93 12
2 2 6 3253 510.386 22
2 2 6 3625.53 603.759 32
2 2 6 3151.58 536.416 17
2 2 6 2383.59 490.452 13
2 2 7 55451.2 2332.52 22
2 2 7 53270.5 2352.02 32
2 2 7 61229 2573.64 17
2 2 7 58486.7 2481.31 13
2 2 8 62929.9 2464.18 24
2 2 8 61183.7 2448.64 17
2 2 8 56916.2 2296.59 32
2 2 9 58.4824 117.541 24
2 2 9 30.1901 109.77 17
2 3 -6 84524.2 2860.5 35
2 3 -5 217174 5983.2 35
2 3 -4 1640.75 333.387 35
2 3 0 31040.2 1512.54 35
2 3 1 33664.5 1536.86 35
2 3 2 45121.2 1738.08 35
2 3 2 44264.7 1833.26 32
2 3 2 43609.8 1803.09 16
2 3 2 40603.7 1862.46 27
2 3 3 20660.4 1237.47 32
2 3 3 20110.7 1213.42 16
2 3 3 18763.1 1264.36 27
2 3 4 42761.6 2103.93 24
2 3 4 43683.1 1974.67 32
2 3 4 40053.8 1973.26 21
2 3 4 39290.3 1930.81 13
2 3 5 920.393 320.061 24
2 3 5 876.218 289.66 22
2 3 5 734.844 285.139 21
2 3 5 660.803 254.729 13
2 3 6 43122 2138.14 24
2 3 6 40487.7 1954.48 22
2 3 6 39310.2 1971.32 32
2 3 6 43129.5 2086.33 17
2 3 6 41926.9 1963.05 13
2 3 7 67997.9 2678.97 24
2 3 7 63592 2482.64 22
2 3 7 70308.4 2686.09 17
2 3 8 2789.73 403.836 17
2 4 -7 21439.1 1249.1 35
2 4 -7 20223.2 1168.91 7
2 4 -6 333866 8820.45 35
2 4 -6 329509 8576.43 7
2 4 -6 342980 8787.45 37
2 4 -5 15089.5 1076.51 37
2 4 -5 13681.3 1063.29 35
2 4 -5 15212.9 1009.08 7
2 4 -4 52240.9 2091.27 7
2 4 -4 48891.9 2173.29 37
2 4 -3 131984 4235.61 37
2 4 -3 131967 4070.3 7
2 4 -2 216588 6011.9 7
2 4 -1 82082.7 3064.65 37
2 4 0 97095.3 3361.32 37
2 4 0 90885.2 3343.53 35
2 4 1 1620.75 359.241 35
2 4 1 1340.92 324.761 37
2 4 1 1226.38 290.19 16
2 4 1 1830.98 372.003 27
2 4 2 72112.9 2896.95 21
2 4 2 78171.8 2702.27 35
2 4 2 76291.1 2793.62 16
2 4 2 77405.9 2934.56 27
2 4 3 114274 3846.76 16
2 4 3 117671 4033.99 21
2 4 4 284.506 206.901 24
2 4 4 50.5891 137.123 22
2 4 5 11405.5 1015.21 24
2 4 5 10337.7 922.692 22
2 4 5 11283.5 985.879 17
2 4 6 62556.8 2513.71 24
2 4 6 58563 2363.91 22
2 4 6 59033.9 2417.67 17
2 4 7 11144.9 813.074 24
2 4 7 10174.7 741.923 22
2 4 7 10543 781.318 17
2 4 8 4286.61 366.674 24
2 5 -7 117017 3987.54 35
2 5 -7 123280 3832.8 7
2 5 -7 127554 4032.58 37
2 5 -6 28427 1603.49 37
2 5 -6 26772.8 1607.43 35
2 5 -6 27243.5 1466.94 7
2 5 -5 92643.8 3402.47 37
2 5 -5 92106.2 3468.23 35
2 5 -5 88019.3 3158.92 7
2 5 -4 50586 2341.2 37
2 5 -4 46504.5 2327.95 35
2 5 -4 51255.8 2200.07 7
2 5 -3 14692 1183.47 37
2 5 -2 48086.2 2332.27 37
2 5 -2 47208.5 2376.62 35
2 5 -1 37201.6 1983.25 37
2 5 -1 32117.7 1917.39 35
2 5 0 2594.49 509.535 35
2 5 0 3156.95 464.088 16
2 5 0 2929.96 531.588 37
2 5 0 3100.48 469.202 27
2 5 1 36245.6 1849.67 37
2 5 1 38460.2 1972.94 21
2 5 1 35624.5 1868.67 35
2 5 1 35483.8 1729.17 16
2 5 1 36104 1810.87 27
2 5 2 184357 5636.16 21
2 5 2 176829 5327.34 16
2 5 2 177882 5474.4 27
2 5 3 5787.26 710.336 24
2 5 3 3987.93 627.549 21
2 5 4 18962.1 1289.32 24
2 5 4 16431 1189.78 22
2 5 5 43930.1 1977.73 24
2 5 5 47021.2 2005.59 22
2 5 5 43394 1922.75 17
2 5 6 19045 1049.6 24
2 5 6 17475.6 1015.56 22
2 5 6 18792.4 999.639 17
2 6 -7 44834.2 2164.87 35
2 6 -7 50681.5 2209.12 37
2 6 -6 17965.9 1292.56 37
2 6 -6 15830 1262.16 35
2 6 -5 26096 1606.26 37
2 6 -5 19585 1481.74 35
2 6 -4 22215.6 1531.45 37
2 6 -4 18416.8 1445.48 35
2 6 -2 28764.4 1793.1 37
2 6 -2 24608.1 1742.52 35
2 6 -1 53392.7 2541.22 37
2 6 -1 54793.9 2379.83 21
2 6 -1 48496.5 2524.26 35
2 6 -1 50846.3 2092.81 16
2 6 0 42835.8 2144.27 37
2 6 0 43131 2111.57 21
2 6 0 36662.8 2067.54 35
2 6 0 41326.1 1855.34 16
2 6 1 146675 4720.69 37
2 6 1 162127 5058.72 21
2 6 1 159074 4682.91 16
2 6 1 151262 4675.5 27
2 6 2 3626.42 531.86 24
2 6 2 3454.79 578.355 21
2 6 3 23232.4 1395.34 22
2 6 3 22604.8 1276.09 17
2 6 4 23236.1 1164.97 17
2 6 5 8475.42 654.78 22
2 7 -8 30568.7 1436.07 37
2 7 -7 5717.85 664.579 37
2 7 -6 37968.7 1943.94 37
2 7 -5 8990.57 928.965 37
2 7 -4 27201.2 1710.76 37
2 7 -3 154489 4562.6 21
2 7 -2 9771.38 990.031 37
2 7 -2 9223.74 824.685 21
2 7 -1 34506.2 1895.81 37
2 7 -1 35327.8 1759.35 21
2 7 0 123644 4160.45 37
2 7 0 136907 4250.54 21
2 7 1 53160.7 2261 21
2 7 2 8878.56 781.602 22
2 7 3 11083 786.455 22
2 7 4 4160.48 400.474 22
2 8 -8 869.619 200.313 37
2 8 -7 25729.7 1299.9 37
2 8 -6 584.072 242.827 37
2 8 -5 11865.3 966.183 37
2 8 -4 59567.1 2494.33 37
2 8 -3 3674.99 553.473 37
2 8 -2 10434.7 898.179 37
2 8 1 11018.8 748.148 22
2 8 2 13688.9 736.257 22
2 9 -7 11753.7 628.773 37
2 9 -6 3585.45 397.903 37
2 9 -5 53876.2 1939.27 37
2 9 -3 15868.8 897.272 37
2 9 -1 9043.96 519.074 22
3 -10 0 53540.7 2331.95 4
3 -10 1 16252.5 1204.89 4
3 -10 2 155.236 208.022 4
3 -10 3 18287.9 1241.7 4
3 -10 4 8149.77 669.975 18
3 -10 5 26338.5 1283.61 18
3 -10 6 25793 1227.21 18
3 -10 7 6210.43 544.317 33
3 -10 7 5587.97 490.958 18
3 -10 8 3172.91 312.607 18
3 -10 8 3070.59 315.345 33
3 -9 -6 8752.81 641.266 3
3 -9 -5 1829.3 370.881 3
3 -9 -1 40339.7 2081.67 4
3 -9 0 9402.34 984.563 4
3 -9 1 13396.1 1195.77 4
3 -9 1 12580.5 1186.34 25
3 -9 3 31532.2 1818.81 4
3 -9 4 27558.3 1608.44 4
3 -9 5 52064.9 2028.89 34
3 -9 6 25845.9 1304.91 34
3 -9 6 25424.8 1410.23 18
3 -9 7 358.626 199.246 33
3 -9 7 298.799 181.206 18
3 -9 8 26859.6 1253.03 33
3 -9 8 26822.4 1249.18 18
3 -8 -7 11388 783.126 3
3 -8 -6 363.025 226.895 3
3 -8 -2 41200.1 2071.11 4
3 -8 -2 41732.7 2094.51 25
3 -8 -1 22171.2 1526.02 4
3 -8 -1 23045.1 1562.29 25
3 -8 0 10428.2 1029.62 4
3 -8 0 9312.5 979.479 25
3 -8 1 54362.5 2601.01 4
3 -8 1 55121 2606 25
3 -8 2 29278.1 1789.5 25
3 -8 3 1532.05 429.204 4
3 -8 3 897.118 325.109 25
3 -8 4 46700.3 2192.74 4
3 -8 4 41072.6 1958.33 34
3 -8 4 44438.9 2156.72 25
3 -8 5 28570.4 1569.27 4
3 -8 5 28111 1578.74 34
3 -8 5 26620.6 1516.24 25
3 -8 6 146.211 177.239 34
3 -8 6 204.571 214.746 18
3 -8 7 29572.2 1559.44 34
3 -8 7 26432.7 1523.43 33
3 -8 7 27274.2 1521.61 18
3 -8 8 2533.55 362.571 11
3 -8 8 3026.02 443.076 33
3 -8 9 1880.28 266.967 11
3 -8 9 1957.52 317.113 18
3 -7 -8 7578.93 617.803 3
3 -7 -7 44.9435 163.41 3
3 -7 -3 7352.25 755.821 4
3 -7 -3 8328.8 793.441 25
3 -7 -2 33840.3 1795.41 4
3 -7 -2 34405.4 1818.47 25
3 -7 -1 54390.3 2426.25 4
3 -7 -1 54012.3 2401.3 25
3 -7 0 114985 4035.6 4
3 -7 0 117217 3977.39 25
3 -7 1 35553.4 1919.01 4
3 -7 1 37980.1 1947.15 25
3 -7 2 10401.3 985.643 4
3 -7 2 11624.3 873.485 29
3 -7 2 12725.2 1061.87 25
3 -7 3 151486 4897.72 4
3 -7 3 157833 4935.14 25
3 -7 4 98057.9 3380.38 4
3 -7 4 85292.6 2945.26 30
3 -7 4 82435.3 2904.77 28
3 -7 4 102289 3432.61 25
3 -7 5 55109.5 2398.37 34
3 -7 5 54495.7 2259.69 8
3 -7 5 48500.9 2085.06 30
3 -7 5 45772.2 2006.96 28
3 -7 5 54136 2193.64 25
3 -7 6 93330.7 3202.47 9
3 -7 6 94235.2 3450.59 34
3 -7 6 94444.3 3305.7 8
3 -7 6 97795.2 3467.25 18
3 -7 6 88040.6 3140.28 30
3 -7 7 87475.5 3272.33 34
3 -7 7 85662.5 3136.55 8
3 -7 7 84203.7 3211.21 18
3 -7 7 84682.8 3054.87 30
3 -7 7 87578.5 3205.33 33
3 -7 8 13723.2 1061.97 34
3 -7 8 14922.2 1046.91 8
3 -7 8 16114.5 1069.79 33
3 -7 8 13985.4 1041.48 18
3 -7 9 12161.2 822.678 11
3 -7 9 12306.6 844.272 18
3 -7 9 10108.8 746.25 31
3 -7 10 6054.17 470.914 11
3 -6 -8 1184.94 294.128 3
3 -6 -7 11271.4 992.837 3
3 -6 -4 11439.8 827.926 25
3 -6 -3 185783 5332.94 4
3 -6 -3 189770 5342.6 25
3 -6 -2 35552 1736.28 4
3 -6 -2 40529.5 1818.05 25
3 -6 -1 199583 5819.98 4
3 -6 -1 212694 5887.99 25
3 -6 0 47333.4 2103.11 4
3 -6 0 49355 2116.88 25
3 -6 2 117313 3800.25 4
3 -6 2 116917 3563.79 29
3 -6 2 125779 3862.36 25
3 -6 3 41684.2 1908.42 4
3 -6 3 38209.7 1705.65 8
3 -6 3 38018.4 1737.94 29
3 -6 3 35843.8 1523.31 28
3 -6 3 40883.1 1893.64 25
3 -6 4 42.3974 125.907 4
3 -6 4 262.311 205.235 8
3 -6 4 220.764 154.508 30
3 -6 4 332.848 207.931 29
3 -6 4 105.46 112.768 28
3 -6 4 165.829 158.92 25
3 -6 5 83688.1 2955.42 9
3 -6 5 85143.2 3094.45 8
3 -6 5 79304.9 2881.22 30
3 -6 5 83046.3 2968.45 29
3 -6 5 83608.1 2779.96 25
3 -6 6 49107 2147.35 9
3 -6 6 45708.1 2213.01 34
3 -6 6 43262.5 2087.55 33
3 -6 6 45884.4 2176.12 8
3 -6 6 46972.4 2210.4 18
3 -6 6 41396 1987.29 30
3 -6 6 44073.4 2012.18 29
3 -6 6 38361.1 1925.88 28
3 -6 7 148618 4720.33 34
3 -6 7 136489 4551.6 8
3 -6 7 144664 4502.45 33
3 -6 7 139030 4551.4 18
3 -6 7 139405 4447.97 30
3 -6 7 140988 4371.21 29
3 -6 7 131761 4383.26 28
3 -6 7 127530 4351.76 10
3 -6 8 54064.3 2356.1 8
3 -6 8 51400.6 2173.19 33
3 -6 8 50219.7 2227.05 18
3 -6 8 50479.7 2095.02 29
3 -6 9 6025.18 630.725 11
3 -6 9 6815.74 701.59 8
3 -6 9 5840.35 603.753 18
3 -6 9 6577.73 580.67 29
3 -6 9 6663.47 653.592 31
3 -6 10 27.7573 125.881 11
3 -6 10 107.235 112.562 31
3 -6 11 13517 606.726 11
3 -5 -10 13712.3 775.136 6
3 -5 -9 993.465 254.775 3
3 -5 -8 6403.63 710.297 3
3 -5 -7 21942.5 1430.94 3
3 -5 -4 59779 2098.71 25
3 -5 -3 833.556 222.117 25
3 -5 -2 418740 10325.3 25
3 -5 -1 219393 5896.32 25
3 -5 0 3760.72 468.316 25
3 -5 1 118562 2990.43 10
3 -5 1 113610 2992.48 28
3 -5 2 123594 3487.49 28
3 -5 2 150367 4093.34 25
3 -5 3 41688.1 1798.09 29
3 -5 3 39365.5 1569.74 28
3 -5 3 44793.5 1799.22 25
3 -5 4 10207.2 800.773 9
3 -5 4 11405.1 913.219 8
3 -5 4 10333.7 791.727 30
3 -5 4 11048 887.13 29
3 -5 4 10203.9 761.907 28
3 -5 4 9968.68 744.691 25
3 -5 5 42465 1778.48 12
3 -5 5 46116.2 2129.86 8
3 -5 5 42998.5 2055.87 18
3 -5 5 45118.5 2009.94 9
3 -5 5 44181.1 1954.46 30
3 -5 5 45244.1 2039.63 29
3 -5 5 46832.8 1975.16 28
3 -5 6 1072.75 269.069 12
3 -5 6 704.535 254.655 33
3 -5 6 310.425 234.704 18
3 -5 6 553.913 292.691 8
3 -5 6 290.525 194.741 30
3 -5 6 296.333 207.452 29
3 -5 6 286.994 183.434 28
3 -5 6 38.6116 114.811 13
3 -5 7 95510.5 3448.85 10
3 -5 7 96104.8 3555.1 34
3 -5 7 92509.9 3540.41 8
3 -5 7 97229.4 3483.36 18
3 -5 7 95815.8 3329.25 33
3 -5 7 99219.9 3464.19 29
3 -5 7 89930.2 3371.91 28
3 -5 7 89754.4 3159.66 13
3 -5 7 88929.1 3075.12 12
3 -5 8 9215.34 903.558 34
3 -5 8 9918.33 964.519 8
3 -5 8 9285.66 864.128 18
3 -5 8 10713.4 937.899 31
3 -5 8 10282.8 900.831 29
3 -5 9 438.871 232.168 11
3 -5 9 554.015 274.386 8
3 -5 9 1114.44 298.669 31
3 -5 9 381.441 207.103 29
3 -5 10 15696.1 939.407 11
3 -5 10 15835.3 934.686 31
3 -5 11 5787.15 404.84 11
3 -4 -10 66.8866 114.65 6
3 -4 -9 621.612 235.824 3
3 -4 -8 12973.3 1029.77 3
3 -4 -7 3404.08 538.951 3
3 -4 -4 18678.2 920.995 25
3 -4 -3 422107 10079.9 25
3 -4 -2 288629 7178.09 25
3 -4 -1 102.675 116.422 25
3 -4 0 66210.6 1734.3 10
3 -4 0 66430.6 1674.93 28
3 -4 0 69594.9 2231.53 25
3 -4 1 460494 10722.2 10
3 -4 1 462945 10662.1 28
3 -4 1 477189 11169.6 25
3 -4 2 23296.2 965.683 28
3 -4 2 23887.1 1127.86 25
3 -4 3 96586.5 2974.82 28
3 -4 3 106810 3052.29 25
3 -4 4 44619.4 1970.6 8
3 -4 4 43879.5 1907.63 18
3 -4 4 45869 1834.55 30
3 -4 4 44700.7 1967.61 29
3 -4 4 44589.2 1801.08 28
3 -4 4 47242.7 1670.33 25
3 -4 5 1059.98 272.733 12
3 -4 5 977.408 260.889 33
3 -4 5 1171.38 340.844 8
3 -4 5 1906.94 370.158 30
3 -4 5 1175.4 323.43 29
3 -4 5 1278.59 326.115 18
3 -4 5 1017.2 284.524 28
3 -4 5 1465.83 313.419 13
3 -4 6 191814 5488.07 10
3 -4 6 183005 5292.16 33
3 -4 6 181364 5481.32 18
3 -4 6 184101 5675.34 8
3 -4 6 191212 5629.96 29
3 -4 6 177994 5403.59 28
3 -4 6 178983 5348.2 13
3 -4 6 177121 5298.07 12
3 -4 7 32325.5 1805.12 34
3 -4 7 32683.1 1751.67 18
3 -4 7 32684.4 1792.76 10
3 -4 7 31761.9 1756.34 31
3 -4 7 33048.3 1817.07 29
3 -4 7 33398.9 1750.87 13
3 -4 7 31478.5 1651.65 12
3 -4 8 -86.9336 158.039 12
3 -4 8 -53.3244 204.366 11
3 -4 8 249.286 226.087 34
3 -4 8 52.3669 155.459 31
3 -4 8 103.467 188.095 29
3 -4 8 432.641 217.988 13
3 -4 9 15761.4 1117.71 11
3 -4 9 16363.8 1143.31 8
3 -4 9 14832.9 1055.9 29
3 -4 10 22712.6 1173.31 8
3 -4 11 526.291 141.09 11
3 -4 11 361.336 190.165 31
3 -3 -10 511.368 218.756 6
3 -3 -8 4761.35 616.041 3
3 -3 -7 214554 6077.28 3
3 -3 -6 39359.1 1779.14 3
3 -3 -5 6386.81 459.151 25
3 -3 -4 85326.6 2474.49 25
3 -3 -3 205694 5169.13 25
3 -3 -2 13686.2 710.961 25
3 -3 -1 53666.6 1742.08 25
3 -3 0 217813 5151.58 10
3 -3 1 429060 9946.63 10
3 -3 1 430429 9885.75 28
3 -3 1 424325 10151.6 25
3 -3 2 556961 12530.6 10
3 -3 2 516267 12469.3 28
3 -3 2 542112 12552.1 25
3 -3 3 9859.18 671.571 10
3 -3 3 9670.81 609.694 25
3 -3 4 701.382 202.767 10
3 -3 4 634.322 235.186 29
3 -3 4 871.237 228.366 28
3 -3 4 393.975 126.932 25
3 -3 5 156842 4897.99 24
3 -3 5 156211 4779.25 12
3 -3 5 164923 4832.28 18
3 -3 5 158931 4961.52 8
3 -3 5 162079 4564.88 17
3 -3 5 166396 4843.44 10
3 -3 5 166398 5031.47 29
3 -3 5 168861 4777.56 28
3 -3 5 162617 4786.79 13
3 -3 6 139654 4567.79 24
3 -3 6 143218 4572.76 34
3 -3 6 139086 4466.16 18
3 -3 6 138321 4649.72 8
3 -3 6 135212 4190.98 32
3 -3 6 142478 4315.53 17
3 -3 6 147077 4571.12 31
3 -3 6 148332 4560.28 10
3 -3 6 151316 4767.2 29
3 -3 6 145456 4554.76 13
3 -3 6 144039 4532.06 12
3 -3 7 8981.48 894.142 11
3 -3 7 8986.89 879.754 10
3 -3 7 9103.25 878.065 34
3 -3 7 7908.5 883.916 8
3 -3 7 9367.18 806.458 32
3 -3 7 9879.48 845.278 17
3 -3 7 8536.2 897.532 29
3 -3 7 9390.43 914.909 13
3 -3 7 8669.53 867.17 12
3 -3 7 7909.07 849.284 24
3 -3 8 13392.9 1005.94 34
3 -3 8 12873.5 1090.09 8
3 -3 8 11556.8 923.427 17
3 -3 8 14342.7 1141.29 29
3 -3 8 12540.5 1051.42 13
3 -3 8 12321.3 1009.68 12
3 -3 9 25438.9 1428.87 8
3 -3 9 24569.2 1411.26 31
3 -3 9 27226.6 1484.82 29
3 -3 10 1484.24 291.514 11
3 -3 10 1196.87 256.647 31
3 -2 -10 11123.4 887.538 6
3 -2 -8 252051 6894.02 3
3 -2 -7 88877.8 3052.3 3
3 -2 -4 470478 10997.2 25
3 -2 -3 18789.2 825.991 25
3 -2 -2 77742.5 2240.29 25
3 -2 -1 8390.71 513.751 25
3 -2 0 64481.5 1760.59 10
3 -2 0 59276.8 1876.23 25
3 -2 1 405885 9352.82 10
3 -2 1 392270 9434.89 25
3 -2 2 151421 3945.17 10
3 -2 2 146802 3887.64 25
3 -2 3 7399.59 575.701 10
3 -2 4 35854.2 1696.94 24
3 -2 4 36756.7 1618.62 11
3 -2 4 38167.2 1613.81 10
3 -2 4 37492.5 1612.65 31
3 -2 4 35214 1575.1 14
3 -2 5 160515 5007.23 12
3 -2 5 170216 4952.58 11
3 -2 5 167963 4924.21 10
3 -2 5 165356 4984.37 8
3 -2 5 161617 4654.45 32
3 -2 5 162638 4898.46 31
3 -2 5 170879 4820.83 17
3 -2 5 171715 5208.05 29
3 -2 5 167188 4975.99 13
3 -2 6 2710.42 498.245 12
3 -2 6 2648.69 468.239 34
3 -2 6 3604.46 574.789 8
3 -2 6 3264.92 475.432 32
3 -2 6 2857.04 463.483 17
3 -2 6 2955.19 552.864 29
3 -2 6 3028.2 525.046 13
3 -2 7 15386.6 1191.58 24
3 -2 7 16221.7 1188.45 10
3 -2 7 17546.8 1155 34
3 -2 7 16053.6 1207.37 8
3 -2 7 17943.2 1219.23 17
3 -2 7 16169.3 1201.18 31
3 -2 7 13419.9 1022.2 32
3 -2 7 17644 1328.65 29
3 -2 7 15834.8 1218.48 12
3 -2 8 18158.9 1275.41 11
3 -2 8 19356.2 1277.83 8
3 -2 8 21880.8 1339.36 17
3 -2 8 19987.9 1327.48 31
3 -2 8 20770.7 1402.7 29
3 -2 8 20577.8 1354.75 24
3 -2 9 1672.4 349.889 11
3 -2 9 1623.84 340.452 31
3 -2 10 36037.7 1454.89 31
3 -1 -10 3364.27 500.572 6
3 -1 -9 18958.8 1257.03 6
3 -1 -7 2090.03 383.912 3
3 -1 -4 99.611 93.5375 35
3 -1 -3 309191 7732.17 35
3 -1 -3 333182 7714.2 25
3 -1 -2 37480.3 1344.79 35
3 -1 -2 39333.8 1345.72 25
3 -1 0 642428 14569.9 35
3 -1 0 622296 14580.5 25
3 -1 1 612317 14191.3 10
3 -1 1 618802 14171.7 35
3 -1 2 266.678 126.465 10
3 -1 3 62634.7 2136.08 10
3 -1 4 234694 6486.48 24
3 -1 4 238170 6118.63 32
3 -1 4 226064 6602.65 29
3 -1 4 237190 6350.8 14
3 -1 5 -51.1249 163.932 12
3 -1 5 48.8765 145.097 24
3 -1 5 -42.7495 126.908 11
3 -1 5 40.6611 120.709 8
3 -1 5 72.9052 108.215 32
3 -1 5 -41.4403 112.303 10
3 -1 5 220.039 210.825 29
3 -1 5 46.8897 160.733 13
3 -1 6 44538.1 2086.05 11
3 -1 6 46694.8 2084.37 10
3 -1 6 39848.8 1942.51 8
3 -1 6 42121.1 1940.05 32
3 -1 6 48238.4 2142.29 17
3 -1 6 44900.9 2100.11 31
3 -1 6 45505.6 2260.39 29
3 -1 6 47074.5 2217.57 13
3 -1 6 47051.6 2263.01 12
3 -1 7 23286.4 1509.86 24
3 -1 7 25030.8 1485 11
3 -1 7 22840 1372.76 32
3 -1 7 24341.6 1484.8 17
3 -1 7 23360 1468.52 31
3 -1 7 23652.2 1376.19 8
3 -1 7 24010.8 1558.16 13
3 -1 7 24316.6 1570.65 12
3 -1 8 49.7976 190.925 24
3 -1 8 224.269 188.386 11
3 -1 8 284.881 190.925 17
3 -1 8 427.785 244.459 31
3 -1 8 312.71 209.561 13
3 -1 9 43155 1824.81 17
3 -1 9 43701.6 1820.2 31
3 0 -9 95653.5 3348.12 6
3 0 -8 6414.6 694.856 6
3 0 -7 21356.8 1256.16 6
3 0 -6 66648.4 2103.86 35
3 0 -5 10185.1 654.721 35
3 0 -4 204745 5291.22 35
3 0 -3 185156 4828.05 35
3 0 -2 693.478 170.001 35
3 0 0 612092 14206.3 35
3 0 1 84789.1 2474.4 35
3 0 2 110363 3017.95 35
3 0 3 133433 4167.09 29
3 0 3 133639 3942.25 14
3 0 4 322.611 193.51 24
3 0 4 336.364 192.192 11
3 0 4 59.8406 88.8705 22
3 0 4 32.0161 77.6581 21
3 0 4 239.668 181.16 19
3 0 4 306.118 278.264 31
3 0 4 75.0801 120.408 16
3 0 4 344.234 223.018 29
3 0 4 82.2073 140.929 14
3 0 5 61555.1 2611.7 24
3 0 5 54940.5 2352.12 11
3 0 5 61458.2 2251.6 22
3 0 5 57956.2 2202.5 8
3 0 5 61453.1 2384.6 32
3 0 5 61970 2472.36 31
3 0 5 64947.8 2711.64 29
3 0 5 61417.2 2285.88 21
3 0 5 65753.6 2640.04 13
3 0 5 60795.7 2675.85 12
3 0 6 18979.2 1361.85 24
3 0 6 20547.5 1296.58 11
3 0 6 20264.7 1170.47 22
3 0 6 18970.2 1248.14 32
3 0 6 20942 1371.19 17
3 0 6 19764.6 1317.99 31
3 0 6 19045.9 1407.43 29
3 0 6 20073.2 1397.51 13
3 0 6 19532.8 1431.04 12
3 0 7 11257.7 945.535 11
3 0 7 11458 947.724 32
3 0 7 12665.3 1048.68 17
3 0 7 11969.7 1012.12 31
3 0 7 12769.3 1096.37 29
3 0 7 12322.8 1087.32 13
3 0 7 12472.9 1093.89 12
3 0 8 63372.5 2551.83 17
3 0 8 68418.4 2543.05 31
3 0 8 66483.1 2626.81 13
3 0 9 11699.3 797.398 17
3 0 9 10954 784.166 24
3 1 -9 38656.6 1836.19 6
3 1 -8 28105.2 1526.82 6
3 1 -7 21968.5 1286.2 6
3 1 -6 6644.46 573.349 35
3 1 -5 147127 4166.53 35
3 1 -4 310957 7856.97 35
3 1 -3 13491.5 851.757 35
3 1 -2 282864 7228.56 35
3 1 -1 360759 8886.54 35
3 1 0 5884.53 510.423 35
3 1 1 54207.8 1868.91 35
3 1 2 49567.1 1829.12 32
3 1 2 49117 1885.15 31
3 1 2 50930 1732.31 35
3 1 3 8219.22 801.165 12
3 1 3 8540.35 797.374 24
3 1 3 7860.61 683.741 21
3 1 3 7259.32 755.482 19
3 1 3 7624.03 674.959 32
3 1 3 8842.9 758.935 31
3 1 3 6831.49 692.309 29
3 1 3 7528.31 705.377 14
3 1 4 177934 5537.74 24
3 1 4 194043 5240.69 22
3 1 4 181738 5250.5 32
3 1 4 191627 5348.3 31
3 1 4 182066 5490.47 29
3 1 4 176255 5407.79 14
3 1 4 182948 5654.13 12
3 1 4 184388 5272.94 21
3 1 5 65626.4 2821.77 24
3 1 5 68983.9 2542.09 22
3 1 5 63700.5 2534.81 21
3 1 5 66171.3 2611.25 32
3 1 5 70364.9 2690.08 31
3 1 5 67305.4 2797.42 29
3 1 5 68243 2823.2 13
3 1 5 69520.7 2937.15 12
3 1 6 472.522 258.694 12
3 1 6 514.65 268.981 24
3 1 6 688.031 250.722 22
3 1 6 883.742 394.985 32
3 1 6 906.687 322.607 13
3 1 7 30916.5 1703.49 24
3 1 7 29868.1 1562.59 32
3 1 7 31989.1 1717.19 13
3 2 -9 43773.5 1953.42 6
3 2 -8 24372.7 1397.19 6
3 2 -7 1927.93 332.588 35
3 2 -7 1458.43 330.901 6
3 2 -6 172542 4929.14 35
3 2 -6 179025 5071.39 6
3 2 -6 167411 4931.48 37
3 2 -5 456467 11289.6 35
3 2 -4 512.692 191.52 35
3 2 -3 24108.8 1318.86 35
3 2 -1 26037.9 1352.76 35
3 2 0 4734.21 526.067 35
3 2 1 18806.5 1045.14 35
3 2 1 17660.5 1039.08 37
3 2 2 11690.3 929.015 24
3 2 2 13441.1 813.829 35
3 2 2 12134.6 1051.43 19
3 2 2 13692.8 927.462 16
3 2 2 12072.6 880.917 14
3 2 2 13336.4 973.45 12
3 2 3 205186 6101.48 24
3 2 3 215700 5886.7 32
3 2 3 217521 5971.26 16
3 2 3 205834 5771.63 29
3 2 3 203972 5939.91 14
3 2 3 208251 5948.29 21
3 2 3 210637 6106.95 12
3 2 4 69734 2900.56 24
3 2 4 71788.8 2658.4 22
3 2 4 68645 2709.59 21
3 2 4 69159.6 2683.12 32
3 2 4 66996.7 2717.78 16
3 2 4 68947.9 2812.61 13
3 2 4 72540 2917.34 12
3 2 5 115.515 156.538 24
3 2 5 261.755 167.211 22
3 2 5 47.78 153.223 21
3 2 5 -54.4436 147.558 13
3 2 6 24543.1 1533.84 24
3 2 6 25563.8 1376.15 22
3 2 6 25778.2 1533.77 17
3 2 6 25270 1508.09 13
3 2 7 76730 2819.05 24
3 2 7 76102.6 2812.79 17
3 2 7 78850.4 2721.44 13
3 2 8 1445.93 270.794 24
3 2 8 927.442 236.995 17
3 3 -7 46632.2 2014.46 37
3 3 -7 44732.8 1966.97 35
3 3 -6 165875 5077.64 37
3 3 -6 164138 5063.66 35
3 3 -6 178240 4935.82 2
3 3 -5 38916.9 1919.59 37
3 3 -5 40737.8 1966.04 35
3 3 -5 43533.8 1851.56 2
3 3 -4 53796.2 2322.24 37
3 3 -4 53688 2354.88 35
3 3 -4 54957.7 2217.66 7
3 3 -4 54419.4 2194 2
3 3 -3 181820 5622.77 37
3 3 -3 178714 5651.88 35
3 3 -3 196918 5520.14 7
3 3 -2 13553 1058.66 37
3 3 -1 142518 4465.83 37
3 3 -1 139576 4475.62 35
3 3 -1 142086 4413.66 19
3 3 -1 137881 4256.26 7
3 3 0 50746.4 2195.13 35
3 3 0 53098.3 2354.59 19
3 3 0 52353.4 2226.22 37
3 3 1 -41.283 100.068 24
3 3 1 163.986 140.533 37
3 3 1 -57.2962 138.881 19
3 3 1 280.892 168.468 35
3 3 1 79.5958 107.854 16
3 3 2 63984.9 2613.38 24
3 3 2 66056.1 2559.42 16
3 3 2 63681.1 2466.45 14
3 3 3 136988 4536.35 24
3 3 3 135983 4471.2 21
3 3 3 139306 4435.35 16
3 3 3 136257 4378.55 13
3 3 4 4052.47 624.212 24
3 3 4 3888.46 559.815 22
3 3 4 4340.87 601.593 13
3 3 4 4049.81 590.432 21
3 3 5 22584.1 1445.95 24
3 3 5 21795.6 1292.96 22
3 3 5 21499.8 1301.26 13
3 3 6 46797.9 2030.12 24
3 3 6 41915.2 1793.46 22
3 3 6 46823.6 2023.36 17
3 3 7 523.634 186.664 24
3 3 7 155.513 136.054 17
3 4 -9 283.046 160.562 7
3 4 -8 50582.5 2117.38 7
3 4 -7 118061 3968.13 37
3 4 -7 118724 3987.72 35
3 4 -7 120520 3894.01 7
3 4 -6 4070.57 598.635 37
3 4 -6 4141.1 620.069 35
3 4 -6 5035.94 620.51 7
3 4 -5 51890.4 2406.76 37
3 4 -5 53566.7 2464.4 35
3 4 -5 52919.9 2264.28 7
3 4 -4 23867.5 1547.22 37
3 4 -4 24916.5 1596.49 35
3 4 -4 22582.9 1396.95 7
3 4 -3 18636.6 1379.79 37
3 4 -3 18531.1 1394.36 35
3 4 -3 20375.5 1311.31 7
3 4 -2 89488.5 3441.92 37
3 4 -2 87444.4 3456.46 35
3 4 -1 110191 3974.08 37
3 4 -1 113335 4041.91 35
3 4 0 425.972 241.564 37
3 4 0 269.587 184.964 35
3 4 1 52316 2264.13 24
3 4 1 60059.8 2410.56 37
3 4 1 59675.8 2557.94 21
3 4 1 54375.1 2311.27 35
3 4 1 58893.1 2390.97 16
3 4 2 161432 5080.18 24
3 4 2 172212 5312.75 21
3 4 2 168685 5124.5 16
3 4 3 11501.8 997.731 24
3 4 3 11108.3 977.29 16
3 4 4 1872.11 402.894 24
3 4 4 3057.58 483.719 22
3 4 4 3308.52 542.992 21
3 4 5 25115.8 1343.06 24
3 4 5 24274.7 1282.89 22
3 4 5 23646 1344.48 17
3 4 6 13023.4 826.725 17
3 5 -8 25533.8 1424.8 37
3 5 -8 27861.4 1423.05 7
3 5 -7 17979.9 1295.33 35
3 5 -7 18853.9 1226.22 7
3 5 -6 6606.74 798.643 37
3 5 -6 7298.85 855.501 35
3 5 -6 6458.93 733.691 7
3 5 -5 1959.23 470.671 37
3 5 -5 1481.71 407.282 35
3 5 -5 1537.79 389.622 7
3 5 -4 71076.8 3105.84 37
3 5 -4 73988.6 3194.22 35
3 5 -2 199789 6192.73 37
3 5 -2 189353 6190.08 35
3 5 -1 10553.5 1047.55 37
3 5 -1 9597.24 1012.02 35
3 5 0 54637.1 2534.06 35
3 5 0 57434.9 2404.11 16
3 5 0 61151.9 2632.62 37
3 5 1 118842 4094.4 21
3 5 1 110292 3781.03 16
3 5 2 13716.8 1035.57 16
3 5 2 12241.8 1073.31 21
3 5 3 15011.9 1052.31 22
3 5 3 12530.9 1033.14 21
3 5 4 28849.2 1406.63 22
3 5 4 28387.7 1398.75 17
3 5 5 4589.48 436.609 22
3 5 5 4938.4 446.432 17
3 6 -8 25529.2 1365.71 37
3 6 -7 26871.3 1547.85 37
3 6 -6 87746.6 3357.06 37
3 6 -5 4772.24 703.51 37
3 6 -4 38226.1 2111.94 37
3 6 -4 36456.2 2105.46 35
3 6 -3 196868 6287.98 35
3 6 -2 13276.1 1186.7 37
3 6 -2 14988.8 1025.91 16
3 6 -1 23209.8 1528.35 37
3 6 -1 26231.8 1547.85 21
3 6 -1 22628 1304.95 16
3 6 0 42569.3 1883.42 16
3 6 0 44325.1 2104.97 21
3 6 1 21182 1347.79 21
3 6 2 17788.9 1159.38 21
3 6 3 5305.28 527.737 22
3 6 3 4973.48 453.517 17
3 6 4 537.854 141.273 22
3 7 -8 8349.99 655.991 37
3 7 -7 31350.6 1541.57 37
3 7 -6 4424.45 591.964 37
3 7 -5 12829.7 1058.62 37
3 7 -4 75792 2989.58 37
3 7 -4 73319.1 2499.16 21
3 7 -3 24342 1516.5 37
3 7 -3 26082.5 1314.05 21
3 7 -2 42669.6 2033.2 37
3 7 -2 46291.9 1903.72 21
3 7 -1 34405.3 1597.19 21
3 7 0 13493.6 912.388 21
3 7 1 11128.7 774.352 22
3 8 -7 907.092 208.945 37
3 8 -6 22899.9 1155.03 37
3 8 -5 33480.4 1506.9 37
3 8 -3 4597.18 498.306 37
3 8 0 5410.39 402.126 22
4 -11 5 12357.5 721.936 33
4 -10 -4 25406.3 1299.72 3
4 -10 -3 3088.37 478.325 3
4 -10 -2 952.603 302.191 3
4 -10 4 12553.7 833.335 18
4 -10 5 22799.8 1150.16 18
4 -10 6 4196.46 464.733 33
4 -10 6 4178.6 439.266 18
4 -10 7 269.902 123.412 18
4 -9 -7 6400.04 468.26 3
4 -9 -6 388.591 191.661 3
4 -9 -5 27277.6 1532.97 3
4 -9 0 19705.3 1469.47 25
4 -9 1 20561.6 1511.29 25
4 -9 3 15372.8 1071.53 18
4 -9 4 46089 2081.29 18
4 -9 4 48666.5 2048.06 34
4 -9 5 1939.13 379.289 34
4 -9 5 1419.07 354.332 18
4 -9 6 75.5787 129.57 34
4 -9 6 275.228 196.494 33
4 -9 6 120.632 161.655 18
4 -9 7 15554.8 940.478 34
4 -9 7 16895.1 992.447 18
4 -9 8 1926.09 289.033 18
4 -8 -8 1491.3 245.129 3
4 -8 -7 894.821 275.643 3
4 -8 -6 12159.2 1036.66 3
4 -8 -3 23356 1450.49 25
4 -8 -2 21972.1 1463.9 25
4 -8 -1 44851.8 2279.28 4
4 -8 -1 44097.6 2250.64 25
4 -8 0 85341.2 3440.84 4
4 -8 0 84004.3 3409.99 25
4 -8 1 73137.4 2787.51 29
4 -8 2 44373.1 2260.32 4
4 -8 2 38801.1 1869.18 18
4 -8 2 40791.8 1938.2 29
4 -8 2 44832.9 2249.97 25
4 -8 3 135375 4351.45 18
4 -8 3 129266 4197.45 29
4 -8 3 135206 4507.75 25
4 -8 4 59831.3 2538.15 18
4 -8 4 56427.8 2320.61 29
4 -8 4 56290.5 2438.54 25
4 -8 5 5234.2 688.501 18
4 -8 5 4213.21 544.924 29
4 -8 5 4448.26 640.016 34
4 -8 6 21553.6 1365.33 34
4 -8 6 18664.9 1217.75 33
4 -8 6 17917.2 1259.98 18
4 -8 7 7723.43 747.482 34
4 -8 7 6486.08 678.293 18
4 -8 8 13366.1 738.802 11
4 -8 8 16156.7 970.788 34
4 -7 -8 4406.64 537.261 3
4 -7 -7 3029.3 521.192 3
4 -7 -6 42870.9 2220.56 3
4 -7 -4 35517.3 1714.34 25
4 -7 -3 20876.4 1323.27 25
4 -7 -2 2778.23 486.858 25
4 -7 -1 109589 3883.39 4
4 -7 -1 109084 3851.61 25
4 -7 0 15398.2 1214.37 4
4 -7 0 16679.9 1252.69 25
4 -7 1 4775.96 608.016 29
4 -7 2 202593 5990.38 4
4 -7 2 185074 5570.34 18
4 -7 2 202082 5745.91 29
4 -7 2 194149 5900.42 25
4 -7 3 38780.4 1941.91 18
4 -7 3 40064.5 1938.85 29
4 -7 3 40229.3 1993.42 25
4 -7 4 193614 5852.08 18
4 -7 4 195835 5733.77 29
4 -7 4 188777 5633.26 25
4 -7 5 56822.9 2550.46 18
4 -7 5 55758.8 2405.88 29
4 -7 6 12098.5 937.184 11
4 -7 6 13173.3 1112.78 34
4 -7 6 12883.3 993.049 33
4 -7 6 15115.3 1173.58 18
4 -7 6 10553.5 860.77 31
4 -7 6 11642.3 957.184 29
4 -7 7 11969.6 902.663 11
4 -7 7 10536.1 961.736 34
4 -7 7 11971.7 985.663 18
4 -7 7 11241.2 873.779 29
4 -7 8 34946 1541.78 11
4 -7 8 35369.9 1684.27 34
4 -7 8 36132.5 1653.18 18
4 -7 8 33657.1 1448.49 29
4 -7 9 11323.5 682.657 11
4 -6 -10 3684.81 367.931 6
4 -6 -9 680.861 226.224 3
4 -6 -8 7333.02 771.789 3
4 -6 -7 24127.4 1559.62 3
4 -6 -6 17608.4 1354.33 3
4 -6 -4 52083.9 2095.2 25
4 -6 -3 619.269 224.178 25
4 -6 -2 207029 5874.83 25
4 -6 -1 56908.4 2351.25 25
4 -6 0 1459.96 366.943 4
4 -6 0 1517.25 366.865 25
4 -6 1 18511 1080.92 18
4 -6 1 19437.2 1253.65 25
4 -6 2 34644 1660.34 18
4 -6 2 32834.8 1688.58 29
4 -6 2 35258.7 1758.55 25
4 -6 3 10044.7 733.289 10
4 -6 3 9358.24 873.498 18
4 -6 3 12170.4 986.344 29
4 -6 3 9135.07 686.632 28
4 -6 3 10229.3 878.799 25
4 -6 4 54397.9 2149.39 10
4 -6 4 56400.6 2425.12 8
4 -6 4 51810.8 2365.1 18
4 -6 4 54171.9 2366.08 29
4 -6 4 46407 2005.84 28
4 -6 4 56072.9 2202.63 25
4 -6 5 12838.7 898.838 12
4 -6 5 10964.8 930.852 11
4 -6 5 11471.5 938.744 10
4 -6 5 10743.9 1022.45 8
4 -6 5 12249.6 1065.61 18
4 -6 5 12088.2 1035.18 29
4 -6 5 10544.5 890.041 28
4 -6 6 14786.8 1113.2 11
4 -6 6 12507.9 1020.12 10
4 -6 6 13830.3 1163.73 8
4 -6 6 13354.3 993.546 33
4 -6 6 14365.1 1169.27 18
4 -6 6 13508.4 1039.43 31
4 -6 6 14411.3 1120.45 29
4 -6 6 11463.7 861.808 12
4 -6 7 55264.3 2332.44 11
4 -6 7 56879.7 2477.7 8
4 -6 7 49306 2184.25 31
4 -6 7 50952.5 2262.26 29
4 -6 8 9643.19 823.641 11
4 -6 8 12183.3 940.468 34
4 -6 8 9572.97 796.511 31
4 -6 8 10582.1 835.804 29
4 -6 9 478.913 185.089 11
4 -6 9 27.9214 257.796 31
4 -6 9 490.994 171.667 29
4 -6 10 9561.7 535.589 11
4 -5 -10 2057.74 363.483 6
4 -5 -9 3336.21 484.414 3
4 -5 -8 8638.17 865.018 3
4 -5 -7 2587.06 508.702 3
4 -5 -6 138803 4621.43 3
4 -5 -5 49894.2 1908.41 25
4 -5 -4 932.122 242.946 25
4 -5 -3 145973 4250.92 25
4 -5 -2 180324 5060.34 25
4 -5 -1 7331.69 669.078 25
4 -5 1 62699.5 1897.05 10
4 -5 1 62389.9 2355.18 25
4 -5 2 28272.8 1233.11 10
4 -5 2 30631 1478.13 18
4 -5 2 30392.2 1563.38 29
4 -5 2 29278.9 1195.87 28
4 -5 2 33660.4 1554.01 25
4 -5 3 203615 5498.59 11
4 -5 3 205424 5457.52 10
4 -5 3 207078 5783.37 18
4 -5 3 206348 5855.47 29
4 -5 3 192327 5473.4 15
4 -5 3 190440 5321.41 28
4 -5 3 200288 5777.39 8
4 -5 3 201917 5575.94 25
4 -5 4 43975.3 1941.28 11
4 -5 4 45627.4 1939.76 10
4 -5 4 41639.2 2050.69 8
4 -5 4 43778.1 2064.92 18
4 -5 4 46869.4 2145.13 29
4 -5 4 40779.4 1821.95 28
4 -5 4 41468.6 1760.05 13
4 -5 4 43043.2 1781.74 25
4 -5 5 1508.48 352.738 12
4 -5 5 2338.94 451.581 11
4 -5 5 1497.78 333.433 33
4 -5 5 1821.37 412.613 18
4 -5 5 2793.09 475.88 10
4 -5 5 2448.78 499.35 8
4 -5 5 1546.19 367.834 31
4 -5 5 1913.52 446.329 29
4 -5 5 1691.72 347.558 13
4 -5 6 97672.4 3488.72 11
4 -5 6 92476 3388.96 10
4 -5 6 94955.9 3605.57 8
4 -5 6 85193.1 3269.61 31
4 -5 6 100949 3584.53 29
4 -5 6 94199.1 3246.13 13
4 -5 6 87869.2 3199.72 12
4 -5 7 26865 1590.97 11
4 -5 7 29085.3 1711.27 8
4 -5 7 29177.6 1658.42 34
4 -5 7 24447.6 1490.81 31
4 -5 7 26653.3 1601.12 29
4 -5 7 26525 1454.23 13
4 -5 7 26530.4 1439.7 12
4 -5 8 182.93 192.131 11
4 -5 8 343.142 187.565 34
4 -5 8 346.327 209.986 31
4 -5 8 486.856 245.914 29
4 -5 9 13510.7 884.816 11
4 -5 9 11911.2 821.33 31
4 -5 9 13872.2 867.703 29
4 -5 10 6748.17 474.392 11
4 -5 10 6471.91 468.312 31
4 -4 -11 -45.248 116.333 6
4 -4 -10 23590.5 1323.02 6
4 -4 -9 5619.69 671.378 3
4 -4 -8 365.638 210.113 3
4 -4 -7 96238 3514.12 3
4 -4 -6 35984.9 1843.78 3
4 -4 -5 10173 878.423 3
4 -4 -5 10096.4 705.844 25
4 -4 -4 74447.8 2457.54 25
4 -4 -3 177614 4826.1 25
4 -4 -2 294479 7451.87 25
4 -4 -1 179072 4889.08 25
4 -4 1 51118.6 1690.84 10
4 -4 1 52646.7 1958.72 25
4 -4 2 242783 6229.93 10
4 -4 2 237886 6653.29 29
4 -4 2 253177 6438.68 25
4 -4 3 126540 3801.22 11
4 -4 3 125813 3755.8 10
4 -4 3 127068 4009.86 8
4 -4 3 132072 3970.33 18
4 -4 3 120263 3678.19 31
4 -4 3 126598 4100.77 29
4 -4 3 119455 3807.6 15
4 -4 3 131124 3751.68 25
4 -4 4 35653.2 1726.95 11
4 -4 4 36868.4 1701.34 10
4 -4 4 32136.6 1540.72 20
4 -4 4 36049.8 1848.23 8
4 -4 4 37882.2 1818.59 18
4 -4 4 34828.7 1650.62 31
4 -4 4 37787.2 1891.72 29
4 -4 4 32673.2 1423.31 25
4 -4 5 106508 3678.66 11
4 -4 5 105097 3618.18 10
4 -4 5 99090.5 3538.51 31
4 -4 5 108839 3853.27 29
4 -4 5 107248 3587.3 13
4 -4 6 36659.4 1924.53 11
4 -4 6 35487.1 1866.18 10
4 -4 6 37793 1946.99 34
4 -4 6 33486.1 1928.47 8
4 -4 6 33393 1812.79 31
4 -4 6 40237.7 2050.89 29
4 -4 6 36182.3 1843.61 13
4 -4 6 33360.6 1789.89 12
4 -4 7 2018.01 426.44 12
4 -4 7 1952.48 433.491 11
4 -4 7 2041.28 429.158 34
4 -4 7 2001.75 467.265 8
4 -4 7 2271.71 457.87 31
4 -4 7 2289.67 494.892 29
4 -4 7 2138.47 441.212 13
4 -4 8 14128.4 1057.37 11
4 -4 8 10295.9 893.289 31
4 -4 8 13863.1 1041.72 29
4 -4 8 13140.3 971.763 13
4 -4 8 10981.2 875.812 12
4 -4 9 15190 952.567 11
4 -4 9 14289.2 915.414 31
4 -4 9 15717.3 963.892 29
4 -4 10 16489.8 770.634 31
4 -3 -11 49172.3 1851.53 6
4 -3 -10 4544.23 593.961 6
4 -3 -9 1035.55 308.055 3
4 -3 -8 40028.2 1978.75 3
4 -3 -7 106640 3685.19 3
4 -3 -6 10706.7 900.443 3
4 -3 -5 16671.2 1096.46 3
4 -3 -5 16692.5 910.656 25
4 -3 -4 53938.1 1901.58 25
4 -3 -3 4703.67 454.257 25
4 -3 -2 91063.8 2769.81 25
4 -3 -1 25853.3 1177.05 25
4 -3 0 3100.07 376.211 25
4 -3 1 192860 4927.13 10
4 -3 1 189991 5122.77 25
4 -3 2 124356 3556.27 10
4 -3 2 123996 3596.08 25
4 -3 3 1377.42 291.52 11
4 -3 3 947.121 243.975 10
4 -3 3 1316.52 300.108 18
4 -3 3 1160.62 296.227 8
4 -3 3 1475.59 292.134 31
4 -3 3 1030.87 277.309 15
4 -3 3 1225.85 267.662 14
4 -3 4 96479.6 3247.11 11
4 -3 4 92445.9 3153.92 10
4 -3 4 86558.2 2991.4 20
4 -3 4 91130.8 3284.46 8
4 -3 4 93333.8 3137.01 31
4 -3 4 91247.9 3137.22 14
4 -3 4 95082.9 3354.71 24
4 -3 5 75089.7 2954.98 12
4 -3 5 75529.1 2942.59 11
4 -3 5 80706.2 2952.21 10
4 -3 5 75409.9 2986.94 8
4 -3 5 70431 2604.62 17
4 -3 5 72536.8 2830.83 31
4 -3 5 82075.1 3169.5 29
4 -3 5 74831.9 2904.47 13
4 -3 5 73565.8 2983.55 24
4 -3 6 9489.45 940.85 11
4 -3 6 10210 950.425 10
4 -3 6 8809.49 866.97 34
4 -3 6 10999.6 1017.91 8
4 -3 6 10172.7 845.67 17
4 -3 6 9772.54 927.949 31
4 -3 6 11075.9 1051.71 29
4 -3 6 11448.1 1013.25 13
4 -3 6 10800.9 979.26 12
4 -3 7 43064.9 2092.22 11
4 -3 7 40260.5 2047.31 8
4 -3 7 40652.7 1864.99 34
4 -3 7 40500.8 1811.64 17
4 -3 7 39565.5 1994.8 31
4 -3 7 45251.7 2178.74 29
4 -3 7 40302 2029.61 13
4 -3 7 42178.7 2032.43 12
4 -3 8 20900.1 1306.59 29
4 -3 8 17842.1 1196.69 13
4 -2 -11 6836.38 642.472 6
4 -2 -10 47.7477 153.107 6
4 -2 -9 9096.35 894.578 6
4 -2 -8 51887.9 2283.86 3
4 -2 -7 1791.28 395.589 3
4 -2 -6 29144.4 1520.74 3
4 -2 -4 1952.55 293.6 25
4 -2 -3 438447 10517.8 25
4 -2 -2 193982 5085.18 25
4 -2 0 360835 8827.82 25
4 -2 2 1334.95 329.185 29
4 -2 2 1504.45 271.182 10
4 -2 3 27884.8 1521.21 24
4 -2 3 29879.2 1451.41 11
4 -2 3 31312.3 1443.62 10
4 -2 3 26902.6 1401.88 20
4 -2 3 26849.9 1397.83 8
4 -2 3 29523.7 1411.29 31
4 -2 3 29028.4 1614.36 29
4 -2 3 30389.4 1441.77 14
4 -2 4 93902.9 3408.16 24
4 -2 4 97724.4 3316.84 11
4 -2 4 96931.6 3262.62 10
4 -2 4 92671.2 3142.17 20
4 -2 4 94004.6 3282.31 8
4 -2 4 93509.1 3229.44 31
4 -2 4 96167.9 3542.66 29
4 -2 4 96892.7 3301.81 14
4 -2 5 16691.9 1248.55 24
4 -2 5 16625.4 1200.48 11
4 -2 5 17480 1206.22 10
4 -2 5 15632.2 1158.56 8
4 -2 5 15184.5 1135.2 31
4 -2 5 17653.5 1144.49 17
4 -2 5 16718.4 1306.33 29
4 -2 5 17005.1 1231.21 13
4 -2 6 56729.5 2541.52 24
4 -2 6 54822.8 2325.56 17
4 -2 6 55757.5 2443.85 31
4 -2 6 54455 2384.4 8
4 -2 7 9312.7 829.45 17
4 -2 8 810.113 303.936 11
4 -2 8 2221.07 426.846 31
4 -2 9 50070.7 1819.28 31
4 -1 -11 360.41 180.271 6
4 -1 -10 5198.41 646.611 6
4 -1 -9 54208.5 2199.46 2
4 -1 -9 51884.3 2360.99 6
4 -1 -8 -50.7239 162.65 6
4 -1 -7 14968.6 1107.65 6
4 -1 -6 33684.9 1667.61 6
4 -1 -5 301.391 150.751 35
4 -1 -4 336325 8393.49 35
4 -1 -3 154678 4307.77 35
4 -1 -2 68046.9 2282.72 35
4 -1 -1 256405 6525.3 35
4 -1 0 317464 7865.36 35
4 -1 1 20975.3 1012.69 35
4 -1 2 17312.6 1001.64 11
4 -1 2 17197.7 981.654 31
4 -1 2 16810.9 1123.08 29
4 -1 2 16180.1 983.769 14
4 -1 3 53154.6 2308.03 24
4 -1 3 59952.6 2262.18 11
4 -1 3 58594.6 2305.25 20
4 -1 3 53121.9 2230.51 19
4 -1 3 57093.3 2189.42 31
4 -1 3 58364 2144.97 16
4 -1 3 52946.5 2365.35 29
4 -1 3 57211.5 2241.23 14
4 -1 4 60541.1 2591.04 24
4 -1 4 64018.8 2690.26 12
4 -1 4 60871.5 2419.93 20
4 -1 4 59245.2 2382.54 19
4 -1 4 61436.5 2446.03 31
4 -1 4 63209.4 2709.96 29
4 -1 4 62648.7 2520.21 14
4 -1 5 161786 5119.73 24
4 -1 5 148099 4511.1 32
4 -1 5 161456 5160.51 29
4 -1 5 159651 5068.82 13
4 -1 5 160415 5158.37 12
4 -1 6 8633.57 893.735 24
4 -1 6 7992.97 819.067 11
4 -1 6 8547.86 829.304 17
4 -1 6 7651.7 862.567 29
4 -1 6 8038.5 875.625 13
4 -1 6 8131.23 889.611 12
4 -1 7 668.101 271.781 12
4 -1 7 594.812 268.947 24
4 -1 7 265.715 178.449 17
4 -1 7 611.381 283.235 29
4 -1 7 463.16 257.459 13
4 -1 8 48112.8 1902.13 17
4 -1 8 50539.6 2056.84 13
4 0 -11 1304.23 294.287 6
4 0 -10 17837 1209.57 6
4 0 -9 102.792 206.602 6
4 0 -8 52071.3 2194.02 2
4 0 -8 55095.4 2380.18 6
4 0 -7 31452.6 1573.04 2
4 0 -7 30128.2 1637.05 6
4 0 -6 1104.33 262.77 35
4 0 -6 1528.05 333.633 2
4 0 -6 1392.51 334.787 6
4 0 -5 402418 9985.82 35
4 0 -4 212259 5770.6 35
4 0 -3 16686.6 1003.57 35
4 0 -1 231722 6064.21 35
4 0 0 300.534 150.322 35
4 0 1 152064 4499.62 20
4 0 1 151773 4202.19 35
4 0 1 151964 4220.79 31
4 0 1 146177 4259.72 14
4 0 2 70387.3 2658.19 24
4 0 2 69423.4 2697.21 20
4 0 2 74455.1 2340.93 35
4 0 2 70893.9 2768.04 19
4 0 2 73627.3 2544.1 31
4 0 2 73316.3 2528.74 16
4 0 2 68917.7 2649.42 29
4 0 2 74466 2611.88 14
4 0 3 3387.58 535.8 24
4 0 3 3923.28 476.733 21
4 0 3 4271.73 599.092 19
4 0 3 4426.57 544.411 32
4 0 3 3893.28 503.109 16
4 0 3 3723.73 556.492 29
4 0 3 3725.46 527.505 14
4 0 4 150500 4857.39 24
4 0 4 140840 4626.34 19
4 0 4 145007 4375.11 32
4 0 4 152182 4617.5 16
4 0 4 152168 4407.38 21
4 0 4 152265 4825.22 29
4 0 4 146358 4717.86 14
4 0 4 152128 4964.31 12
4 0 5 11643.5 1067.75 24
4 0 5 11338.9 920.834 32
4 0 5 10990 1015.73 29
4 0 5 12753.5 1091.05 13
4 0 5 11871.1 1106.36 12
4 0 6 3271.48 554.849 24
4 0 6 2992.92 505.385 17
4 0 6 3701.66 564.35 29
4 0 6 4252.03 629.582 13
4 0 6 4245.3 634.071 12
4 0 7 1097.02 320.128 24
4 0 7 1201.38 306.487 17
4 0 7 1213.65 332.374 13
4 0 8 33426.4 1421.2 17
4 0 8 34489 1457.75 13
4 1 -10 1300.07 331.727 6
4 1 -9 88926.4 3269.89 6
4 1 -8 60063.2 2357.27 2
4 1 -8 55952.3 2449.28 6
4 1 -7 113.512 112.421 35
4 1 -7 338.612 198.727 2
4 1 -7 439.094 229.051 6
4 1 -6 63905.9 2505.03 2
4 1 -6 67913.1 2527.36 35
4 1 -6 65670.5 2598.54 6
4 1 -6 65180.3 2532.04 37
4 1 -5 158828 4664.72 2
4 1 -5 150232 4685 37
4 1 -5 156502 4675.52 35
4 1 -5 156982 4727.63 6
4 1 -4 1254.25 323.821 37
4 1 -4 787.504 252.064 35
4 1 -3 10830 857.612 35
4 1 -3 10201.1 855.987 37
4 1 -2 69702 2611.93 37
4 1 -1 13844.9 979.532 37
4 1 -1 14483.5 970.569 35
4 1 0 306522 7957.76 37
4 1 0 306923 8212.85 19
4 1 0 303999 7768.71 14
4 1 0 306414 7910.03 35
4 1 1 11880.5 824.425 35
4 1 1 11574.1 1008.39 19
4 1 1 11118.6 824.154 37
4 1 1 11547.9 849.405 14
4 1 2 2874.38 482.418 24
4 1 2 3372.76 409.372 35
4 1 2 3561.24 589.541 19
4 1 2 3544.32 476.732 29
4 1 2 4055.76 535.706 14
4 1 3 153190 4901.31 24
4 1 3 153891 4660.82 21
4 1 3 150803 5003.92 19
4 1 3 151828 4661.46 29
4 1 3 163099 4895.73 14
4 1 3 158931 5013.74 12
4 1 4 144692 4800.41 24
4 1 4 141191 4289.12 22
4 1 4 144384 4476.29 21
4 1 4 152510 4611 29
4 1 4 151769 4887.6 12
4 1 5 608.135 276.321 12
4 1 5 164.12 239.126 24
4 1 5 163.401 198.121 13
4 1 6 14252.4 1083.53 24
4 1 6 13876.1 1045.52 17
4 1 6 15314.2 1113.67 13
4 1 7 72033.2 2506.41 24
4 1 7 69883.7 2495.99 17
4 1 7 72558.4 2485.58 13
4 1 8 79.0289 86.3513 17
4 2 -9 43753.7 2043.45 6
4 2 -8 497.061 224.843 2
4 2 -8 657.803 281.295 6
4 2 -7 32018.7 1659.98 35
4 2 -7 34787.3 1806.75 6
4 2 -7 34120.1 1731.19 37
4 2 -7 34701 1709.66 2
4 2 -6 249207 7007.43 37
4 2 -6 237180 6908.56 35
4 2 -6 261352 7071.46 6
4 2 -6 249017 6893.94 2
4 2 -5 2096.32 440.147 37
4 2 -5 1870.75 395.2 2
4 2 -5 1741.69 393.067 35
4 2 -4 51027.6 2328.82 37
4 2 -4 52482.5 2334.33 35
4 2 -4 55935.6 2295.79 2
4 2 -3 36126.8 1879.6 37
4 2 -3 36101.8 1862.4 35
4 2 -3 36107.4 1696.02 19
4 2 -3 38982.2 1794.11 7
4 2 -3 39036.9 1838.64 2
4 2 -2 1449.82 370.173 37
4 2 -2 1523.68 349.484 2
4 2 -2 1476.12 359.465 35
4 2 -2 1704.36 360.879 19
4 2 -2 1672.4 347.774 7
4 2 -1 150895 4624.89 35
4 2 -1 148455 4668.09 19
4 2 -1 146983 4402.44 7
4 2 -1 149169 4659.8 37
4 2 -1 142299 4247.7 14
4 2 0 65444.3 2557.99 37
4 2 0 67589.5 2551.08 35
4 2 0 65745.2 2760.98 19
4 2 0 58951.9 2319.43 14
4 2 1 1132.21 283.026 37
4 2 1 1636.22 331.786 35
4 2 1 1149.26 293.272 16
4 2 1 1487.37 329.64 14
4 2 2 104495 3677.93 24
4 2 2 112263 3762.74 21
4 2 2 108925 4064.74 19
4 2 2 111845 3716.94 16
4 2 2 109549 3713.79 14
4 2 2 114417 3767.63 12
4 2 3 149320 4857.9 24
4 2 3 156891 4811 21
4 2 3 156444 4847.21 16
4 2 3 147074 4795.71 14
4 2 3 159527 4869.2 12
4 2 4 1930.09 410.989 12
4 2 4 1571.2 398.081 24
4 2 4 2488.6 409.761 22
4 2 4 1519.22 359.13 21
4 2 4 1134.98 326.944 13
4 2 5 16588.3 1163.09 24
4 2 5 17630 1185.71 13
4 2 6 6963.46 644.248 24
4 2 6 6723.44 650.598 17
4 2 6 7850.58 647.743 13
4 2 7 807.803 197.594 17
4 3 -10 62204.7 2270.99 7
4 3 -9 1872.45 384.715 7
4 3 -8 18364.2 1187.38 37
4 3 -8 18587.3 1232.63 7
4 3 -8 17601.9 1125.79 2
4 3 -7 54437.1 2402.14 37
4 3 -7 53440.4 2355.61 35
4 3 -7 55695.9 2369.02 7
4 3 -7 51796.6 2229.42 2
4 3 -6 8647.1 899.991 37
4 3 -6 9231.28 911.675 35
4 3 -6 8980.87 867.745 7
4 3 -6 9975.96 895.339 2
4 3 -5 57633 2645.01 37
4 3 -5 56575 2612.95 35
4 3 -5 65086.7 2594.71 7
4 3 -5 62209.5 2540.46 2
4 3 -4 14573.9 1229.73 37
4 3 -4 14246.6 1206.1 35
4 3 -4 15722.2 1031.91 19
4 3 -4 16507.4 1174.92 7
4 3 -4 18157.2 1242.21 2
4 3 -3 312.587 171.28 19
4 3 -2 139222 4650.99 37
4 3 -2 129398 4532.34 35
4 3 -2 134389 4403.69 19
4 3 -2 139889 4384.68 7
4 3 -2 131851 3984.33 14
4 3 -1 172083 5337.46 37
4 3 -1 162862 5230 35
4 3 -1 173877 5359.87 19
4 3 -1 160716 4747.8 14
4 3 0 205.561 176.237 37
4 3 0 200.297 148.744 35
4 3 0 744.743 300.907 19
4 3 0 159.818 160.684 14
4 3 1 18672.4 1179.82 37
4 3 1 15379.3 1074.75 35
4 3 1 18522.8 1228.89 16
4 3 1 16092.8 1103.58 14
4 3 2 104237 3617.5 24
4 3 2 110388 3883.74 21
4 3 2 116036 3869.19 16
4 3 2 117615 3768.2 14
4 3 3 14243.9 1016.69 22
4 3 3 14026.7 1085.84 16
4 3 3 14741.9 1112.34 21
4 3 3 15847.7 1108.09 13
4 3 4 19471.3 1134.87 22
4 3 4 20444.3 1260.77 21
4 3 4 20116.6 1166.62 13
4 3 5 7104.62 677.331 17
4 3 6 837.665 207.195 17
4 4 -10 312.291 150.136 7
4 4 -9 3067.47 457.962 7
4 4 -8 807.447 277.719 7
4 4 -8 721.37 256.839 37
4 4 -7 70928.1 2837.17 37
4 4 -7 63748.1 2721.23 35
4 4 -7 65211.4 2655.3 7
4 4 -6 78098.6 3154.89 37
4 4 -6 71437.5 3050 35
4 4 -6 73148.6 2916.61 7
4 4 -5 74106.6 3154.03 37
4 4 -5 69112 3081.22 35
4 4 -5 77395.1 2995.15 7
4 4 -4 20367 1510.8 37
4 4 -4 18115.1 1448.79 35
4 4 -4 20373.8 1384.41 7
4 4 -3 110920 4192.07 35
4 4 -2 165981 5446.06 37
4 4 -2 161325 5407.82 35
4 4 -1 121.116 194.188 37
4 4 -1 59.7825 125.504 35
4 4 0 18476 1284.01 37
4 4 0 17851.9 1269.14 35
4 4 0 16860.9 1193.56 16
4 4 1 117230 4060.28 21
4 4 1 115609 3905.42 16
4 4 2 20829.1 1315 16
4 4 3 64207.9 2378.17 22
4 4 3 64554.4 2525.31 21
4 4 4 11812.4 842.152 17
4 4 5 892.719 196.039 17
4 5 -8 16723.7 1107.07 37
4 5 -8 17833 1107.46 7
4 5 -7 38461 1945.17 37
4 5 -7 38628.8 1849.34 7
4 5 -6 109362 3959.64 37
4 5 -5 254.004 255.308 37
4 5 -4 30882.6 1913.88 37
4 5 -3 96598.7 3788.4 37
4 5 -2 5882.87 784.312 37
4 5 -1 24686.5 1553.49 37
4 5 -1 25269.4 1430.77 16
4 5 0 13783.5 1090.68 21
4 5 0 12041.2 950.695 16
4 5 1 93.6316 150.147 21
4 5 1 201.573 169.282 16
4 5 2 25186.4 1278.41 22
4 5 2 24732.7 1359.97 21
4 5 3 11517.5 743.484 17
4 6 -8 14941.7 929.449 37
4 6 -7 60049.4 2375.41 37
4 6 -6 393.941 238.876 37
4 6 -5 52638.5 2390.22 37
4 6 -3 16962.6 1238.95 37
4 6 -3 16331.6 1014.7 16
4 6 -2 19430 1279.81 37
4 6 -2 20532 1233.19 21
4 6 -2 20313.7 1137.75 16
4 6 -1 14535.7 999.922 21
4 6 -1 12897.3 856.852 16
4 6 0 699.856 228.15 21
4 6 1 11568.5 762.571 22
4 6 1 13739 853.454 21
4 6 2 18879.2 851.06 22
4 7 -7 2978.65 381.393 37
4 7 -6 8470.81 696.008 37
4 7 -5 24512.3 1287.82 37
4 7 -4 11619.6 670.689 21
4 7 -3 15198.3 811.234 21
4 7 -3 16006.2 966.121 37
4 7 -2 8496.31 580.527 21
4 7 -1 140.75 94.4307 21
4 7 0 13953 679.796 22
5 -10 -5 9423.53 690.674 3
5 -10 -4 109.226 152.874 3
5 -10 -3 6352.97 666.865 3
5 -10 4 17495.3 935.184 18
5 -10 5 116.056 112.552 34
5 -9 -7 743.541 204.421 3
5 -9 -6 12020.2 900.8 3
5 -9 -4 20453.1 1403.05 3
5 -9 -3 18172.9 1341.05 3
5 -9 -2 34875.5 1891.44 3
5 -9 -1 2253.27 438.751 29
5 -9 -1 1436.59 372.159 3
5 -9 0 63298.7 2561.75 29
5 -9 1 34259.8 1731.7 29
5 -9 2 977.111 290.67 29
5 -9 3 31485.7 1564.69 18
5 -9 3 30916.2 1561.31 29
5 -9 4 399.205 221.795 34
5 -9 4 209.748 176.304 18
5 -9 4 578.257 219.155 29
5 -9 5 14517.2 1015.93 34
5 -9 5 14240.9 986.769 18
5 -9 6 13797.2 920.258 34
5 -9 6 13322.4 886.619 18
5 -9 7 4641.43 455.807 34
5 -8 -8 1213 268.355 3
5 -8 -7 7274.14 727.785 3
5 -8 -6 2193.52 467.734 3
5 -8 -4 24597.7 1674.74 3
5 -8 -3 13621.2 1223.86 3
5 -8 -3 12324.7 1064.99 25
5 -8 -2 1047.04 373.853 3
5 -8 -2 939.11 326.702 25
5 -8 -1 174910 5444.1 3
5 -8 -1 174504 5595.08 25
5 -8 0 23109.4 1460.45 29
5 -8 0 20778.1 1514.75 25
5 -8 1 81846.5 3191.18 29
5 -8 1 86851.8 3438.69 25
5 -8 2 71504.5 2754.35 18
5 -8 2 80041.8 3029.04 29
5 -8 2 72719.4 3056.02 25
5 -8 3 1241.42 336.005 18
5 -8 3 1186.09 348.872 29
5 -8 3 985.329 325.967 25
5 -8 4 23096.6 1452.45 18
5 -8 4 23771.3 1436.06 29
5 -8 5 26847.1 1593.66 34
5 -8 5 29110.9 1615.66 18
5 -8 5 26745.4 1469.56 29
5 -8 6 25399.2 1431.68 34
5 -8 6 24131.1 1381.27 18
5 -8 6 22620.6 1237.15 29
5 -8 7 5899.88 590.403 34
5 -8 7 4501.6 445.105 29
5 -7 -9 4604.22 486.25 6
5 -7 -8 9919.29 850.619 3
5 -7 -7 12172.3 1055.57 3
5 -7 -6 17117 1352.57 3
5 -7 -4 21788.2 1567.29 3
5 -7 -4 18786 1259.72 25
5 -7 -3 128.448 220.211 3
5 -7 -3 309.308 197.635 25
5 -7 -2 52795.6 2466.43 3
5 -7 -2 48475.5 2316.12 25
5 -7 -1 2625.65 506.779 3
5 -7 -1 1371.66 387.788 25
5 -7 0 1928.13 333.249 15
5 -7 1 26758.9 1410.42 18
5 -7 1 27260.6 1621.77 29
5 -7 1 26013 1314.8 15
5 -7 1 30012.8 1741.66 25
5 -7 2 2162.69 428.709 18
5 -7 2 2094.88 474.525 29
5 -7 2 1809.54 424.801 25
5 -7 3 81956.7 3179.41 18
5 -7 3 86471.9 3298.69 29
5 -7 3 85037.3 3202.15 25
5 -7 4 43640 2142.39 18
5 -7 4 40094.9 2067.85 29
5 -7 5 27826.7 1641.06 18
5 -7 5 25766.9 1552.06 29
5 -7 6 8246.7 718.537 11
5 -7 6 9281.07 902.615 34
5 -7 6 8838.5 832.433 29
5 -7 7 34747.1 1515.12 11
5 -7 7 39909.6 1691.92 29
5 -7 8 3422.53 355.404 11
5 -7 8 3379.46 413.518 34
5 -7 8 4066.13 403.179 29
5 -6 -10 2714.17 282.62 2
5 -6 -10 3793.1 419.563 6
5 -6 -9 14253.8 977.509 3
5 -6 -8 13264.4 1077.52 3
5 -6 -7 3061.83 576.883 3
5 -6 -6 84559.4 3454.47 3
5 -6 -5 25784.6 1391.48 25
5 -6 -4 2102.82 498.538 3
5 -6 -4 1457.66 332.012 25
5 -6 -3 34400 1925.73 3
5 -6 -3 35336.3 1765.42 25
5 -6 -2 21475.8 1431.93 3
5 -6 -2 23255.5 1399.83 25
5 -6 -1 24123.4 1462.08 3
5 -6 -1 29433.6 1602.86 25
5 -6 1 60557.5 2293.93 18
5 -6 1 57884.7 2492.59 29
5 -6 1 55739.6 2192.88 15
5 -6 1 58624.4 2497.31 25
5 -6 2 53935.6 2287.1 18
5 -6 2 57337.1 2490.85 29
5 -6 2 50765.3 2120.66 15
5 -6 2 54899.8 2367.71 25
5 -6 3 111546 3797.46 18
5 -6 3 107954 3868.01 29
5 -6 3 102283 3600.66 25
5 -6 4 29413.3 1714.61 18
5 -6 4 31367.5 1776.42 29
5 -6 5 1149.39 301.889 12
5 -6 5 1860.21 391.3 11
5 -6 5 1535.35 414.273 18
5 -6 5 444.24 290.66 31
5 -6 5 1359.59 383.094 29
5 -6 6 57793.4 2386.41 11
5 -6 6 59362.8 2550.81 34
5 -6 6 58803.2 2521.86 29
5 -6 7 4474 557.246 11
5 -6 7 4312.01 562.272 34
5 -6 7 4571.67 580.309 29
5 -6 8 7229.35 597.027 11
5 -6 8 6050.21 556.697 34
5 -6 8 6805.62 594.572 29
5 -5 -11 2127.9 264.111 6
5 -5 -10 14395.4 844.008 2
5 -5 -10 15455.4 990.801 6
5 -5 -9 4103.25 570.712 3
5 -5 -8 1279.25 370.286 3
5 -5 -7 72266.5 3050.6 3
5 -5 -6 37053.7 2041.55 3
5 -5 -5 35619.3 1653.33 25
5 -5 -4 59641.6 2601.21 3
5 -5 -4 59105.4 2321.71 25
5 -5 -3 19889 1346.6 3
5 -5 -3 20855.3 1236.69 25
5 -5 -2 100841 3520.43 3
5 -5 -2 102420 3396.97 25
5 -5 -1 64106.3 2497.54 25
5 -5 0 94127.3 3255.44 25
5 -5 1 2447.61 397.477 18
5 -5 1 1958.26 359.876 15
5 -5 1 2075.87 422.211 29
5 -5 1 2604.76 444.93 25
5 -5 2 234090 6533.46 18
5 -5 2 235858 6804.22 29
5 -5 2 230190 6453.18 15
5 -5 2 241617 6580.96 25
5 -5 3 16655.2 1082.34 11
5 -5 3 15757.2 1035.84 10
5 -5 3 16582.9 1196.54 18
5 -5 3 15393.5 1220.41 29
5 -5 3 15455.7 987.42 14
5 -5 3 14788.5 1037.82 25
5 -5 4 234.906 180.322 11
5 -5 4 507.87 216.936 10
5 -5 4 424.966 212.581 20
5 -5 4 273.121 198.846 18
5 -5 4 413.919 237.884 29
5 -5 5 43607.6 2052.03 12
5 -5 5 42374.8 2059.46 11
5 -5 5 41701.8 2028.73 10
5 -5 5 41363.7 1949.82 31
5 -5 5 48889.4 2319.98 29
5 -5 5 43419.3 1972.93 13
5 -5 6 20725.7 1339.68 11
5 -5 6 21140.6 1381.23 34
5 -5 6 18079.8 1229.18 31
5 -5 6 21841.2 1440.52 29
5 -5 6 18263.8 1192.41 13
5 -5 6 20495.2 1284.33 12
5 -5 7 44182.6 1958.66 11
5 -5 7 41872 1878.74 34
5 -5 7 39323 1798.27 31
5 -5 7 39506.5 1782.1 12
5 -5 8 13288.1 869.941 11
5 -5 8 12491.2 817.094 31
5 -5 8 14626.4 918.011 29
5 -4 -11 12214.7 779.969 6
5 -4 -10 6865.57 628.168 2
5 -4 -10 7451.75 735.255 6
5 -4 -9 5678.89 704.314 3
5 -4 -9 4138.39 623.614 6
5 -4 -8 29656.2 1745.66 3
5 -4 -7 23642.5 1549.87 3
5 -4 -6 6623.85 803.849 3
5 -4 -5 3135.18 531.283 3
5 -4 -5 2914.79 423.513 25
5 -4 -4 10854.3 956.437 3
5 -4 -4 12364 874.213 25
5 -4 -3 62242.1 2531.67 3
5 -4 -3 62975 2344.25 25
5 -4 -2 103015 3331.35 25
5 -4 0 2426.13 442.607 29
5 -4 0 3755.64 493.102 25
5 -4 1 325849 8599.19 15
5 -4 1 335651 8346.27 14
5 -4 1 343587 8656.48 25
5 -4 2 71642.5 2476.74 11
5 -4 2 66356.8 2283.16 31
5 -4 2 69600.4 2618.79 15
5 -4 2 66721 2397.41 14
5 -4 2 65698.3 2507.58 25
5 -4 3 169.592 170.636 11
5 -4 3 490.708 235.818 20
5 -4 3 587.038 284.851 31
5 -4 3 512.162 197.053 14
5 -4 4 58754.7 2428.5 11
5 -4 4 56460.2 2360.52 10
5 -4 4 54338.6 2241.69 20
5 -4 4 50797.5 2211.5 31
5 -4 5 41112.2 2060.75 12
5 -4 5 44110.1 2108.87 11
5 -4 5 40641.4 1974.25 31
5 -4 5 44027.9 2228.74 29
5 -4 5 40582.4 1991.84 13
5 -4 6 47630.2 2178.36 11
5 -4 6 43154.1 2015.87 34
5 -4 6 39471.5 1961.25 31
5 -4 6 48867.5 2291.94 29
5 -4 6 42049.6 2018.66 13
5 -4 6 42758.9 2060.62 12
5 -4 7 25876.1 1445.2 11
5 -4 7 23617.5 1355.47 31
5 -4 7 28068.1 1541.23 29
5 -4 7 25444.5 1399.98 13
5 -4 7 25649.2 1407.29 12
5 -4 8 1431.89 306.98 29
5 -4 8 1828.33 316.859 13
5 -3 -11 5392.49 559.632 6
5 -3 -10 294.933 161.134 2
5 -3 -10 47.8371 142.054 6
5 -3 -9 7053.31 803.048 6
5 -3 -8 33641.7 1861.86 3
5 -3 -7 6018.86 753.987 3
5 -3 -6 48483.8 2264.83 3
5 -3 -5 65982 2679.44 3
5 -3 -4 18904.9 1233.7 3
5 -3 -4 16289.6 1018.83 25
5 -3 -3 351090 8877.7 25
5 -3 -2 96658.1 3135.94 25
5 -3 0 86104 3174.85 29
5 -3 0 100626 3148.73 25
5 -3 1 108863 3243.42 11
5 -3 1 101210 3434.24 20
5 -3 1 100959 3037.57 31
5 -3 1 102474 3594.26 29
5 -3 1 107448 3252.39 14
5 -3 2 35176.7 1610.83 11
5 -3 2 33823.2 1698.17 20
5 -3 2 33040.2 1484.47 31
5 -3 2 33414.7 1814.87 29
5 -3 2 34086.9 1583.05 14
5 -3 3 26279 1458.6 11
5 -3 3 26624.5 1491.24 20
5 -3 3 24896.6 1370.85 31
5 -3 3 28467.1 1696.45 29
5 -3 3 25817.9 1431.46 14
5 -3 4 17734 1248.07 11
5 -3 4 19527.8 1219.59 20
5 -3 4 17928.1 1074.27 17
5 -3 4 17300.2 1188.65 31
5 -3 4 18655.4 1388.74 29
5 -3 4 18262 1229.35 14
5 -3 5 28656.3 1652.31 11
5 -3 5 25712.5 1355.06 17
5 -3 5 27392.2 1564.93 31
5 -3 5 27784.2 1727.29 29
5 -3 5 27348.5 1612.56 13
5 -3 6 104145 3624.79 11
5 -3 6 95390.9 3456.64 31
5 -3 6 106534 3652.07 13
5 -3 6 96552.9 3570.66 12
5 -3 7 15521.2 1060.87 31
5 -3 7 13378.7 1005.37 13
5 -3 7 14693 1042.23 12
5 -3 8 268.393 149.135 13
5 -2 -12 7628.56 495.513 6
5 -2 -11 37.3677 150.204 6
5 -2 -10 305.322 179.229 2
5 -2 -10 199.126 181.084 6
5 -2 -9 17858.3 1224.34 2
5 -2 -9 20913.3 1409.89 6
5 -2 -8 7923.14 868.923 6
5 -2 -7 78056.8 3086.05 6
5 -2 -5 6966.36 747.678 6
5 -2 -4 360692 9332.8 6
5 -2 -1 25967.4 1310.68 20
5 -2 -1 21240.1 1243.55 29
5 -2 0 135650 4083 15
5 -2 0 140115 3899.01 14
5 -2 1 137045 4357.21 20
5 -2 1 140110 3998.72 31
5 -2 1 146057 3971.81 16
5 -2 1 139524 4464.32 29
5 -2 1 138932 4370.45 15
5 -2 1 143010 4162.89 14
5 -2 2 90879.3 3302.92 20
5 -2 2 93484.1 3069.91 31
5 -2 2 97598.5 3013.53 16
5 -2 2 94232.8 3402.19 15
5 -2 2 91093.4 3426.46 29
5 -2 2 98070.7 3226.18 14
5 -2 3 12698.1 1009.48 11
5 -2 3 12719.9 1024.6 20
5 -2 3 13426.8 1025.34 19
5 -2 3 13062.3 986.981 31
5 -2 3 13456.5 915.15 16
5 -2 3 14471.7 1165.86 29
5 -2 3 11585.4 960.621 14
5 -2 3 12803.9 1055.42 24
5 -2 4 9842.72 975.193 12
5 -2 4 9618.45 900.167 11
5 -2 4 8094.19 795.032 20
5 -2 4 7622.32 743.547 19
5 -2 4 9821.46 886.161 31
5 -2 4 9300.01 968.592 29
5 -2 4 9864.82 955.837 24
5 -2 5 177578 5168.36 17
5 -2 5 165810 5244.27 31
5 -2 5 176691 5567.19 29
5 -2 5 186203 5614.26 12
5 -2 6 15464.9 1040.88 17
5 -2 6 17498.1 1239.29 29
5 -2 6 17019.7 1240.29 12
5 -2 7 283.562 196.407 12
5 -2 7 79.8683 145.232 29
5 -1 -12 360.652 145.914 6
5 -1 -11 3643.16 496.217 6
5 -1 -10 9777.96 799.457 2
5 -1 -10 9816.58 905.772 6
5 -1 -9 1529.01 370.033 2
5 -1 -9 1831.91 432.335 6
5 -1 -8 151879 4792.6 2
5 -1 -8 154734 4982.67 6
5 -1 -7 25023.1 1493.23 2
5 -1 -7 26508.2 1594.69 6
5 -1 -6 2821.94 484.53 2
5 -1 -6 2989.99 535.728 6
5 -1 -5 135599 4429.74 2
5 -1 -5 150351 4384.55 35
5 -1 -5 143761 4537.2 6
5 -1 -4 153480 4553.75 35
5 -1 -4 148263 4618.92 6
5 -1 -3 2354.96 392.256 35
5 -1 -3 1553.16 351.291 2
5 -1 -2 40521.8 1734.4 20
5 -1 -1 123846 3882.13 20
5 -1 -1 128609 3865.43 35
5 -1 -1 122491 3837.79 15
5 -1 0 33546.9 1535.94 35
5 -1 0 29322.4 1524.54 29
5 -1 0 34073.9 1654.9 15
5 -1 0 33986.7 1531.52 14
5 -1 1 139751 4393.07 20
5 -1 1 139732 4010.97 16
5 -1 1 130305 4333.63 15
5 -1 1 131936 4268.56 29
5 -1 1 139477 4171.35 14
5 -1 2 1673.4 375.088 24
5 -1 2 2426 473.133 20
5 -1 2 2659.68 496.149 19
5 -1 2 1861.08 344.21 16
5 -1 2 2342.26 458.711 29
5 -1 2 2278.11 410.868 14
5 -1 3 51.6414 140.099 24
5 -1 3 567.672 250.262 20
5 -1 3 411.896 225.078 19
5 -1 3 331.975 174.338 16
5 -1 3 435.789 238.124 29
5 -1 3 441.196 222.393 14
5 -1 4 24881.8 1570.83 24
5 -1 4 24478.3 1604.34 12
5 -1 4 24947.4 1458.25 19
5 -1 4 29988.3 1633.94 31
5 -1 4 26796 1625.39 29
5 -1 4 25349.6 1556.02 14
5 -1 5 48083.1 2126.92 17
5 -1 5 50192.2 2271.41 29
5 -1 5 50531.3 2334.27 13
5 -1 5 51341.2 2376.14 12
5 -1 5 45072.4 2195.81 24
5 -1 6 1286.79 351.968 12
5 -1 6 1084.03 278.384 17
5 -1 6 649.327 252.482 29
5 -1 6 1000.64 327.352 13
5 -1 7 24503.2 1274.91 13
5 0 -11 3336.03 466.171 6
5 0 -10 826.259 306.62 6
5 0 -9 66464.9 2598.18 2
5 0 -9 66854.1 2777.9 6
5 0 -8 22023.1 1382.84 2
5 0 -8 21622.5 1446.92 6
5 0 -7 3735.71 566.946 2
5 0 -7 3399.22 497.603 35
5 0 -7 3056.7 538.549 6
5 0 -6 1810.13 378.921 35
5 0 -6 1257.66 343.574 2
5 0 -6 1725.29 412.086 6
5 0 -5 105387 3611.9 2
5 0 -5 106711 3618.1 35
5 0 -5 100154 3612.07 6
5 0 -4 939.901 311.976 37
5 0 -4 747.475 222.379 20
5 0 -4 705.229 273.78 35
5 0 -4 699.29 265.538 6
5 0 -3 100477 3420.36 2
5 0 -3 96785 3436.23 37
5 0 -3 98647.9 3216.79 20
5 0 -3 99291.7 3407.58 35
5 0 -3 95896.9 3356.18 6
5 0 -2 9835.73 875.168 37
5 0 -2 10899.5 864.162 20
5 0 -2 9786.54 778.414 15
5 0 -2 9476.1 839.342 35
5 0 -2 9844.8 855.81 2
5 0 -1 33211.2 1664.18 20
5 0 -1 34314.3 1648.79 35
5 0 -1 29666 1418.55 7
5 0 -1 33050.9 1598 15
5 0 -1 30994.4 1578.95 2
5 0 0 271332 7107.72 35
5 0 0 266962 7267.89 15
5 0 0 282063 7120.11 14
5 0 1 75304.8 3042.19 20
5 0 1 79505.3 2732.64 35
5 0 1 77859 3144.34 19
5 0 1 79881.1 2799.54 16
5 0 1 83122.8 2939.32 14
5 0 2 362.748 212.917 24
5 0 2 464.72 253.906 19
5 0 2 128.104 171.742 16
5 0 2 130.977 175.589 29
5 0 2 524.12 251.777 14
5 0 3 79807.9 3203.74 12
5 0 3 77425.1 3017.49 24
5 0 3 78987.4 2764.34 21
5 0 3 76471.2 3117.14 19
5 0 3 75958.4 2895.07 16
5 0 3 80078.3 2957.3 29
5 0 3 86949.6 3158.44 14
5 0 4 185717 5621.93 24
5 0 4 181379 5452.31 29
5 0 4 195597 5851.65 12
5 0 5 500.703 258.048 12
5 0 5 876.199 296.258 24
5 0 5 928.562 279.005 17
5 0 5 953.713 304.674 13
5 0 6 22644.8 1214.96 17
5 0 6 23074.4 1297.66 13
5 0 7 7258.57 528.53 17
5 0 7 7858.92 577.895 13
5 1 -10 34540.3 1739.12 6
5 1 -9 86755.5 3236.79 6
5 1 -9 83348.2 3002.21 2
5 1 -8 192.376 184.336 2
5 1 -8 55.1086 176.722 6
5 1 -7 9668.1 888.672 35
5 1 -7 11211.8 1007.03 6
5 1 -7 10006 919.198 2
5 1 -6 79136.9 3114.09 37
5 1 -6 74275.4 2994.85 35
5 1 -6 82719.2 3143.24 6
5 1 -6 75721 2992.44 2
5 1 -5 168.94 152.637 37
5 1 -5 54.3887 147.422 35
5 1 -5 202.461 184.052 2
5 1 -4 59606 2626.24 37
5 1 -4 60613.4 2601.86 35
5 1 -4 60177.7 2544.53 2
5 1 -3 9923.4 863.342 7
5 1 -3 8483.77 833.897 2
5 1 -2 1014.07 323.734 37
5 1 -2 483.395 248.961 2
5 1 -2 722.303 265.665 35
5 1 -2 545.277 227.783 7
5 1 -1 259854 7328.75 37
5 1 -1 262467 7289.26 35
5 1 -1 278229 7546.58 19
5 1 -1 252352 6961.11 7
5 1 -1 263565 7052.08 14
5 1 0 116296 3836.38 35
5 1 0 118799 4202.17 19
5 1 0 117085 3815.69 14
5 1 1 8507.99 744.814 35
5 1 1 9245.44 827.163 16
5 1 1 8344.88 813.84 14
5 1 2 65753.7 2588.16 21
5 1 2 66996.8 2955.98 19
5 1 2 64919.7 2623.13 16
5 1 2 66520.8 2707.74 14
5 1 2 70699.8 2812.39 12
5 1 3 41774.6 1969.01 16
5 1 3 38615.4 1966.37 14
5 1 3 40225.2 1850.26 21
5 1 3 44673.6 2097.9 12
5 1 4 10695 951.553 13
5 1 4 12765.1 996.851 12
5 1 5 14881.9 1003.16 17
5 1 5 14809.9 1027.22 13
5 1 6 10755.7 723.375 17
5 1 6 9164.41 652.326 13
5 2 -11 10540.3 711.61 7
5 2 -10 41435.4 1814.24 7
5 2 -9 78.0649 156.903 2
5 2 -8 8289.71 794.45 2
5 2 -7 13075 1103.52 37
5 2 -7 12137.4 1050.57 35
5 2 -7 12931 1041.57 2
5 2 -6 779.337 348.59 37
5 2 -6 103.616 208.496 2
5 2 -6 1115.27 341.325 35
5 2 -5 95180.4 3721.58 37
5 2 -5 92989.5 3650.7 35
5 2 -5 103998 3626.45 2
5 2 -4 34867.5 2009.78 37
5 2 -4 33717.2 1939.65 35
5 2 -4 34176.6 1710.58 19
5 2 -4 37597.1 1897.78 7
5 2 -4 33273.7 1830.54 2
5 2 -3 1738.67 380.993 19
5 2 -3 247.768 208.45 7
5 2 -2 97313.7 3714.57 37
5 2 -2 97752.4 3669.73 35
5 2 -2 102924 3675.63 19
5 2 -2 99063.7 3441.91 7
5 2 -2 93578.2 3263.01 14
5 2 -1 131699 4416.02 37
5 2 -1 129151 4366.96 35
5 2 -1 135453 4564.51 19
5 2 -1 124191 4060.71 14
5 2 0 2410.91 440.537 35
5 2 0 2237.84 516.758 19
5 2 0 2560.91 452.044 16
5 2 0 2403.29 432.508 14
5 2 1 24880.3 1461.3 14
5 2 2 43674.1 2025.59 21
5 2 2 43719.6 2034.63 14
5 2 3 3752.8 512.007 21
5 2 3 4045.8 554.838 13
5 2 4 28744.1 1423.59 13
5 2 5 4084.74 392.751 13
5 3 -11 3286.54 345.905 7
5 3 -10 14160.5 913.089 7
5 3 -9 16457 1090.82 7
5 3 -8 20792.2 1320.19 7
5 3 -7 3589.13 597.516 37
5 3 -7 2949.46 528.092 35
5 3 -7 3166.1 534.381 7
5 3 -7 4601.62 611.394 2
5 3 -6 126282 4546.35 37
5 3 -6 126087 4524.52 35
5 3 -6 139496 4455.01 7
5 3 -6 135500 4381.65 2
5 3 -5 47363.1 2422.49 37
5 3 -5 43192.4 2307.45 35
5 3 -5 47786.8 2253.12 7
5 3 -4 2930.05 616.832 37
5 3 -4 3089.18 602.574 35
5 3 -4 3254.68 511.436 19
5 3 -4 4056.39 605.226 7
5 3 -3 40485.9 2265.33 37
5 3 -3 38554.1 2194.96 35
5 3 -3 43158.5 2083.41 19
5 3 -3 45216.6 2134.6 7
5 3 -3 43917.4 1887.59 14
5 3 -2 238214 7030.39 37
5 3 -2 238109 6836.56 19
5 3 -2 234133 6364.17 14
5 3 -1 12777.7 1106.08 37
5 3 -1 12858.9 1155.26 19
5 3 -1 11538.6 1055.33 35
5 3 -1 13963 993.82 14
5 3 0 64964.5 2640.2 16
5 3 0 66767.3 2526.22 14
5 3 1 29460.2 1638.58 21
5 3 1 30468.2 1631.13 16
5 3 1 30156.7 1517.35 14
5 3 2 1951.76 385.261 21
5 3 2 1915.37 386.652 16
5 3 2 2167.24 366.351 13
5 3 3 39642.7 1701.3 21
5 3 4 2870.24 382.086 17
5 4 -10 15458.3 849.381 7
5 4 -9 15936.7 991.147 7
5 4 -8 418.79 215.533 7
5 4 -7 53777 2380.69 37
5 4 -7 51434 2248.59 7
5 4 -6 44856 2269.42 37
5 4 -6 46466.8 2152.23 7
5 4 -5 898.341 339.862 37
5 4 -5 1360.99 370.726 7
5 4 -3 58939 2728.44 37
5 4 -2 1067.99 360.311 37
5 4 -1 24253.8 1485.38 37
5 4 -1 26588.4 1469.34 16
5 4 0 7974.85 755.629 16
5 4 1 2052.03 375.185 16
5 4 2 69084.8 2416.5 21
5 4 3 18314.1 920.777 17
5 5 -7 82625.1 2955.1 37
5 5 -6 593.602 275.042 37
5 5 -5 13803.8 1110.04 37
5 5 -3 4014.56 590.035 37
5 5 -3 3090.74 457.06 16
5 5 -2 16555.3 1127.73 37
5 5 -2 16202.9 1088.49 21
5 5 -2 16591.1 1035.25 16
5 5 -1 9098.68 773.913 21
5 5 -1 8897.38 715.331 16
5 5 0 270.962 159.091 21
5 5 0 264.612 142.653 16
5 5 1 39250.4 1535.82 21
5 6 -6 16391.2 991.298 37
5 6 -5 6285.68 614.84 37
5 6 -5 5538.81 481.075 21
5 6 -5 5508.96 461.977 16
5 6 -4 1982.06 352.811 37
5 6 -4 1573.28 269.993 21
5 6 -4 1369.28 242.007 16
5 6 -3 29929 1270.05 21
5 6 -3 28272.8 1159.5 16
5 6 -2 16855.1 865.483 21
5 6 -2 14046.1 718.985 16
5 6 -1 437.843 138.739 21
6 -10 -5 3554.53 410.38 3
6 -10 -4 1185.23 239.248 29
6 -10 -3 13722.2 860.55 29
6 -10 -2 18874.8 1069.55 29
6 -10 -1 5379.88 570.539 29
6 -10 0 16582.3 1010.26 29
6 -10 1 194.75 136.337 29
6 -10 2 2597.88 361.334 29
6 -10 3 18956.5 984.682 34
6 -10 4 97.4948 110.548 34
6 -10 5 13832 711.607 34
6 -9 -7 3339.91 399.922 3
6 -9 -7 2961.21 346.503 6
6 -9 -5 8761 842.222 3
6 -9 -4 60552.5 2572.52 3
6 -9 -3 22526.7 1443.83 3
6 -9 -1 56747.5 2426.68 29
6 -9 0 1592.71 397.109 29
6 -9 1 4068.99 585.123 29
6 -9 2 19882.7 1263.78 29
6 -9 3 7755.29 730.601 29
6 -9 4 20749.3 1236.21 34
6 -9 4 21143.9 1164.31 29
6 -9 5 17381.4 1033.63 34
6 -9 5 16799 909.593 29
6 -9 6 3467.29 392.211 34
6 -8 -8 6880.48 588.054 6
6 -8 -7 8581.42 793.681 3
6 -8 -5 25482.6 1657.47 3
6 -8 -4 128.501 190.758 3
6 -8 -3 251.267 263.781 3
6 -8 -2 23041.2 1515.22 3
6 -8 -2 21896.3 1527.41 25
6 -8 -1 5186.77 714.508 29
6 -8 -1 5119.31 748.505 25
6 -8 0 50567.3 2380.81 29
6 -8 1 16655.9 1272.2 29
6 -8 1 18162.2 1384.15 25
6 -8 2 26504 1612.1 29
6 -8 3 46622.4 2183.47 29
6 -8 4 33453.5 1715.27 29
6 -8 5 8138.04 780.287 34
6 -8 5 8730.47 754.907 29
6 -8 6 518.269 217.849 34
6 -8 6 464.115 182.986 29
6 -7 -9 11293.2 773.495 6
6 -7 -8 8166.34 771.399 3
6 -7 -7 55.3519 189.745 3
6 -7 -5 2511.54 554.633 3
6 -7 -4 273.559 274.958 3
6 -7 -4 258.029 165.575 25
6 -7 -3 41878.7 2264.84 3
6 -7 -3 42992.7 2143.65 25
6 -7 -2 18422.7 1375.97 3
6 -7 -2 16911.7 1307.3 25
6 -7 -1 72288 2825.19 3
6 -7 -1 68426.9 2977.32 25
6 -7 0 33137.4 1880.15 29
6 -7 0 30671.4 1555.8 15
6 -7 0 32240.7 1889.96 25
6 -7 1 25880.6 1655.94 29
6 -7 1 24040.6 1372.53 15
6 -7 1 29101.1 1748.09 25
6 -7 2 7715.13 874.812 29
6 -7 2 7053.38 705.911 15
6 -7 2 6653.59 804.916 25
6 -7 3 77044.1 3131.19 29
6 -7 4 2803.75 450.872 20
6 -7 4 2967.29 526.906 29
6 -7 5 1926.23 408.838 29
6 -7 6 30599.2 1532.51 34
6 -7 6 31898.4 1515.25 29
6 -7 7 1388.32 260.717 34
6 -7 7 1455.24 259.922 29
6 -6 -10 12813.9 693.935 2
6 -6 -10 15649.4 867.575 6
6 -6 -9 4643.07 579.763 6
6 -6 -8 2723.21 503.351 3
6 -6 -7 34077.6 1953.54 3
6 -6 -5 19351.8 1495.32 3
6 -6 -5 19437.6 1246.4 25
6 -6 -4 9620.31 1031.42 3
6 -6 -4 8900.17 868.433 25
6 -6 -3 28587.5 1803.73 3
6 -6 -3 29827.2 1691.98 25
6 -6 -2 25803.7 1637.4 3
6 -6 -2 28644 1670.45 25
6 -6 -1 120542 4013.95 3
6 -6 0 14135 1180.32 29
6 -6 0 12452.4 980.358 15
6 -6 0 14121.9 1160.86 25
6 -6 1 1775.29 388.576 15
6 -6 1 2249.68 490.694 29
6 -6 1 1952.34 447.688 25
6 -6 2 96914.3 3677.97 29
6 -6 2 93213.4 3343.98 15
6 -6 2 95910.2 3499.09 25
6 -6 3 11095.4 975 20
6 -6 3 10924.5 1042.88 29
6 -6 4 22417.4 1285.45 11
6 -6 4 23742.3 1338.82 20
6 -6 4 23937.3 1560.48 29
6 -6 5 23516.3 1432.46 29
6 -6 5 18830.5 1177.98 12
6 -6 6 2616.44 431.432 34
6 -6 6 2986 469.322 29
6 -6 7 25021.6 1200.6 29
6 -5 -11 10062.5 608.212 6
6 -5 -10 2533.15 357.983 2
6 -5 -10 2619.83 415.21 6
6 -5 -9 48.9432 156.94 6
6 -5 -8 3034.44 563.416 3
6 -5 -7 633.504 334.956 3
6 -5 -6 34467.4 2019.69 3
6 -5 -5 8091.84 942.861 3
6 -5 -5 8135.35 783.671 25
6 -5 -4 27590.2 1749.51 3
6 -5 -4 27443.1 1540.14 25
6 -5 -3 35921.9 1968.81 3
6 -5 -3 30915 1703.87 6
6 -5 -3 33698.8 1760.99 25
6 -5 -2 258643 7382.17 3
6 -5 -2 262787 7265.36 25
6 -5 -1 33034.6 1838.98 29
6 -5 0 3648.01 615.873 29
6 -5 0 3291.3 509.665 15
6 -5 0 2999.56 397.175 14
6 -5 0 3187.27 539.441 25
6 -5 1 109581 3764.3 15
6 -5 1 109631 3435.75 14
6 -5 1 118426 3956.65 25
6 -5 2 20509.2 1396.84 20
6 -5 2 20766.9 1346.34 15
6 -5 2 20160.3 1169.96 14
6 -5 3 41679.1 2024.77 20
6 -5 4 19114.8 1244.12 11
6 -5 4 18525 1185.38 20
6 -5 4 18139.2 1363.43 29
6 -5 4 20889.9 1260.43 13
6 -5 5 1435.67 360.213 12
6 -5 5 814.939 309.793 29
6 -5 5 1138.13 292.453 13
6 -5 6 28393 1517.64 29
6 -5 6 26453 1379.77 12
6 -5 7 19086.1 1049.29 29
6 -5 8 6199.78 427.807 29
6 -4 -11 5362.44 512.465 6
6 -4 -10 307.671 194.378 2
6 -4 -10 127.828 154.983 6
6 -4 -9 3531.87 529.521 2
6 -4 -9 2562.5 492.977 6
6 -4 -8 20019.1 1419.41 6
6 -4 -7 25145.9 1660.52 3
6 -4 -6 67965.5 3026.26 3
6 -4 -6 76132 3109.59 6
6 -4 -5 26203.7 1644.75 6
6 -4 -4 417.535 270.573 3
6 -4 -4 264.236 192.27 6
6 -4 -3 133237 4335.16 6
6 -4 -3 142348 4398.93 25
6 -4 -2 29924.3 1637.17 2
6 -4 -2 30858.7 1641.51 25
6 -4 -1 3569.14 505.167 2
6 -4 -1 4879.72 673.742 29
6 -4 -1 4826.54 514.223 14
6 -4 0 47836.9 2326.97 29
6 -4 0 50044.1 1962.69 14
6 -4 1 12722.1 1070.66 20
6 -4 1 12293.8 1107.36 29
6 -4 1 13811.3 949.549 14
6 -4 2 66202.2 2741.79 20
6 -4 2 63022.3 2707.66 15
6 -4 2 66837.9 2935.4 29
6 -4 2 66505 2533.52 14
6 -4 3 63244 2651.94 20
6 -4 3 65067.1 2425.05 31
6 -4 3 67697 2945.23 29
6 -4 3 68697 2635.01 14
6 -4 4 20559 1259.55 20
6 -4 4 21724 1294.9 31
6 -4 4 22613.6 1522.16 29
6 -4 4 20392.3 1319.9 13
6 -4 5 17968.2 1153.45 31
6 -4 5 17793.6 1273.97 29
6 -4 5 15843.6 1121.6 13
6 -4 5 16523.2 1182.43 12
6 -4 6 49093.7 2024.34 13
6 -4 6 52955.1 2114.28 12
6 -4 7 6776.39 550.862 13
6 -4 7 7998.94 610.801 12
6 -3 -11 2200.03 359.237 6
6 -3 -10 4297.93 526.278 2
6 -3 -10 3892.75 554.871 6
6 -3 -9 5943.73 699.793 2
6 -3 -9 5654.39 719.317 6
6 -3 -8 6286.94 757.667 2
6 -3 -8 5698.33 763.509 6
6 -3 -6 13722.1 1166.25 6
6 -3 -5 1782.45 428.76 6
6 -3 -4 100450 3609.53 2
6 -3 -4 100126 3259.49 20
6 -3 -4 97820.4 3551.32 6
6 -3 -3 65532.9 2674.84 2
6 -3 -3 66758.4 2517.59 20
6 -3 -3 64159.7 2579.8 6
6 -3 -2 54556.4 2295.52 2
6 -3 -2 50582.5 2183.61 20
6 -3 -2 48798.7 2234.54 29
6 -3 -1 31096.6 1595.18 2
6 -3 -1 33751.9 1761.13 20
6 -3 -1 32395.6 1774.19 29
6 -3 0 24140.2 1543.1 29
6 -3 0 23845.5 1450.6 15
6 -3 0 24754.3 1320.55 14
6 -3 1 48618 2288.82 20
6 -3 1 47723.7 2339.84 29
6 -3 1 52785.8 2350.4 15
6 -3 1 52113.7 2140.54 14
6 -3 2 146915 4806.13 20
6 -3 2 147522 4948.27 29
6 -3 2 153952 4651.57 14
6 -3 3 10995.7 982.537 20
6 -3 3 10988.4 933.826 19
6 -3 3 14223.3 1052.91 31
6 -3 3 13284.9 1165.56 29
6 -3 3 12998.1 1035.66 14
6 -3 4 9262.36 931.614 12
6 -3 4 9413.05 837.207 20
6 -3 4 9345.11 950.792 29
6 -3 5 89950.3 3245.45 29
6 -3 5 84296.8 3128.33 13
6 -3 5 86052.6 3202.82 12
6 -3 6 8707.71 749.13 29
6 -3 6 7851.36 718.208 13
6 -3 7 912.91 214.531 29
6 -3 7 948.901 219.197 13
6 -2 -12 1256.96 208.956 6
6 -2 -11 13225.9 900.264 6
6 -2 -10 3809.67 499.277 2
6 -2 -10 4313 593.221 6
6 -2 -9 5865.87 698.686 2
6 -2 -9 5314.89 715.377 6
6 -2 -8 94911.8 3485.65 2
6 -2 -8 93337.1 3581.13 6
6 -2 -7 21158.6 1426.31 2
6 -2 -6 554.724 260.785 2
6 -2 -6 813.995 315.467 6
6 -2 -5 44497.1 2199.08 6
6 -2 -4 74145.4 2982.78 2
6 -2 -4 78274.6 2730.42 20
6 -2 -4 77210.5 2997.04 6
6 -2 -3 32883.8 1752.55 2
6 -2 -3 33213.5 1616.53 20
6 -2 -3 29415.3 1543.46 29
6 -2 -3 30010 1615.78 6
6 -2 -2 19985.9 1304.36 2
6 -2 -2 21050.7 1286.5 20
6 -2 -2 21163.1 1278.69 29
6 -2 -2 18718.9 1145.76 6
6 -2 -1 2026.9 428.012 20
6 -2 -1 1773.26 371.536 2
6 -2 -1 1919.65 417.633 15
6 -2 -1 1860.96 393.055 29
6 -2 -1 2315.58 397.492 14
6 -2 0 46629.9 1828.09 16
6 -2 0 49488.7 2220.74 29
6 -2 0 45190 2175.67 15
6 -2 0 47747.4 2032.63 14
6 -2 1 36801.7 1968.39 20
6 -2 1 39150.6 1672.99 16
6 -2 1 42005.1 2100.41 15
6 -2 1 39768.3 2009.61 29
6 -2 1 39298 1873.82 14
6 -2 2 23216 1495.11 20
6 -2 2 23823 1509.09 19
6 -2 2 20621.7 1187.01 16
6 -2 2 21994.9 1465.8 29
6 -2 3 1400.78 373.878 20
6 -2 3 1960.29 413.209 19
6 -2 3 1827.39 426.116 29
6 -2 4 122241 4077.73 12
6 -2 4 110602 3563.03 17
6 -2 4 112405 3885.91 29
6 -2 5 17330.5 1135.1 29
6 -2 5 18466.3 1222.16 12
6 -2 6 12538.4 865.814 12
6 -1 -11 141.27 135.39 6
6 -1 -10 1437.25 316.326 2
6 -1 -10 1985.54 410.757 6
6 -1 -9 24725.9 1447.76 2
6 -1 -9 22269 1477.84 6
6 -1 -8 24271.5 1517.36 2
6 -1 -8 25347.1 1609.27 6
6 -1 -7 604.475 274.919 2
6 -1 -6 30268.9 1729.99 2
6 -1 -6 27608.3 1697.87 6
6 -1 -5 28871.4 1420.69 20
6 -1 -5 28035.7 1644.88 35
6 -1 -5 28528.4 1707.98 6
6 -1 -4 65718.4 2717.17 2
6 -1 -4 61319 2401.12 20
6 -1 -4 62442.9 2647.49 35
6 -1 -4 63035.2 2644.07 6
6 -1 -3 83917.4 3216.99 2
6 -1 -3 87446.4 3087.55 20
6 -1 -3 86193.1 3233.11 35
6 -1 -3 87848.4 3168.52 6
6 -1 -2 30539.1 1632.8 20
6 -1 -2 32253.3 1698.89 35
6 -1 -2 26840.8 1416.55 7
6 -1 -2 30864.4 1632.28 15
6 -1 -2 26191.7 1549.92 2
6 -1 -1 2459.72 436.315 2
6 -1 -1 2571.9 486.334 20
6 -1 -1 2326.54 452.65 15
6 -1 -1 3211.64 481.955 14
6 -1 0 163288 4742.07 16
6 -1 0 165810 5172.15 15
6 -1 0 157119 4796.47 29
6 -1 0 168472 4979.73 14
6 -1 1 165838 5294.81 20
6 -1 1 164923 5346.6 19
6 -1 1 165766 4837.62 16
6 -1 1 160539 4931.99 29
6 -1 1 169472 5079.28 14
6 -1 2 10797.6 1021.67 19
6 -1 2 8897.04 796.422 16
6 -1 2 9908.74 884.642 29
6 -1 2 9657.3 905.125 14
6 -1 3 81154.5 3192.17 12
6 -1 3 75462 2981.83 19
6 -1 3 83310.6 3096.71 14
6 -1 4 21779.6 1368.22 13
6 -1 4 22273.5 1403.11 12
6 -1 5 16423.1 1091.23 13
6 -1 5 18773.8 1137.76 12
6 -1 6 7409.06 596.524 13
6 0 -12 5117.1 386.802 7
6 0 -10 13449.6 1013.31 6
6 0 -10 12999 896.03 2
6 0 -9 40169.9 2018.41 6
6 0 -9 39702 1890.47 2
6 0 -8 1185.42 348.903 2
6 0 -8 1367.45 385.485 6
6 0 -7 3873.78 598.572 2
6 0 -7 4560.18 667.289 6
6 0 -6 13300.6 1131.58 2
6 0 -6 14296.4 1167.28 35
6 0 -6 16012.8 1241.07 6
6 0 -5 6334.69 777.963 35
6 0 -5 5691.61 733.2 6
6 0 -5 7358.07 837.273 2
6 0 -4 155142 4665.39 20
6 0 -4 147879 4932.08 35
6 0 -4 151453 4552.56 15
6 0 -4 153320 4947.82 2
6 0 -3 22325.3 1380.91 20
6 0 -3 21174.9 1330.61 7
6 0 -3 22700.2 1328.71 15
6 0 -3 23174.5 1477.53 2
6 0 -2 14322.2 1121.89 20
6 0 -2 14135.2 1124.52 35
6 0 -2 11785.6 931.79 7
6 0 -2 13605 1034.58 15
6 0 -2 12775.2 1052.66 2
6 0 -1 218681 6418.67 20
6 0 -1 213802 6234.8 35
6 0 -1 227063 6628.32 19
6 0 -1 199583 5767.5 7
6 0 -1 219676 6261.28 15
6 0 -1 219813 6158.23 14
6 0 0 36167.7 1740.85 16
6 0 0 35485 1821.59 14
6 0 1 18431.4 1400.64 19
6 0 1 18041.1 1177 16
6 0 1 18364.6 1263.54 14
6 0 2 14869.6 1153.79 12
6 0 2 14065 950.112 21
6 0 2 16562.1 1262.6 19
6 0 2 14191.7 1037.31 16
6 0 2 15203.8 1139.04 14
6 0 3 44221.3 2055.95 12
6 0 4 19842.3 1154.48 17
6 0 4 21640.1 1276.83 13
6 0 4 21900 1237.13 12
6 0 5 38266.6 1500.38 17
6 0 5 38587 1598.58 13
6 1 -12 101.409 67.0018 7
6 1 -11 3003.93 379.258 7
6 1 -10 18473.6 1022.64 2
6 1 -9 1285.76 326.999 2
6 1 -8 11952 990.646 2
6 1 -7 6992.21 802.598 35
6 1 -7 6689.45 770.766 2
6 1 -6 1713.77 425.395 2
6 1 -6 1681.22 419.701 35
6 1 -5 117568 4266.26 35
6 1 -5 116705 3841.48 19
6 1 -5 118347 4082.74 7
6 1 -5 125082 4209.8 2
6 1 -4 25558.3 1690.85 35
6 1 -4 28725.3 1599.84 19
6 1 -4 27708.3 1612.07 7
6 1 -3 386.704 241.473 2
6 1 -3 310.298 212.818 35
6 1 -3 108.648 147.34 19
6 1 -3 534.997 235.854 7
6 1 -2 77375 3135.51 35
6 1 -2 81466.6 3205.22 19
6 1 -2 74095.7 2813.71 7
6 1 -2 76182.6 2897.61 14
6 1 -1 77068.8 3022.79 35
6 1 -1 79599 3244.96 19
6 1 -1 75930.3 2924.93 14
6 1 0 9792.89 1025.62 19
6 1 0 9965.16 882.171 16
6 1 0 10394.3 917.802 14
6 1 1 9714.83 838.033 21
6 1 1 7283.29 886.992 19
6 1 1 10173 870.665 16
6 1 1 8707.85 832.344 14
6 1 1 9347.6 817.105 12
6 1 2 14049.7 963.301 21
6 1 2 16001.7 1080.78 16
6 1 2 15918.1 1116.62 14
6 1 2 16453.3 1048.45 12
6 1 3 15152.7 1015.37 13
6 1 3 12162.3 815.899 12
6 1 4 53508.2 1957.43 17
6 1 4 52911 1945.08 13
6 1 5 2235.42 262.171 17
6 2 -11 15113.3 787.195 7
6 2 -10 1317.13 286.473 7
6 2 -9 40448.5 1819.13 7
6 2 -9 38433.6 1692.35 2
6 2 -8 1971.18 395.937 2
6 2 -8 1828.51 395.899 7
6 2 -7 1870.09 402.383 2
6 2 -7 2022.7 435.459 7
6 2 -6 73325.9 2929.26 2
6 2 -5 109059 4192.42 35
6 2 -5 113674 3749.43 19
6 2 -5 120084 4073.43 7
6 2 -4 4701.42 625.607 19
6 2 -4 5199.63 672.772 7
6 2 -3 62974.7 2876.38 35
6 2 -3 69009.8 2787.07 19
6 2 -3 66601.6 2672.09 7
6 2 -3 63891.8 2546.29 14
6 2 -2 86507.8 3368.08 19
6 2 -2 84723.8 3065.33 14
6 2 -1 11079.5 1060.39 19
6 2 -1 12316.3 956.554 14
6 2 0 22377.4 1318.99 14
6 2 1 564.157 224.238 21
6 2 1 712.4 240.237 14
6 2 2 4944.53 522.725 21
6 2 2 5184.03 545.688 13
6 2 3 45066 1594.07 13
6 2 4 12884.3 675.254 17
6 3 -10 29289.5 1254.03 7
6 3 -9 1636.48 319.426 7
6 3 -8 1701.8 345.792 7
6 3 -7 43725.1 1999.07 7
6 3 -5 9407.15 876.769 7
6 3 -5 9276.34 758.26 14
6 3 -4 15251.6 989.676 14
6 3 -3 27418.6 1379.06 14
6 3 -2 5987.38 665.158 16
6 3 -2 4194.55 505.87 14
6 3 -1 75646.6 2791.78 16
6 3 -1 76783.7 2582.03 14
6 3 0 4883.73 569.027 21
6 3 0 4903.37 562.136 16
6 3 1 799.047 226.685 21
6 3 1 961.962 251.794 16
6 4 -3 146.68 160.271 16
6 4 -2 63746.3 2389.81 21
6 4 -2 63364.3 2303.63 16
6 4 -1 8094.88 655.989 16
6 4 0 4645.81 465.028 21
6 5 -5 2896.66 341.32 16
6 5 -4 128.061 107.612 21
6 5 -4 280.772 123.678 16
6 5 -3 35759.1 1396.88 21
6 5 -3 35092.7 1337.89 16
6 5 -2 43695.4 1519.28 21
6 5 -2 41183 1428.95 16
6 5 -1 1663.43 221.711 21
7 -10 -4 14881.8 837.176 29
7 -10 -3 270.764 141.34 29
7 -10 -2 940.053 239.865 29
7 -10 -1 9884.36 752.34 29
7 -10 0 127.756 139.593 29
7 -10 1 9627.27 704.715 29
7 -10 2 15005.4 816.003 34
7 -10 2 14402.5 810.409 29
7 -10 3 636.09 172.955 34
7 -10 3 640.858 149.527 29
7 -9 -7 202.848 115.396 2
7 -9 -3 7595.42 765.638 29
7 -9 -2 10314.1 916.478 29
7 -9 -1 2080.46 425.322 29
7 -9 0 37988.3 1860.03 29
7 -9 1 20382.1 1259.59 29
7 -9 2 11661.1 898.215 29
7 -9 3 4153.42 498.429 29
7 -9 4 30544 1340.08 34
7 -9 4 27609.6 1230.18 29
7 -9 5 904.039 192.733 34
7 -8 -8 1179.78 235.774 2
7 -8 -8 1007.89 219.513 6
7 -8 -7 440.345 201.346 6
7 -8 -6 18539 1260.49 3
7 -8 -5 776.547 301.121 3
7 -8 -4 13249.6 1126.38 3
7 -8 -3 10333.4 967.939 3
7 -8 -2 4389.44 667.757 29
7 -8 -2 3946.2 504.493 15
7 -8 -1 26624.2 1657.73 29
7 -8 -1 24446 1301.32 15
7 -8 0 34070.8 1885.55 29
7 -8 1 8302.21 877.33 29
7 -8 2 8737.21 854.542 29
7 -8 3 33422.6 1561.82 20
7 -8 3 35000.5 1719.03 29
7 -8 4 -36.8073 141.066 29
7 -8 5 7892.35 612.835 29
7 -8 6 10522.5 579.244 34
7 -7 -9 140.23 116.87 2
7 -7 -9 283.529 139.771 6
7 -7 -8 455.087 195.257 6
7 -7 -7 5220.97 650.159 6
7 -7 -6 964.982 387.101 3
7 -7 -6 577.554 292.032 6
7 -7 -5 20119.6 1475.26 3
7 -7 -5 15636.5 1208.78 6
7 -7 -4 30017 1861.62 3
7 -7 -2 22681.9 1626.52 29
7 -7 -2 27200.9 1696.5 25
7 -7 -1 55267.1 2613.94 29
7 -7 -1 53359.6 2262.94 15
7 -7 0 11746.5 1111.37 29
7 -7 0 11344.4 925.313 15
7 -7 1 10190 1009.9 29
7 -7 1 9620.82 848.492 15
7 -7 2 34065.6 1824.09 20
7 -7 2 36878.5 1958.16 29
7 -7 3 538.969 246.608 20
7 -7 3 928.648 331.193 29
7 -7 4 20308.2 1255.62 29
7 -7 5 29718.6 1394.55 34
7 -7 5 30953.6 1435.43 29
7 -7 6 1747.53 265.488 29
7 -6 -10 245.245 112.52 2
7 -6 -10 370.022 153.647 6
7 -6 -9 2184.72 357.572 2
7 -6 -8 762.137 289.135 6
7 -6 -7 4977.11 689.004 6
7 -6 -6 29435.5 1776.74 6
7 -6 -5 52423 2466.76 6
7 -6 -4 21048.7 1407.68 6
7 -6 -3 3087.94 551.181 25
7 -6 -2 85657.3 3211.92 2
7 -6 -2 91887.5 3577.08 29
7 -6 -2 85258.8 3415.28 25
7 -6 -1 4567.87 720.361 29
7 -6 -1 5381.96 676.923 15
7 -6 -1 5082.4 728.982 25
7 -6 0 8248.95 835.274 15
7 -6 0 7124.76 855.237 25
7 -6 1 33528.9 1885.88 20
7 -6 1 31207.9 1714.51 15
7 -6 2 3178.89 545.574 20
7 -6 3 42050.1 1928.24 20
7 -6 4 7242.84 685.493 12
7 -6 4 8511.15 830.688 29
7 -6 5 12380.8 892.215 29
7 -6 5 11721.9 785.037 12
7 -6 6 18116.2 926.73 29
7 -5 -11 1322.03 196.59 6
7 -5 -10 2906.84 364.096 2
7 -5 -10 2284.57 369.305 6
7 -5 -9 3281.16 477.384 2
7 -5 -8 7935.41 828.751 2
7 -5 -8 8040.33 850.382 6
7 -5 -7 10668.6 1038.29 6
7 -5 -6 43590.6 2255.01 6
7 -5 -5 8798.29 768.341 20
7 -5 -5 7747.09 886.676 6
7 -5 -4 4536.6 592.76 20
7 -5 -4 2398.44 486.253 6
7 -5 -3 76608.3 3106.81 2
7 -5 -3 75248.4 2550.93 14
7 -5 -2 551.677 251.004 2
7 -5 -2 574.609 328.584 29
7 -5 -2 722.772 211.157 14
7 -5 -1 19355.4 1392.43 20
7 -5 -1 20320 1483.25 29
7 -5 -1 17244.3 1268.66 15
7 -5 -1 16196.8 1016.19 14
7 -5 0 41783.5 2217.44 29
7 -5 0 40608.3 2037.73 15
7 -5 0 39621.9 1740.92 14
7 -5 1 8977.52 950.513 20
7 -5 1 9512.26 999.042 29
7 -5 1 9939.28 952.762 15
7 -5 1 8722.69 755.007 14
7 -5 2 56845.3 2468.22 20
7 -5 2 58614.4 2632.11 29
7 -5 3 32125.6 1649.89 20
7 -5 3 32049.7 1804.25 29
7 -5 3 29291.3 1497.09 13
7 -5 4 18018.4 1160.5 12
7 -5 4 18207 1238.25 29
7 -5 5 9506.34 772.88 29
7 -5 5 7065.23 644.411 12
7 -5 6 32495.2 1300.38 29
7 -5 6 29657.5 1197.51 12
7 -4 -11 4697.98 437.809 6
7 -4 -10 9711.14 719.231 2
7 -4 -10 10318.8 807.313 6
7 -4 -9 3687.86 521.582 2
7 -4 -8 10025.6 944.658 2
7 -4 -8 10241.2 988.07 6
7 -4 -7 64111.1 2804.33 2
7 -4 -7 63971.8 2812.86 6
7 -4 -6 16246.4 1301.11 6
7 -4 -5 2965.56 449.816 20
7 -4 -5 3182.97 604.382 2
7 -4 -5 3463.3 596.426 6
7 -4 -4 45927 2302.57 2
7 -4 -4 47219 2063.17 20
7 -4 -4 41388.8 2106.59 6
7 -4 -3 5652.94 738.937 2
7 -4 -3 6044.62 703.699 20
7 -4 -3 5204.39 724.044 29
7 -4 -3 5738.28 666.089 6
7 -4 -2 27336.6 1591.71 2
7 -4 -2 30508 1721.57 20
7 -4 -2 26984.6 1719.7 29
7 -4 -2 31025.2 1502.85 14
7 -4 -1 50939.6 2388.88 20
7 -4 -1 47344 2397.98 29
7 -4 -1 48121.6 2322.4 15
7 -4 -1 51611.9 2090.19 14
7 -4 0 10309.2 1036.49 29
7 -4 0 11616.9 1031.84 15
7 -4 0 9393.02 813.983 14
7 -4 1 70992.6 3003.88 20
7 -4 1 79480 3083.07 15
7 -4 1 73939 3080.95 29
7 -4 1 69545.1 2690.38 14
7 -4 2 86526.7 3307.33 20
7 -4 2 89346.7 3435.76 29
7 -4 2 88199.4 3111.9 14
7 -4 3 7496.39 763.232 20
7 -4 3 7603.69 835.064 29
7 -4 4 1502.06 371.604 29
7 -4 4 1568.54 341.086 13
7 -4 5 26475.5 1289.37 29
7 -4 5 22856.3 1164.03 13
7 -4 6 1899.89 263.147 29
7 -4 6 2728.55 315.25 12
7 -3 -11 12443.7 756.706 6
7 -3 -11 9094.64 552.687 2
7 -3 -10 2101.43 353.388 2
7 -3 -10 2290.19 410.238 6
7 -3 -9 134.686 180.508 2
7 -3 -9 252.19 193.349 6
7 -3 -8 40178.7 2035.32 2
7 -3 -7 12028.5 1084.17 2
7 -3 -7 11725.1 1099.1 6
7 -3 -6 2701.32 544.949 6
7 -3 -5 9834.99 1006.72 2
7 -3 -5 9776.31 814.591 20
7 -3 -5 10590.9 1019.99 6
7 -3 -4 896.956 288.598 20
7 -3 -4 1488.06 415.088 2
7 -3 -4 905.84 305.885 29
7 -3 -4 1328.92 370.851 6
7 -3 -3 79998.5 3177.09 2
7 -3 -3 85352.8 3106.21 20
7 -3 -3 80684.1 3104.7 29
7 -3 -3 78258.4 2923.42 6
7 -3 -2 3874.99 581.266 2
7 -3 -2 4974.35 672.471 20
7 -3 -2 3505.38 582.627 29
7 -3 -2 4261 642.493 15
7 -3 -2 3948.86 537.974 14
7 -3 -1 15035.7 1202.6 20
7 -3 -1 12536.8 1081.21 29
7 -3 -1 14113.5 1160.3 15
7 -3 -1 12542.1 972.802 14
7 -3 -1 12009.6 919.455 2
7 -3 0 6583.17 792.014 29
7 -3 0 7542.36 861.303 15
7 -3 0 7389.34 745.793 14
7 -3 1 189206 5822.89 20
7 -3 1 187861 5741.49 29
7 -3 1 186463 5519.92 14
7 -3 2 8142.06 857.582 20
7 -3 2 7705.54 801.056 19
7 -3 2 8171.3 851.837 29
7 -3 2 8691.64 826.417 14
7 -3 3 5391.6 684.269 12
7 -3 3 4377.21 591.299 29
7 -3 4 33238.2 1606.77 13
7 -3 4 34843.6 1694.31 12
7 -3 5 2464.12 357.17 13
7 -3 5 3699.67 444.631 12
7 -3 6 8587.83 508.896 13
7 -2 -11 1172.77 205.797 2
7 -2 -11 1051.29 249.552 6
7 -2 -10 1353.81 288.233 2
7 -2 -10 934.329 283.941 6
7 -2 -9 25917.8 1463.82 2
7 -2 -9 26923.4 1566.91 6
7 -2 -8 11805.6 1036.68 2
7 -2 -7 17035.4 1294.5 2
7 -2 -7 18056.3 1362.27 6
7 -2 -6 9293.07 961.125 6
7 -2 -5 17721 1342.32 2
7 -2 -5 18988.3 1160.67 20
7 -2 -5 15420.8 1236.63 6
7 -2 -4 19814.9 1427.09 2
7 -2 -4 21763.1 1323.46 20
7 -2 -4 21106.2 1398.08 6
7 -2 -3 53884.1 2365.99 20
7 -2 -3 56347.7 2466.81 15
7 -2 -3 52686.3 2435.95 2
7 -2 -2 86683.9 3302.18 20
7 -2 -2 90331.2 3354.88 15
7 -2 -2 87266.5 3135.19 14
7 -2 -2 82404.6 3143.25 2
7 -2 -1 6849.76 804.486 20
7 -2 -1 6314.96 612.378 16
7 -2 -1 7343.18 735.977 29
7 -2 -1 7754.59 858.173 15
7 -2 -1 8444.94 818.077 14
7 -2 -1 7812.82 737.499 2
7 -2 0 189692 5238.9 16
7 -2 1 9907 968.033 20
7 -2 1 9678.55 970.931 19
7 -2 2 13807.6 1079.27 19
7 -2 3 9316.11 858.809 12
7 -2 4 1729.68 347.584 12
7 -2 5 29335.1 1228.21 12
7 -1 -11 17.1555 85.7265 2
7 -1 -10 2781.19 442.786 6
7 -1 -10 3273.19 427.749 2
7 -1 -9 12222.4 991.069 6
7 -1 -9 11909.4 937.993 2
7 -1 -8 8645.85 850.593 2
7 -1 -7 14688.5 1181.72 2
7 -1 -7 15466.3 1234.22 6
7 -1 -6 6162.82 779.236 6
7 -1 -6 7156.91 835.259 2
7 -1 -5 32567 1599.83 20
7 -1 -5 29006.9 1761.51 2
7 -1 -4 199268 5826.34 20
7 -1 -4 208164 5929.76 15
7 -1 -4 194474 6095.53 2
7 -1 -3 6139.57 737.256 20
7 -1 -3 5642.94 645.571 7
7 -1 -3 6082.33 718.999 15
7 -1 -3 5714.03 722.068 2
7 -1 -2 13130 1091.74 20
7 -1 -2 12123.3 1034.1 15
7 -1 -2 13413.7 1044.88 14
7 -1 -2 11351.2 973.28 2
7 -1 -1 68687.2 2904.65 20
7 -1 -1 71018.8 3028.93 19
7 -1 -1 68485.1 2565.65 16
7 -1 -1 74438.9 2837.81 14
7 -1 0 53935.8 2171.76 16
7 -1 0 56311.5 2389.57 14
7 -1 1 21195.1 1441.7 19
7 -1 1 22335.2 1236.83 16
7 -1 1 23222.1 1399.61 14
7 -1 2 26297.7 1480.18 12
7 -1 2 24781.1 1451.11 19
7 -1 2 24832.7 1418.75 14
7 -1 3 6222.13 643.425 13
7 -1 3 6306.71 638.145 12
7 -1 4 17854 986.508 13
7 -1 4 16639.9 898.403 12
7 -1 5 26314.9 998.481 13
7 0 -11 625.658 182.527 7
7 0 -10 6481.47 569.224 2
7 0 -9 6094.26 627.939 2
7 0 -8 25122.3 1452.57 2
7 0 -7 1407.04 385.426 2
7 0 -6 1266.77 373.276 2
7 0 -6 1869.2 365.56 19
7 0 -5 105839 3709.54 19
7 0 -5 121115 3962.62 7
7 0 -4 22351.9 1565.01 35
7 0 -4 24176.1 1493.53 19
7 0 -4 24829 1458.81 7
7 0 -4 25508.3 1569.27 2
7 0 -3 2573.4 510.773 19
7 0 -3 2099.06 403.103 7
7 0 -3 3742.15 574.358 2
7 0 -3 2837.65 492.484 14
7 0 -2 8909.18 926.809 19
7 0 -2 10653.3 927.032 14
7 0 -1 34244.2 1939.7 19
7 0 -1 33315.5 1639.42 16
7 0 -1 30469.4 1663.42 14
7 0 0 29067.7 1511.23 12
7 0 0 28410.4 1485.82 16
7 0 0 28516.1 1568.66 14
7 0 1 29553.1 1658.68 19
7 0 1 29343.2 1460.94 16
7 0 1 32054.5 1613.81 14
7 0 1 30285.6 1487.49 12
7 0 2 1306.68 281.955 12
7 0 3 17284.7 980.786 13
7 0 4 49305.5 1583.78 13
7 1 -11 936.144 181.285 7
7 1 -10 2778.69 374.111 7
7 1 -9 27287.8 1369.67 7
7 1 -9 25665.9 1290.07 2
7 1 -8 16069.3 1096.22 7
7 1 -8 16571.4 1087.4 2
7 1 -7 2841.29 486.369 2
7 1 -6 89256 3276.52 7
7 1 -6 95309.5 3371.64 2
7 1 -5 55612.7 2292.12 19
7 1 -5 61890.2 2489.44 7
7 1 -4 12111.6 997.518 19
7 1 -4 12686.3 980.126 7
7 1 -4 12162.5 962.945 14
7 1 -3 8338.49 838.848 19
7 1 -3 7567.75 752.945 14
7 1 -2 2405.11 483.447 19
7 1 -2 2909.6 465.024 16
7 1 -2 2173.28 402.331 14
7 1 -1 19090.5 1306.33 19
7 1 -1 15435.8 1054.32 16
7 1 -1 16133 1098.49 14
7 1 0 35569.2 1604.38 21
7 1 0 39856.8 1918.46 19
7 1 0 36943.9 1691.69 16
7 1 0 38849.1 1744.37 14
7 1 1 7161.28 627.345 16
7 1 2 8314.31 617 13
7 2 -10 27643.6 1147.71 7
7 2 -9 11350.7 764.219 7
7 2 -8 5795.96 592.141 7
7 2 -6 38167.4 1784.22 7
7 2 -5 8679.69 711.997 19
7 2 -5 10661.3 867.362 7
7 2 -5 9518.83 768.583 14
7 2 -4 22764.1 1280.09 19
7 2 -4 23354.1 1256.86 14
7 2 -3 4193.17 550.863 19
7 2 -3 4092.82 494.958 14
7 2 -2 3717.26 493.89 16
7 2 -2 3677.18 466.677 14
7 2 -1 63368.8 2324.55 21
7 2 -1 64622.1 2346.56 16
7 2 -1 64911.7 2244.66 14
7 2 0 9994.88 688.269 21
7 2 0 9809.44 712.785 16
7 3 -8 603.608 132.649 14
7 3 -7 11070.4 628.811 14
7 3 -6 592.422 154.408 14
7 3 -5 20399 940.604 14
7 3 -4 196.299 143.098 16
7 3 -4 357.712 137.471 14
7 3 -3 9060.35 695.842 16
7 3 -2 67150.8 2269.49 21
7 3 -2 66070.2 2243.47 16
7 3 -1 18786.6 918.141 21
7 3 -1 18211.2 917.795 16
7 4 -6 21706.1 936.763 16
7 4 -5 10002.9 600.335 16
7 4 -4 3327.79 341.433 21
7 4 -4 3104.56 323.348 16
7 4 -3 43880.3 1444.28 21
7 4 -3 40619.9 1389.3 16
8 -10 -3 5772.89 438.587 20
8 -10 -3 5938.66 492.005 29
8 -10 -2 11131.1 697.243 20
8 -10 -2 11292.4 715.452 29
8 -10 -1 775.732 208.276 20
8 -10 -1 765.528 205.842 29
8 -10 0 6351.53 512.678 29
8 -10 1 11999 669.539 20
8 -10 1 10170.2 611.99 29
8 -9 -6 2704.86 338.125 29
8 -9 -5 288.705 150.705 29
8 -9 -4 7251.2 554.44 20
8 -9 -4 7831.36 706.091 29
8 -9 -3 10721.8 788.997 20
8 -9 -3 11333.4 880.287 29
8 -9 -2 4642.07 574.669 29
8 -9 -1 19064.8 1156.44 20
8 -9 -1 18869.8 1158.67 29
8 -9 0 14565.2 979.203 29
8 -9 1 1097.56 266.914 20
8 -9 1 1624.85 324.326 29
8 -9 2 7360.7 561.257 20
8 -9 2 7674.69 609.256 29
8 -9 3 12245.2 695.106 34
8 -9 3 11225.8 656.668 29
8 -8 -7 6560.73 555.271 2
8 -8 -7 6704.78 585.199 29
8 -8 -6 34.444 138.452 2
8 -8 -6 38.6892 140.67 29
8 -8 -5 15714.1 827.548 20
8 -8 -4 12449.8 873.581 20
8 -8 -4 13785.6 887.951 15
8 -8 -3 13168.5 979.239 20
8 -8 -3 13200.9 888.469 15
8 -8 -2 18724.8 1233.94 20
8 -8 -2 18139.7 1271.57 29
8 -8 -2 16162 1003.64 15
8 -8 -1 18938.9 1268.32 20
8 -8 -1 20570.3 1347.61 29
8 -8 0 434.107 241.215 29
8 -8 1 5384.61 618.961 20
8 -8 1 6355.62 682.039 29
8 -8 2 34337.5 1506.39 20
8 -8 2 33106.7 1569.5 29
8 -8 3 1049.89 247.653 29
8 -8 4 11534.5 660.068 34
8 -8 4 12494 685.075 29
8 -7 -7 4327.43 540.35 2
8 -7 -6 12998.7 1008.56 2
8 -7 -5 21050.1 1353.78 2
8 -7 -5 21919.5 1121.85 20
8 -7 -5 19408.7 1347.48 29
8 -7 -4 4842.04 630.019 2
8 -7 -4 4360.97 563.1 20
8 -7 -4 4161.67 653.279 29
8 -7 -3 7559.96 777.803 20
8 -7 -3 5419.48 752.905 29
8 -7 -3 6281.74 691.533 15
8 -7 -2 32224.9 1743.67 20
8 -7 -2 29190.1 1767.98 29
8 -7 -2 28745 1555.57 15
8 -7 -1 11200.9 1000.69 20
8 -7 -1 11299.9 1043.06 29
8 -7 -1 9224.13 826.907 15
8 -7 0 9258.62 807.892 15
8 -7 1 7138.68 745.007 20
8 -7 2 1356.22 320.998 20
8 -7 4 20233.4 948.269 34
8 -6 -9 4606.62 445.04 2
8 -6 -9 3427.82 397.663 6
8 -6 -8 3414.34 475.275 2
8 -6 -8 3238.63 461.182 6
8 -6 -7 12377.5 976.79 2
8 -6 -7 9319.07 834.269 6
8 -6 -6 30841.2 1721.81 2
8 -6 -5 211.822 154.421 20
8 -6 -5 495.916 306.103 2
8 -6 -5 462.532 252.736 29
8 -6 -4 1228.51 323.879 20
8 -6 -4 1912.28 436.949 2
8 -6 -3 31963.2 1720.04 20
8 -6 -3 31154 1872.17 29
8 -6 -3 30779.6 1724.54 15
8 -6 -2 162.72 197.219 20
8 -6 -2 102.591 175.849 15
8 -6 -2 62.1426 225.95 29
8 -6 -1 25090.7 1590.71 20
8 -6 -1 26924.5 1683.77 29
8 -6 -1 26132.4 1541.77 15
8 -6 0 11736 1066.19 29
8 -6 0 10997.8 959.974 15
8 -6 1 13511.1 1066.75 20
8 -6 1 12823.9 1069.52 29
8 -6 2 38695.7 1780.26 20
8 -6 2 37713.7 1837 29
8 -6 3 30717.2 1419.08 12
8 -6 3 32291.1 1532.61 29
8 -6 4 1070.74 214.909 12
8 -6 4 844.628 215.039 29
8 -5 -10 7432.14 493.569 2
8 -5 -9 6163.7 570.424 2
8 -5 -9 4785.34 526.352 6
8 -5 -8 3128.05 476.883 2
8 -5 -8 2844.82 470.609 6
8 -5 -7 31822.3 1688.13 6
8 -5 -6 279.33 224.716 2
8 -5 -6 502.712 243.85 6
8 -5 -5 675.148 232.292 20
8 -5 -5 693.093 305.501 2
8 -5 -5 722.983 323.605 29
8 -5 -4 22587.2 1484.48 2
8 -5 -4 22297.5 1345.31 20
8 -5 -4 21105.5 1471.16 29
8 -5 -3 406.314 230.433 20
8 -5 -3 294.387 206.121 2
8 -5 -3 223.618 224.834 15
8 -5 -3 479.787 272.062 29
8 -5 -2 78585.7 3055.21 20
8 -5 -2 75320.7 3118.33 29
8 -5 -2 77831.4 3051.77 15
8 -5 -2 70535.4 2535.99 14
8 -5 -1 34568.2 1886.31 20
8 -5 -1 33682.2 1886.79 29
8 -5 -1 29970.3 1450.81 14
8 -5 0 7541.04 840.223 29
8 -5 1 19355.1 1316.38 20
8 -5 1 22568.5 1412.88 29
8 -5 2 34604.3 1683.41 20
8 -5 2 36702.5 1765.23 29
8 -5 3 2195.62 380.655 12
8 -5 3 2897.94 426.226 29
8 -5 4 1141.46 239.453 12
8 -4 -10 1391.61 244.548 2
8 -4 -9 139.919 152.853 2
8 -4 -9 -74.509 162.792 6
8 -4 -8 16693 1137.88 2
8 -4 -8 15287.9 1092.95 6
8 -4 -7 3200.95 534.395 6
8 -4 -6 22622.6 1496.06 2
8 -4 -6 20732 1377.03 6
8 -4 -5 809.231 256.331 20
8 -4 -5 754.344 306.984 2
8 -4 -5 679.5 270.065 6
8 -4 -4 3725.23 542.741 20
8 -4 -4 3346.43 571.33 2
8 -4 -4 3904.15 515.111 14
8 -4 -3 35748.4 1834.22 20
8 -4 -3 31938.6 1780.66 29
8 -4 -3 31942.7 1584.15 14
8 -4 -3 31930.5 1737.2 2
8 -4 -2 81685 3142.4 20
8 -4 -2 77749.2 3064.45 29
8 -4 -2 86262.6 3257.93 15
8 -4 -2 76126.5 2793.98 14
8 -4 -1 7382.71 833.996 20
8 -4 -1 6605.87 759.825 29
8 -4 -1 8081.98 869.92 15
8 -4 -1 7253.01 700.831 14
8 -4 0 10797.5 956.982 29
8 -4 0 10682.6 846.619 14
8 -4 1 67243.2 2647.44 20
8 -4 1 63844.8 2517.52 19
8 -4 1 58174.2 2302.9 14
8 -4 2 363.381 207.76 20
8 -4 3 2986.69 392.825 13
8 -4 3 3071.24 440.558 12
8 -4 4 11935.2 718.938 12
8 -3 -10 270.155 139.736 2
8 -3 -9 4494.36 531.144 2
8 -3 -9 4853.78 561.902 6
8 -3 -8 3284.97 494.864 2
8 -3 -8 2483.58 463.946 6
8 -3 -7 7728.76 813.933 6
8 -3 -6 1393.96 400.961 2
8 -3 -6 1387.39 359.059 6
8 -3 -5 38200.1 2001.02 2
8 -3 -5 36515.3 1691.16 20
8 -3 -4 2937.86 484.724 20
8 -3 -4 2405.43 499.745 2
8 -3 -4 3232.59 551.129 15
8 -3 -3 135653 4416.58 20
8 -3 -3 138764 4592.58 15
8 -3 -3 138170 4317.56 14
8 -3 -3 136325 4403.04 2
8 -3 -2 2809.06 518.124 20
8 -3 -2 2897.84 531.635 15
8 -3 -2 3277.01 504.957 14
8 -3 -1 9241.44 916.888 20
8 -3 -1 9142.31 923.988 15
8 -3 -1 8445.77 796.72 14
8 -3 0 32760 1782.59 19
8 -3 0 31698.2 1611.98 14
8 -3 1 887.154 284.524 19
8 -3 1 79.2194 151.912 14
8 -3 2 23227 1306.33 12
8 -3 3 14075.8 855.993 13
8 -3 3 16533.2 942.398 12
8 -3 4 1496.66 216.84 13
8 -3 4 1613.86 232.895 12
8 -2 -11 208.779 108.467 7
8 -2 -10 1336.8 247.252 2
8 -2 -9 2743.79 414.71 2
8 -2 -8 24920.1 1418.72 6
8 -2 -8 25204.5 1415.98 2
8 -2 -6 2604.09 497.529 2
8 -2 -6 2231.06 430.682 15
8 -2 -5 20754.6 1275.13 7
8 -2 -5 21780.5 1346.11 15
8 -2 -5 23038.2 1473.58 2
8 -2 -4 100647 3452.68 20
8 -2 -4 107221 3619.12 15
8 -2 -4 100495 3488.54 14
8 -2 -4 99003.8 3591.28 2
8 -2 -3 22380.9 1388.26 20
8 -2 -3 22561.2 1414.28 15
8 -2 -3 20298.7 1302.41 14
8 -2 -3 21332.5 1324.42 2
8 -2 -2 4615.67 633.867 20
8 -2 -2 3507.72 558.043 15
8 -2 0 2787.35 504.844 19
8 -2 1 26667.4 1399.08 12
8 -2 1 24574.6 1369.88 19
8 -2 2 14448.1 901.906 12
8 -2 3 166.121 112.606 12
8 -1 -11 637.034 134.368 7
8 -1 -10 654.551 172.1 2
8 -1 -10 463.722 167.776 7
8 -1 -9 8389.51 665.473 2
8 -1 -8 37365.3 1699.72 7
8 -1 -8 38146.4 1728.86 2
8 -1 -7 1525.08 370.476 2
8 -1 -7 1758.59 371.204 7
8 -1 -6 822.498 288.094 2
8 -1 -6 1054.25 276.017 19
8 -1 -6 1112.56 311.931 7
8 -1 -5 29912.9 1565.52 19
8 -1 -5 28606.2 1496.96 7
8 -1 -5 30107 1446.84 15
8 -1 -5 31483.6 1683.71 2
8 -1 -4 13190.1 1042.83 19
8 -1 -4 11886.9 889.392 15
8 -1 -4 12195.1 982.536 14
8 -1 -4 11988.4 976.394 2
8 -1 -3 10159.1 929.571 19
8 -1 -3 9155.69 843.667 14
8 -1 -2 18595.6 1278.14 19
8 -1 -2 16582.7 1136.27 14
8 -1 -1 1632.54 381.045 19
8 -1 -1 1762.16 365.063 14
8 -1 0 48952.9 1899.87 12
8 -1 0 48029.3 2097.23 19
8 -1 0 49000.3 2012.47 14
8 -1 1 38398.7 1609.48 14
8 -1 1 34651.1 1418.15 12
8 -1 2 4322.25 440.173 13
8 0 -10 81.7737 89.3505 7
8 0 -9 46607.4 1709.74 2
8 0 -8 10613.9 788.39 7
8 0 -8 12779.2 856.174 2
8 0 -7 2719.42 419.851 7
8 0 -7 2799.3 433.568 2
8 0 -6 15821.8 925.843 19
8 0 -6 18920 1119.51 7
8 0 -5 3172.63 453.094 19
8 0 -5 3477.39 469.02 7
8 0 -5 4089.27 527.914 14
8 0 -4 12365.5 929.51 19
8 0 -4 12121.2 921.301 14
8 0 -3 5472.19 637.706 19
8 0 -3 4594.08 516.107 16
8 0 -3 5430.2 609.445 14
8 0 -2 6869.34 613.376 16
8 0 -2 6494.86 654.882 14
8 0 -1 37481.9 1710.49 19
8 0 -1 32442 1530.62 14
8 0 0 55585.3 2018.6 14
8 0 1 5391.6 472.372 13
8 1 -10 20291.6 779.123 7
8 1 -10 16607.3 691.108 14
8 1 -8 3572.67 408.66 7
8 1 -7 8493.85 656.561 7
8 1 -7 7453.39 600.589 14
8 1 -6 6293.32 573.19 7
8 1 -6 6485.18 579.645 14
8 1 -5 5127.58 487.611 19
8 1 -5 6621.18 592.268 14
8 1 -4 14329.4 891.136 19
8 1 -4 13507.3 873.997 16
8 1 -4 14554.7 905.19 14
8 1 -3 2317.5 356.777 16
8 1 -3 2494.84 363.289 14
8 1 -2 8080.56 609.722 16
8 1 -2 8721.24 639.427 14
8 1 -1 49447.5 1715.17 16
8 1 -1 52568.3 1757.5 14
8 2 -7 1071.7 170.689 14
8 2 -6 10224.2 571.348 14
8 2 -5 32022.7 1252.8 16
8 2 -5 27209.6 1071.91 14
8 2 -4 1659.13 268.681 16
8 2 -4 1533.99 208.744 14
8 2 -3 2817.99 317.888 21
8 2 -3 2541.47 309.692 16
8 2 -2 50896 1603.89 16
9 -9 -3 183.944 94.6683 20
9 -9 -2 3781.85 382.716 20
9 -9 -1 12189.1 706.796 20
9 -9 -1 11168 706.398 29
9 -9 0 2805.76 326.282 29
9 -8 -5 7723.32 627.557 29
9 -8 -4 1141.71 214.071 20
9 -8 -4 1744 332.817 29
9 -8 -3 1980.74 319.191 20
9 -8 -3 2978.57 436.598 29
9 -8 -2 3771.32 463.124 20
9 -8 -2 4722.05 543.394 29
9 -8 -1 1098.89 267.37 20
9 -8 -1 1781.41 333.514 29
9 -8 0 18354.8 1010.49 29
9 -8 1 17981.2 877.445 20
9 -8 1 18798.5 937.522 29
9 -7 -7 1663.59 266.298 2
9 -7 -7 1908.22 282.156 15
9 -7 -6 9743.81 700.631 15
9 -7 -5 993.84 254.871 15
9 -7 -4 1709.92 300.767 20
9 -7 -4 1872.19 352.747 15
9 -7 -4 1982.01 378.709 29
9 -7 -3 6308.35 618.503 20
9 -7 -3 7850.6 741.554 29
9 -7 -3 6092.86 616.648 15
9 -7 -2 38.3773 147.084 20
9 -7 -2 35.4395 135.825 15
9 -7 -2 41.7226 143.023 29
9 -7 -1 28007.8 1431.52 20
9 -7 -1 28902.3 1466.08 29
9 -7 0 18436.6 1076.64 29
9 -7 1 1551.5 277.717 20
9 -7 1 1258.99 265.895 29
9 -7 2 9630.83 601.542 29
9 -6 -8 136.677 123.479 2
9 -6 -8 45.7113 107.297 15
9 -6 -7 9987.86 733.08 2
9 -6 -7 11124 767.991 15
9 -6 -6 1044.59 271.493 2
9 -6 -6 1398.91 313.422 15
9 -6 -5 11974.1 739.436 20
9 -6 -5 15272.9 1025.45 15
9 -6 -4 12406.8 851.431 20
9 -6 -3 544.442 235.96 20
9 -6 -2 36539.7 1725.6 20
9 -6 -1 11886 914.773 20
9 -6 1 9198.29 690.002 20
9 -6 2 15328.9 786.855 12
9 -5 -9 941.68 181.181 2
9 -5 -9 1199.26 187.593 15
9 -5 -7 174.451 158.254 2
9 -5 -7 138.947 157.558 15
9 -5 -6 11432.5 871.729 2
9 -5 -6 11232.4 876.059 15
9 -5 -5 13340.5 818.437 20
9 -5 -5 16887 1124.23 15
9 -5 -4 2888.92 428.27 20
9 -5 -4 3483.15 522.65 15
9 -5 -3 32181.8 1594.35 20
9 -5 -3 35080.1 1740.82 15
9 -5 -2 36629.1 1736.56 20
9 -5 -2 35203.1 1760.64 15
9 -5 -1 1927.81 379.071 20
9 -5 0 1313.41 290.056 19
9 -5 2 1418.77 247.624 12
9 -4 -9 146.936 119.428 2
9 -4 -9 293.721 110.224 15
9 -4 -8 5619.58 507.385 15
9 -4 -7 6163.18 595.243 15
9 -4 -7 5808.04 598.402 2
9 -4 -6 33866.1 1626.57 15
9 -4 -6 35037.3 1647.73 2
9 -4 -5 3215.63 404.471 20
9 -4 -5 3884.2 535.9 15
9 -4 -5 3081.7 462.648 2
9 -4 -4 24337.3 1273.13 20
9 -4 -4 26906.7 1468.95 15
9 -4 -4 22945.2 1196.67 14
9 -4 -3 31003.9 1526.66 20
9 -4 -3 31968.7 1637.16 15
9 -4 -3 27599.9 1345.55 14
9 -4 -2 875.691 282.112 20
9 -4 -2 1019.2 313.809 15
9 -4 -2 894.575 236.4 14
9 -4 -1 3492.69 499.474 20
9 -4 -1 3438.81 499.354 19
9 -4 -1 2765.89 379.715 14
9 -4 0 21317.9 1155.89 19
9 -4 1 -85.8005 120.087 12
9 -4 2 44943.2 1521.15 12
9 -3 -9 1259.73 224.674 2
9 -3 -9 1040.63 191.403 7
9 -3 -8 20808.7 934.364 15
9 -3 -7 31641.3 1336.88 15
9 -3 -7 30111.3 1321.18 14
9 -3 -7 33420.4 1485.75 2
9 -3 -6 7404.65 656.884 15
9 -3 -6 6871.18 613.884 14
9 -3 -6 8230.74 721.773 2
9 -3 -5 3206.25 464.867 15
9 -3 -5 3437.56 444.615 14
9 -3 -5 2989.78 449.404 2
9 -3 -4 41800.6 1806.24 15
9 -3 -4 35614.9 1627.22 14
9 -3 -3 88.1047 151.05 19
9 -3 -3 241.14 168.768 15
9 -3 -3 175.514 164.806 14
9 -3 -2 4313.52 551.614 19
9 -3 -2 3416.93 443.695 14
9 -3 -1 8827.78 758.011 19
9 -3 -1 7579.84 641.891 14
9 -3 0 1016.15 242.284 12
9 -3 0 1002.37 239.643 19
9 -3 0 1056.5 230.93 14
9 -3 1 26947.9 1142 13
9 -3 1 31433.6 1191.21 12
9 -2 -9 3932.04 346.006 7
9 -2 -9 3951.42 343.644 14
9 -2 -9 4639.85 388.696 2
9 -2 -8 14950.6 813.547 14
9 -2 -8 14753.7 840.031 2
9 -2 -7 1442.08 295.505 2
9 -2 -7 1049.93 243.783 14
9 -2 -6 813.313 250.336 2
9 -2 -6 785.038 206.155 19
9 -2 -6 747.707 184.904 15
9 -2 -6 583.567 204.794 14
9 -2 -5 22696 1196.64 19
9 -2 -5 23123.4 1104.93 15
9 -2 -5 23420.1 1226.99 14
9 -2 -5 25103.7 1249.89 2
9 -2 -4 183.941 178.394 19
9 -2 -4 208.743 163.359 14
9 -2 -3 29498.5 1474.33 19
9 -2 -2 10160.2 804.804 19
9 -2 -1 2260.6 294.418 12
9 -2 0 25079.8 1110.77 19
9 -1 -7 409.686 155.424 14
9 -1 -6 2070.43 255.65 19
9 -1 -6 3117.28 391.026 14
9 -1 -5 2940.06 360.761 19
9 -1 -5 4162.65 462.692 14
9 -1 -4 31774.1 1388.6 19
9 -1 -4 32615.3 1421.09 14
9 -1 -3 12663.4 823.193 19
9 -1 -3 11983 787.664 14
9 -1 -2 1455.12 284.805 19
9 -1 -2 1418.49 260.565 14
9 -1 -1 10351 631.949 14
9 0 -8 803.492 146.042 14
9 0 -7 694.979 154.328 14
9 0 -6 1999.55 273.109 14
9 0 -5 17461.2 862.57 14
9 0 -4 23732.3 1027.8 14
9 0 -3 3039.92 319.709 14
10 -6 -5 5982.24 478.543 15
10 -6 -4 2757.93 343.14 15
10 -6 -2 6438.59 481.423 19
10 -5 -6 5268.37 414.507 15
10 -5 -5 -21.4521 82.2156 19
10 -5 -5 45.5808 95.6811 15
10 -5 -4 2418.52 325.619 19
10 -5 -3 14665.7 819.936 19
10 -5 -2 690.665 176.132 19
10 -4 -5 194.978 103.092 19
10 -4 -4 7297.08 540.931 19
10 -4 -3 4226.58 412.184 19
10 -3 -4 53.8227 72.1244 19
10 -3 -3 16143.1 753.605 19
loop_
_geom_angle_atom_site_label_1
_geom_angle_atom_site_label_2
_geom_angle_atom_site_label_3
_geom_angle
_geom_angle_site_symmetry_1
_geom_angle_site_symmetry_3
_geom_angle_publ_flag
Cl1 Cd1 Cl2 171.73(3) . . ?
Cl2 Cd1 Cl1 95.36(3) 2_566 . ?
Cl2 Cd1 Cl2 84.60(3) 2_566 . ?
O2 Cd1 Cl1 86.87(6) . . ?
O2 Cd1 Cl2 123.10(5) . 2_566 ?
O2 Cd1 Cl2 86.25(6) . . ?
O2 Cd1 O3 136.56(7) . . ?
O3 Cd1 Cl1 95.67(6) . . ?
O3 Cd1 Cl2 99.90(5) . 2_566 ?
O3 Cd1 Cl2 92.48(6) . . ?
N1 Cd1 Cl1 92.54(6) . . ?
N1 Cd1 Cl2 89.20(6) . . ?
N1 Cd1 Cl2 166.18(6) . 2_566 ?
N1 Cd1 O2 68.59(7) . . ?
N1 Cd1 O3 67.98(7) . . ?
Cd1 Cl2 Cd1 95.40(3) 2_566 . ?
C8 O4 C9 117.7(3) . . ?
C2 O1 C1 118.3(3) . . ?
C2 O2 Cd1 113.91(18) . . ?
C5 O5 H5 109.5 . . ?
C8 O3 Cd1 114.14(18) . . ?
C5 C6 H6 120.7 . . ?
C7 C6 H6 120.7 . . ?
C7 C6 C5 118.5(3) . . ?
C7 N1 Cd1 121.55(18) . . ?
C3 N1 Cd1 120.41(18) . . ?
C3 N1 C7 118.0(2) . . ?
O1 C2 C3 111.9(2) . . ?
O2 C2 O1 125.2(3) . . ?
O2 C2 C3 122.9(2) . . ?
C5 C4 H4 120.9 . . ?
C3 C4 H4 120.9 . . ?
C3 C4 C5 118.2(3) . . ?
O4 C8 C7 111.6(2) . . ?
O3 C8 O4 125.5(3) . . ?
O3 C8 C7 122.9(2) . . ?
O5 C5 C6 117.8(3) . . ?
O5 C5 C4 123.5(3) . . ?
C6 C5 C4 118.7(3) . . ?
C6 C7 C8 123.4(2) . . ?
N1 C7 C6 123.2(3) . . ?
N1 C7 C8 113.4(2) . . ?
N1 C3 C2 114.1(2) . . ?
N1 C3 C4 123.4(3) . . ?
C4 C3 C2 122.5(2) . . ?
H6A O6 H6B 104.5 . . ?
O4 C9 H9A 109.5 . . ?
O4 C9 H9B 109.5 . . ?
O4 C9 H9C 109.5 . . ?
H9A C9 H9B 109.5 . . ?
H9A C9 H9C 109.5 . . ?
H9B C9 H9C 109.5 . . ?
O1 C1 H1A 109.5 . . ?
O1 C1 H1B 109.5 . . ?
O1 C1 H1C 109.5 . . ?
H1A C1 H1B 109.5 . . ?
H1A C1 H1C 109.5 . . ?
H1B C1 H1C 109.5 . . ?
loop_
_geom_bond_atom_site_label_1
_geom_bond_atom_site_label_2
_geom_bond_distance
_geom_bond_site_symmetry_2
_geom_bond_publ_flag
Cd1 Cl1 2.5260(8) . ?
Cd1 Cl2 2.6381(8) . ?
Cd1 Cl2 2.5160(8) 2_566 ?
Cd1 O2 2.483(2) . ?
Cd1 O3 2.506(2) . ?
Cd1 N1 2.312(2) . ?
O4 C8 1.319(3) . ?
O4 C9 1.455(4) . ?
O1 C2 1.308(3) . ?
O1 C1 1.453(4) . ?
O2 C2 1.213(4) . ?
O5 H5 0.8200 . ?
O5 C5 1.328(4) . ?
O3 C8 1.212(4) . ?
C6 H6 0.9300 . ?
C6 C5 1.396(4) . ?
C6 C7 1.379(4) . ?
N1 C7 1.340(3) . ?
N1 C3 1.331(4) . ?
C2 C3 1.495(4) . ?
C4 H4 0.9300 . ?
C4 C5 1.396(4) . ?
C4 C3 1.388(4) . ?
C8 C7 1.500(4) . ?
O6 H6A 0.8499 . ?
O6 H6B 0.8501 . ?
C9 H9A 0.9600 . ?
C9 H9B 0.9600 . ?
C9 H9C 0.9600 . ?
C1 H1A 0.9600 . ?
C1 H1B 0.9600 . ?
C1 H1C 0.9600 . ?
loop_
_geom_torsion_atom_site_label_1
_geom_torsion_atom_site_label_2
_geom_torsion_atom_site_label_3
_geom_torsion_atom_site_label_4
_geom_torsion
_geom_torsion_site_symmetry_1
_geom_torsion_site_symmetry_2
_geom_torsion_site_symmetry_3
_geom_torsion_site_symmetry_4
_geom_torsion_publ_flag
Cd1 O2 C2 O1 175.9(2) . . . . ?
Cd1 O2 C2 C3 -3.2(3) . . . . ?
Cd1 O3 C8 O4 -178.4(2) . . . . ?
Cd1 O3 C8 C7 2.2(3) . . . . ?
Cd1 N1 C7 C6 -179.6(2) . . . . ?
Cd1 N1 C7 C8 0.9(3) . . . . ?
Cd1 N1 C3 C2 -0.5(3) . . . . ?
Cd1 N1 C3 C4 179.6(2) . . . . ?
O4 C8 C7 C6 -1.2(4) . . . . ?
O4 C8 C7 N1 178.3(2) . . . . ?
O1 C2 C3 N1 -176.6(2) . . . . ?
O1 C2 C3 C4 3.4(4) . . . . ?
O2 C2 C3 N1 2.6(4) . . . . ?
O2 C2 C3 C4 -177.4(3) . . . . ?
O3 C8 C7 C6 178.3(3) . . . . ?
O3 C8 C7 N1 -2.2(4) . . . . ?
C5 C6 C7 N1 0.2(4) . . . . ?
C5 C6 C7 C8 179.6(3) . . . . ?
C5 C4 C3 N1 -0.1(4) . . . . ?
C5 C4 C3 C2 179.9(3) . . . . ?
C7 C6 C5 O5 178.1(3) . . . . ?
C7 C6 C5 C4 -0.7(4) . . . . ?
C7 N1 C3 C2 179.5(2) . . . . ?
C7 N1 C3 C4 -0.5(4) . . . . ?
C3 N1 C7 C6 0.4(4) . . . . ?
C3 N1 C7 C8 -179.1(2) . . . . ?
C3 C4 C5 O5 -178.1(3) . . . . ?
C3 C4 C5 C6 0.7(4) . . . . ?
C9 O4 C8 O3 3.0(4) . . . . ?
C9 O4 C8 C7 -177.5(2) . . . . ?
C1 O1 C2 O2 1.4(5) . . . . ?
C1 O1 C2 C3 -179.4(3) . . . . ?
