#------------------------------------------------------------------------------
#$Date: 2022-08-05 00:54:42 +0300 (Fri, 05 Aug 2022) $
#$Revision: 277070 $
#$URL: file:///home/coder/svn-repositories/cod/cif/7/13/04/7130475.cif $
#------------------------------------------------------------------------------
#
# This file is available in the Crystallography Open Database (COD),
# http://www.crystallography.net/
#
# All data on this site have been placed in the public domain by the
# contributors.
#
data_7130475
loop_
_publ_author_name
'Bellas, Michael K.'
'Matzger, Adam J.'
_publ_section_title
;
 Peroxosolvate discovery method leads to first cocrystal with three
 energetic components.
;
_journal_issue                   63
_journal_name_full               'Chemical communications (Cambridge, England)'
_journal_page_first              8806
_journal_page_last               8809
_journal_paper_doi               10.1039/d2cc02024f
_journal_volume                  58
_journal_year                    2022
_chemical_formula_moiety         'C H3 N5, H2 O2'
_chemical_formula_sum            'C H5 N5 O2'
_chemical_formula_weight         119.10
_chemical_name_common            5-AtP
_chemical_name_systematic        5-aminotetrazole-peroxosolvate
_space_group_crystal_system      orthorhombic
_space_group_IT_number           53
_space_group_name_Hall           '-P 2ac 2'
_space_group_name_H-M_alt        'P m n a'
_atom_sites_solution_hydrogens   geom
_atom_sites_solution_primary     dual
_audit_creation_method           SHELXL-2018/3
_audit_update_record
;
2022-03-09 deposited with the CCDC.	2022-07-10 downloaded from the CCDC.
;
_cell_angle_alpha                90
_cell_angle_beta                 90
_cell_angle_gamma                90
_cell_formula_units_Z            4
_cell_length_a                   9.9196(2)
_cell_length_b                   6.44705(16)
_cell_length_c                   8.1105(2)
_cell_measurement_reflns_used    2772
_cell_measurement_temperature    293(2)
_cell_measurement_theta_max      75.7370
_cell_measurement_theta_min      6.8500
_cell_volume                     518.68(2)
_computing_cell_refinement       'CrysAlisPro 1.171.40.82a (Rigaku OD, 2020)'
_computing_data_collection       'CrysAlisPro 1.171.40.82a (Rigaku OD, 2020)'
_computing_data_reduction        'CrysAlisPro 1.171.40.82a (Rigaku OD, 2020)'
_computing_structure_refinement  'SHELXL-2018/3 (Sheldrick, 2018)'
_computing_structure_solution    'CrysAlisPro 1.171.40.82a (Rigaku OD, 2020)'
_diffrn_ambient_temperature      293(2)
_diffrn_detector_area_resol_mean 10.000
_diffrn_measured_fraction_theta_full 1.000
_diffrn_measured_fraction_theta_max 1.000
_diffrn_measurement_device_type
'XtaLAB Synergy, Single source at home/near, HyPix'
_diffrn_measurement_method       '\w scans'
_diffrn_radiation_type           CuK\a
_diffrn_radiation_wavelength     1.54184
_diffrn_reflns_av_R_equivalents  0.0359
_diffrn_reflns_av_unetI/netI     0.0145
_diffrn_reflns_Laue_measured_fraction_full 1.000
_diffrn_reflns_Laue_measured_fraction_max 1.000
_diffrn_reflns_limit_h_max       11
_diffrn_reflns_limit_h_min       -10
_diffrn_reflns_limit_k_max       7
_diffrn_reflns_limit_k_min       -7
_diffrn_reflns_limit_l_max       9
_diffrn_reflns_limit_l_min       -9
_diffrn_reflns_number            4630
_diffrn_reflns_point_group_measured_fraction_full 1.000
_diffrn_reflns_point_group_measured_fraction_max 1.000
_diffrn_reflns_theta_full        66.564
_diffrn_reflns_theta_max         66.564
_diffrn_reflns_theta_min         6.868
_diffrn_source                   'micro-focus sealed X-ray tube'
_exptl_absorpt_coefficient_mu    1.208
_exptl_absorpt_correction_T_max  1.00000
_exptl_absorpt_correction_T_min  0.67324
_exptl_absorpt_correction_type   multi-scan
_exptl_absorpt_process_details
;
CrysAlisPro 1.171.40.82a (Rigaku Oxford Diffraction, 2020)
Empirical absorption correction using spherical harmonics,
implemented in SCALE3 ABSPACK scaling algorithm.
;
_exptl_crystal_colour            white
_exptl_crystal_density_diffrn    1.525
_exptl_crystal_description       blade
_exptl_crystal_F_000             248
_exptl_crystal_size_max          0.25
_exptl_crystal_size_mid          0.09
_exptl_crystal_size_min          0.04
_refine_diff_density_max         0.131
_refine_diff_density_min         -0.130
_refine_diff_density_rms         0.032
_refine_ls_extinction_coef       0.011(2)
_refine_ls_extinction_expression Fc^*^=kFc[1+0.001xFc^2^\l^3^/sin(2\q)]^-1/4^
_refine_ls_extinction_method     'SHELXL-2018/3 (Sheldrick 2018)'
_refine_ls_goodness_of_fit_ref   1.115
_refine_ls_hydrogen_treatment    constr
_refine_ls_matrix_type           full
_refine_ls_number_parameters     53
_refine_ls_number_reflns         490
_refine_ls_number_restraints     0
_refine_ls_restrained_S_all      1.115
_refine_ls_R_factor_all          0.0364
_refine_ls_R_factor_gt           0.0341
_refine_ls_shift/su_max          0.000
_refine_ls_shift/su_mean         0.000
_refine_ls_structure_factor_coef Fsqd
_refine_ls_weighting_details
'w=1/[\s^2^(Fo^2^)+(0.0527P)^2^+0.0951P] where P=(Fo^2^+2Fc^2^)/3'
_refine_ls_weighting_scheme      calc
_refine_ls_wR_factor_gt          0.0977
_refine_ls_wR_factor_ref         0.1003
_reflns_Friedel_coverage         0.000
_reflns_number_gt                450
_reflns_number_total             490
_reflns_threshold_expression     'I > 2\s(I)'
_cod_data_source_file            d2cc02024f2.cif
_cod_data_source_block           5-AtP
_cod_database_code               7130475
_shelx_shelxl_version_number     2018/3
_shelx_space_group_comment
;
The symmetry employed for this shelxl refinement is uniquely defined
by the following loop, which should always be used as a source of
symmetry information in preference to the above space-group names.
They are only intended as comments.
;
_shelx_res_file
;
TITL mkb-4-190_a.res in Pmna
    mkb-4-190.res
    created by SHELXL-2018/3 at 20:54:57 on 08-Mar-2022
REM Old TITL MKB-4-190 in Pmna
REM SHELXT solution in Pmna: R1 0.258, Rweak 0.040, Alpha 0.011
REM <I/s> 0.216 for 91 systematic absences, Orientation as input
REM Formula found by SHELXT: C N4 O7B
CELL 1.54184 9.919569 6.447046 8.110525 90 90 90
ZERR 4 0.000237 0.00016 0.000245 0 0 0
LATT 1
SYMM 0.5-X,-Y,0.5+Z
SYMM 0.5-X,+Y,0.5-Z
SYMM +X,-Y,-Z
SFAC C H N O
UNIT 4 20 20 8

L.S. 20
PLAN  5
CONF
BOND $H
MORE -1
fmap 2
acta
SHEL 999 0.84
REM <olex2.extras>
REM <HklSrc "%.\\MKB-4-190.hkl">
REM </olex2.extras>

WGHT    0.052700    0.095100
EXTI    0.010744
FVAR       6.46358   0.34303
N1    3    0.391605    0.488381    0.253185    11.00000    0.02449    0.04600 =
         0.06800   -0.00521    0.00147    0.00014
AFIX  43
H1    2    0.308926    0.452098    0.239532    10.50000   -1.20000
AFIX   0
N2    3    0.435493    0.666704    0.321051    11.00000    0.03326    0.04767 =
         0.08223   -0.01205    0.00257    0.00285
N4    3    0.500000    0.195022    0.137603    10.50000    0.03352    0.05918 =
         0.11144   -0.03275    0.00000    0.00000
AFIX  93
H4A   2    0.424924    0.136118    0.112706    10.50000   -1.20000
H4B   2    0.575076    0.134795    0.114794    10.50000   -1.20000
AFIX   0
C3    1    0.500000    0.378765    0.211180    10.50000    0.02562    0.04488 =
         0.05531   -0.00304    0.00000    0.00000

PART 2
O7B   4    0.272493    1.013732    0.411761   -21.00000    0.05322    0.07338 =
         0.05949   -0.00604   -0.00221    0.02174
AFIX 147
H7B   2    0.318097    0.922428    0.368825   -21.00000   -1.50000
AFIX   0

PART 1
O7A   4    0.272732    0.897293    0.533325    21.00000    0.06700    0.06751 =
         0.10497   -0.02287    0.03497   -0.01544
AFIX 147
H7A   2    0.323368    0.823593    0.478971    21.00000   -1.50000
AFIX   0
HKLF 4




REM  mkb-4-190_a.res in Pmna
REM wR2 = 0.1003, GooF = S = 1.115, Restrained GooF = 1.115 for all data
REM R1 = 0.0341 for 450 Fo > 4sig(Fo) and 0.0364 for all 490 data
REM 53 parameters refined using 0 restraints

END

WGHT      0.0527      0.0951

REM Highest difference peak  0.131,  deepest hole -0.130,  1-sigma level  0.032
Q1    1   0.2453  1.0000  0.5000  10.50000  0.05    0.13
Q2    1   0.3178  0.8625  0.4252  11.00000  0.05    0.11
Q3    1   0.5000  0.2151  0.2539  10.50000  0.05    0.11
Q4    1   0.3946  0.7439  0.3861  11.00000  0.05    0.10
Q5    1   0.2056  0.9121  0.4452  11.00000  0.05    0.10
;
_shelx_res_checksum              20843
_shelx_hkl_file
;
  -1   0   0-2.19744 4.00392   1
   1   0   0-3.89166 7.09094  10
  -2   0   0 36379.2 527.694   1
   2   0   0 38517.1 721.228  10
  -3   0   0-6.78695 6.73558   1
  -4   0   0 28022.2 664.048   1
  -5   0   0-11.6562 11.5579   1
   5   0   0-7.69652 7.60115   8
   6   0   0 23622.6 618.565   8
  -6   0   0 23148.9 749.436   1
   7   0   0-4.39936 5.66817  11
   7   0   0-4.94517 6.37139   9
   7   0   0-4.73460 6.10009  13
   7   0   0-4.38144 7.98335  23
   7   0   0-4.93181 8.98618   6
   8   0   0 6424.91 253.260   9
   8   0   0 6229.66 237.854  23
   8   0   0 6302.09 244.083   6
   8   0   0 6059.95 238.042  13
   8   0   0 6443.62 233.884  11
   9   0   0-5.57417 12.4393  13
   9   0   0-5.62633 7.24901   6
   9   0   0 6.00593 7.73809   9
   9   0   0 4.92100 10.9816  11
  10   0   0 5233.48 211.346   6
  10   0   0 4520.60 196.891  13
  10   0   0 4991.08 220.106   9
  11   0   0-3.67562 9.47138   6
  12   0   0 830.924 56.4310   6
   0   0  -1 7.23019 8.06741   7
   0   0  -1-3.09706 3.06604  20
   0   0  -1 6.70682 7.48343   5
   1   0  -1 1067.26 95.2019   5
  -1   0  -1 1140.16 93.2356   1
  -1   0  -1 1293.81 90.4835   7
   1   0  -1 1215.52 87.9191   7
   1   0  -1 1125.11 78.1160  20
  -1   0  -1 1208.51 80.2318  20
  -2   0  -1-6.31482 11.5061   1
  -2   0  -1-3.69835 6.73870   7
   2   0  -1 3.77365 4.86200   7
   3   0  -1 34794.8 429.157   7
   3   0  -1 35380.7 409.689   8
  -3   0  -1 35092.3 444.648   7
  -3   0  -1 35131.1 726.391   1
   4   0  -1 3.90455 7.11442   8
  -4   0  -1-11.1766 11.1299   1
  -4   0   1-8.19020 14.9232   1
   5   0  -1 143.111 33.5982   8
  -5   0   1 156.734 53.8500   1
  -5   0  -1 264.758 82.2731   1
   6   0  -1-4.30727 7.84820   9
   6   0  -1-3.78226 4.87309   6
  -6   0   1-12.3804 12.1623   1
   6   0   1 8.82010 9.84142   6
  -6   0  -1-16.8507 16.7115   1
   7   0  -1 22727.9 400.645  23
   7   0  -1 21539.5 439.038  13
   7   0  -1 21889.4 427.236  15
   7   0  -1 21803.6 412.915   6
   7   0  -1 21639.6 437.607  11
   7   0   1 22714.9 444.601   6
   7   0  -1 21983.1 443.989   9
   7   0   1 21359.7 726.396   8
   7   0   1 22872.0 430.404   9
  -7   0  -1 22627.2 874.552   1
   8   0  -1-5.23407 13.4872   6
   8   0   1-5.86983 10.6953   6
   8   0  -1-4.91271 6.32957  23
   8   0   1 4.97868 11.1104  13
   8   0  -1-5.60454 10.2119  11
   8   0  -1 11.7659 13.1283  13
   8   0  -1-5.90849 10.7658   9
   8   0   1 5.38451 9.81102   9
   9   0  -1 24.1424 19.0480  13
   9   0  -1 24.8513 17.8989   9
   9   0   1 44.9808 22.9082   9
   9   0  -1 34.5670 17.9954  14
   9   0   1 29.5760 18.6680   6
   9   0  -1 28.1979 20.5516  11
   9   0   1 65.2895 25.8829  13
   9   0  -1 21.5142 18.3345   6
  10   0  -1-5.72312 14.7474   9
  10   0   1-4.19706 7.64739  13
  10   0   1 5.07670 11.3291   9
  10   0  -1 4.72285 8.60543   6
  10   0  -1-3.92994 7.16068  14
  10   0  -1-5.25312 11.7228  13
  10   0  -1 4.88933 12.5989  11
  10   0   1 5.12824 9.34408   6
  11   0  -1 2155.29 116.863  13
  11   0  -1 2289.12 119.697   6
  11   0  -1 2413.04 136.909   9
  11   0   1 2376.41 123.805   6
  12   0   1-2.10462 5.42322   6
   0   0  -2 116194. 1223.39   7
   0   0  -2 120703. 1172.40   5
   0   0  -2 119024. 1145.08   1
   0   0  -2 115867. 1110.63  20
  -1   0  -2-6.42581 8.27907  20
   1   0  -2 6.40754 11.6751  20
  -1   0  -2-7.69788 14.0262   7
   1   0  -2-8.47931 15.4500   5
   1   0  -2-7.68750 9.90463   7
  -2   0  -2 150871. 1540.01   1
  -2   0  -2 149875. 1270.04  20
   2   0  -2 152444. 1264.61  20
   2   0  -2 151014. 1457.07   7
  -2   0  -2 150480. 1446.93   7
  -3   0  -2-8.10112 8.02264   7
   3   0  -2-15.7574 20.3019  10
  -3   0  -2 11.6001 14.9456   1
   3   0  -2 7.95754 14.4993   7
   4   0  -2 35295.2 1115.62  10
   4   0  -2 35327.7 650.546   7
   5   0  -2-25.5912 25.5840  10
  -5   0   2-10.3102 10.1351   1
  -5   0  -2-17.4019 17.3455   1
   6   0  -2 607.160 69.3654   9
   6   0  -2 562.792 70.7154  12
   6   0  -2 551.331 67.8790  13
   6   0  -2 478.040 64.4001  11
   6   0  -2 445.051 163.831  10
  -6   0  -2 660.421 155.047   1
   6   0  -2 573.917 60.7490   6
   6   0   2 578.651 63.1187  23
   6   0   2 517.263 65.5964   6
   6   0  -2 564.319 67.1615  15
   7   0   2 18.4765 23.8052   8
   7   0  -2 5.69231 10.3719  11
   7   0  -2 4.40190 11.3429   6
  -7   0  -2-23.6121 23.3337   1
   7   0   2-4.31786 7.86751   9
   7   0  -2-6.19969 11.2963  12
   7   0  -2 4.02366 7.33145  23
   7   0  -2-5.47574 7.05499   9
   7   0  -2 5.65013 10.2950  13
   7   0   2-5.63324 10.2642   6
   7   0  -2-5.38006 9.80291  15
   8   0  -2 431.714 69.8879  13
   8   0   2 544.083 76.4064   6
   8   0  -2 610.090 72.8941   6
   8   0  -2 406.006 65.6550  15
   8   0  -2 547.656 74.1289  14
   8   0   2 496.632 64.5284   9
   8   0  -2 512.469 74.1998   9
   8   0  -2 521.969 65.5911  23
   8   0  -2 582.862 85.9105  12
   8   0  -2 412.522 69.2744  11
   9   0  -2-6.38003 11.6250  13
   9   0   2-4.70898 8.58016   9
   9   0  -2-6.17213 13.7737  11
   9   0   2 6.12586 11.1618   6
   9   0  -2 5.08909 13.1137   6
   9   0  -2 5.52719 12.3344  14
  10   0  -2 4462.93 203.112  11
  10   0  -2 4250.19 200.643  13
  10   0  -2 4072.50 179.221  14
  10   0   2 4119.36 192.484   6
  10   0  -2 4799.29 196.305   6
  11   0  -2 7.26382 10.4634  13
  11   0   2 3.56678 7.95957   6
  12   0   2 69.4983 15.4518   6
   0   0  -3-10.1506 13.0781  20
   0   0  -3-12.1621 22.1603   7
   0   0  -3 22.0269 24.5775   5
   0   0  -3 10.5389 13.5784   1
   1   0  -3 1098.31 145.904  20
  -1   0  -3 1319.25 166.424   1
   1   0  -3 1556.16 182.066   7
  -1   0  -3 1506.02 181.341   7
   1   0  -3 1428.04 180.580   5
   2   0  -3-12.6727 23.0908   7
  -2   0  -3-12.7408 16.4154   7
   3   0  -3 2636.37 308.448  10
   3   0  -3 2584.33 241.892   7
  -3   0  -3 2985.93 261.505   7
  -3   0  -3 2717.86 277.019   1
   4   0  -3-12.6676 12.5209   7
  -4   0  -3-13.3183 13.1600   7
  -4   0  -3-18.7895 18.7738   1
   4   0  -3-25.4230 25.4086  10
   5   0  -3 18148.4 384.893  11
   5   0  -3 18387.5 989.931  10
   5   0  -3 18133.5 390.005  15
  -5   0  -3 18067.1 846.241   1
   5   0   3 18133.9 380.567   6
   5   0  -3 20145.6 332.602   6
   5   0  -3 18216.7 381.819  13
   6   0  -3-5.96105 7.68027  12
   6   0  -3-2.95088 5.37676  21
   6   0   3-4.24100 7.72745  30
  -6   0  -3-25.4203 25.2804   1
   6   0  -3-3.95089 5.09036   6
   6   0  -3-4.79919 8.74453   9
   6   0  -3-36.8198 36.7270  10
   6   0   3 5.43633 9.90545   6
   6   0  -3 5.52730 7.12141  15
   7   0   3 12474.8 362.039   6
   7   0  -3 12647.0 375.116  11
   7   0  -3 12942.6 369.043  15
   7   0  -3 12642.3 347.019   9
   7   0   3 11754.6 303.428  30
   7   0  -3 11828.5 357.411  13
   7   0  -3 13350.5 318.098   6
   7   0  -3 12365.4 379.817  12
  -7   0  -3 12544.4 778.714   1
   8   0  -3 25.7942 20.3512  15
   8   0  -3 4.98276 9.07901   6
   8   0  -3 6.12436 13.6670  14
   8   0  -3-6.75188 8.69917  11
   8   0  -3-6.12984 7.89773   9
  -8   0  -3-28.5722 27.9001   1
   8   0   3 6.52599 8.40814   6
   8   0  -3-6.62684 14.7884  13
   8   0   3-22.2040 21.6315   8
   8   0  -3 7.40588 9.54179  12
   9   0  -3 6150.65 253.093  15
   9   0  -3 6535.88 259.469   9
   9   0   3 6506.55 264.972   6
   9   0  -3 6476.32 271.948  11
   9   0  -3 6606.44 273.063  13
   9   0  -3 6012.46 248.191  14
  10   0  -3 10.3632 13.3521  11
  10   0   3 4.92975 14.2024   6
  10   0  -3-5.13887 11.4678  13
  10   0  -3-5.04484 12.9996   9
  10   0  -3 13.7061 14.4185  14
  11   0   3 720.311 63.6166   6
  11   0  -3 815.508 68.8214  13
   0   0  -4 1703.07 221.159   5
   0   0  -4 1576.23 224.734   7
  -1   0  -4 16.9450 21.8320   1
   1   0  -4-17.7661 17.7573   7
  -1   0  -4 17.9578 32.7206   7
  -1   0  -4-15.7150 20.2473   5
   1   0  -4-17.6461 32.1527   5
  -2   0  -4 292.981 93.7855   5
   2   0  -4 254.723 93.7676   7
  -2   0  -4 221.050 85.5723   7
   3   0  -4-18.8014 18.7101   7
  -3   0  -4-18.9911 18.8958   7
  -3   0  -4 21.2592 27.3906   1
   4   0  -4 16277.4 356.394  11
  -4   0  -4 15088.9 802.421   1
   4   0  -4 16242.3 357.326  13
   4   0  -4 15809.0 711.999   7
  -4   0  -4 16336.4 737.556   7
   4   0  -4 16241.5 947.289  10
   4   0  -4 16110.9 369.918  15
   4   0   4 15585.8 331.179  30
   4   0   4 16001.5 365.919   6
   4   0  -4 15339.1 296.168  22
   5   0  -4-4.02869 7.34061  17
   5   0  -4-5.24650 9.55955  11
   5   0   4-5.72325 7.37388   6
   5   0  -4 4.03801 7.35759   9
   5   0  -4-3.60892 4.64976  22
   5   0  -4 5.20540 9.48467  13
   6   0  -4 1282.10 123.566  12
   6   0  -4 1294.19 118.383  11
  -6   0  -4 1345.80 273.025   1
   6   0   4 1175.04 113.393   6
   6   0  -4 1110.86 111.302  15
   6   0  -4 1113.07 107.337  13
   6   0  -4 1353.98 93.8040  21
   6   0  -4 1135.80 291.870  10
   6   0  -4 1254.70 101.544   9
   6   0   4 1208.63 105.431  30
   7   0  -4-7.28273 13.2697  12
   7   0  -4-3.62221 8.08329  21
   7   0   4-5.33973 9.72943  30
   7   0   4 6.74575 8.69128   6
   7   0  -4-6.45321 11.7583  13
   7   0  -4-45.7369 45.2979  10
   7   0  -4 5.35651 6.90137   9
   7   0  -4-6.83501 12.4540  15
  -7   0  -4-31.8096 31.3788   1
   8   0  -4 1957.71 154.450  15
   8   0  -4 2088.26 162.145  12
   8   0  -4 1902.18 145.989  14
   8   0   4 1677.52 269.895   8
  -8   0  -4 1744.48 310.485   1
   8   0  -4 1909.88 135.517   9
   8   0   4 1861.43 148.455   6
   9   0  -4 5.64672 12.6012  14
   9   0  -4 12.1966 17.5690  11
   9   0  -4 6.61966 12.0616  12
   9   0  -4-5.09877 6.56929   9
   9   0  -4-5.89996 10.7502  13
   9   0  -4 6.00255 10.9371  15
   9   0   4-5.90163 10.7533   6
  10   0   4 1251.63 96.2906   6
  10   0  -4 1370.61 99.0821  14
  10   0  -4 1287.66 101.886  13
  11   0   4 4.80048 6.91501   6
   0   0  -5-24.6263 44.8711   7
   0   0  -5-22.6811 22.6187   5
   1   0  -5 1451.83 249.639   7
  -1   0  -5 1079.00 206.547   5
  -1   0  -5 1095.04 219.826   7
   1   0  -5 1481.58 92.0084  22
   1   0  -5 1240.93 225.940   5
   2   0  -5-25.1208 25.0556   7
   2   0  -5 4.66703 8.50371  17
   2   0   5 4.00219 7.29232  30
  -2   0  -5-25.0291 24.9967   1
  -2   0  -5-25.2422 25.1744   7
  -2   0  -5-21.8604 21.7372   5
   2   0  -5 3.62841 6.61126  22
  -3   0  -5 598.560 156.444   5
   3   0  -5 674.984 75.9092  17
  -3   0  -5 664.067 177.211   7
   3   0  -5 585.979 73.5344  15
   3   0  -5 483.146 150.137   7
   3   0   5 625.804 70.0639  30
   3   0  -5 589.918 67.3254  13
   3   0  -5 568.607 65.1486  14
   3   0  -5 648.496 68.7983  11
   4   0  -5-5.07289 6.53595  17
  -4   0  -5-23.1427 22.8700   5
   4   0  -5-37.1822 37.0218  10
  -4   0  -5-30.3159 30.2302   1
   4   0  -5-4.22998 7.70738  22
   4   0  -5-24.8011 24.5029   7
   4   0  -5 4.98544 9.08389  11
  -4   0  -5-25.3489 25.0368   7
   4   0  -5-5.88997 10.7320  15
   4   0  -5 4.96986 11.0907  14
   4   0  -5-5.06354 11.2997  13
   5   0   5 6589.47 277.210   6
   5   0  -5 6487.09 258.324  13
   5   0  -5 6161.96 221.467  21
   5   0  -5 6145.00 261.644  15
  -5   0  -5 6751.39 629.763   1
   5   0  -5 6722.64 699.376  10
   5   0   5 6342.27 243.892  30
   5   0  -5 6517.20 256.843  14
  -5   0  -5 5815.88 490.743   5
   5   0  -5 6177.93 229.567  17
   5   0  -5 6480.57 256.213  11
   6   0  -5-44.8194 44.3479  10
   6   0  -5-6.20764 11.3108  11
   6   0   5-5.86476 10.6861  30
   6   0  -5 7.13168 9.18851  12
  -6   0  -5-34.8778 34.5187   1
   6   0  -5-4.45905 8.12477  21
   6   0  -5 13.9468 15.5617  15
   6   0  -5-4.53615 8.26524  17
   6   0  -5-4.26409 5.49389   9
   6   0  -5-6.26480 16.1432  13
   6   0  -5-6.22007 16.0280  14
   6   0   5-7.05386 9.08825   6
   7   0  -5 645.741 85.1578  13
  -7   0  -5 781.904 214.578   1
   7   0  -5 754.442 93.6257  14
   7   0  -5 673.014 86.6132  11
   7   0  -5 637.440 90.8842  12
   7   0  -5 361.967 174.886  10
   7   0   5 639.702 80.9994  30
   7   0  -5 721.015 75.2545   9
   7   0  -5 657.915 69.1866  21
   7   0   5 631.598 87.6170   6
   8   0  -5-6.07839 17.5116  14
   8   0  -5-6.54986 8.43889  12
   8   0   5-6.31145 14.0845   6
   8   0  -5 11.8268 17.0363  13
   8   0  -5-6.10670 11.1269  11
   8   0  -5 6.49389 11.8324  15
   9   0  -5 1992.05 137.101  12
   9   0   5 2133.77 136.289   6
   9   0  -5 2108.12 140.211  15
   9   0  -5 2101.68 136.694  13
  10   0  -5 3.26357 7.28293  14
  10   0   5 3.19040 7.11966   6
   0   0   6 4320.48 171.574  30
   0   0  -6 4484.11 206.853  17
   0   0  -6 4502.13 506.146   7
   0   0  -6 3702.40 438.443   5
   1   0  -6-32.4434 32.3299   7
   1   0   6 4.52740 8.24930  30
  -1   0  -6 3.46315 7.72833  21
  -1   0  -6-5.36587 11.9744  17
  -1   0  -6-32.7586 32.6425   7
   1   0  -6-5.70581 7.35141  17
  -1   0  -6-28.7771 28.5483   5
  -2   0  -6 5173.55 499.253   5
  -2   0  -6 4728.72 518.025   7
   2   0  -6 5453.11 556.545   7
   2   0   6 5611.14 219.224  30
   2   0  -6 5250.57 233.830  17
  -2   0  -6 5564.56 220.775  17
   3   0  -6-32.3523 32.0362   7
   3   0  -6-6.23673 11.3638  15
  -3   0  -6-31.8976 31.5801   7
   3   0  -6-39.1091 38.8132  10
   3   0  -6 9.23212 11.8947  14
   3   0   6-5.37566 6.92604  30
  -3   0  -6-27.2627 26.8608   5
  -3   0  -6 4.66282 10.4055  17
  -4   0  -6 294.105 124.204   5
   4   0  -6 500.573 193.781  10
   4   0  -6 407.494 69.3907  15
   4   0  -6 473.318 72.5039  17
   4   0  -6 387.046 61.9481  14
   4   0   6 498.567 71.2032  30
   4   0  -6 418.507 61.8299  21
   4   0   6 348.531 64.6228   6
   5   0  -6-5.85156 10.6620  14
   5   0  -6-5.00821 6.45262  21
   5   0  -6-5.63150 12.5672  17
   5   0  -6 6.94465 8.94754  15
   5   0   6-7.13756 13.0052   6
   5   0  -6-43.6737 43.0553  10
   6   0  -6 289.492 50.4214  17
   6   0  -6 304.057 148.067  10
   6   0  -6 389.915 57.4712  21
   6   0  -6 288.464 61.3080  15
   6   0   6 243.599 55.2781   6
   6   0  -6 327.833 59.9802  14
   6   0  -6 361.744 67.5468  12
   6   0   6 358.085 61.9934  30
   6   0  -6 328.546 60.1106  13
   7   0  -6-6.36453 8.20011  15
   7   0  -6-5.68790 14.6567  14
   7   0  -6 6.21019 11.3155  12
   7   0  -6 3.93662 10.1439  21
   7   0   6-6.25906 13.9676   6
   8   0  -6 2049.30 134.457  12
   8   0   6 2029.00 134.482   6
   8   0  -6 2246.59 137.821  14
   9   0   6-3.56515 9.18673   6
   9   0  -6-3.94559 7.18920  15
  10   0   6 832.912 49.1639   6
   0   0  -7 6.55420 11.9423  17
   0   0  -7 4.40788 8.03152  21
   0   0   7-4.55160 5.86432  30
   1   0  -7 38.4482 20.5370  21
  -1   0  -7-32.6796 32.1106   5
   1   0  -7-38.8451 38.4738   7
  -1   0  -7-39.1295 38.7533   7
   1   0  -7 13.4022 17.2675  17
  -1   0  -7 3.92147 7.14524  21
  -1   0  -7 6.24915 13.9455  17
   1   0  -7 17.4450 16.7528  15
   1   0   7-5.10693 9.30526  30
  -2   0  -7-37.6922 37.2104   7
  -2   0  -7-5.71616 7.36474  17
   2   0  -7-6.28318 11.4485  15
   2   0  -7 5.05620 14.5667  21
  -2   0  -7 31.1184 40.0931   5
   2   0   7-5.51169 10.0428  30
   2   0  -7-37.9829 37.5023   7
   3   0  -7 485.201 77.1713  17
   3   0  -7 675.882 224.403  10
   3   0  -7 483.332 65.9156  21
  -3   0  -7 499.203 67.0920  17
   3   0   7 573.240 76.7541  30
   3   0  -7 668.126 88.5732  15
   4   0   7-6.78694 12.3664   6
   4   0  -7 13.4216 14.9757  15
   4   0  -7 4.66612 10.4129  14
   4   0  -7 42.2466 54.4308  10
   4   0   7 11.5845 12.9260  30
   4   0  -7 6.35033 11.5708  17
   5   0  -7 4.85934 10.8441  14
   5   0  -7 10.9403 14.0956  17
   5   0  -7-4.83737 10.7950  21
   5   0   7-5.64516 14.5465  30
   5   0   7-6.54926 14.6152   6
   5   0  -7-6.47566 11.7992  15
   6   0  -7-5.63994 14.5331  12
   6   0   7-5.79404 14.9302   6
   6   0  -7 4.60998 10.2876  14
   6   0  -7 5.85504 13.0660  15
   6   0  -7 4.23137 10.9035  21
   7   0   7 418.674 58.7629   6
   7   0  -7 318.927 50.4967  12
   8   0  -7 3.21339 5.85506  12
   8   0  -7 3.69506 6.73272  15
   8   0   7-3.36820 9.70369   6
   9   0   7 12.2320 7.11957   6
   0   0  -8-6.38706 11.6378  17
   0   0  -8 4.09449 5.27537  21
   1   0  -8-6.50274 14.5114  17
   1   0  -8-4.51069 5.81161  21
   1   0   8-4.68778 8.54152  30
  -1   0  -8-5.95096 10.8431  17
   1   0  -8-5.04955 9.20070  15
   2   0  -8 5.39619 6.95250  15
   2   0  -8 9.34716 13.4644  21
  -2   0  -8 10.2700 11.4592  17
   2   0   8 4.92780 6.34901  30
   3   0  -8 6.04576 11.0159  17
   3   0  -8-4.57225 11.7818  21
   3   0  -8-5.48512 14.1341  15
   3   0   8 9.89253 14.2500  30
   3   0   8 12.2332 17.6217   6
  -3   0  -8-4.02091 8.97302  17
   4   0   8 620.982 80.1312   6
   4   0   8 695.785 76.1682  30
   4   0  -8 699.756 82.2993  17
   4   0  -8 698.861 73.2504  21
   4   0  -8 644.502 77.3058  15
   5   0  -8 4.64285 8.45965  12
   5   0  -8 9.47688 13.6513  15
   5   0   8 4.96981 9.05541   6
   5   0  -8 3.74136 8.34916  21
   6   0   8 7.87001 11.3366   6
   6   0  -8-3.59396 6.54849  12
   6   0  -8-3.93793 8.78783  15
   7   0   8-2.75891 7.10921   6
   7   0  -8-2.87095 6.40678  15
   0   0  -9-4.65515 13.4113  17
   1   0  -9 238.238 46.3481  17
  -1   0  -9 260.352 44.2281  17
   2   0   9-4.96579 12.7959   6
   2   0  -9-4.54751 10.1482  17
   2   0  -9-3.14826 9.93571  21
   3   0  -9 130.182 26.0395  15
   3   0   9 207.131 41.8351   6
   4   0  -9 5.12455 6.60251  15
   4   0   9-3.74585 8.35919   6
   5   0   9 33.6803 14.0053   6
   5   0  -9 43.9222 12.8613  15
   0   0  10-2.89420 6.45867   6
   1   0  10 5.58914 8.05106   6
   2   0  10 2.39373 5.34181   6
   0  -1   0 19276.2 430.729   2
   0  -1   0 19885.8 357.240   8
   1   1   0-4.52911 4.47691  10
   1  -1   0 3.93525 4.39093   5
  -1  -1   0 5.56577 7.17098   2
   1  -1   0-5.52325 10.0638   2
   2  -1   0 195850. 1311.86   2
   2   1   0 197187. 1683.94  10
   3  -1   0-4.69600 4.62789   2
   3  -1   0 7.50083 16.7388   8
   3   1   0-13.1771 13.1287  10
  -3  -1   0 4.83873 8.81656   2
  -3   1   0 4.30165 5.54228   1
  -4  -1   0 110894. 1550.90   1
   4  -1   0 112240. 1315.02   8
  -4   1   0 109789. 1067.91   1
  -5  -1   0 16.4552 21.2010   1
   5  -1   0-11.4344 11.3528   8
  -5   1   0-7.79213 7.64530   1
   6  -1   0 571.698 62.8913   9
   6   1   0 443.685 56.4847   6
   6  -1   0 557.152 61.4804  24
   6  -1   0 551.709 61.8861  23
   6   1   0 624.258 68.8853  19
  -6  -1   0 478.478 130.976   1
   6  -1   0 510.325 112.390   8
   6   1   0 567.859 65.9188   9
   7  -1   0-4.66412 6.00929   6
   7   1   0-4.99474 9.10083  11
   7  -1   0-4.20013 7.65298  11
   7   1   0 14.5948 12.5360   6
   7  -1   0-4.72162 8.60319  23
   7  -1   0-4.91463 6.33205   9
  -7  -1   0-22.9036 22.6461   1
   7  -1   0-15.3132 14.9919   8
   7   1   0 4.22941 7.70634  13
   7   1   0-5.32825 9.70852   9
   8   1   0 16.4565 15.8035   6
   8   1   0 16.5043 14.1761  11
   8  -1   0-5.24828 11.7120   6
   8   1   0 4.74537 8.64646  13
   8  -1   0 13.9289 11.9641  11
   8  -1   0-5.46436 7.04033  23
   8   1   0 6.09032 11.0971   9
   8  -1   0 5.63495 10.2673   9
   9   1   0-4.66342 8.49715  13
   9  -1   0 5.31553 6.84857   6
   9  -1   0-6.23173 16.0580  13
   9   1   0 6.29690 11.4735   9
   9   1   0 5.46330 7.03895  11
   9  -1   0 5.74285 7.39914  23
   9   1   0 5.57638 14.3693   6
   9  -1   0-5.90711 10.7632   9
  10   1   0 3347.19 161.245  11
  10   1   0 3440.25 171.400   6
  10  -1   0 3471.93 183.872  13
  10  -1   0 3280.88 161.064   6
  10   1   0 3334.80 182.616   9
  11  -1   0 3.28052 7.32076   6
  11  -1   0 3.95778 10.1985  13
  11   1   0 3.55660 7.93686   6
  11   1   0 4.22632 9.43140   9
   0  -1   1 157.968 32.5517   8
   0  -1  -1 220.615 51.6805   2
   0  -1  -1 151.638 32.9756   1
   1  -1  -1 1510.26 63.7842   1
  -1  -1  -1 1476.59 134.298   2
   1  -1  -1 1506.49 134.064   2
  -1  -1  -1 1461.12 128.743   1
  -1  -1   1 1751.88 89.1429   8
  -1   1  -1 1509.16 53.1449   5
   1  -1  -1 1517.92 119.872   5
   1  -1  -1 1425.27 106.500  10
   2  -1  -1 225.520 48.3598   8
   2   1  -1 138.410 52.5191  10
  -2   1   1 203.297 44.1360  31
   2   1   1 255.543 48.9848  31
   2  -1  -1 179.808 52.6514  10
   3  -1  -1 14249.8 553.173  10
   3   1  -1 14742.8 362.741  20
  -3   1   1 14958.0 367.366  31
  -3   1  -1 15106.5 369.463  20
   3  -1  -1 14473.7 420.530   8
   3   1  -1 14548.5 613.101  10
  -3   1  -1 15688.5 467.481   1
   3   1   1 15108.7 370.675  31
  -3  -1  -1 15471.5 556.536   1
  -4   1  -1 15118.1 507.577   1
   4  -1  -1 14623.1 461.679   8
   4  -1   1 16205.7 388.756   2
  -4  -1   1 14955.9 380.287   2
  -4  -1  -1 14940.3 331.201   7
  -4  -1  -1 14864.2 619.760   1
   4  -1   1 15388.6 532.458   8
   4   1  -1 15970.6 724.492  10
   4   1  -1 14954.6 327.051  20
  -4   1  -1 15961.2 329.919  20
   4  -1  -1 15340.8 340.966   7
  -5   1  -1 12335.2 507.381   1
   5   1  -1 11509.4 698.209  10
  -5  -1   1 12094.3 584.861   1
  -5  -1  -1 12407.6 616.569   1
   5  -1   1 12496.8 529.036   8
   5  -1  -1 12146.2 452.058   8
   6   1  -1 18762.5 398.644  12
   6  -1  -1 18306.3 340.505   6
   6  -1  -1 19348.1 393.698  12
   6  -1  -1 16917.6 555.923   8
   6  -1  -1 18743.1 355.541  24
   6   1  -1 18899.4 395.115  11
   6   1   1 18197.9 374.615   6
   6  -1  -1 18226.1 347.633  23
  -6  -1  -1 17448.9 802.420   1
   6   1  -1 18536.0 344.732   6
  -6  -1   1 18869.3 794.126   1
   6  -1   1 17607.8 697.956   8
   6  -1   1 17946.8 347.549  23
   6   1  -1 19274.3 380.474  15
   6  -1   1 17475.4 357.654   6
  -6   1  -1 18017.5 666.545   1
   6  -1  -1 18590.2 370.623   9
   7  -1  -1 1776.32 126.756   9
   7  -1  -1 1676.79 110.644  15
   7   1   1 1532.86 118.791   6
   7  -1   1 1735.92 235.633   8
   7  -1   1 1645.93 115.928  23
   7  -1  -1 1670.06 111.523   6
  -7  -1  -1 1670.72 270.463   1
   7  -1   1 1697.45 116.814   9
   7   1  -1 1724.26 126.101  15
  -7  -1   1 1641.63 250.471   1
   7  -1  -1 1739.68 120.336  24
   7   1  -1 1627.70 112.518   6
   7   1  -1 1610.44 115.951  13
   7   1  -1 1510.46 121.444  11
   7  -1   1 1640.36 118.877   6
   7   1   1 1664.59 112.799  11
   7  -1  -1 1614.54 117.200  11
   7   1  -1 1794.05 137.182  12
   7   1   1 1564.06 117.821   9
   7  -1  -1 1545.26 112.206  23
   7   1  -1 1665.60 125.971   9
   7   1  -1 1678.81 115.233  14
   8   1  -1 12037.5 318.982   6
   8  -1  -1 12186.9 310.087  15
   8  -1   1 12766.3 341.679   9
   8   1   1 12966.7 357.579   9
   8  -1   1 11727.6 338.570   6
  -8  -1  -1 11484.6 725.089   1
   8   1  -1 11785.2 359.270   9
   8  -1  -1 12281.0 298.240  18
   8  -1  -1 12661.0 345.753  11
   8  -1   1 12900.7 347.652  23
   8   1  -1 12461.9 366.500  11
   8  -1  -1 12266.3 366.902  13
   8   1  -1 11764.5 313.569  14
   8  -1  -1 12271.0 317.209   6
   8   1   1 12299.4 354.610   6
   8  -1  -1 11960.5 331.716  23
   8  -1  -1 13099.4 356.999   9
   8   1  -1 12074.6 333.945  13
   9  -1  -1 2323.59 128.510  18
   9   1  -1 2404.83 158.973  11
   9   1  -1 2327.48 147.104  13
   9   1   1 2576.76 161.707   9
   9  -1   1 2471.53 159.757  13
   9  -1   1 2567.56 156.322   6
   9  -1  -1 2345.16 164.685  13
   9   1   1 2545.96 161.448   6
   9   1  -1 2433.37 147.672   6
   9  -1  -1 2471.14 163.395   9
   9  -1   1 2470.54 153.070   9
   9   1  -1 2396.88 165.966   9
   9  -1  -1 2492.40 146.736   6
   9   1  -1 2373.37 135.125  14
   9  -1  -1 2397.59 153.224  23
  10   1  -1 4019.97 201.005   9
  10  -1  -1 4447.73 184.177   6
  10   1  -1 4206.29 183.035   6
  10   1   1 4073.10 190.048   6
  10   1  -1 3947.91 171.158  13
  10   1  -1 4207.18 193.980  11
  10   1   1 3876.84 185.864   9
  10  -1  -1 3725.05 165.673  14
  10  -1  -1 3970.32 202.101  13
  10  -1   1 4023.60 180.453   6
  10  -1   1 3863.16 185.481  13
  11   1  -1 527.095 56.4734   6
  11   1   1 501.904 56.0021   6
  11   1   1 460.706 53.4434   9
  11  -1   1 524.715 54.5708   6
  11  -1  -1 521.692 53.7656   6
  11  -1  -1 496.994 61.3070  13
  11   1  -1 520.077 63.1027   9
  11   1  -1 452.373 51.2287  11
  12   1   1 262.705 30.3109   6
  12  -1   1 246.009 26.6544   6
   0  -1  -2 247671. 1635.45   1
   0   1  -2 247894. 1570.43   5
   0   1  -2 245192. 1830.77  20
  -1   1  -2 81214.6 805.119   5
   1  -1  -2 78766.3 1149.30   5
  -1   1  -2 80517.7 1092.16  20
  -1  -1  -2 81645.8 1090.92   1
   1   1  -2 80001.5 1088.00  20
   1  -1  -2 80253.4 786.538   1
   2  -1  -2 129.853 50.2685  10
   2  -1  -2 281.682 65.0628   7
   2  -1  -2 210.970 65.5586   5
  -2   1  -2 113.468 46.0390   1
   2   1  -2 140.923 46.5546  20
   3  -1  -2 29675.9 847.568  10
   3  -1  -2 30451.8 672.898   7
  -3  -1  -2 29034.2 830.195   1
  -3  -1  -2 28776.3 648.428   7
  -3   1  -2 29192.0 774.273   1
  -3   1  -2 29949.1 658.994  20
   3   1  -2 30942.9 670.373  20
   3   1  -2 27168.8 899.256  10
   4  -1  -2 1339.12 210.589  10
   4   1   2 1206.45 127.602  31
  -4  -1  -2 1356.25 202.560   1
  -4   1  -2 1228.95 174.315   1
  -4  -1  -2 1491.81 148.202   7
   4  -1  -2 1547.00 150.159   7
   4   1  -2 1298.37 131.520  20
   4   1  -2 851.131 179.773  10
  -4   1   2 1443.40 138.563  31
  -4   1  -2 1371.91 134.924  20
   5   1  -2 186.064 96.8642  10
   5  -1  -2 268.800 109.064  10
  -5   1  -2 195.315 75.6101   1
   6   1  -2 10426.8 309.890  12
   6  -1   2 11667.8 621.051   8
   6  -1  -2 11523.4 302.832   9
   6  -1  -2 12177.4 275.240   6
  -6  -1  -2 11193.6 678.431   1
   6   1  -2 11143.3 275.458  19
   6  -1  -2 11697.5 315.714  12
  -6  -1   2 11576.7 613.147   1
   6  -1  -2 10625.0 264.906  23
   6   1  -2 11145.7 324.228  11
   6   1  -2 10820.7 294.459  14
   6   1  -2 11384.7 312.520   9
   6   1  -2 11664.3 809.473  10
   6   1  -2 11163.3 268.347   6
   6  -1  -2 11205.5 262.411  18
  -6   1  -2 11678.2 617.161   1
   6   1  -2 11552.3 312.111  15
   6  -1  -2 10846.7 266.260  25
   6  -1  -2 11196.0 280.963  24
   6  -1  -2 10661.9 282.760  15
   6  -1   2 11259.1 276.664  23
   6  -1   2 10675.1 294.029   6
   6   1  -2 11252.8 297.628  13
   6   1   2 10773.8 300.736   6
   6  -1  -2 10938.2 306.978  13
   6  -1  -2 11501.3 312.678  11
   7  -1  -2 77.6266 29.4551  11
   7  -1   2 28.3913 16.1301  23
   7   1  -2 29.1883 19.8994  15
   7   1  -2 21.9413 13.8491   6
  -7  -1  -2 27.1884 49.5396   1
   7   1  -2 61.9928 27.6685  11
   7   1   2 46.9440 20.0599   9
   7  -1   2 87.3786 56.2897   8
   7  -1  -2 36.3486 17.2582  18
   7   1  -2 55.4793 25.1155  12
   7  -1   2 25.7552 14.6324   9
   7  -1  -2 51.2464 20.5873   6
   7  -1  -2 24.5061 15.4680  15
   7   1   2 11.5938 12.9362   6
   7   1  -2 57.6474 25.2641  14
   7  -1  -2 54.7216 23.3834   9
   7  -1  -2 45.1284 19.2841  23
   7   1  -2 79.4661 28.9588  13
   7   1  -2 70.2137 27.1810   9
   7  -1   2 54.3406 24.2532   6
   7  -1  -2 33.6704 17.5287  24
   7  -1  -2 12.0893 13.4891  12
   8  -1   2 4174.81 185.024   9
   8  -1   2 3896.48 191.522  23
   8  -1  -2 3948.65 207.752  11
   8  -1  -2 4244.26 178.266  18
   8   1  -2 3613.22 209.319  12
   8   1  -2 4038.08 183.381   6
   8   1  -2 3863.86 195.415  14
   8   1  -2 3823.61 201.112  13
   8   1  -2 4090.08 221.822  11
   8  -1  -2 3765.43 179.646  23
   8  -1   2 3555.75 373.781   8
   8   1  -2 4174.24 218.809  15
   8  -1  -2 3494.92 178.003  15
   8   1   2 3767.84 157.833  29
   8  -1   2 3774.28 195.209   6
   8  -1  -2 3834.81 209.398  13
  -8  -1  -2 4020.13 455.430   1
   8   1   2 3979.48 208.891   6
   8   1   2 4094.28 187.396   9
   8  -1  -2 4259.13 184.824   6
   8   1  -2 3679.91 206.084   9
   9   1  -2 44.9340 26.1536  11
   9  -1   2 61.3620 26.8921   6
   9  -1  -2 106.599 36.4187  13
   9   1  -2 99.3687 31.3602   6
   9   1  -2 62.1947 26.2655  13
   9   1   2 29.3465 16.6727   9
   9  -1  -2 70.5694 22.5898  18
   9   1  -2 104.288 34.2565  14
   9  -1  -2 85.5667 28.0670   6
   9   1   2 73.8099 30.6925   6
   9  -1  -2 83.1197 27.4590  23
  10   1   2 2159.46 119.465   9
  10  -1   2 2427.28 138.916   6
  10   1  -2 2254.57 135.627  13
  10   1   2 2318.74 144.115   6
  10   1  -2 2739.50 144.051   6
  10  -1  -2 2231.26 150.885  13
  10  -1  -2 2198.32 135.927  14
  10   1  -2 2222.13 143.939  11
  10  -1  -2 2520.67 135.300   6
  10  -1   2 2107.99 126.258  13
  11  -1  -2 478.863 58.3599  13
  11   1  -2 500.016 56.0876  11
  11   1   2 476.090 53.7081   6
  11  -1   2 449.343 49.1899   6
  12   1   2-1.65044 3.68310   6
   0  -1  -3 4713.94 288.561   1
   0   1  -3 4246.62 272.300   5
   0  -1  -3 4009.54 304.403   5
   0   1  -3 4836.82 320.801  20
   0  -1  -3 4214.79 300.965   7
   0   1  -3 4495.59 339.024   7
  -1   1  -3 7642.79 342.117   5
  -1   1  -3 8276.40 423.846  20
  -1  -1  -3 7552.93 398.845   1
  -1   1  -3 7726.63 435.611   7
  -1  -1  -3 8161.01 421.886   7
   1   1  -3 8415.87 432.956  20
   1  -1  -3 8259.44 343.833   1
   1  -1  -3 8028.09 418.304   7
   1   1  -3 7579.77 441.964   7
   2   1  -3-12.0320 21.9234  20
  -2   1  -3-14.6356 26.6673   1
  -2  -1  -3 25.4781 32.8262   7
  -2   1  -3-12.0395 15.5118  20
  -2  -1  -3-14.2545 14.2424   1
   2  -1  -3-16.1239 29.3790   5
   2  -1  -3 25.6561 23.3737   7
  -2   1  -3 8.51740 15.5194   5
   3  -1  -3 190.783 81.5247  10
   3  -1  -3 53.2297 38.3382   7
  -3  -1  -3 79.0570 44.9150   7
  -3   1  -3 131.866 53.5038  20
   3   1  -3 168.700 64.0126  20
  -3   1  -3 81.0415 51.1524   1
  -4   1  -3 434.143 95.3953  20
   4   1  -3 511.311 103.517  20
   4   1  -3 365.624 134.592  10
  -4  -1  -3 492.793 134.894   1
  -4   1  -3 918.649 177.144   1
   4  -1  -3 426.213 132.979  10
  -4  -1  -3 625.128 122.564   7
   4  -1  -3 587.452 117.929   7
   5   1  -3 1320.35 271.706  10
   5  -1  -3 1134.29 96.0549  13
   5  -1  -3 1239.94 101.778  15
  -5  -1  -3 1280.41 234.998   1
   5   1  -3 1239.79 101.341  15
  -5   1  -3 1389.86 227.002   1
   5   1  -3 1370.71 89.8738   6
   5   1   3 1175.76 92.6326  30
   5  -1  -3 1298.05 254.790  10
   5   1  -3 1272.96 100.417  13
   5   1  -3 1125.83 99.8790  11
   5  -1  -3 1366.60 88.6203   6
   5  -1   3 1082.90 92.2851   6
   5   1   3 1164.43 98.8681   6
   5  -1  -3 1179.68 90.2859   9
   6  -1   3 356.570 51.2744  30
   6  -1  -3 425.556 66.4170  11
   6   1  -3 430.452 64.1631  13
   6  -1  -3 472.950 56.7524   6
   6   1  -3 222.359 126.330  10
   6  -1  -3 482.406 68.5629  12
   6  -1   3 339.218 50.1758  23
   6  -1  -3 391.379 61.8537  15
   6   1  -3 340.224 60.0631  12
   6  -1  -3 393.644 53.0645  18
   6   1  -3 434.928 63.9860  14
   6  -1   3 451.046 64.0691   6
   6  -1  -3 421.522 56.5151  24
  -6  -1  -3 359.657 133.371   1
   6  -1  -3 460.171 54.3057  23
   6  -1  -3 417.605 48.5454  21
   6  -1  -3 490.916 64.1702   9
   6  -1  -3 481.142 69.3033  13
   6   1  -3 466.462 64.7089   9
   6   1   3 411.572 64.1539   6
  -6   1  -3 449.621 139.719   1
   6   1  -3 538.301 61.2194   6
   6   1  -3 336.661 42.6745  22
   6  -1  -3 390.697 53.5143  25
   7   1  -3 1976.76 379.321  10
   7  -1  -3 1966.27 124.257  18
   7  -1  -3 2465.45 136.657   6
   7  -1  -3 2105.98 123.483  23
   7  -1   3 2143.20 128.576  30
   7  -1  -3 2005.29 141.482  15
  -7  -1  -3 2273.13 351.770   1
   7   1  -3 2151.44 146.876   9
   7  -1   3 2226.89 148.143   6
   7   1  -3 2030.00 152.198  15
   7   1  -3 2040.50 145.958  13
   7   1  -3 2210.63 150.301  14
   7   1  -3 2326.64 134.915   6
   7  -1  -3 3079.10 183.960  11
   7  -1  -3 2182.91 156.778  12
   7   1  -3 2138.77 156.938  12
   7  -1  -3 2211.55 154.391  13
   7   1   3 2380.08 160.647   6
   7   1  -3 2075.73 156.817  11
   7  -1   3 2157.93 306.525   8
   7  -1  -3 2327.73 149.350   9
   7  -1  -3 1880.31 124.046  24
  -7   1  -3 2546.79 334.486   1
   8  -1  -3 350.780 67.6413  12
   8  -1   3 431.338 138.694   8
   8   1  -3 436.864 76.0894  12
   8   1   3 352.690 65.8563   6
  -8  -1  -3 289.024 130.841   1
   8   1  -3 495.432 73.1674   9
   8   1  -3 312.289 63.8532  11
   8   1  -3 434.475 61.3041   6
   8  -1   3 360.037 62.8982   6
   8  -1  -3 313.155 57.3911  15
   8   1  -3 445.293 70.3742  13
   8   1  -3 388.984 65.0473  14
   8  -1  -3 432.920 72.9172  13
   8  -1  -3 425.281 72.0241  11
   8  -1  -3 334.174 51.2477  23
   8   1  -3 448.539 75.9629  15
   8  -1  -3 335.156 60.8154   9
   9   1   3 368.366 48.6075  29
   9   1  -3 343.880 59.2583  14
   9   1  -3 421.093 67.9182   9
   9  -1  -3 273.532 55.1011  14
   9   1  -3 409.284 72.6102  12
   9   1   3 387.208 66.8391   6
   9  -1  -3 334.955 55.6050  15
   9   1  -3 322.623 58.4462  13
   9  -1   3 378.193 62.0566   6
   9   1  -3 366.880 65.2978  11
  10  -1   3 21.3921 14.5843   6
  10   1   3 33.8887 19.7247   6
  10   1  -3 20.2671 15.9904  11
  10   1  -3 48.5515 21.2778  13
  10  -1  -3 14.0710 13.5127  14
  10   1  -3 28.5455 17.3374   9
  10  -1  -3 31.5544 22.4729  13
  11   1  -3 31.6221 14.6898   9
  11  -1   3 49.6729 16.1541   6
  11  -1  -3 65.7636 18.3447  14
  11  -1  -3 71.7588 22.0130  13
  11   1   3 63.5852 19.5056   6
   0  -1  -4 47747.6 1097.63   1
   0  -1  -4 46472.5 1219.83   5
   0   1  -4 49429.8 1100.32   5
   0   1  -4 44070.8 1252.04   7
   0  -1  -4 47626.1 1221.08   7
   0   1  -4 48154.6 1180.14  20
  -1  -1  -4 20696.3 798.921   5
  -1  -1  -4 19346.3 752.770   1
  -1   1  -4 19591.1 679.563   5
   1   1  -4 21290.2 798.794  20
  -1   1  -4 21157.9 785.958  20
  -1   1  -4 21388.2 866.039   7
   1  -1  -4 21073.6 817.749   7
   1   1  -4 20988.2 860.485   7
  -1  -1  -4 21463.7 828.333   7
   1  -1  -4 19531.6 815.534   5
   2   1  -4 49.2521 42.3045  20
  -2  -1  -4 114.763 69.7024   1
  -2   1  -4 115.500 63.7759  20
  -2  -1  -4 92.5117 63.0709   7
  -2   1  -4 90.8157 50.1461   5
   2   1  -4 82.3285 59.2964   7
   2  -1  -4 111.820 63.5286   7
  -3  -1  -4 3141.11 353.479   1
   3   1  -4 3198.27 309.851  20
  -3  -1  -4 3581.00 340.830   7
  -3   1  -4 2660.99 255.430   5
   3  -1  -4 3141.24 365.876  10
   3  -1  -4 3442.87 337.969   7
  -3   1  -4 3541.85 318.925  20
   4  -1  -4 1910.15 309.742  10
   4  -1   4 1847.77 122.822   6
   4  -1   4 1873.79 114.691  30
   4  -1  -4 1875.01 119.574  13
   4   1  -4 1719.68 321.688  10
   4   1  -4 1689.91 115.451  14
   4   1  -4 1763.16 122.700  15
  -4  -1  -4 1850.50 247.109   7
   4   1  -4 1826.64 122.476  13
   4  -1  -4 1767.50 243.787   7
   4   1   4 1836.38 127.982   6
   4  -1  -4 1886.84 123.986  11
   4  -1  -4 1806.32 108.345  25
  -4   1  -4 1886.82 285.368   1
   4   1  -4 1644.91 109.370  17
   4  -1  -4 1762.37 102.866  21
   4   1  -4 1862.45 121.910  11
   4   1  -4 1769.99 103.414  22
   5   1  -4 334.603 49.6824   9
   5   1  -4 324.239 47.5186  16
   5   1  -4 240.453 49.1651  11
  -5  -1  -4 264.137 119.575   1
   5   1  -4 343.472 155.490  10
   5  -1  -4 389.426 51.0201  21
   5  -1  -4 202.660 115.138  10
   5   1   4 308.665 56.7176   6
   5  -1  -4 372.060 52.5321   9
   5  -1  -4 387.643 52.2555  17
   5   1  -4 281.306 46.2719  17
   5  -1  -4 354.268 49.9871  24
   5   1  -4 276.245 51.0540  14
   5  -1   4 375.383 55.3723  30
   5   1  -4 366.093 61.5740  15
   5  -1  -4 292.077 46.5568  25
   5  -1   4 438.454 64.2986   6
  -5   1  -4 292.325 118.609   1
   5   1  -4 337.628 47.3876  22
   5  -1  -4 391.744 61.9114  11
   5  -1  -4 325.248 55.6514  13
   5  -1  -4 284.707 55.6350  15
   5   1   4 377.748 57.6348  30
   6  -1   4 610.469 78.6200   6
   6   1  -4 650.327 84.7673  11
   6   1  -4 343.146 165.792  10
  -6  -1  -4 518.886 172.278   1
   6   1   4 657.279 85.5064   6
   6  -1  -4 651.782 209.577  10
   6  -1  -4 494.974 71.6229  13
   6  -1  -4 601.482 68.7167  25
   6   1  -4 504.846 66.5772   9
   6  -1  -4 572.987 81.7668  15
   6  -1  -4 568.427 77.9966  12
   6   1  -4 672.365 86.1022  15
   6   1  -4 612.938 81.1412  13
   6  -1  -4 574.296 79.9589  11
   6  -1   4 533.995 69.6977  30
   6  -1  -4 647.894 70.1721  24
   6  -1  -4 566.433 70.1273   9
   6  -1  -4 612.767 64.5248  21
   6   1  -4 607.724 63.6728  22
   7  -1  -4 1026.98 109.021  15
   7  -1   4 1015.75 96.3254  30
   7  -1  -4 1068.64 89.9577  24
   7   1  -4 1042.54 116.238  12
   7  -1  -4 1151.22 114.180  13
   7  -1   4 1011.85 103.995   6
   7   1  -4 1388.47 125.972  13
   7   1  -4 1194.30 119.158  11
   7  -1   4 1068.97 228.865   8
   7   1  -4 1005.89 109.799  15
   7   1  -4 1518.89 350.833  10
   7   1  -4 1082.07 83.0009  21
   7  -1  -4 994.730 107.737  12
   7  -1  -4 1169.70 105.634   9
   7   1  -4 1176.74 105.541   9
   7   1  -4 1169.14 113.379  14
   7   1   4 1130.68 117.172   6
  -7  -1  -4 1294.94 274.190   1
   8   1  -4 3324.35 179.190   9
   8   1  -4 2983.06 195.486  12
  -8  -1  -4 2796.93 406.983   1
   8  -1   4 2969.26 178.555   6
   8  -1  -4 2894.47 177.232  15
   8  -1  -4 3030.18 184.884  13
   8   1   4 3417.67 199.230   6
   8  -1   4 3204.20 386.311   8
   8   1  -4 3347.44 190.496  14
   8   1  -4 3187.67 187.803  13
   8  -1  -4 3398.91 199.102  12
   9   1   4 11.3406 10.8907  29
   9   1   4 23.3541 19.9024   6
   9   1  -4 9.77326 10.9049   9
   9  -1  -4 11.6583 15.0207  13
   9   1  -4 21.1067 19.2291  14
   9   1  -4 38.0811 23.2467  13
   9  -1  -4 16.8691 17.7460  14
   9  -1  -4 15.8015 15.1745  15
   9   1  -4 11.8630 15.2844  11
   9   1  -4 6.50996 14.5275  12
   9  -1   4 15.9088 13.6646   6
  10   1   4 2777.28 141.264   6
  10  -1  -4 2720.04 140.688  14
  10   1  -4 2910.85 150.315  11
  10  -1   4 2893.13 136.125   6
  10   1  -4 2704.94 130.593   9
  11  -1  -4 17.4307 9.31054  14
  11   1   4 19.6189 9.72918   6
  11  -1   4 1.86803 4.81357   6
   0   1  -5 2312.70 304.060  20
   0   1  -5 2253.10 132.308  17
   0  -1  -5 1950.53 293.737   5
   0   1  -5 2216.68 322.790   7
   0  -1  -5 2106.82 305.043   7
  -1   1  -5 295.942 124.979   7
  -1  -1  -5 305.835 118.394   7
   1  -1  -5 323.323 44.3161  21
   1   1  -5 258.613 100.114  20
  -1   1  -5 349.010 119.236  20
  -1   1  -5 151.326 73.1137   5
   1   1  -5 240.461 108.857   7
   1   1  -5 213.056 42.7004  17
  -1  -1  -5 224.166 101.480   5
  -1  -1  -5 266.807 103.286   1
   1  -1  -5 186.082 96.8736   5
  -1   1  -5 280.777 46.6111  17
   1  -1  -5 253.370 108.269   7
   1   1  -5 248.121 40.0741  22
   2   1   5 17.3398 13.6809  30
   2   1  -5 26.6089 14.6928  14
  -2  -1  -5 25.5892 32.9693   7
   2  -1  -5 51.6650 57.6475   7
  -2   1  -5 18.0172 32.8289   5
   2  -1  -5 56.7052 63.2713   5
   2   1  -5 18.8806 12.8721  22
  -2  -1  -5 75.6696 56.2878   5
  -2   1  -5 37.7892 17.9422  17
   2  -1  -5 14.9428 11.7896  21
   2   1  -5 4.47047 8.14557  15
   2   1  -5 39.8256 20.2827  17
  -2   1  -5 21.5941 48.1892  20
  -2  -1  -5-24.6827 31.8013   1
   2   1  -5 63.9194 54.9028  20
   3  -1  -5 2034.99 121.499  13
  -3  -1  -5 2592.61 351.784   1
   3   1  -5 2175.22 139.664  17
   3   1  -5 1966.85 123.953  14
   3  -1  -5 2283.26 322.560   7
   3   1  -5 2258.04 140.862  15
  -3  -1  -5 2250.14 321.101   7
   3   1   5 2319.01 140.158  30
   3  -1  -5 2128.15 334.448  10
   3   1  -5 2119.46 122.284  11
   3  -1   5 2010.98 124.226  30
   4   1  -5 129.891 32.0457  22
   4   1   5 152.890 41.6937   6
   4  -1  -5 237.007 123.385  10
   4   1  -5 77.5630 28.2653  14
   4   1  -5 63.3238 26.7423  15
   4  -1   5 93.7530 32.0299   6
   4   1  -5 100.476 31.2229  17
   4  -1  -5 116.649 31.9762  21
  -4  -1  -5 50.8792 56.7707   7
   4   1   5 121.798 35.4527  30
   4   1  -5 156.072 40.4315  13
   4   1  -5 122.475 33.9907  11
   4   1  -5 109.471 30.5367  16
   4  -1  -5 91.6302 29.1440  13
   4  -1  -5 127.832 80.6858   7
   5  -1  -5 72.0772 25.2993  21
   5   1  -5 50.3793 23.9199  11
   5  -1   5 45.0934 23.4754   6
   5   1   5 68.3563 30.5086   6
   5   1  -5 53.9300 26.7444  13
   5   1  -5 40.3369 22.2730  14
   5  -1  -5 44.7668 21.2551  17
   5   1  -5 49.8339 21.0454  16
   5  -1  -5 27.8509 20.2986  13
   5   1  -5 50.5672 27.0103  15
   5  -1   5 49.5680 22.4394  30
  -5  -1  -5 137.294 98.8848   1
   5  -1  -5 37.4411 68.2208  10
   5   1  -5 36.1707 18.8303  17
   5  -1  -5 114.221 31.8618  25
   5   1  -5 50.1549 21.1810  22
   6  -1  -5 1154.00 120.088  15
   6  -1  -5 597.599 205.320  10
   6   1   5 1103.53 116.752   6
   6  -1  -5 1045.62 90.8232  21
   6  -1  -5 951.663 88.8802  25
   6   1  -5 867.489 102.882  15
   6  -1  -5 939.555 101.502  12
   6   1  -5 841.221 77.9544   9
   6   1  -5 1157.15 113.211  13
  -6  -1  -5 974.273 250.362   1
   6   1  -5 1093.62 92.6110  22
   6  -1   5 1066.92 103.787  30
   6  -1  -5 1258.76 115.123  13
   6   1  -5 859.930 96.2372  11
   6   1  -5 966.479 102.533  14
   6  -1   5 940.849 103.852   6
  -7  -1  -5 2574.14 403.810   1
   7  -1  -5 2992.30 183.213  14
   7   1   5 3300.74 200.971   6
   7   1  -5 2980.74 190.087  15
   7  -1  -5 2890.25 189.989  15
   7  -1   5 3105.68 399.281   8
   7  -1   5 3149.19 174.798  30
   7   1  -5 2759.83 143.805   9
   7   1  -5 3340.88 192.019  11
   7  -1   5 2898.64 180.163   6
   7  -1  -5 3234.49 186.256  13
   7   1  -5 3262.53 188.920  14
   7   1  -5 3125.77 147.053  21
   7  -1  -5 2838.80 176.893  12
   8  -1  -5 626.108 79.9988  13
   8   1  -5 517.672 61.2759   9
   8   1  -5 536.917 78.0612  15
   8  -1  -5 523.660 75.1200  14
   8   1   5 583.739 81.9859   6
   8  -1  -5 454.183 71.6076  15
   8  -1  -5 459.427 68.1624  12
   8  -1   5 588.616 78.0325   6
   8   1  -5 514.470 75.8074  11
   8   1  -5 610.114 80.2142  13
   9  -1   5 4.52862 10.1060   6
   9  -1  -5 18.6601 14.7226  13
   9   1  -5 4.85507 10.8345  11
   9   1   5 13.5201 11.5218  29
   9  -1  -5 4.69899 8.56196  15
   9   1   5 9.62372 13.8628   6
  10  -1   5 81.8917 20.2036   6
  10  -1  -5 78.9009 22.2718  14
  10   1   5 79.5190 20.7836   6
  10  -1  -5 59.9808 19.9259  13
   0  -1  -6 19.7675 13.4767  21
   0   1  -6 39.5258 21.8251  17
   0  -1  -6 32.8251 59.8100   5
   0   1  -6 16.0327 12.6495  22
   0  -1   6 29.7139 16.4072  30
   0  -1  -6-33.4780 33.3642   7
   1   1   6 294.480 48.7789  30
  -1  -1  -6 200.646 113.994   7
   1  -1   6 209.436 41.0624  30
   1   1  -6 238.738 50.8826  17
   1  -1  -6 236.083 122.904   5
  -1  -1  -6 256.511 123.934   5
   1  -1  -6 399.042 154.476   7
  -1   1  -6 250.167 40.4543  22
   1  -1  -6 184.994 38.4028  21
  -1   1  -6 287.707 54.1755  17
   1   1  -6 276.399 46.5542  22
  -1  -1   6 211.717 38.4707  30
  -1  -1  -6 264.174 41.7028  21
  -2  -1  -6 1698.06 308.551   5
   2  -1  -6 2086.22 131.137  21
   2   1  -6 2037.79 127.053  22
   2   1  -6 2071.94 136.282  15
  -2  -1  -6 2306.82 365.245   7
   2  -1  -6 1899.47 332.573   7
   2  -1   6 2135.43 133.862  30
  -2   1  -6 1908.08 129.477  17
   2   1   6 2240.33 140.075  30
  -2  -1  -6 1921.37 95.3778  32
   3   1  -6 190.348 40.6694  22
   3  -1  -6 186.006 41.8335  21
  -3  -1  -6 159.645 91.9867   7
   3  -1  -6 198.702 48.0017  17
  -3  -1  -6 93.7337 80.5115   5
   3   1  -6 208.064 47.0954  15
   3  -1  -6 212.336 111.687  10
   3  -1  -6 131.700 94.8559   7
  -3  -1  -6 172.285 31.0916  32
   3  -1   6 132.552 36.7874  30
   3   1   6 183.074 44.0613  30
   3  -1  -6 151.331 34.8820  14
  -3  -1  -6 162.389 102.498   1
   3   1  -6 179.687 40.5501  14
   3   1  -6 172.913 45.7068  17
   4  -1  -6 4339.47 197.426  14
   4   1   6 4314.17 225.189   6
   4   1  -6 4209.02 213.092  17
   4   1  -6 4742.57 203.024  16
   4   1  -6 4801.85 216.349  14
   4  -1  -6 5191.02 234.605  17
   4   1  -6 4752.70 203.702  22
  -4  -1  -6 4405.72 488.100   5
   4   1  -6 4244.15 215.659  15
  -4  -1  -6 4062.17 465.776   7
   4  -1  -6 4772.32 239.607  15
   4  -1   6 4764.49 218.732  30
   4  -1   6 4485.61 230.898   6
  -4  -1  -6 4418.16 522.969   1
   4  -1  -6 4580.80 494.993   7
   4  -1  -6 4485.07 201.713  21
   4  -1  -6 3839.02 501.609  10
   4   1   6 4724.41 219.542  30
   4   1  -6 4539.08 192.321  11
   4  -1  -6 4770.33 202.722  25
   4  -1  -6 4656.71 200.634  13
   4   1  -6 4257.64 580.932  10
   5  -1  -6 81.2686 29.6157  13
   5  -1  -6 116.000 99.6372  10
   5   1  -6 47.5246 61.2311  10
   5   1  -6 75.0598 28.8326  22
   5   1  -6 70.6865 29.3937  14
   5   1  -6 65.2367 29.1163  15
   5  -1  -6 67.3405 27.0528  17
   5   1  -6 64.8606 23.8763  16
   5   1  -6 68.0305 26.1132  11
  -5  -1  -6 31.0218 69.2278   5
   5   1   6 49.5136 27.3402   6
   5  -1   6 133.795 42.5549   6
   5  -1   6 71.8564 28.8670  30
   5  -1  -6 110.520 33.0034  21
   5  -1  -6 84.0582 29.7692  14
   5  -1  -6 82.3827 27.2156  25
   5  -1  -6 72.7497 32.4694  15
   6   1  -6 35.5471 21.5899  14
   6  -1  -6 38.6399 21.3360  13
   6   1  -6 32.4537 18.8894  21
   6   1   6 13.6459 17.5815   6
   6  -1  -6 41.4394 19.6753  17
   6  -1  -6 35.5175 20.1787  12
   6  -1  -6 69.9643 25.4962  21
   6  -1   6 26.8049 21.1487   6
   6  -1   6 40.8977 22.5827  30
   6   1  -6 38.8533 23.5980  15
   6  -1  -6 34.5133 22.2336  14
   6   1  -6 32.4852 19.7303  11
   6  -1  -6 43.6821 19.4961  25
   7   1  -6 12.0132 13.4042  15
   7   1  -6 22.1493 18.8757  14
   7   1   6 12.1214 15.6173   6
   7   1  -6 13.2872 17.1193  12
   7  -1   6 29.8460 20.3478   6
   7  -1  -6 12.7163 14.1888  15
   7  -1  -6 36.8895 20.3695  12
   7  -1  -6 20.5867 17.5440  13
   7   1  -6 3.79302 6.91119  21
   7   1  -6 41.4057 21.0874  11
   7  -1  -6 10.9273 15.7406  14
   7  -1   6 15.3125 14.7049  30
   8  -1  -6 1096.66 98.7966  15
   8  -1  -6 1038.11 89.8610  13
   8   1  -6 1205.90 103.446  15
   8  -1  -6 1133.97 96.5502  14
   8  -1  -6 894.050 80.9393  12
   8   1  -6 1002.52 98.2441  12
   8  -1   6 997.642 92.0748   6
   8   1   6 1067.84 94.8596   6
   9  -1   6 65.4624 20.0815   6
   9   1   6 85.6141 23.9994   6
   9   1   6 65.3986 17.3756  29
  -9  -1  -6 71.6365 16.2933  32
   9  -1  -6 48.0907 18.2478  15
   9   1  -6 42.6128 19.3306  12
   9  -1  -6 80.3899 22.8361  14
   0   1  -7 909.364 84.0171  22
   0  -1   7 1077.55 95.9125  30
   0   1  -7 1173.49 115.372  17
   0  -1  -7 1284.52 122.777  17
   0  -1  -7 1018.13 261.633   5
   0  -1  -7 1154.14 94.4605  21
   0  -1  -7 1109.68 279.674   7
   1   1  -7 484.898 64.8752  22
  -1   1  -7 462.240 57.1010  21
   1  -1  -7 521.372 67.2775  21
   1  -1  -7 351.412 159.084   7
   1  -1  -7 568.188 83.1356  17
  -1  -1  -7 453.517 56.5424  21
  -1   1  -7 510.197 75.0595  17
   1   1  -7 486.537 76.2396  17
  -1  -1  -7 472.916 73.6463  17
  -1  -1  -7 219.894 124.930   5
   1  -1   7 425.868 63.4798  30
   1   1   7 403.302 58.9531  30
  -1  -1  -7 275.112 151.910   7
  -2  -1  -7 715.577 222.365   7
   2   1  -7 678.355 77.9166  22
   2  -1  -7 630.492 76.7352  21
  -2   1  -7 638.187 78.9322  17
  -2  -1  -7 492.726 175.621   5
   2   1  -7 696.824 79.8709  15
   2  -1   7 682.757 80.8531  30
   2   1   7 640.860 78.1502  30
   2  -1  -7 646.841 213.687   7
   2  -1  -7 848.782 232.931  10
  -2  -1  -7 668.806 83.4889  17
  -3  -1  -7 33.6838 43.3985   5
   3  -1  -7 36.3761 46.8672   7
   3  -1  -7 120.085 39.6707  15
   3   1  -7 90.8864 30.5134  22
   3  -1  -7 125.329 34.9603  21
   3   1  -7-45.8492 45.1582  10
   3   1  -7 73.9517 28.3860  15
   3  -1  -7 74.8260 68.1696  10
   3  -1   7 96.5686 33.5390  30
   3   1  -7 65.9161 30.6208  17
   3   1  -7 80.6583 28.5651  16
  -3  -1  -7 86.8854 29.4487  17
   3  -1  -7 80.6364 33.5312  17
  -3  -1  -7 105.750 90.8328   7
   3   1   7 73.9188 30.2057  30
   4   1   7 13.3650 17.2196   6
   4   1  -7 6.21042 11.3159  17
   4   1  -7 9.56653 13.7804  16
   4   1  -7 5.90224 10.7544  15
   4  -1  -7-7.05823 9.09388  15
   4   1  -7-45.6411 44.7321  10
  -4  -1  -7 19.3077 10.6612  32
   4  -1   7 23.1331 16.6614  30
   4  -1   7 6.84637 12.4747   6
   4  -1  -7 6.29027 16.2089  17
   4  -1  -7 8.60932 9.60622  14
   4  -1  -7 18.5068 14.6016  25
   5   1   7 1033.09 107.094   6
   5  -1  -7 1092.39 92.8724  14
   5  -1  -7 942.284 93.3142  12
   5   1  -7 1232.61 102.119  21
   5  -1  -7 1126.46 102.717  17
   5  -1  -7 1157.19 88.9153  25
   5   1  -7 1056.48 103.901  15
   5  -1  -7 1080.31 113.381  15
   5  -1  -7 1127.87 99.4357  21
  -5  -1  -7 1089.98 71.5772  32
   5  -1   7 1247.96 117.818   6
   6  -1   7 150.678 37.1739  30
   6  -1  -7 124.311 31.7264  14
   6   1  -7 149.937 39.6335  15
   6   1  -7 146.443 33.5591  21
   6  -1  -7 96.5791 29.0284  12
   6   1   7 166.000 42.1769   6
   6   1  -7 96.9128 34.0166  12
   6  -1  -7 154.792 42.0135  15
  -6  -1  -7 137.744 25.5501  32
   6  -1   7 173.800 42.7343   6
   7  -1   7 4.44393 8.09721   6
   7   1   7-4.43290 11.4228   6
   7   1  -7 5.93885 7.65166  21
   7   1  -7 9.04068 14.2659  15
   7  -1  -7-3.65193 9.41034  14
   7   1  -7-4.90692 8.94081  12
   8   1   7 149.675 26.8955  29
   8  -1   7 149.909 28.6478   6
   8   1   7 167.398 30.9375   6
   8  -1  -7 184.165 34.0363  15
   8   1  -7 161.006 32.2049  12
   0   1  -8 400.528 53.8302  21
   0  -1  -8 311.825 61.3567  17
   0  -1   8 427.654 59.8905  30
   0   1  -8 433.004 69.8393  17
   1   1  -8-4.34165 11.1876  21
   1  -1  -8 44.1402 19.7005  21
   1   1  -8-12.4922 16.0950  17
  -1  -1  -8 5.97251 13.3282  17
   1  -1  -8-5.80775 10.5822  15
  -1   1  -8-5.61770 10.2359  17
   1  -1   8-4.87600 12.5646  30
   1  -1  -8-6.42645 11.7095  17
  -1   1  -8 3.32823 8.57623  21
   2  -1  -8 248.835 46.7484  21
  -2  -1  -8 197.628 43.9393  17
   2  -1  -8 168.562 43.8763  15
   2   1  -8 215.304 49.4959  17
   2   1  -8 196.812 41.1564  21
   2   1  -8 179.701 42.3572  16
   2  -1   8 203.461 43.3639  30
   3   1  -8 25.5042 14.4898  15
   3  -1  -8 13.5212 15.3637  21
   3   1  -8 39.4480 19.5626  21
   3  -1   8 39.4025 21.0467  30
   3  -1   8 17.6688 16.9677   6
   3   1   8 23.8121 18.7874   6
  -3  -1  -8 33.0095 16.8113  17
   3  -1  -8 16.1584 12.7487  25
   3   1  -8 21.9150 15.9724  16
   3  -1  -8 23.5918 24.0301  17
   3  -1  -8 17.9520 17.2397  15
   4   1  -8 517.148 62.1208  21
   4  -1  -8 432.611 63.2983  17
   4  -1  -8 365.837 61.1023  15
   4  -1   8 381.503 62.0155   6
   4  -1   8 472.915 63.9048  30
   4   1  -8 390.793 54.1784  15
   4   1   8 473.196 69.0968   6
   5   1   8 61.1553 24.2440   6
   5  -1  -8 58.7666 21.4155  17
   5  -1   8 64.2507 24.0556  30
   5   1  -8 64.9563 22.2980  21
   5   1  -8 70.8623 23.2437  15
   5  -1   8 101.856 29.8256   6
   5  -1  -8 83.8848 29.1338  15
   6  -1   8 149.133 32.0241   6
   6   1  -8 199.088 32.9139  21
   6   1   8 135.996 30.3228   6
   6   1  -8 121.816 27.1610  15
   6  -1  -8 157.973 33.7522  15
   6   1  -8 115.382 30.3269  12
   7   1   8 47.5697 15.1301   6
   7  -1  -8 74.6041 19.4990  15
   7   1  -8 34.8843 13.3901  12
   7  -1   8 51.7477 15.0625   6
   0   1  -9 53.6669 15.6212  21
   0  -1  -9 59.0720 23.4181  17
   1   1  -9 79.1252 20.5961  21
   1  -1   9 77.4413 21.4924  30
   1  -1  -9 82.9708 27.8559  17
   1   1  -9 84.3786 25.1971  16
  -1  -1  -9 77.3281 24.5951  17
   1  -1  -9 69.9194 21.6016  15
   2  -1   9 19.3591 11.7580  30
   2   1  -9 20.9002 13.3259  21
   2  -1   9 26.5339 16.1157   6
   2   1   9 9.17926 11.8266   6
   2   1  -9 9.69619 9.31147  16
   2  -1  -9 18.0089 13.1255  15
  -2  -1  -9 9.53670 9.15831  17
   3  -1   9 62.6954 23.1355   6
   3   1  -9 48.7967 17.3463  21
   3   1   9 62.0102 23.2168   6
   3  -1  -9 69.2654 22.7199  17
   3  -1  -9 61.8740 20.2955  15
   4   1   9-3.41377 7.61812   6
   4   1  -9 12.6253 9.20176  21
   4  -1  -9 9.00984 8.65235  15
   4   1   9 4.44299 6.40005  29
   4  -1   9-3.15266 7.03544   6
   4   1  -9 6.85304 9.87169  12
   5   1   9 47.4517 15.4317   6
   5   1   9 25.2196 9.84690  29
   5  -1   9 26.5355 11.0343   6
   5   1  -9 36.7412 13.7560  12
   5  -1  -9 29.9266 11.8639  15
   0  -1  10 78.3068 18.2312   6
   0   1  10 101.418 21.2080   6
   1   1  10 2.19754 5.66267   6
  -1  -1  10 2.10668 5.42853   6
  -1   1 -10-1.73101 3.86289  16
  -1   1  10 2.17798 6.27468   6
   0  -2   0 61758.7 1112.98   2
   0  -2   0 62678.7 925.917   8
   1   2   0-4.83305 4.75930  10
   1  -2   0 3.15840 4.06931   5
  -1  -2   0-11.5023 20.9582   2
   1  -2   0-11.4261 14.7215   2
   1  -2   0-9.24435 9.22407   8
  -2  -2   0 88041.0 1343.47   2
   2   2   0 91492.1 1177.41  10
   3   2   0 12.9915 16.7384  10
   3  -2   0 11.2585 14.5055   2
  -3  -2   0 11.2669 14.5163   2
  -4  -2   0 8420.76 393.622   2
   4  -2   0 8215.83 448.698   8
   4  -2   0 7992.41 382.227   2
  -5  -2   0-21.9534 21.9224   1
   5  -2   0-16.5479 21.3205   8
   6  -2   0 13763.5 318.289  23
   6  -2   0 13025.8 316.083  24
   6   2   0 14461.4 358.992   9
   6   2   0 13246.1 301.087   6
   6   2   0 14579.5 350.514  19
   6  -2   0 14098.7 672.918   8
   6  -2   0 14683.5 329.888   9
  -6  -2   0 14905.5 817.631   1
   6  -2   0 14968.5 304.807   6
   7   2   0-4.68824 8.54236   6
   7   2   0 6.03754 11.0009  19
   7  -2   0 20.4447 26.3412   8
  -7  -2   0-29.2310 28.9820   1
   7  -2   0-4.23846 7.72283   6
   7   2   0 6.09346 7.85087   9
   7   2   0 5.76105 7.42258  11
   8   2   0 7088.58 282.804   9
  -8  -2   0 7138.12 603.379   1
   8   2   0 6989.06 273.591  11
   8   2   0 6770.35 242.336   6
   8  -2   0 6539.56 228.400   6
   9   2   0-4.93233 11.0069   6
   9   2   0 6.44830 8.30804   9
   9   2   0-5.83577 10.6333  11
   9  -2   0 8.99200 10.0332   6
  10   2   0 1426.22 115.018   9
  10  -2   0 1405.01 118.123  13
  10  -2   0 1465.67 98.4149  18
  10  -2   0 1589.84 117.428  23
  10   2   0 1570.55 111.089  11
  10  -2   0 1428.51 95.0475   6
  10   2   0 1584.06 105.975   6
  11  -2   0-3.89399 7.09518  13
  11   2   0-2.72685 4.96855   6
  11   2   0-3.66025 6.66928   9
   0   2   1 21456.6 609.049  31
   0  -2   1 22436.3 568.325   8
   0  -2  -1 23425.6 539.235   1
   1  -2  -1 1629.60 186.443   2
  -1  -2   1 1607.75 133.657   8
  -1  -2  -1 1562.39 185.815   2
   1  -2  -1 1612.44 141.631   5
   1  -2  -1 1789.34 119.183   1
  -1   2   1 1531.96 164.254  31
   1  -2   1 2030.76 180.458   8
   1   2   1 1630.98 168.043  31
  -1  -2  -1 1627.11 167.064   1
   2  -2  -1 4041.86 294.753   2
   2  -2  -1 4072.01 229.596   5
  -2   2   1 4180.57 270.127  31
   2   2  -1 4451.54 299.312  10
  -2  -2  -1 4259.50 306.628   2
   2  -2  -1 3904.19 263.808   8
   2  -2   1 4431.07 293.372   8
  -2  -2  -1 4318.00 305.042   1
   2   2   1 4196.49 271.076  31
  -3  -2  -1 263.551 75.6137   2
   3   2  -1 404.684 106.115  10
   3  -2   1 392.981 95.4726   2
   3  -2  -1 287.012 81.5308   2
   3  -2  -1 413.141 93.7508   8
  -3  -2   1 301.327 89.9819   2
  -4  -2  -1 75.0540 48.3501   1
   4  -2  -1 13.3572 17.2095   8
   4  -2   1 30.6084 34.1527   8
  -4  -2   1 12.5469 16.1655   2
   4  -2   1 48.4114 34.8679   2
   5  -2  -1 8451.09 466.283   8
  -5  -2  -1 9007.99 592.615   1
   5  -2   1 9355.33 535.674   8
   5   2  -1 8672.86 616.542  10
   6   2  -1 6939.49 215.491  13
   6  -2   1 6446.32 219.978  23
   6  -2  -1 6902.81 233.670  23
   6  -2  -1 6448.33 193.035   6
   6  -2  -1 7201.35 240.976   9
   6   2   1 6845.90 245.455   9
   6   2   1 7008.36 210.397  29
   6  -2  -1 6138.09 413.888   8
   6  -2   1 6632.18 488.324   8
  -6  -2  -1 6402.32 543.523   1
   6  -2  -1 7195.38 235.451  24
   6   2   1 6580.08 224.774   6
   6  -2   1 6444.33 225.422  24
   6   2  -1 7420.98 230.783  14
   6   2  -1 6782.53 242.269  12
  -6  -2   1 6480.74 531.790   1
   6   2  -1 6634.64 206.268   6
   6  -2   1 6244.93 208.982   6
   6   2  -1 6770.87 243.781  19
   6   2   1 6751.15 242.768  19
   7   2  -1 24.8204 17.8767  11
   7  -2  -1 31.8971 15.4112   6
   7   2  -1 43.2594 19.3074   6
   7  -2  -1 26.4451 18.0293  23
   7  -2   1 25.6680 16.2013  23
   7  -2   1 42.3591 19.1760   6
  -7  -2   1-27.5447 27.2409   1
   7   2   1 36.2374 18.8650   6
   7   2  -1 31.5323 16.4156  14
   7   2  -1 61.9828 26.4863   9
   7   2   1 35.8008 21.7440   9
   7   2   1 42.9851 21.8918  11
  -7  -2  -1 30.3648 55.3272   1
   7  -2   1 71.1449 52.9220   8
   7  -2  -1 36.6082 20.2141  24
   7   2   1 43.7622 18.4813  29
   7   2  -1 35.1184 17.8854  13
   7   2  -1 35.3550 21.4733  19
   7   2  -1 29.8668 20.3620  12
   8   2  -1 5889.84 215.471  13
   8   2  -1 5801.66 220.699   6
   8  -2  -1 5471.00 234.039  23
   8   2   1 5628.75 229.597   6
   8   2   1 5620.82 247.951   9
   8   2  -1 5915.84 258.756   9
   8  -2   1 5663.37 235.223  23
   8  -2  -1 5724.38 224.839  18
  -8  -2  -1 5824.49 565.124   1
   8  -2  -1 6101.11 212.138   6
   8  -2   1 5142.88 209.195   6
   8  -2   1 5260.89 461.028   8
  -8  -2   1 6223.09 544.668   1
   8   2  -1 5405.34 250.921  11
   8  -2  -1 5634.53 236.795  24
   8   2   1 5245.67 227.605  11
   9  -2  -1 2890.12 166.640  23
   9   2   1 2774.47 170.462   9
   9   2  -1 2611.95 172.650   9
   9  -2   1 2791.76 164.284  23
   9  -2  -1 2761.70 152.386  18
   9  -2  -1 2888.53 146.729   6
   9  -2  -1 2785.72 179.457  13
   9  -2   1 2763.29 149.625   6
   9   2  -1 2900.48 153.454   6
   9   2  -1 2597.49 168.703  11
   9   2   1 2892.23 159.389  11
   9   2   1 2676.70 155.191   6
  10   2   1 1233.13 102.166   9
  10   2  -1 1377.60 113.521   9
  10   2  -1 1036.89 96.5557  11
  10   2  -1 1356.79 95.9425   6
  10  -2  -1 1141.04 85.6112  18
  10   2   1 1062.06 87.1637   6
  10  -2   1 1247.23 88.9726   6
  10  -2  -1 1277.52 102.953  23
  10  -2  -1 1088.18 105.271  13
  10  -2   1 1200.88 105.886  13
  10  -2  -1 1242.83 88.6960   6
  11  -2   1 23.8653 10.4590   6
  11   2   1 43.7567 15.9457   9
  11   2   1 42.8486 15.0400   6
  11  -2  -1 31.2507 16.6924  13
  11  -2   1 27.5619 14.7221  13
  11   2  -1 17.7420 10.7758  11
  11   2  -1 33.7745 16.7491   9
   0  -2  -2 3014.93 121.964  10
   0   2   2 2602.68 226.936  31
   0  -2   2 2874.84 206.258   8
   0  -2  -2 2768.45 200.473   1
   1  -2  -2 7499.89 383.919   5
   1  -2   2 7223.58 354.331   8
   1   2   2 6997.01 372.162  31
  -1  -2  -2 7548.94 380.353   1
  -1   2   2 7047.90 378.846  31
   1  -2  -2 7047.72 248.307  10
   1  -2  -2 7130.84 254.579   1
  -1  -2   2 7796.37 311.146   8
   2  -2  -2 3947.43 246.788  10
  -2  -2   2 3501.66 154.796   8
   2  -2  -2 4327.05 304.922   5
   2  -2   2 4003.74 294.046   8
  -2  -2  -2 4002.52 312.976   1
   2   2   2 3960.87 289.151  31
  -2   2   2 4092.09 290.834  31
  -3   2  -2 12.1373 15.6377  20
   3   2   2-12.4467 12.3742  31
  -3  -2  -2 17.3582 22.3645   1
   3  -2   2 14.4105 18.5666   8
   3   2  -2-18.7127 18.6624  10
  -3   2   2-12.2396 12.1690  31
   4   2  -2 32352.1 816.031  20
  -4   2  -2 31105.5 810.798  20
   4  -2   2 32818.5 982.593   8
  -4  -2  -2 33210.7 829.048   7
   4   2  -2 31708.9 1105.37  10
  -4   2   2 31849.1 827.574  31
   4   2   2 33478.1 843.169  31
   5  -2  -2 76.5404 23.7848  24
   5   2  -2-28.2791 28.1944  10
  -5  -2  -2 97.4604 62.7843   1
   5   2   2 65.4185 23.1679  19
   5   2  -2 70.2503 24.0004  19
   5   2  -2 52.0246 21.9705   9
   5  -2  -2 41.6558 17.5917  18
   5   2  -2 44.2981 18.7076  16
   5  -2   2 40.3224 44.9914   8
   5   2  -2 46.1271 20.5873  15
   5   2  -2 64.5243 23.7525  12
   5   2  -2 73.6391 24.9590  14
   5  -2  -2 55.8084 21.1763  25
   6  -2  -2 55.7997 19.5858   6
  -6  -2  -2 56.4185 51.3996   1
   6  -2  -2 75.9641 25.9524  24
   6   2  -2 87.5852 24.8801   6
   6   2  -2 67.2223 75.0062  10
   6  -2  -2 184.965 39.5192  23
   6  -2  -2 55.1091 21.3337  25
   6  -2   2 45.7870 19.5655   6
   6   2   2 19.8031 15.6243   6
   6   2  -2 55.0388 23.2435  19
   6   2  -2 56.0011 23.9302   9
   6  -2   2 43.4623 19.3980  23
   6  -2  -2 43.7678 19.5343  18
   6   2  -2 43.5674 22.1884  12
   6  -2   2-23.5959 23.4812   8
   6   2  -2 49.4231 23.4659  15
   6  -2  -2 16.9130 12.1815  15
   6   2  -2 35.7921 21.7387  11
   6   2  -2 54.3075 24.6357  14
   6   2  -2 76.4907 25.9256  13
   6   2   2 24.9529 15.1554  29
   6   2   2 29.3120 16.6532   9
   7  -2  -2 5135.37 214.784  23
   7   2   2 4869.85 213.666   9
   7   2  -2 4753.94 226.591   9
   7  -2   2 4855.15 206.131  23
   7   2  -2 4819.11 215.418  19
   7   2  -2 4687.29 237.006  11
  -7  -2  -2 4311.56 490.151   1
   7  -2  -2 5199.26 211.810  18
   7  -2   2 5243.05 487.356   8
   7   2   2 4720.09 191.779  29
   7  -2  -2 4840.32 191.569  15
  -7  -2   2 4487.69 449.524   1
   7   2  -2 4803.90 226.569  12
   7   2  -2 5173.41 213.530  13
   7  -2  -2 4766.35 227.399  13
   7  -2  -2 5177.76 219.400  24
   7  -2  -2 5471.40 192.191   6
   7   2  -2 4992.94 190.158   6
   7  -2   2 4720.03 204.404   6
   7   2  -2 5388.13 226.720  14
   7   2   2 4601.66 211.456   6
   8   2  -2 2560.84 152.631  13
   8   2  -2 2709.27 176.583  12
   8  -2  -2 2510.06 154.921  23
   8   2   2 2458.24 152.650   9
   8   2  -2 2664.50 173.478   9
   8  -2  -2 2384.00 153.642  24
   8  -2  -2 2382.39 146.452  18
   8  -2   2 2560.26 345.487   8
   8  -2  -2 2425.02 172.391  13
   8  -2  -2 2847.72 144.446   6
  -8  -2  -2 2560.91 388.028   1
   8   2  -2 2612.05 143.766   6
   8   2   2 2243.29 128.945  29
   8  -2   2 2347.43 147.537   6
   8   2   2 2182.10 149.124   6
   8   2  -2 2417.37 150.946  14
   8  -2   2 2170.19 144.615  23
   8   2  -2 2336.62 168.965  11
   9  -2  -2 301.157 52.2496  23
   9  -2   2 243.306 45.9110   6
   9   2  -2 358.049 53.1214   6
   9   2   2 367.345 56.4431   9
   9  -2  -2 397.686 58.7538  18
   9   2  -2 366.714 65.1693  11
   9   2   2 353.192 58.0298   6
   9   2  -2 263.604 47.2099  13
   9  -2  -2 339.773 65.2100  13
  10  -2  -2 3267.48 152.783  23
  10  -2   2 3085.89 158.457  13
  10   2   2 2996.61 133.646   9
  10   2   2 3021.57 146.128   6
  10   2  -2 3246.28 167.991  11
  10  -2   2 2957.20 132.232   6
  11  -2  -2 185.049 36.1021  13
  11   2   2 162.587 26.9316   6
  11   2  -2 151.102 29.7317  11
  11  -2   2 132.270 21.3338   6
   0  -2  -3 14328.4 521.778   1
   0   2  -3 15649.4 640.690  20
   0  -2   3 14643.4 509.490   8
   0  -2  -3 14657.4 636.900   5
   1  -2  -3 410.046 85.3131  10
   1   2  -3 284.698 88.4694  20
  -1   2  -3 398.253 104.428  20
  -1  -2   3 386.008 76.4498   8
   1  -2   3 388.617 91.2357   8
   1  -2  -3 410.999 112.081   5
  -1  -2  -3 310.844 87.0640   1
   1  -2  -3 419.565 77.0957   1
   2  -2  -3 50.9389 36.6883  10
   2   2  -3 60.3253 43.4488  20
  -2   2  -3 124.930 63.6255  20
   2  -2  -3 18.1437 46.7529   5
   2  -2   3 114.629 55.3831   8
  -2  -2  -3 98.4335 55.9235   1
   3   2  -3 30.8105 28.0696  20
  -3  -2  -3 59.6156 44.3458   1
   3  -2  -3 33.0676 30.1260  10
   3   2  -3 49.0155 44.6552  10
  -3   2  -3 15.9265 29.0193  20
   3  -2   3 50.5540 37.6052   8
   3   2   3-15.3524 15.2760  31
  -3   2   3 30.8767 34.4520  31
  -3  -2  -3 47.4461 40.7533   7
   3  -2  -3 32.6809 36.4651   7
   4   2   3 2688.22 268.537  31
   4   2  -3 3713.86 427.532  10
   4  -2  -3 2924.06 139.814  18
   4   2  -3 2720.90 275.151  20
  -4  -2  -3 2896.42 282.747   7
   4  -2  -3 3692.19 323.470   7
  -4   2   3 3073.06 289.293  31
   4   2  -3 2941.30 144.994  13
   4  -2  -3 2851.38 321.894  10
  -4   2  -3 3029.69 289.292  20
   4  -2  -3 3095.59 145.759  25
   5   2  -3 1566.39 96.7432  22
   5   2  -3 1508.09 113.067   9
   5   2  -3 1687.69 122.298  14
   5   2  -3 1359.09 100.700  19
  -5  -2  -3 1721.18 288.122   1
   5  -2  -3 1535.09 109.889  18
   5  -2   3 1483.08 242.414   8
   5   2  -3 1600.27 110.452  16
   5  -2  -3 1636.67 112.183  25
   5   2  -3 1461.25 290.204  10
   5  -2   3 1590.55 110.849   6
   5  -2  -3 1624.60 117.843  15
   5  -2  -3 1549.67 206.230   7
   5   2  -3 1499.83 189.658  20
   5  -2   3 1609.43 99.3429  23
   5  -2  -3 1664.04 118.325  13
   5   2  -3 1890.33 125.523  13
   5   2  -3 1609.96 119.839  15
   5   2  -3 1495.28 121.579  11
  -5   2  -3 1513.91 92.5779  28
   5  -2  -3 1520.45 105.977  12
   5   2   3 1654.50 117.901   6
   6  -2  -3 768.647 83.2507  24
   6  -2  -3 793.279 79.2439  23
   6  -2   3 844.915 79.4830  23
   6   2  -3 796.151 229.108  10
   6   2  -3 860.700 71.5345  22
   6   2  -3 884.431 93.8598   9
   6   2  -3 807.180 82.0750  19
   6   2  -3 868.277 90.5708  13
   6  -2  -3 929.111 90.6852  18
   6   2  -3 622.439 86.2155  11
   6  -2   3 912.396 204.300   8
   6   2  -3 913.596 96.7040  15
   6  -2  -3 729.828 82.6489  15
   6  -2   3 926.242 82.4915  30
   6  -2  -3 916.031 89.8797  12
  -6  -2  -3 555.099 182.080   1
   6  -2  -3 900.786 93.4564  13
   6   2  -3 836.179 95.0186  12
   6   2  -3 897.938 93.6588  14
   6  -2  -3 773.011 82.2866  25
   6  -2   3 811.769 84.4507   6
   6   2   3 788.604 87.2761   6
   7  -2  -3 1709.52 129.316  24
   7  -2  -3 1873.68 144.082  13
   7  -2  -3 1783.13 123.566  23
   7  -2   3 1642.98 118.017  23
   7   2   3 1612.25 129.424   6
   7   2  -3 1677.97 134.242   9
  -7  -2  -3 1747.81 321.163   1
   7   2  -3 1704.28 120.650  19
   7  -2  -3 1779.83 129.207  18
   7  -2   3 1884.58 307.803   8
   7   2  -3 2076.44 155.101  15
   7  -2  -3 1555.61 120.918  15
   7   2  -3 1854.84 136.626  13
   7  -2   3 1748.33 113.985  30
   7  -2   3 1858.49 132.118   6
   7   2   3 1719.45 121.121  29
   7   2  -3 1845.69 139.113  14
   7   2  -3 1762.80 142.643  12
   8  -2  -3 1290.59 112.414  24
   8  -2  -3 1126.73 97.3721  23
   8   2   3 1229.07 112.951   6
   8   2  -3 1326.69 119.838   9
   8  -2  -3 1153.86 102.146  18
  -8  -2  -3 997.103 242.636   1
   8  -2   3 1054.77 229.373   8
   8  -2  -3 1204.49 103.281  15
   8   2  -3 1219.51 109.608  13
   8  -2  -3 1444.41 130.026  13
   8   2   3 1167.71 97.6308  29
   8  -2   3 1144.31 103.826   6
   8   2  -3 1196.43 122.555  11
   8   2  -3 1269.62 122.466  12
   9   2   3 1044.02 97.6690   6
   9  -2  -3 1121.60 91.0849  23
   9   2  -3 1045.79 102.074   9
   9   2   3 1102.01 83.6079  29
   9  -2  -3 1222.93 114.978  13
   9  -2   3 1003.40 88.8266   6
   9   2  -3 1103.17 110.218  11
 -10   2  -3 954.615 67.5843   3
  10   2  -3 1009.88 85.7198   9
  10  -2  -3 980.839 86.9862  14
  10  -2   3 947.826 70.7886   6
  10   2   3 956.243 78.6389   6
  10   2  -3 1061.41 93.2286  11
  10  -2  -3 1073.96 96.0290  13
  11  -2  -3 172.943 26.9030  14
  11   2  -3 178.267 28.8274   9
  11   2  -3 177.365 29.8314  11
  11   2   3 156.369 23.4895   6
   0  -2  -4 12456.3 566.504   1
   0   2  -4 13506.6 686.740  20
   0  -2   4 12501.6 527.378   8
   0  -2  -4 12270.1 675.189   5
   0  -2  -4 13740.3 701.984   7
  -1  -2  -4 7594.58 481.108   1
   1   2  -4 8028.96 523.673  20
  -1   2  -4 8668.78 557.324  20
   1  -2  -4 8070.63 556.299   5
  -1  -2   4 7907.94 375.117   8
  -1  -2  -4 8667.39 561.227   7
   1  -2  -4 7989.54 538.738   7
   2  -2  -4 7737.79 477.113  10
  -2  -2  -4 9130.50 574.695   1
   2  -2  -4 8415.86 217.507  21
  -2   2  -4 9818.50 591.341  20
   2  -2  -4 8616.83 598.341   5
   2   2  -4 9154.96 556.149  20
  -2  -2  -4 9166.61 573.943   7
   2  -2  -4 9853.16 598.754   7
  -2   2  -4 9008.35 233.864  28
   3  -2  -4 4468.98 397.063  10
   3   2  -4 4909.69 176.508  22
   3  -2  -4 4805.00 171.202  21
  -3  -2  -4 4404.16 431.595   1
   3   2  -4 4838.30 192.013  14
   3   2  -4 5021.58 195.569  16
  -3  -2  -4 4727.31 419.584   7
   3  -2  -4 5039.74 435.534   7
  -3  -2  -4 4532.14 163.576   4
   3  -2  -4 4436.55 159.515  32
  -3   2  -4 5068.48 427.620  20
   3   2  -4 4671.84 410.150  20
  -3   2  -4 4693.06 174.988  28
   4   2  -4 5680.18 596.777  10
   4   2   4 5485.89 222.117   6
   4   2  -4 6143.25 228.868  14
   4  -2   4 5135.26 202.354   6
   4   2  -4 5458.54 194.385  22
  -4  -2  -4 5786.58 529.103   1
   4   2  -4 5041.26 184.716   9
  -4   2  -4 5544.17 437.000  20
   4  -2  -4 4564.35 436.809  10
   4  -2  -4 5227.65 199.084  13
   4   2   4 5396.63 425.922  31
   4  -2   4 6001.43 490.392   8
   4   2  -4 5899.28 218.166  16
   4   2  -4 5964.95 228.139  15
  -4   2  -4 5500.96 194.719  28
  -4  -2  -4 5443.31 446.974   7
   4  -2  -4 6264.01 483.896   7
   4  -2  -4 5768.39 216.330  25
  -4   2   4 5507.94 437.347  31
   4  -2  -4 5134.12 180.237  32
   4   2  -4 5292.23 214.392  11
   4   2  -4 6134.17 457.410  20
   4  -2  -4 5328.96 191.030  21
   5   2  -4 1046.86 274.504  10
   5   2  -4 718.813 72.0543  22
   5   2  -4 706.545 71.4421  19
   5   2  -4 819.118 90.4289  14
   5   2  -4 776.735 79.7959   9
   5   2  -4 817.311 90.2397  15
   5   2  -4 788.945 82.6777  16
   5  -2  -4 703.728 87.1253  15
   5  -2  -4 770.088 85.7949  13
   5   2  -4 746.241 84.7986  13
   5  -2   4 728.231 78.4975  30
   5   2   4 697.447 82.9763   6
   5  -2  -4 703.568 75.4094  12
   5   2  -4 731.493 85.8663  11
   5  -2  -4 773.278 83.4587  25
   5  -2   4 704.212 79.7481   6
   6  -2  -4 69.9439 26.8476  24
   6   2  -4 43.7555 97.6443  10
   6   2  -4 69.9629 28.1063  13
   6  -2  -4 59.6108 25.1743  25
   6   2  -4 81.3889 25.1451  22
   6  -2  -4 71.6589 26.3788  12
   6   2   4 66.6988 28.1676   6
   6   2  -4 84.9874 29.8308   9
   6  -2   4 76.8220 29.1498   6
  -6  -2  -4 34.2362 44.1101   1
   6  -2  -4 63.3275 23.0776  23
   6   2  -4 67.2581 25.8167  16
   6  -2   4 28.4050 63.3882   8
   6   2  -4 58.2350 27.6497  15
   6  -2  -4 57.9258 28.7259  15
   6  -2  -4 34.9763 22.5319  13
   6  -2   4 60.3522 24.2454  30
   6   2  -4 45.0412 23.4482  11
   7   2  -4 45.2572 58.3097  10
   7  -2  -4 55.0780 21.1414  23
   7  -2   4 83.7535 30.5212   6
   7   2   4 37.5443 22.8030   6
   7   2  -4 16.8635 16.1944   9
  -7  -2  -4 106.287 79.0629   1
   7   2  -4 67.5548 28.5291  14
   7  -2   4 89.0643 66.2516   8
   7   2  -4 54.8474 27.9331  15
   7   2  -4 43.4321 18.0604  22
   7  -2  -4 55.9180 26.5497  15
   7  -2  -4 38.0032 20.9844  25
   7   2  -4 74.9185 31.6389  11
   7  -2  -4 43.1620 21.9819  24
   7  -2   4 44.2170 20.9941  30
   7   2  -4 35.9231 24.4910  12
   7  -2  -4 68.6700 30.0948  13
   7  -2  -4 75.5118 27.7971  12
   8  -2  -4 1810.88 123.890  24
   8  -2  -4 1700.14 104.959  23
   8  -2  -4 1877.02 141.115  13
   8   2  -4 1640.48 123.925   9
   8   2   4 1829.11 124.361  29
   8  -2  -4 1508.55 119.652  15
   8   2  -4 1851.51 145.939  11
   8  -2   4 1643.57 106.066  30
   8   2  -4 1772.11 146.154  12
   8   2   4 1448.48 121.830   6
   8  -2   4 1694.94 122.528   6
   9  -2   4 630.963 66.6048   6
   9  -2  -4 674.554 79.7158  13
   9   2  -4 704.573 73.5383   9
   9   2  -4 707.146 85.8516  12
   9   2   4 672.642 65.0795  29
   9   2   4 666.267 75.0194   6
 -10   2  -4 1464.58 79.5015   3
  10   2  -4 1505.19 88.4587   9
  10   2  -4 1674.58 105.272  11
  10  -2   4 1388.75 75.1673   6
  10   2   4 1622.51 91.6265   6
  10  -2  -4 1659.59 103.242  14
  10  -2  -4 1845.77 109.448  13
 -11  -2  -4 98.1689 14.3638  32
  11  -2  -4 123.706 20.7006  13
   0  -2  -5 4167.37 370.132   1
   0   2  -5 3900.93 186.174  17
   0   2  -5 4191.72 164.974  22
   0   2  -5 3756.36 406.684  20
   0  -2  -5 4448.04 169.287  21
   0  -2   5 3930.31 323.974   8
   0  -2  -5 4932.60 489.540   7
   0  -2  -5 4244.14 145.567  32
   0   2  -5 4171.84 167.795  28
  -1  -2  -5 2457.74 311.379   1
   1   2  -5 2421.58 129.302  22
  -1   2  -5 2279.99 117.055  22
   1  -2  -5 2385.96 126.777  21
  -1  -2  -5 2375.90 109.322  32
   1   2  -5 2718.73 342.798  20
  -1   2  -5 2834.82 354.072  20
   1  -2  -5 2379.65 348.972   5
  -1   2  -5 2237.53 136.568  17
   1   2  -5 2343.18 147.173  17
  -1  -2  -5 1907.78 311.296   5
  -1  -2  -5 2181.21 328.243   7
   1  -2  -5 2895.87 376.056   7
   1  -2  -5 2398.45 112.519  32
  -2  -2  -5 6714.34 547.223   1
   2   2  -5 6154.97 211.098  22
   2  -2  -5 5813.28 203.308  21
  -2   2  -5 5671.66 206.995  28
   2   2  -5 5921.96 502.157  20
  -2   2  -5 6934.72 549.290  20
   2  -2  -5 6641.29 594.319   5
  -2  -2  -5 5051.71 504.954   5
  -2  -2  -5 6012.28 534.265   7
   2  -2  -5 7017.94 584.207   7
   2  -2  -5 5721.93 463.267  10
  -2  -2  -5 6165.90 182.610  32
   2  -2  -5 6248.03 190.269  32
  -3  -2  -5-27.5508 27.3302   7
   3  -2  -5 28.4479 36.6525   7
   3  -2  -5 24.5758 31.6636  10
  -3  -2  -5-28.6349 28.4767   1
  -3   2  -5-24.6907 24.5001  20
   3   2  -5 15.7569 15.1317  16
   3   2  -5 9.80020 10.9350  15
   3   2  -5 23.8944 30.7858  20
   3  -2  -5 7.19153 8.02426  32
  -4   2   5-25.2581 24.8850  31
   4  -2  -5 22.6890 13.7804  32
   4  -2  -5-27.3888 26.7703  10
   4   2  -5 9.35177 12.0489  22
   4  -2  -5 22.9084 16.6964  21
  -4  -2  -5 32.2514 41.5529   1
   4   2  -5 68.1605 58.5457  20
  -4   2  -5 23.1911 42.2561  20
   4   2  -5 43.8896 56.5477  10
   4  -2   5 28.0354 19.1135   6
   4   2  -5 10.9612 12.2304  16
   4  -2   5 26.5332 48.3456   8
   4   2  -5 28.0170 19.1009  15
  -4  -2  -5 27.2517 49.6549   7
   4   2   5 23.8372 30.7121  31
   4  -2  -5 22.6063 15.4121  13
   4   2  -5 19.9829 15.7662  11
   4   2   5 18.3237 15.7389   6
   4  -2  -5 27.8316 35.8584   7
   4  -2  -5 21.1847 16.7145  25
   5   2  -5 943.109 88.9058  22
  -5  -2  -5 740.282 217.819   1
   5   2   5 954.715 103.140   6
   5   2  -5 920.264 94.5409  16
   5  -2   5 986.840 227.469   8
   5   2  -5 879.189 97.6996  15
   5  -2  -5 962.540 109.804  15
   5   2  -5 912.134 95.7305  11
   5  -2   5 965.991 96.1554  30
   5   2  -5 938.660 277.103  10
   5  -2  -5 975.359 96.8280  25
   5  -2  -5 896.754 90.6220  13
   5  -2   5 776.612 88.3783   6
   6  -2  -5 5.07180 9.24125  24
   6   2  -5-48.0331 47.3659  10
   6   2  -5-6.06734 11.0552  11
   6   2  -5 13.4334 12.9004  22
   6  -2   5-5.78530 10.5413   6
   6   2   5 6.47121 14.4411   6
   6   2  -5-4.24876 7.74160   9
   6  -2   5-5.48904 12.2493  30
   6   2  -5-5.31206 9.67902  16
   6   2  -5 6.54287 11.9217  15
   6  -2  -5-7.05215 12.8496  15
   6  -2  -5-5.61956 10.2393  13
   6  -2  -5 4.90857 6.32424  12
   6  -2  -5 5.50337 7.09058  25
   7  -2  -5 779.341 78.3228  24
   7  -2  -5 601.266 70.5797  12
   7  -2  -5 794.598 83.5070  25
   7   2  -5 689.068 70.8062   9
   7  -2   5 725.202 80.6971  30
   7   2  -5 683.362 89.8444  15
   7  -2  -5 754.686 92.8623  15
   7  -2  -5 765.442 86.9805  13
   7   2  -5 673.747 93.8054  12
   7  -2   5 708.538 81.8624   6
   7   2   5 714.624 88.3345   6
   7   2  -5 693.393 86.5580  11
   8   2   5-5.20927 11.6250   6
   8  -2   5-4.56084 5.87623   6
   8  -2  -5 5.11141 9.31342  15
   8   2  -5 10.8896 14.0303  11
   8  -2   5 11.2841 10.8364  30
   8  -2  -5-4.99611 11.1492  13
   8   2   5-4.51411 10.0736  29
   8   2  -5 6.28150 8.09313  12
   8  -2  -5-5.42800 18.5030  14
   9  -2  -5 21.2204 15.4661  14
   9   2   5 22.2587 13.5191   6
   9   2  -5 29.3799 17.1004  11
   9   2  -5 34.0322 18.7917  12
   9   2   5 27.8941 13.8329  29
   9  -2   5 30.1038 13.9845   6
   9  -2  -5 34.8775 17.2961  13
  10   2   5 3.77133 4.85901   6
 -10   2  -5 10.8847 6.61092   3
   0  -2  -6 13448.2 281.987  32
   0   2  -6 12396.7 796.524  20
   0  -2  -6 12337.1 866.861   5
   0   2  -6 13830.4 379.344  17
   0   2  -6 13847.4 318.771  22
  -1   2  -6 2518.28 126.738   3
   1  -2  -6 2555.69 124.725  32
  -1   2  -6 2483.42 128.866  22
   1   2  -6 2559.69 363.066  20
  -1   2  -6 2880.94 386.258  20
   1   2  -6 2778.14 174.449  17
  -1  -2  -6 2723.05 412.596   5
   1  -2   6 2607.37 303.807   8
   1   2  -6 2484.33 140.476  22
  -1  -2  -6 2460.56 394.817   7
   1  -2  -6 2766.94 408.416   7
  -1  -2  -6 2587.66 123.374  32
   1  -2  -6 2617.47 147.769  21
  -2  -2  -6 205.476 124.798   7
   2  -2  -6 162.566 32.5171  32
   2   2  -6 147.762 37.3556  22
   2  -2  -6 193.355 41.7787  21
   2   2  -6 168.200 95.5603  20
  -2   2  -6 260.637 117.990  20
  -2  -2  -6 222.509 36.8572  32
   2  -2  -6 183.451 115.792   5
   2  -2   6 183.814 88.8102   8
  -2  -2  -6 176.026 111.106   5
   2  -2  -6 172.460 108.855   7
  -2  -2  -6 175.828 99.8941   1
  -3  -2  -6 726.049 208.306   7
   3   2  -6 857.116 86.3236  22
   3   2  -6 842.358 269.645  10
   3  -2  -6 917.730 90.7224  21
  -3  -2  -6 1009.69 78.4557  32
   3  -2  -6 784.900 69.9400  32
   3   2  -6 987.566 100.138  16
   3  -2   6 858.766 201.171   8
   3   2  -6 789.121 83.1839  15
  -3  -2  -6 1018.09 255.867   5
   3  -2  -6 1155.93 266.443   7
   3  -2   6 1084.27 101.532  30
  -3  -2  -6 929.953 233.718   1
   4   2  -6 290.512 152.806  10
  -4  -2  -6 186.903 106.186   7
   4   2  -6 241.111 47.1159  22
   4  -2  -6 254.406 122.917   7
   4  -2   6 208.008 49.3994   6
   4   2  -6 173.523 42.8100  16
   4  -2   6 28.8238 37.1368   8
  -4  -2  -6 175.515 110.783   5
   4   2  -6 184.007 44.2860  15
   4   2   6 133.310 76.8126  31
  -4   2   6 85.3581 73.3173  31
   4   2   6 193.202 49.3088   6
  -4  -2  -6 232.862 38.6177  32
  -4  -2  -6 103.692 77.1329   1
   4  -2  -6 142.396 39.2879  25
  -5  -2  -6 841.625 73.1902  32
   5   2   6 860.742 99.8073   6
   5   2  -6 942.442 90.7696  22
   5  -2   6 811.469 94.0029   6
   5  -2  -6 835.369 90.0870  17
   5   2  -6 785.162 86.9595  16
   5  -2   6 999.827 230.940   8
   5   2  -6 926.174 98.5146  15
   5  -2  -6 880.634 105.219  15
  -5  -2  -6 654.844 203.492   5
   5  -2   6 781.174 88.8406  30
   5  -2  -6 929.474 93.3577  25
   5   2  -6 831.971 267.515  10
   5  -2  -6 887.964 85.8264  13
   5   2  -6 677.860 76.9527  11
  -5  -2  -6 465.663 172.681   1
   5  -2  -6 937.573 85.9643  24
   6  -2  -6 1466.16 98.8250  24
   6   2  -6 1729.64 116.071  22
   6  -2  -6 1540.90 105.156  17
   6   2  -6 1565.10 111.931  16
   6   2  -6 1771.43 134.322  15
   6  -2  -6 1527.62 134.289  15
   6   2   6 1620.27 131.529   6
   6  -2  -6 1715.63 118.818  13
   6  -2   6 1658.94 126.226  30
  -6  -2  -6 1825.16 106.351  32
   6   2  -6 1610.57 117.886  11
   6  -2  -6 1585.66 120.654  14
   6  -2   6 1803.20 131.407   6
   6  -2  -6 1534.24 113.839  25
   7  -2   6 21.9897 16.0269  30
   7   2  -6 20.3647 13.8287  21
   7  -2   6 41.7602 19.8276   6
   7   2   6 25.9404 17.6852   6
   7  -2  -6 4.89096 12.6031  14
   7  -2  -6 33.4558 18.6649  13
   7   2  -6 37.2870 21.7026  15
   7  -2  -6 38.9932 22.6957  15
  -7  -2  -6 38.5485 16.0297  32
   7   2  -6 41.0363 19.4839  11
   7   2   6 9.21626 11.8743  29
   7   2  -6 25.2756 19.9421  12
   8  -2  -6 321.906 47.7971  15
   8  -2  -6 326.137 44.5594  13
   8  -2  -6 325.842 48.3432  14
   8   2   6 242.201 39.7938  29
   8   2  -6 354.886 55.7256  12
   8   2   6 285.536 44.7925   6
   8   2  -6 294.517 44.2839  11
  -8  -2  -6 388.568 41.7916  32
   8  -2   6 247.916 38.5659   6
  -9   2  -6 193.711 28.0097   3
   9  -2  -6 229.661 33.5709  14
   9   2   6 127.953 21.5783  29
   9   2   6 160.399 25.0022   6
  -9  -2  -6 183.905 24.0333  32
   0   2  -7 1015.03 88.9747  22
   0  -2  -7 1146.44 283.588   5
   0  -2  -7 1020.38 77.6016  32
   0  -2   7 1166.83 102.047  30
   0  -2  -7 1411.07 311.309   7
   1   2  -7 18.8567 13.5814  22
  -1   2  -7 23.4263 14.2282  22
   1  -2  -7-39.4797 71.9353   5
  -1  -2  -7 38.9357 50.1650   5
  -1  -2  -7-38.8052 38.2472   7
  -1  -2   7 48.5767 21.6807  30
   1  -2   7 15.6808 15.0586  30
  -1  -2  -7 23.7575 13.1183  32
   1  -2  -7-38.4365 37.8886   7
   2  -2  -7 186.401 117.654   7
   2   2  -7 73.1004 25.8884  22
  -2   2  -7 122.989 29.6003   3
  -2  -2  -7 188.812 108.792   5
   2   2  -7 108.783 35.6822  16
  -2  -2  -7 121.120 27.7560  32
   2  -2   7 147.429 39.7967  30
  -2  -2  -7 148.478 106.940   7
   3  -2   7 335.401 60.8599   6
  -3   2  -7 269.438 44.9396   3
   3   2  -7 282.578 160.542  10
   3   2  -7 264.593 48.9006  22
   3   2   7 297.051 59.2821   6
  -3  -2  -7 378.664 59.7011  17
   3  -2  -7 297.513 59.5095  17
   3   2  -7 279.405 53.9868  16
  -3  -2  -7 333.846 44.2278  32
   3  -2   7 373.284 60.9674  30
   4  -2   7 29.3846 20.0333   6
   4  -2  -7 17.7691 18.6927  17
  -4  -2  -7 12.5360 9.89073  32
   4   2  -7 21.1191 15.2109  16
   4   2   7 6.17979 11.2601   6
   4   2  -7 4.64924 10.3752  15
   4  -2  -7 6.89033 12.5547  15
   4  -2  -7 9.93221 11.0823  25
   4  -2   7 17.0008 16.3262  30
   5  -2  -7-3.83535 8.55892  14
  -5  -2  -7 2.93520 6.55015  32
   5   2   7-5.59886 10.2016   6
   5  -2   7 5.19328 6.69107   6
   5  -2  -7 9.67830 12.4696  17
   5   2  -7-4.45417 9.93986  16
   5   2  -7 4.67000 12.0337  15
   5  -2  -7 4.38750 7.99439  25
   6  -2   7 376.536 55.0936  30
   6   2  -7 316.016 47.0331  21
  -6  -2  -7 346.130 40.2128  32
   6   2  -7 410.138 56.4519  15
   6  -2  -7 351.841 58.6837  15
   6   2  -7 367.928 61.5264  12
   6  -2  -7 316.966 45.1920  14
   6  -2   7 316.373 48.9140   6
   6   2   7 443.595 57.0306  29
   6   2   7 341.344 53.2072   6
   6  -2  -7 330.405 45.0336  25
  -7   2  -7 178.044 32.5295   3
   7  -2  -7 96.6919 23.2713  14
   7  -2   7 127.345 26.4355   6
   7   2   7 102.130 26.0656   6
   7   2  -7 132.711 24.7804  21
  -7  -2  -7 119.991 21.1254  32
   7  -2  -7 127.470 30.7938  15
   7  -2   7 153.921 31.0063  30
   7   2  -7 98.4977 29.9736  12
   8   2   7 115.467 20.9180   6
  -8   2  -7 134.780 22.7858   3
   8  -2  -7 106.776 21.8863  15
   8  -2  -7 107.509 19.5920  14
   8   2   7 128.270 22.7950  29
   8   2  -7 131.309 26.9150  12
   0   2  -8 464.113 55.0423  21
   0  -2  -8 494.593 73.6406  17
   0  -2   8 551.290 66.9664  30
   1  -2   8 52.0476 22.8100  30
  -1  -2  -8 61.8703 27.1148  17
   1  -2  -8 77.7527 30.8238  17
   1   2  -8 27.8375 20.2889  16
   2  -2   8 89.8456 29.4705   6
   2   2   8 47.8628 22.7251   6
  -2  -2  -8 127.406 33.9991  17
   2   2   8 78.0496 23.7511  29
   2   2  -8 46.3847 23.9418  16
   2  -2   8 96.1145 29.6945  30
   2  -2  -8 95.9831 32.7917  15
   3  -2  -8 191.248 45.4191  15
   3   2  -8 179.898 36.7835  21
   3  -2   8 99.3210 31.0715   6
   3   2   8 133.132 36.1345   6
  -3  -2  -8 153.413 33.1483  17
   3  -2  -8 187.092 42.4553  17
   3   2  -8 146.048 35.2818  16
   3  -2   8 152.963 37.4619  30
   3  -2  -8 157.669 36.4187  25
   4   2  -8 901.125 77.1885  21
   4  -2  -8 815.945 80.7158  17
   4   2  -8 782.436 71.3640  16
   4  -2  -8 827.940 88.3275  15
   4  -2   8 959.482 87.6614  30
   4   2   8 875.421 74.7348  29
   4  -2  -8 832.337 72.7931  25
   4  -2   8 783.443 75.0887   6
   4   2   8 693.765 73.8982   6
   5   2  -8 374.994 46.6839  21
   5   2   8 241.305 37.5376  29
   5  -2  -8 270.636 46.4387  15
   5  -2   8 361.466 50.8738  30
   5  -2   8 255.777 37.9480   6
   5   2   8 239.952 39.5084   6
   6   2  -8 333.271 36.8980  21
   6   2   8 270.670 35.5308   6
   6  -2   8 212.148 27.3941   6
   6   2   8 302.949 37.2771  29
   6  -2   8 311.969 41.0510  30
   7   2   8 216.163 25.2449  29
   7  -2  -8 202.426 26.8173  15
   0  -2  -9-3.99785 11.5177  17
   0   2  -9-3.82179 8.52865  16
   0  -2  -9-3.39772 7.58230  15
   1  -2   9 48.8065 17.7859   6
  -1  -2  -9 49.8679 18.9221  17
   1  -2  -9 68.7178 24.4278  17
   1   2  -9 72.2587 22.8044  16
   1  -2  -9 28.8544 15.4124  15
   1  -2   9 50.7299 16.6400  30
  -1  -2  -9 37.9071 14.0570  15
   1   2   9 49.3856 18.7391   6
   1   2  -9 39.9935 14.2169  21
   1  -2  -9 45.7012 17.8439  25
   2   2  -9 10.0919 7.96238  21
   2  -2   9 5.82870 7.50974   6
   2   2   9 13.2264 10.4354   6
  -2  -2  -9 2.70201 4.92328  17
   2   2  -9 6.36612 8.20216  16
   2  -2  -9 7.15230 9.21507  15
   2  -2   9 11.8490 10.7949  30
   2  -2  -9 2.86453 6.39246  25
   3   2  -9 7.24517 8.23246  21
   3  -2   9 2.30802 4.20540   6
   3   2   9-2.82565 6.30569   6
   3  -2  -9 3.22273 8.30438  17
   3  -2  -9 3.28496 5.98547  15
   3  -2   9 8.57656 8.23626  30
   4   2  -9 105.244 20.2485  21
   4   2   9 79.7818 17.7381   6
   4  -2  -9 106.620 21.8719  17
  -4   2  -9 125.920 23.4650  16
   4  -2  -9 92.1698 22.3643  15
   4  -2   9 123.474 24.5116  30
   5  -2  -9 1.85396 4.13727  15
   0  -3   0 1931.75 212.822   8
   1  -3   0-14.4942 18.6745   8
   1  -3   0 4.34454 7.91612   5
   1  -3   0-18.3736 18.3613   2
  -1  -3   0-18.6717 18.6600   2
   2  -3   0 1129.97 181.312   8
   2  -3   0 1085.93 188.224   2
  -2  -3   0 1387.32 214.691   2
   3  -3   0 18.1578 23.3947   8
  -3  -3   0 18.8751 34.3920   2
   3  -3   0 18.6119 23.9797   2
   4  -3   0 22462.7 849.831   2
  -4  -3   0 24470.9 883.891   2
   4  -3   0 24829.1 934.754   8
   5   3   0 5.03702 9.17787  19
   5  -3   0-22.4629 22.3758   8
   5  -3   0-4.46985 8.14445  24
   6  -3   0 3077.87 165.088  24
   6  -3   0 2671.02 153.385  23
   6   3   0 2891.64 175.365   9
   6   3   0 2927.13 171.748  19
   6  -3   0 2920.22 349.035   8
   6   3   0 2904.41 133.594   6
  -6  -3   0 3126.69 415.304   1
   7  -3   0 5.64392 7.27167  24
   7  -3   0-5.52552 10.0680  23
   7   3   0 6.77398 12.3428   9
   7  -3   0-24.9370 24.5064   8
   7   3   0 3.95880 7.21327   6
  -7  -3   0 33.8645 43.6313   1
   8  -3   0 6644.28 260.043  23
   8   3   0 6985.78 291.194   9
  -8  -3   0 6399.45 594.562   1
   8   3   0 7097.74 223.505   6
   8   3   0 6878.89 283.557  11
   9   3   0-5.69928 12.7184  11
   9  -3   0-5.21646 9.50483  23
   9   3   0-6.08005 13.5682   9
   9  -3   0 4.89714 10.9284  18
   9   3   0 10.6233 10.2018   6
  10   3   0 5495.87 207.437   9
  10   3   0 5131.48 187.477  11
  10  -3   0 5506.88 187.135  18
  10  -3   0 5522.47 215.667  13
  11   3   0-2.64694 5.90688   9
  11  -3   0-3.00757 7.74996  13
   0  -3   1 10605.7 491.676   8
   0  -3  -1 10223.3 449.892   1
   1   3  -1 11428.8 443.216  10
  -1  -3   1 11229.7 459.816   8
   1  -3   1 12472.3 562.984   8
   1  -3  -1 11778.9 628.238   2
  -1  -3  -1 12245.9 637.828   2
   1  -3  -1 11386.0 426.922   5
  -1  -3   1 13133.3 701.675   2
   1  -3   1 12604.8 671.220   2
   1  -3  -1 11561.6 409.091   1
  -1  -3  -1 10818.9 521.218   1
   2   3  -1 12.4070 15.9852  10
  -2  -3  -1 69.2805 49.8987   1
   2  -3  -1 62.0769 32.3170   5
   2  -3   1 16.8438 43.4033   8
   2  -3  -1 114.982 65.3253   2
  -2  -3  -1-19.0853 24.5896   2
  -2  -3   1 106.219 61.2025   2
   2  -3   1 81.0449 58.3719   2
   3   3  -1 781.575 149.612  10
  -3  -3  -1 786.398 170.728   1
   3  -3  -1 752.199 151.190   8
   3  -3  -1 946.998 179.559   2
  -3  -3  -1 807.072 164.226   2
  -3  -3   1 950.487 188.542   2
   3  -3   1 784.760 166.004   2
   4   3  -1 80.5770 51.9080  10
   4  -3   1 58.0823 49.8891   2
  -4  -3   1 20.2871 26.1380   2
   4  -3  -1-19.2532 19.2017   8
   4   3   1 7.45063 8.31337  29
   4  -3   1-21.8466 21.8268   8
   4  -3  -1 3.28529 4.23279  32
   4  -3  -1 11.8622 10.1889  25
   5  -3  -1 443.622 59.2182  24
   5  -3   1 542.575 65.1506  24
  -5  -3  -1 374.115 143.602   1
   5   3   1 468.544 64.5412  19
   5   3  -1 452.994 64.3458  19
   5  -3  -1 355.129 117.319   8
   5  -3   1 613.548 161.231   8
   5   3   1 422.370 54.9287  29
   5  -3  -1 494.870 63.3432  25
   6  -3  -1 5.20656 9.48679  24
   6  -3   1 5.25279 9.57102  24
   6   3  -1 3.32463 8.56696   6
   6  -3   1 4.88941 6.29955  23
   6   3   1 7.91425 8.83068   6
   6   3   1 11.4722 12.8006  19
   6  -3  -1-22.1379 21.8766   8
   6  -3   1-26.8544 26.6709   8
  -6  -3  -1-32.7772 32.6343   1
   6   3  -1 11.8592 13.2325  19
  -6  -3   1 30.8843 39.7916   1
   6   3   1 4.49967 8.19878  29
   6   3  -1 19.4352 13.9980  12
   7  -3  -1 1364.83 117.001  24
  -7   3  -1 1309.39 92.7304   3
   7  -3  -1 1271.44 114.790  23
   7  -3   1 1665.60 124.219  23
   7   3  -1 1317.17 123.997   9
   7   3   1 1414.05 127.132   9
  -7  -3  -1 1439.26 303.399   1
   7   3   1 1399.36 124.310  19
   7   3  -1 1437.40 127.038  19
  -7  -3   1 1303.69 271.751   1
   7  -3   1 1265.23 250.975   8
   7   3   1 1281.27 98.0611   6
   7   3  -1 1550.17 135.676  11
   7   3  -1 1499.55 97.8906   6
   7   3   1 1783.96 117.553  29
  -8  -3  -1 101.550 75.5390   1
   8   3   1 217.231 49.1704  11
   8   3  -1 204.128 38.1158   6
   8  -3  -1 204.115 47.5214  23
   8   3   1 180.952 37.2369   6
   8  -3   1 174.963 41.0762  23
   8   3  -1 190.158 48.5320  19
   8   3   1 188.630 47.4070   9
   8   3  -1 170.051 46.3737   9
   8  -3  -1 180.580 42.8854  18
  -8  -3   1 148.615 93.8040   1
   8  -3   1 157.395 95.5959   8
   8   3  -1 162.449 45.3148  11
   9   3  -1 27.4859 13.9982   6
   9   3   1 21.9418 13.3266   6
   9  -3  -1 26.5030 20.4880  23
   9  -3   1 14.8077 14.2202  23
   9   3   1 22.1878 17.5059   9
   9   3  -1 66.6937 28.1655   9
   9  -3  -1 4.87913 10.8882  18
   9  -3  -1 6.08165 15.6713  13
   9   3  -1 17.9351 15.4052  11
   9   3   1 29.3977 17.8550  11
  10  -3  -1 278.072 44.3947  23
  10   3   1 304.307 46.3426   9
  10   3  -1 283.130 50.0332   9
  10  -3  -1 294.671 43.3944  18
  10   3  -1 307.739 50.0248  11
  10  -3   1 264.904 41.4591  18
  10  -3   1 271.642 49.0224  13
  10  -3  -1 302.339 50.9232  13
  11   3  -1 92.6417 18.9891  11
  11   3   1 61.0404 14.4963   9
  11   3  -1 116.014 24.7264   9
  11  -3   1 92.9060 22.2663  13
   0  -3   2 4788.11 342.495   8
   0  -3  -2 4200.86 291.624   1
  -1  -3   2 281.826 74.0595   8
   1  -3   2 420.708 109.959   8
   1  -3  -2 321.670 90.0962   5
   1   3   2 284.292 97.1256  31
  -1  -3  -2 288.289 89.5854   1
  -1   3   2 287.808 98.3270  31
   1  -3  -2 253.097 59.2895   1
   2  -3  -2 5978.65 388.793   5
   2  -3   2 6307.79 442.664   8
  -2  -3  -2 5809.60 437.133   1
   2   3  -2 5827.24 434.431  10
   2   3   2 6043.55 439.949  31
  -2   3   2 5313.71 413.386  31
   3   3  -2 234.735 95.2421  10
   3  -3   2 183.773 83.1940   8
  -3  -3  -2 265.432 106.632   1
  -3   3   2 144.965 70.0404  31
   3   3   2 258.725 92.2165  31
  -3  -3   2 321.466 119.209   2
   4   3  -2 7990.34 590.149  10
   4   3  -2 7157.52 464.346  20
  -4   3  -2 7146.33 468.736  20
   4   3   2 7598.98 239.037  19
   4  -3  -2 7643.42 232.142  18
   4   3  -2 7397.64 246.120  16
  -4  -3   2 8843.71 605.954   2
   4  -3   2 6666.79 517.360   2
  -4  -3  -2 7895.33 590.007   1
   4  -3  -2 7259.36 231.841  25
   4   3   2 6984.66 219.837  29
  -4   3  -2 7248.85 200.594  28
   5  -3   2 1092.87 90.0432  23
   5   3  -2 1516.93 281.608  10
   5   3  -2 1069.22 172.902  20
   5   3  -2 1161.84 103.987   9
   5   3   2 1117.26 99.7417  19
   5   3  -2 977.436 95.9286  19
   5  -3   2 847.273 198.914   8
  -5   3  -2 1085.41 78.6075  28
   5   3   2 1075.19 91.8628  29
   5   3  -2 1034.15 92.5593  12
   5  -3  -2 1020.42 94.4731  25
   6  -3   2 1289.65 104.544  23
  -6  -3  -2 796.947 218.152   1
   6   3  -2 1297.12 118.334   9
   6   3   2 1283.24 112.646   9
   6   3   2 1310.09 117.789  19
   6   3  -2 1275.23 116.729  19
   6   3   2 1317.59 106.217  29
   6  -3  -2 1305.93 108.691  18
   6  -3   2 1291.19 259.203   8
   6   3  -2 1287.34 86.6464   6
   6   3  -2 1215.11 107.876  12
   6   3   2 1086.47 92.7304   6
   7   3  -2 14.0531 18.1062  11
   7   3  -2 115.840 28.0730   6
   7  -3  -2 105.592 33.8006  24
   7  -3  -2 99.1230 32.7458  23
   7  -3   2 126.063 33.8377  23
   7   3   2 147.143 35.6592   6
   7   3  -2 87.3966 32.1721  19
   7   3  -2 106.329 36.3264   9
   7   3   2 83.3255 30.6735   9
   7  -3  -2 77.4786 33.2747  13
   7  -3  -2 116.664 35.7883  18
   7  -3   2 123.348 79.4612   8
   7   3   2 70.1899 25.8381  29
  -7  -3   2 60.1960 67.1664   1
  -7  -3  -2 212.760 129.222   1
   7   3  -2 65.2608 28.6007  12
   8  -3  -2 4912.56 224.462  24
  -8   3  -2 4587.08 181.223   3
   8  -3  -2 4704.80 217.871  23
   8  -3   2 4686.64 205.758  23
   8   3   2 4564.77 206.952   9
   8   3  -2 4311.09 220.797   9
   8   3  -2 4614.09 221.763  19
  -8  -3  -2 4424.63 517.473   1
   8  -3  -2 4770.97 216.230  18
   8  -3  -2 4826.56 233.778  13
   8   3   2 4637.71 188.568  29
   8   3   2 4476.13 187.043   6
   8   3  -2 4205.87 227.219  11
   8   3   2 4341.90 195.338  11
   9  -3   2 342.691 52.2859  23
   9  -3  -2 262.277 48.9737  23
   9   3   2 273.810 45.8352   9
   9   3  -2 316.414 57.3214   9
   9  -3  -2 340.468 54.8328  18
   9   3   2 301.237 43.8333   6
   9  -3  -2 317.438 57.1184  13
   9   3  -2 339.945 59.9383  11
  -9   3  -2 331.753 43.7213   3
  10  -3  -2 1561.10 97.2863  23
  10   3   2 1102.21 69.9432   9
  10  -3  -2 1465.91 105.874  13
  10  -3   2 1252.01 95.9965  13
  10   3  -2 1356.09 100.729  11
  11  -3  -2 27.0407 12.6689  13
  11  -3   2 27.7054 10.8175  13
  11   3  -2 30.9059 11.7271  11
   0  -3  -3 2003.06 211.313   1
   0  -3   3 2213.74 241.713   8
   0  -3  -3 2300.69 278.377   5
  -1  -3  -3 14608.2 646.872   1
  -1  -3   3 14551.1 550.728   8
   1  -3  -3 14211.4 682.020   5
   1  -3   3 14855.2 666.848   8
   1   3   3 15187.6 734.629  31
  -1   3   3 14496.8 730.381  31
  -2   3  -3 6906.94 209.354   3
   2   3  -3 6889.17 497.973  20
  -2   3  -3 7658.01 522.446  20
   2  -3  -3 6466.29 207.014  18
   2  -3  -3 6668.88 485.861   5
  -2  -3  -3 6891.63 494.052   1
   2  -3   3 7558.14 500.666   8
   2   3  -3 7869.44 237.164  16
  -2  -3  -3 7117.51 184.179  32
   2  -3  -3 7381.15 206.888  32
   2   3   3 6778.21 499.922  31
  -2   3   3 7062.70 515.489  31
  -2   3  -3 6966.68 201.073  28
   2   3   3 6909.63 207.975  29
   3   3  -3 1416.65 265.417  10
   3   3  -3 1853.42 262.662  20
  -3   3  -3 1792.32 257.343  20
   3  -3  -3 1553.50 107.289  18
   3  -3  -3 1725.57 105.630  32
  -3  -3  -3 1564.27 259.418   1
   3  -3   3 1463.77 242.464   8
   3  -3  -3 1767.01 103.946   4
  -3  -3  -3 1495.04 95.3938   4
   3   3   3 1861.26 264.384  31
  -3   3   3 1711.08 251.057  31
   3   3   3 1824.56 113.637  29
  -3   3  -3 1690.50 102.725  28
  -3   3  -3 1608.04 96.2527  27
   3   3  -3 1787.08 101.014  27
   3  -3  -3 1966.83 123.254  25
   4   3  -3-31.5698 31.3230  10
   4   3  -3-20.1532 19.9308  20
  -4   3  -3 20.3271 45.3618  20
   4   3   3 9.34296 10.4248  19
   4   3  -3 9.77119 10.9026   9
   4  -3  -3 4.73485 8.62730  18
   4   3  -3-5.23635 9.54107  16
   4  -3   3 25.2899 32.5836   8
   4  -3  -3-4.10625 5.29052  32
   4   3   3 20.8993 26.9268  31
  -4  -3  -3 20.5665 37.4739   7
   4  -3  -3-21.1483 20.9107   7
   4  -3  -3-3.46438 4.46354   4
   4   3   3 4.55442 8.29853  29
  -4  -3  -3-3.48349 6.34721   4
   4  -3  -3 4.21878 10.8710  13
  -4  -3  -3-27.8124 27.7238   1
  -4   3  -3 15.2976 11.0180  28
  -4   3   3-21.2677 21.0259  31
   4   3  -3 3.22596 7.19900  27
   4  -3  -3 5.01920 9.14541  25
   5   3  -3 87.6020 33.2402  11
   5   3  -3 35.4564 64.6045  10
   5  -3   3 53.6004 20.5742  23
   5   3  -3 41.0290 18.3120  22
   5   3   3 44.4581 19.8424   6
   5   3  -3 38.8111 21.4305  19
   5   3  -3 73.2395 29.0345   9
   5   3  -3 51.2540 26.4552  16
   5   3   3 50.4911 22.5351  29
   5  -3  -3 35.6587 18.5637  15
   5  -3  -3 35.3107 19.4977  13
  -5  -3  -3 31.3317 40.3680   1
  -5   3  -3 47.0171 20.1924  28
   6  -3  -3 511.071 72.9889  24
   6  -3   3 565.143 67.8154  23
   6   3  -3 734.749 222.820  10
   6   3  -3 534.319 59.8627  22
   6   3  -3 574.916 78.0388   9
   6   3  -3 561.474 75.6884  19
   6  -3  -3 552.278 74.0460  18
   6  -3   3 371.706 143.894   8
   6  -3  -3 435.988 63.3874  15
   6  -3   3 548.187 64.3178  30
   6   3   3 615.478 76.5163  29
   6   3  -3 463.389 71.6440  12
   6   3   3 611.478 72.4121   6
   6  -3  -3 622.820 80.3683  13
   6   3  -3 564.917 83.2655  11
   6  -3  -3 650.185 82.0571  25
   7  -3  -3 1961.92 145.815  24
   7  -3  -3 2018.07 138.497  23
   7  -3   3 2406.98 143.347  23
   7   3  -3 2104.45 152.350   9
   7   3  -3 2075.25 142.033  19
  -7  -3  -3 2386.89 392.169   1
   7  -3  -3 2354.87 155.049  18
   7  -3   3 2351.46 361.581   8
   7  -3  -3 2205.39 153.924  13
   7   3   3 2346.61 147.039  29
   7   3  -3 2452.31 164.888  12
   7   3   3 2155.84 135.270   6
  -7  -3   3 2256.37 348.855   1
   7   3  -3 2161.09 165.083  11
   8  -3  -3 703.964 83.6373  24
  -8   3  -3 760.489 78.8974   3
   8  -3  -3 658.239 76.6361  23
   8  -3   3 779.529 79.3109  23
   8   3  -3 808.515 91.2092   9
   8   3  -3 880.227 95.4281  12
   8  -3  -3 688.846 80.5279  18
   8  -3  -3 702.891 85.4939  13
   8   3   3 625.054 70.8108  29
   8   3   3 628.226 69.4971   6
  -9   3  -3 609.614 61.3517   3
   9  -3  -3 748.900 72.4012  23
   9   3  -3 624.964 73.3260   9
   9   3   3 635.987 60.7885   6
   9  -3  -3 735.325 82.4365  13
   9   3  -3 631.831 77.4782  11
  10   3  -3 133.957 28.9443   9
  10  -3   3 118.897 26.7404  13
 -10  -3  -3 142.676 23.6792  32
  10  -3  -3 172.022 34.2435  13
  10  -3  -3 119.559 28.5228  14
  10   3  -3 116.177 28.9710  11
   0  -3  -4 11445.3 711.933   7
   0  -3  -4 10469.1 524.926   1
   0   3  -4 11376.6 702.733  20
   0  -3   4 10492.0 558.054   8
   0  -3  -4 10674.4 677.849   5
   0   3  -4 10500.6 260.389  28
   0  -3  -4 10250.6 240.290  32
   0   3  -4 10239.3 248.101   3
  -1   3  -4 773.566 71.0527   3
  -1   3   4 632.875 172.588  31
   1   3  -4 538.577 154.520  20
  -1   3  -4 785.654 187.141  20
   1  -3  -4 673.327 69.4236   4
  -1  -3  -4 663.118 150.770   1
   1  -3   4 858.524 174.170   8
   1  -3  -4 704.172 177.474   5
  -1  -3  -4 790.161 65.8885  32
  -1  -3  -4 763.535 191.893   5
   1   3   4 869.149 75.2565  29
   1  -3  -4 887.253 73.0435  32
  -1  -3  -4 846.568 78.6533   4
   1   3   4 754.914 189.047  31
  -1  -3  -4 1068.68 219.916   7
   1  -3  -4 835.054 192.880   7
   1   3  -4 856.395 73.5591  28
  -1   3  -4 743.688 71.6747  27
   1   3  -4 836.500 75.8575  27
   1   3  -4 852.298 71.1869   3
  -2   3  -4 2828.38 141.947   3
   2   3  -4 3196.98 369.370  20
  -2   3  -4 2694.67 342.852  20
  -2  -3  -4 2644.47 325.901   1
   2  -3  -4 2498.12 337.101   5
   2  -3   4 2790.56 325.031   8
   2   3  -4 3112.36 164.768  16
   2  -3  -4 2978.67 365.259   7
  -2  -3  -4 2836.76 126.654  32
   2  -3  -4 2902.24 143.965   4
   2  -3  -4 2957.34 138.877  32
  -2  -3  -4 2705.27 140.812   4
  -2   3   4 2914.87 359.370  31
  -2   3  -4 2783.43 141.670  28
   2   3  -4 2825.22 130.013  28
   2   3  -4 2790.55 124.695   3
  -2   3  -4 2582.18 134.973  27
   2   3  -4 2978.28 143.508  27
  -2  -3  -4 3185.93 375.703   7
   2   3   4 2885.92 358.778  31
   3   3  -4-4.76459 8.68148  11
   3   3  -4 35.2613 45.4310  10
   3   3  -4-24.3065 24.1367  20
  -3   3  -4 73.4859 63.1199  20
  -3  -3  -4 25.0849 45.7069   7
   3   3  -4 32.5066 19.7432  16
   3  -3   4 24.3556 44.3779   8
  -3  -3  -4 107.231 77.2321   1
   3  -3  -4 61.5403 22.4263  32
  -3   3   4 103.125 66.4335  31
   3   3   4-25.3167 25.1341  31
   3  -3  -4 29.3452 15.2770   4
  -3  -3  -4 16.6465 13.1339   4
   3  -3  -4-25.7530 25.5667   7
  -3   3  -4 25.8071 15.6742  28
  -3   3  -4 67.8019 22.9806  27
   3   3  -4 43.1484 18.2220  27
   4   3  -4 4315.13 536.936  10
   4   3  -4 5009.42 201.431  22
   4   3  -4 4763.15 445.184  20
  -4   3  -4 5375.37 473.511  20
   4   3  -4 4134.25 185.577   9
  -4  -3  -4 6058.69 569.954   1
   4  -3   4 4796.37 481.597   8
   4   3  -4 4535.52 215.736  16
   4   3  -4 5076.51 215.771  15
  -4  -3  -4 4287.17 432.170   7
   4  -3  -4 5882.34 510.571   7
   4  -3  -4 5149.78 189.882   4
   4  -3  -4 4302.48 182.803  32
   4   3   4 4301.63 425.891  31
  -4   3   4 4426.15 442.029  31
   4   3   4 4721.00 206.749  29
  -4   3  -4 4409.76 186.353  28
  -4  -3  -4 4980.43 186.723   4
   4   3  -4 4525.74 209.203  11
   4   3   4 4390.98 189.515   6
   5   3  -4 1659.98 346.514  10
   5   3  -4 1863.22 122.687  22
   5   3  -4 1632.25 122.957   9
   5   3  -4 1689.03 124.878  19
   5   3  -4 1931.05 143.959  16
   5  -3   4 1449.23 275.064   8
  -5  -3  -4 1649.21 312.704   1
   5  -3  -4 1793.72 137.750  15
  -5   3  -4 1716.57 116.176  28
   5  -3  -4 1740.48 123.739  13
   5   3  -4 1654.28 135.336  11
   5   3   4 1774.64 123.170   6
   5  -3  -4 1794.96 136.620  25
   6  -3  -4 5419.02 237.350  24
   6   3  -4 5037.71 612.513  10
   6  -3  -4 5408.55 215.270  23
   6   3  -4 5369.67 197.929  22
  -6  -3  -4 4883.99 550.966   1
   6   3  -4 4788.42 215.697   9
   6   3  -4 4994.83 210.531  19
   6  -3   4 6009.87 572.102   8
   6  -3  -4 5244.71 231.875  15
   6  -3   4 5280.40 208.554  30
   6   3   4 4964.62 226.598  29
   6  -3  -4 5528.68 229.194  13
   6   3  -4 5091.31 245.486  12
   6   3  -4 5333.28 252.225  11
   6   3   4 4802.69 204.453   6
   6  -3  -4 5065.10 234.335  25
   7  -3  -4 11.3271 14.5940  24
   7  -3  -4 18.5306 13.3465  23
   7   3  -4 6.93549 7.73858  22
   7   3   4 4.86562 8.86556   6
   7   3  -4 10.8934 12.1548   9
   7   3  -4 4.61801 8.41441  19
   7   3  -4 6.58736 16.9744  11
   7  -3  -4 5.19429 11.5915  15
   7  -3   4 4.27634 9.54303  30
   7   3   4 5.38623 13.8793  29
   7  -3  -4 5.55884 12.4050  13
   7   3  -4-6.48879 11.8231  12
   8  -3  -4 53.1731 24.1212  24
   8  -3  -4 49.2467 18.9031  23
   8   3   4 67.9997 22.4640   6
   8   3  -4 47.5889 22.1070   9
  -8   3  -4 82.7718 27.4971   3
   8   3  -4 62.4776 27.3810  12
   8   3   4 97.9040 28.6683  29
   8  -3  -4 60.6982 26.0680  13
   8   3  -4 52.5423 26.0562  11
  -9   3  -4 501.304 53.1424   3
   9   3  -4 377.443 48.5258   9
  -9  -3  -4 447.192 46.8247  32
   9  -3  -4 522.876 60.8166  13
   9   3  -4 485.919 62.4341  11
  10  -3  -4 59.8776 16.6179  13
 -10  -3  -4 54.7956 13.3603  32
  10  -3  -4 37.3720 14.9916  14
   0   3  -5 2791.64 144.799  22
   0   3  -5 2696.54 371.702  20
   0  -3  -5 2383.46 363.926   5
   0  -3  -5 3005.41 415.277   7
   0  -3  -5 3306.29 148.118  32
   0   3  -5 2874.47 150.207  28
   0   3  -5 2993.15 140.737   3
  -1  -3  -5 22.6243 29.1493   1
  -1   3  -5 52.7116 20.2331  22
   1   3  -5 68.9559 24.4207  22
   1   3  -5 52.3159 19.5872   3
   1   3  -5 28.6843 52.2651  20
  -1   3  -5 28.8061 37.1140  20
  -1   3  -5 48.8756 19.6349   3
  -1  -3  -5 78.0627 23.9468  32
   1  -3  -5 95.5125 82.0393   5
   1  -3   5 64.5951 55.4832   8
  -1  -3  -5 32.4455 59.1185   5
  -1   3   5 30.5040 39.3015  31
   1  -3  -5 66.7745 23.7370  32
   1   3   5 123.324 88.8233  31
   1  -3  -5 40.1642 20.4551   4
  -1  -3  -5 86.4255 30.0162   4
  -1  -3  -5 156.351 98.6872   7
   1  -3  -5 31.0538 40.0100   7
   1   3   5 54.2624 20.8283  29
  -1   3  -5 60.7582 24.8279  28
   1   3  -5 76.6890 25.1549  28
   2   3  -5 33.8584 18.6957  22
  -2   3  -5 14.6786 10.5722  22
  -2  -3  -5 26.4719 34.1066   1
   2   3  -5 28.3821 51.7145  20
  -2   3  -5 28.5155 36.7396  20
  -2   3  -5 26.6646 16.1951   3
   2  -3  -5-32.1517 31.8933   5
   2  -3   5 70.6552 60.6885   8
  -2  -3  -5-33.5247 33.3468   5
  -2  -3  -5 41.1964 17.3977  32
   2  -3  -5 37.2411 17.6819  32
   2  -3  -5 24.9227 18.1645   4
   2   3   5 60.8903 55.4736  31
  -2   3   5 30.3430 39.0941  31
  -2  -3  -5 30.9229 39.8414   7
   2  -3  -5 93.2707 69.3805   7
  -2   3  -5 19.3211 18.6700  28
   2   3  -5 20.0159 13.6461  28
  -2  -3  -5 10.0102 12.8972   4
   3   3  -5 83.7542 76.3035  10
  -3  -3  -5 29.9529 102.104   1
   3   3  -5 138.038 87.1280  20
  -3   3  -5 111.082 80.0062  20
   3   3   5 127.340 34.7263   6
  -3   3  -5 138.332 35.8358   3
   3   3  -5 66.5206 29.1528  16
   3  -3   5 78.3290 58.2660   8
  -3  -3  -5 134.084 31.2171  32
   3   3   5 88.4023 84.8947  31
  -3   3   5 30.2368 55.0941  31
  -3  -3  -5 151.711 87.4151   7
   3  -3  -5 61.8260 56.3261   7
   3  -3  -5 82.3038 26.7660  32
  -3   3  -5 34.5940 20.1352  28
   4   3  -5-44.0739 43.5019  10
   4   3  -5 143.123 37.2546  22
   4   3   5 73.8625 27.1900   6
   4   3  -5 50.9615 56.8626  20
  -4   3  -5 128.245 80.9466  20
  -4  -3  -5 132.432 85.3130   1
   4   3  -5 125.263 39.5322  16
   4  -3   5 144.919 83.5014   8
   4   3  -5 90.2348 29.8095  15
  -4  -3  -5 138.647 32.6803  32
   4  -3  -5 71.6956 26.4567  32
   4   3   5 82.0884 61.0625  31
  -4   3   5 173.960 98.8329  31
   4  -3  -5 59.8325 54.5099   7
   4   3   5 159.227 41.4463  29
  -4  -3  -5 29.2287 37.6585   7
   4  -3  -5 118.202 36.5184  25
   4   3  -5 102.843 31.7731  11
   5   3  -5 1985.85 398.653  10
   5   3  -5 2076.19 133.369  22
  -5  -3  -5 1400.74 295.858   1
   5   3  -5 1946.75 121.788  19
   5  -3   5 1960.23 330.578   8
   5   3  -5 1711.58 137.587  16
   5  -3  -5 2095.81 156.635  15
  -5  -3  -5 1888.47 117.037  32
   5  -3   5 1857.10 130.733  30
   5   3   5 2194.18 151.496  29
   5   3  -5 1987.59 140.505  11
   5  -3  -5 2178.76 149.723  25
   5   3   5 1679.29 123.769   6
   6  -3  -5 5.39785 6.95463  24
   6  -3   5-4.90948 12.6508  30
   6  -3  -5 11.4675 9.84983  23
   6   3  -5 4.29077 12.3616  22
   6   3   5 10.0036 11.1619   6
   6  -3  -5 13.7295 11.7928  13
   6  -3  -5 6.09693 13.6058  15
   6   3  -5-6.82959 8.79929  12
   6   3  -5 5.77225 7.43701  11
   6  -3  -5 5.69586 12.7108  25
   7  -3  -5 440.620 60.0557  24
  -7   3  -5 417.360 59.3859   3
   7   3  -5 390.974 48.3282  22
   7  -3  -5 351.899 52.4540  13
   7  -3  -5 307.815 52.3587  15
   7  -3   5 349.411 50.2450  30
   7   3   5 411.155 60.5483  29
   7   3  -5 440.444 69.9622  12
   7   3   5 377.412 53.6098   6
   7   3  -5 322.626 56.2824  11
   8  -3  -5 44.7930 17.7574  24
   8   3  -5 76.6975 26.9210  12
  -8   3  -5 62.4702 21.6964   3
  -8  -3  -5 58.9036 18.9730  32
   8  -3  -5 45.9733 18.7863  13
   8   3   5 69.1701 22.6887  29
   8   3  -5 106.745 30.8594  11
  -9  -3  -5 1788.96 80.2093  32
   9  -3  -5 1716.54 97.6173  14
   9  -3  -5 1692.58 82.5119  13
   9   3  -5 1755.62 98.0434  11
  -9   3  -5 1718.80 86.6963   3
   0   3  -6 1397.62 106.642  22
   0  -3  -6 1136.60 275.447   7
   0   3  -6 1365.43 280.481  20
   0  -3  -6 1530.09 106.388  32
   0   3  -6 1328.57 93.3131   3
   0  -3  -6 1205.00 287.028   5
   1   3  -6 147.014 36.8154  22
  -1   3  -6 221.655 41.3887  22
  -1   3  -6 190.842 38.5454   3
   1   3  -6 125.495 90.3867  20
  -1   3  -6 125.785 90.5959  20
   1  -3  -6 148.316 95.5459   5
   1   3  -6 175.989 45.8096  16
  -1  -3  -6 301.816 145.823   5
  -1  -3  -6 184.284 37.3090  32
   1   3   6 138.302 89.0944  31
  -1   3   6 168.187 106.158  31
  -1  -3  -6 109.179 93.7784   7
   1  -3  -6 289.145 139.701   7
   1   3   6 170.888 36.4217  29
   1  -3  -6 226.483 41.5070  32
   2   3   6 2281.31 143.957   6
   2   3  -6 2483.06 148.613  22
   2   3  -6 2494.03 365.512  20
  -2   3  -6 2464.38 365.625  20
   2  -3   6 2192.64 305.943   8
  -2  -3  -6 2226.20 369.870   7
   2  -3  -6 2167.75 371.967   7
   2  -3  -6 2489.43 135.974  32
   2   3   6 1973.06 339.264  31
  -2   3   6 2819.66 402.970  31
  -2  -3  -6 2448.46 129.687  32
   2   3   6 2288.62 137.043  29
  -2  -3  -6 2284.03 336.356   1
  -2   3  -6 2587.79 144.942   3
   3   3   6 686.037 80.5967   6
  -3   3  -6 785.676 81.3236   3
   3   3  -6 704.665 80.0741  22
   3   3  -6 630.576 232.125  10
   3   3  -6 542.263 172.473  20
  -3   3  -6 1055.19 238.126  20
   3   3  -6 719.997 90.1214  16
   3  -3   6 715.319 183.818   8
  -3  -3  -6 628.721 207.701   5
   3  -3  -6 730.775 72.5471  32
  -3  -3  -6 737.727 211.657   7
   3  -3  -6 722.157 207.815   7
   3   3   6 748.997 205.026  31
  -3   3   6 928.557 233.367  31
   3   3   6 763.853 84.4617  29
  -3  -3  -6 815.863 74.5995  32
   3  -3  -6 812.592 91.6691  25
  -3  -3  -6 822.296 211.308   1
  -4   3  -6 4167.09 188.324   3
   4   3  -6 3661.38 536.936  10
   4   3  -6 4353.26 195.171  22
   4  -3   6 3553.64 420.995   8
  -4  -3  -6 3937.55 501.282   5
   4   3  -6 3917.67 205.493  16
  -4  -3  -6 4532.87 173.573  32
   4  -3   6 4295.25 206.370  30
   4   3   6 4140.19 201.309  29
   4  -3  -6 4339.29 206.783  25
   4   3   6 4130.44 194.306   6
  -5   3  -6 330.393 54.3914   3
   5   3  -6 351.999 54.6917  22
   5  -3  -6 370.875 57.2805  17
   5   3  -6 368.583 61.9928  16
   5  -3  -6 411.452 68.2352  15
  -5  -3  -6 432.060 52.7672  32
   5   3   6 369.970 56.4480   6
   5  -3   6 342.633 58.0270  30
   5   3   6 351.712 58.2589  29
   5   3  -6 291.645 46.7409  11
   5  -3  -6 401.473 62.4533  25
   5  -3  -6 318.538 52.7638  24
   6  -3  -6 669.551 69.1856  24
  -6   3  -6 896.297 83.7125   3
   6   3  -6 832.230 75.3053  22
   6  -3  -6 797.914 86.4796  15
  -6  -3  -6 784.085 68.4522  32
   6  -3   6 844.315 81.4603  30
   6   3   6 742.733 78.8221  29
   6   3  -6 920.404 98.9129  12
   6   3  -6 749.162 72.7896  11
   6   3   6 791.208 76.1061   6
   6  -3  -6 794.823 81.0427  25
  -7  -3  -6 611.685 55.8324  32
   7   3  -6 525.375 51.2110  21
   7   3  -6 532.857 68.3158  12
   7  -3  -6 506.310 59.2368  15
   7  -3  -6 494.301 59.3341  14
   7  -3   6 538.249 56.3795  30
  -8  -3  -6 193.421 26.9518  32
   8   3   6 194.301 31.1399  29
   8  -3  -6 139.431 27.7557  14
   8   3  -6 147.032 30.1377  12
  -8   3  -6 160.320 27.9233   3
   0   3  -7 4.19143 9.35353  22
   0  -3  -7 3.83643 8.56134  32
   1   3  -7 370.766 54.9584  22
  -1   3  -7 346.108 47.8693  22
  -1  -3  -7 403.844 53.1406  32
   1  -3  -7 373.161 50.4250  32
   2   3  -7 41.8152 20.7365  22
  -2   3  -7 18.7184 12.7615   3
   2   3   7 9.83182 10.9703   6
   2   3  -7 17.7642 17.0594  16
   2   3   7 8.05622 10.3797  29
  -2  -3  -7 33.4212 15.8683  32
   2  -3  -7 20.9357 12.7156  32
   2  -3   7 11.1044 15.9956  30
   3   3   7 440.811 60.7631   6
   3   3  -7 481.273 63.3292  22
   3   3  -7 428.362 66.5565  16
   3  -3   7 425.930 66.0921  30
   3   3   7 479.456 61.5626  29
  -3  -3  -7 495.554 55.0683  32
   3  -3  -7 427.655 63.4990  25
  -3   3  -7 381.849 51.6858   3
   4   3   7 148.769 34.2004   6
  -4   3  -7 188.589 36.1003   3
   4  -3  -7 184.377 42.2522  17
   4   3  -7 132.743 36.6246  16
  -4  -3  -7 198.907 34.0852  32
   4   3   7 217.888 42.1006  29
   4  -3  -7 209.959 48.8820  15
   4  -3  -7 217.813 43.6539  25
   5   3  -7 75.6338 24.3618  22
  -5   3  -7 75.3719 23.1214   3
   5  -3  -7 38.1206 17.0139  17
   5   3  -7 59.5182 22.5839  16
   5  -3  -7 61.7424 25.6745  15
   5  -3   7 68.2606 25.5569  30
   5   3   7 36.7562 17.4517  29
  -5  -3  -7 63.2306 18.8819  32
   5  -3  -7 49.5918 20.6219  25
   6   3  -7 78.1927 20.7748  21
  -6   3  -7 48.9695 17.6350   3
   6  -3  -7 59.4544 21.6662  15
  -6  -3  -7 59.8858 16.9043  32
   6  -3   7 66.9630 21.7770  30
   6   3   7 57.5145 19.9752  29
   6   3  -7 69.1771 24.2813  12
   6  -3  -7 72.9718 21.6301  25
   7  -3  -7 215.278 30.9349  15
  -7  -3  -7 296.447 29.9827  32
   7  -3   7 208.631 28.2949  30
   7   3   7 318.974 37.8036  29
   7   3  -7 285.431 39.0958  12
  -7   3  -7 304.731 35.3808   3
   0  -3  -8 2106.31 138.567  17
   0   3  -8 2361.64 142.054  16
   0  -3   8 2242.54 126.440  30
   1   3  -8-3.38761 6.17250  22
   1  -3   8 4.34345 7.91414  30
   1  -3  -8-5.16277 14.8738  17
  -1  -3  -8 4.83405 8.80804  17
  -1   3  -8 4.77013 10.6450  16
  -1  -3   8-3.57828 6.51993  30
   2   3  -8 307.412 44.3279  22
  -2  -3  -8 388.767 53.8164  17
   2  -3  -8 328.558 55.0804  17
   2   3  -8 261.582 47.0044  16
  -2   3  -8 256.443 45.5728  16
   2  -3  -8 344.144 57.0728  15
   2  -3   8 275.489 47.5544  30
   2  -3  -8 334.799 51.3437  25
  -3  -3  -8 39.7821 15.7709  17
   3  -3  -8 78.6082 26.3912  17
   3   3  -8 78.9471 25.6744  16
  -3   3  -8 46.2354 19.2261  16
   3  -3   8 51.8003 21.5402  30
   3   3   8 79.1986 20.2129  29
   3  -3  -8 58.8395 25.2697  15
   3  -3  -8 77.8262 24.5615  25
   4   3  -8 128.055 26.5828  21
   4  -3  -8 78.7710 22.9284  17
   4   3  -8 66.5888 21.0150  16
  -4   3  -8 112.548 25.3125  16
   4  -3   8 111.934 28.5676  30
   4   3   8 98.2143 22.4265  29
   4  -3  -8 96.9724 24.2840  25
   5   3  -8 97.9393 21.3229  21
   5  -3  -8 84.5634 22.9521  15
   5   3   8 51.3330 14.9418  29
   5   3  -8 53.4730 18.7692  12
   5  -3  -8 41.9648 13.7650  25
   6   3  -8 161.036 20.8145  21
   6  -3  -8 170.261 24.7538  15
   6  -3   8 149.591 22.9821  30
   6   3   8 159.287 20.7770  29
   6   3  -8 168.911 25.6948  12
   0  -3  -9 8.94581 9.41082  17
   0  -3  -9 5.70387 7.34891  15
   1   3  -9 120.291 18.3525  21
  -1  -3  -9 120.177 24.4320  17
   1  -3  -9 157.187 29.6607  17
   1   3  -9 137.396 26.8487  16
  -1   3  -9 142.148 27.6543  16
   1  -3  -9 162.111 30.1420  15
  -1  -3  -9 126.938 23.7824  15
   1  -3   9 100.686 18.9990  30
   1  -3  -9 167.526 28.1766  25
   2   3  -9 49.0287 12.7012  21
   2   3  -9 22.4294 11.1229  16
  -2   3  -9 22.4253 11.1209  16
   2  -3  -9 22.3259 11.3703  15
   2  -3   9 25.9853 10.8055  30
   2  -3  -9 29.5222 11.7036  25
   3   3  -9 67.4474 14.2901  21
   3  -3  -9 53.7386 14.8268  17
  -3   3  -9 43.3825 12.3235  16
   3  -3  -9 63.6804 17.1898  15
   3  -3   9 88.5103 18.1423  30
   3  -3  -9 59.5218 13.6834  25
   0   4   0 2157.89 113.340  26
   1  -4   0 27.2236 35.0751   2
  -1  -4   0-27.9602 27.9324   2
  -1   4   0 3.65136 6.65308  27
   1   4   0 3.59801 6.55588  27
   1   4   0 3.32124 6.05157  26
  -1   4   0 3.45450 7.70902  26
   2  -4   0 7557.83 543.868   8
   2  -4   0 7980.13 606.684   2
  -2  -4   0 8600.78 648.817   2
  -2   4   0 8123.12 225.134  27
   2   4   0 7444.61 215.926  27
  -2   4   0 7800.22 213.482   3
   2   4   0 7659.69 207.315  26
  -2   4   0 7686.38 216.223  26
   3  -4   0 3.98828 5.13853  24
  -3   4   0 14.0733 11.9933   3
   3  -4   0-27.1825 27.0160   2
  -3  -4   0-28.2590 28.0923   2
   3  -4   0-3.44135 6.27043  32
   3   4   0 7.16170 9.22719  27
   3   4   0-3.13858 5.71876  26
  -3   4   0-3.53661 6.44401  27
  -3   4   0 3.64578 6.64291  26
   4  -4   0 5959.39 215.465  24
   4   4   0 5722.87 229.054  19
   4  -4   0 5574.63 503.743   2
  -4  -4   0 6180.19 544.930   2
   4  -4   0 5410.88 502.615   8
  -4  -4   0 5367.46 546.236   1
  -4   4   0 5849.75 192.698  28
  -4   4   0 5607.82 182.771  27
   4   4   0 5612.25 182.677  27
  -4   4   0 6105.34 197.158   3
   5  -4   0 10.2689 11.4580  24
  -5   4   0-3.73672 4.81442   3
   5   4   0 5.87669 7.57157  19
  -5   4   0-3.46506 4.46441  28
   6  -4   0 2863.76 166.641  24
   6   4   0 2870.47 186.552   9
   6   4   0 2857.90 176.156  19
   6  -4   0 1988.35 317.219   8
  -6  -4   0 2696.17 426.529   1
   7  -4   0-5.71467 10.4126  24
   7  -4   0-5.66059 7.29315  23
   7   4   0 6.35843 11.5856  19
   7   4   0-7.06823 18.2135   9
  -7  -4   0-36.6541 36.0513   1
   8  -4   0 2465.84 150.744  23
   8   4   0 2714.87 173.485   9
   8   4   0 2721.48 174.195  11
   9   4   0 9.74559 12.5563  11
   9  -4   0 4.35936 9.72830  23
   9   4   0 5.06135 9.22221   9
   9  -4   0 4.35046 12.5335  18
   9  -4   0-4.94538 11.0360  13
  10  -4   0 486.312 51.3585  23
  10   4   0 445.104 49.8674   9
  10  -4   0 417.235 46.3267  18
  10  -4   0 462.540 52.9468  13
  10   4   0 342.393 40.5284  11
   0  -4  -1 23657.7 811.781   1
   0   4  -1 24272.7 391.009   3
   0   4  -1 23872.7 382.845  26
  -1  -4  -1 278.010 102.340   1
   1  -4   1 269.461 99.9239   8
   1  -4  -1 193.825 94.3875   2
  -1  -4  -1 224.004 108.228   2
   1  -4  -1 254.129 38.4352  32
   1  -4  -1 217.634 67.9023   1
   1  -4   1 468.518 155.555   2
  -1   4  -1 236.349 39.4750  27
   1   4  -1 290.377 43.3282  27
  -1   4  -1 266.103 41.6979   3
   1   4   1 266.243 41.1635  26
  -1   4   1 318.730 45.4435  26
  -2   4  -1 12956.3 284.534  27
  -2  -4  -1 12823.3 237.781  32
   2  -4  -1 13119.2 792.715   2
  -2  -4  -1 12642.4 784.801   2
   2  -4  -1 12869.0 281.525  18
   2  -4   1 13401.9 734.361   8
   2  -4   1 12381.3 779.837   2
  -2  -4   1 14237.3 856.522   2
   2   4  -1 12102.7 303.451  16
   2  -4  -1 12009.4 270.856  32
  -2  -4  -1 13403.9 738.421   1
   2   4  -1 12728.5 279.786  27
   2   4   1 12837.7 278.234  26
  -2   4   1 12592.1 280.720  26
  -2   4  -1 12043.5 278.945   3
  -3   4  -1 97.5396 27.5331   3
   3  -4  -1 81.9397 25.3152  18
   3  -4   1 51.5013 57.4649   8
   3  -4  -1 27.7848 62.0043   2
  -3  -4  -1 84.4677 72.5526   2
   3  -4  -1 96.5274 26.7894  32
  -3  -4  -1 123.871 24.2499  32
   3  -4   1 169.900 96.5262   2
  -3  -4  -1 82.1172 61.0839   1
   3   4  -1 103.310 24.1329  28
  -3   4  -1 135.778 30.2743  28
  -3  -4   1 148.390 85.5013   2
  -3   4  -1 88.0344 24.8500  27
   3   4  -1 117.449 28.2671  27
   3   4   1 57.5889 19.5190  26
  -3   4   1 106.354 27.5517  26
   3  -4  -1 110.876 29.4582  25
   4  -4   1 8.88046 9.90876  24
  -4   4  -1 8.25649 10.6377   3
   4   4   1-5.29375 9.64566  19
  -4  -4  -1-31.3962 31.2680   1
  -4  -4  -1 2.78753 5.07911  32
   4  -4   1-27.3214 35.2011   2
  -4  -4   1-28.7286 28.3712   2
  -4   4  -1 3.78007 6.88760  28
  -4   4   1 10.8236 10.3941  27
   4   4   1 3.60342 8.04135  27
  -4   4  -1-3.42299 8.82041  27
   4   4  -1-3.41563 7.62228  27
  -4   4   1 22.5247 13.6806  26
   4  -4  -1-4.69313 8.55128  25
   5  -4  -1 176.094 43.1270  24
   5  -4   1 159.854 38.6170  24
  -5   4  -1 189.536 38.3722   3
   5   4   1 202.547 46.5633  19
   5   4  -1 171.084 44.5329  19
   5  -4   1 151.467 95.6043   8
  -5  -4  -1 140.544 27.7218  32
  -5   4  -1 278.783 43.5727  28
  -5  -4  -1 176.253 111.249   1
  -5  -4   1 108.038 80.3655   1
   6  -4  -1 371.061 62.5766  24
   6  -4   1 383.710 61.1002  24
   6  -4   1 328.543 55.0441  23
   6   4   1 357.514 63.0360  19
   6   4   1 344.081 64.3647   9
   6  -4  -1 357.506 60.1298  18
   6  -4   1 463.612 159.286   8
  -6  -4  -1 345.468 42.5555  32
  -6  -4   1 369.823 158.031   1
  -6   4  -1 343.535 50.2650   3
   7  -4  -1 23.8063 18.7828  24
  -7  -4   1-34.8451 34.2014   1
   7  -4   1 16.0665 15.4291  23
  -7  -4  -1-37.2425 36.6158   1
  -7   4  -1 18.6152 13.5674   3
   7   4   1 12.5029 13.9507  19
   7   4  -1 38.7375 23.5277  19
   7   4   1 19.7807 16.9904   9
   7  -4  -1 5.59245 12.4800  18
   7  -4   1 29.8522 38.4618   8
  -7  -4  -1 8.59024 7.37849  32
   8   4  -1 91.0180 33.5052  11
   8   4   1 57.4597 26.6925  11
   8  -4  -1 105.580 34.3356  24
   8  -4   1 59.1728 23.7716  23
   8   4  -1 53.8502 26.7048  19
   8   4  -1 32.1841 21.9419   9
   8   4   1 52.1508 25.8620   9
  -8  -4  -1 86.6807 20.1808  32
   9  -4   1 252.671 42.6112  23
   9   4   1 312.372 49.3674   9
   9   4  -1 306.250 53.0194   9
   9  -4  -1 318.109 50.4587  18
   9  -4   1 277.474 45.6416  18
   9  -4  -1 367.839 55.7350  13
   9   4  -1 348.331 57.9138  11
   9   4   1 347.447 49.6208  11
  10  -4  -1-2.91549 5.31227  23
  10   4   1 2.52327 4.59761   9
  10   4  -1-3.35848 7.49473   9
  10  -4  -1 2.75307 7.09416  18
  10  -4   1 2.76739 7.13106  18
  10  -4  -1-3.21755 8.29105  13
  10   4  -1-3.16899 8.16591  11
   0  -4  -2 623.372 129.940   1
   0  -4   2 707.307 153.813   8
   0   4  -2 798.144 73.7722  16
   0  -4  -2 565.316 136.567   5
   0  -4  -2 870.517 70.9625  32
   0   4  -2 764.030 69.6497  28
   0   4  -2 649.460 67.4696   3
   1   4  -2 78.9589 24.9190   3
   1  -4   2 64.7027 48.1299   8
   1   4  -2 56.1986 20.8401  16
  -1  -4  -2 97.6786 61.6536   1
   1  -4  -2 99.5127 56.5366   5
  -1  -4  -2 63.4685 18.6748  32
   1  -4  -2 91.9931 25.9675  32
   1   4  -2 93.5939 24.4623  28
  -1  -4   2 33.5022 43.1645   2
   1  -4   2 33.2607 60.6038   2
  -1   4  -2 79.6757 23.9478  27
   1   4  -2 90.3456 25.6642  27
   1  -4  -2 80.5288 23.5804  25
   2  -4  -2 1498.31 103.109  18
   2   4  -2 1398.98 107.770  16
   2  -4   2 987.537 205.849   8
  -2  -4  -2 1352.90 84.4309  32
   2  -4  -2 1402.49 99.3081  32
  -2  -4  -2 1107.97 214.768   1
   2   4  -2 1354.51 88.5938  28
  -2   4  -2 1416.33 97.6160  28
  -2  -4   2 1652.24 312.862   2
   2  -4   2 1565.10 300.013   2
  -2   4  -2 1496.45 98.9119  27
   2   4  -2 1307.52 93.2412  27
  -2   4   2 1284.43 94.4853  26
   2   4   2 1411.38 100.770  29
  -2   4  -2 1417.67 100.592   3
   2  -4  -2 1545.44 103.752  25
  -3   4  -2 13.1596 12.6375   3
   3   4   2 28.1656 16.0019  19
   3  -4  -2 9.11400 13.1286  18
  -3  -4   2 32.4739 41.8397   2
   3  -4   2-27.1114 27.0256   8
   3   4  -2 26.4106 18.0057  16
  -3  -4  -2-27.4847 27.3239   1
  -3  -4  -2 30.6383 14.7700  32
   3  -4  -2 13.0385 12.5212  32
   3  -4   2 31.8036 40.9759   2
  -3   4  -2 19.6347 13.3861  28
   3   4  -2 18.8701 11.4609  28
  -3   4  -2 11.0667 9.50562  27
   3   4  -2 18.6923 13.6235  27
   3   4   2 36.4524 18.5648  29
  -3   4   2 15.5333 12.2556  26
   3  -4  -2 18.3107 14.4469  25
   4   4   2 11138.5 319.226  19
   4  -4  -2 11266.8 316.322  18
   4  -4   2 11342.0 766.387   8
   4  -4   2 10105.1 725.858   2
  -4  -4   2 10621.6 759.110   2
  -4  -4  -2 10149.8 744.118   1
  -4  -4  -2 10735.6 247.293  32
  -4   4  -2 10881.8 276.856  28
   4  -4  -2 9913.66 284.138  32
  -4   4  -2 10210.9 253.172  27
   4   4  -2 10533.6 256.538  27
   4   4   2 10340.8 255.314  26
  -4   4   2 10674.0 268.453  26
   4  -4  -2 10744.2 303.017  25
  -4   4  -2 10493.3 291.419   3
   5  -4   2 4661.09 194.795  23
   5   4   2 4438.64 212.100  19
   5   4  -2 4265.53 217.752  19
   5  -4  -2 4226.61 202.206  18
  -5  -4  -2 4074.38 495.386   1
  -5  -4  -2 4337.82 160.876  32
   5   4   2 4559.95 201.633  29
  -5   4  -2 4082.66 169.936  28
   5  -4  -2 4011.95 197.547  25
  -5   4  -2 4753.73 200.433   3
   5  -4  -2 4278.70 214.848  24
   6  -4  -2 1817.10 140.043  24
   6  -4   2 1877.58 127.928  23
   6   4  -2 1557.84 100.930  22
   6   4  -2 1506.83 133.201   9
   6   4   2 1782.75 135.473   9
   6   4   2 1867.70 142.042  19
   6   4  -2 1649.28 138.133  19
   6  -4  -2 1873.99 138.108  18
  -6  -4  -2 2090.15 372.008   1
   6  -4   2 1599.94 303.363   8
  -6  -4  -2 1750.46 103.514  32
  -6  -4   2 1525.36 309.982   1
   6   4   2 1807.25 128.625  29
  -6   4  -2 1809.88 122.997   3
   7  -4  -2 1180.88 113.106  24
   7  -4  -2 1283.06 114.911  23
   7  -4   2 1177.19 100.940  23
   7   4  -2 1289.72 122.368   9
   7   4   2 1345.30 114.941   9
   7   4  -2 1155.19 113.644  19
  -7  -4  -2 1299.81 87.7611  32
   7  -4  -2 1167.35 109.524  13
  -7   4  -2 1276.34 97.5771   3
   8   4  -2 330.930 61.2671  11
   8  -4   2 448.228 58.5367  23
   8  -4  -2 256.419 48.5547  23
   8   4  -2 304.515 55.8077  19
   8   4   2 252.974 45.9674   9
   8   4  -2 291.354 55.7719   9
   8  -4  -2 297.479 52.0328  18
  -8  -4  -2 271.742 37.2209  32
   8  -4  -2 231.449 48.5443  13
  -8   4  -2 301.994 43.3606   3
   8   4   2 287.345 49.0844  11
   9  -4  -2 1865.93 113.498  23
   9  -4   2 1836.14 103.066  23
   9   4   2 1667.29 94.8748   9
   9   4  -2 1932.73 124.648   9
   9  -4  -2 2051.33 121.043  18
  -9  -4  -2 1758.69 79.1269  32
   9  -4  -2 1926.24 119.528  13
   9   4  -2 2050.90 132.476  11
  10  -4  -2 326.210 36.7847  23
  10   4  -2 322.790 41.0431   9
  10  -4   2 357.117 39.0939  18
  10  -4  -2 332.314 40.4449  13
  10  -4   2 301.912 40.1097  13
  10   4  -2 298.769 39.8182  11
   0  -4  -3 3195.61 143.887  32
   0  -4   3 3356.10 341.456   8
   0  -4  -3 3039.43 350.863   5
   0   4  -3 3314.32 161.008  16
   0   4  -3 3071.54 145.992  28
   0   4  -3 3079.80 153.689   3
   1   4  -3 37.7887 17.9419   3
  -1   4  -3 30.6444 17.8363   3
   1   4  -3 113.183 32.3291  16
  -1   4  -3 51.6406 20.7457  16
   1  -4  -3 22.1112 40.2884   5
  -1  -4  -3 56.0023 19.6570  32
   1  -4  -3 52.3286 20.7448  32
   1   4   3 27.7326 35.7309  31
  -1   4   3 112.585 88.8280  31
  -1  -4  -3 78.4122 50.5134   1
   1   4   3 44.9583 18.9864  29
   1   4  -3 57.2679 20.2814  28
  -1   4  -3 62.5782 22.1620  27
   1   4  -3 29.1443 16.0928  27
   2   4  -3 159.048 90.3608  20
  -2   4  -3 182.305 94.9072  20
   2  -4  -3 395.000 126.443   5
   2  -4   3 334.952 124.210   8
   2   4  -3 244.921 48.0198  16
  -2  -4  -3 280.192 41.8085  32
   2  -4  -3 284.802 47.2316  32
   2   4   3 315.525 51.0233  29
  -2   4  -3 300.455 47.8432  28
   2   4  -3 380.462 49.6584  28
   2   4  -3 247.505 44.1479   3
  -2   4  -3 288.171 46.2394  27
   2   4  -3 282.128 46.6012  27
  -2  -4   3 407.618 165.388   2
   2  -4   3 334.628 151.486   2
  -2  -4  -3 238.700 102.000   1
   2  -4  -3 398.337 57.9624  25
   3   4  -3-26.5110 26.2870  20
  -3   4  -3-25.7680 25.5349  20
  -3   4  -3-4.90603 12.6419   3
   3  -4  -3-5.12443 9.33714  18
   3   4   3-5.00666 6.45062  29
   3  -4   3-28.5356 28.3714   8
   3   4  -3 5.81656 7.49410  16
  -3  -4  -3-3.55065 4.57469  32
   3  -4  -3 13.5532 13.0155   4
  -3  -4  -3 8.95941 11.5434   4
  -3   4  -3 4.35929 7.94300  28
   3   4  -3 13.6959 9.86437  28
  -3  -4   3-36.3204 35.9943   2
   3  -4   3-36.0536 35.7243   2
  -3   4  -3 8.14702 9.09040  27
   3   4  -3 4.13526 7.53478  27
  -3   4   3 4.27029 7.78083  26
   3  -4  -3-5.20299 13.4071  25
  -3  -4  -3-27.9770 27.7147   1
  -4  -4  -3 315.157 45.8200  32
  -4   4  -3 293.383 46.2554  27
   4   4  -3 407.155 139.101  20
  -4   4  -3 248.872 106.347  20
   4   4   3 300.739 52.0652  19
  -4   4  -3 280.022 51.7521   3
   4  -4  -3 305.371 55.4108  18
   4  -4   3 311.908 133.283   8
  -4  -4  -3 315.731 48.5497   4
   4  -4  -3 287.604 46.8765   4
  -4  -4  -3 204.586 98.8463   7
   4  -4  -3 262.675 112.245   7
   4   4   3 332.733 57.4358  29
  -4   4  -3 246.454 46.5460  28
  -4  -4   3 271.844 131.342   2
   4  -4   3 333.152 142.361   2
   4   4  -3 324.076 48.8405  27
  -4  -4  -3 534.530 171.875   1
  -4   4   3 351.956 50.4887  26
   4  -4  -3 336.503 58.7869  25
  -5   4  -3 1045.78 99.5484   3
   5   4  -3 1002.35 104.893   9
   5   4  -3 1237.15 118.699  19
   5  -4  -3 1158.21 110.208  18
   5  -4   3 989.419 240.374   8
  -5  -4  -3 1112.14 86.8550  32
   5  -4  -3 1036.14 93.2989  13
  -5  -4  -3 1261.86 277.903   1
  -5   4  -3 1093.13 92.5961  28
   5  -4  -3 1299.71 118.188  25
  -6   4  -3 661.512 77.0171   3
   6  -4   3 755.298 76.7996  23
   6   4  -3 681.732 69.5776  22
   6   4  -3 762.566 91.9041   9
   6   4   3 600.306 71.7506   9
   6   4  -3 654.620 85.9319  19
   6  -4  -3 673.328 84.0026  18
   6  -4   3 497.350 170.877   8
  -6  -4  -3 858.020 75.7788  32
  -6  -4  -3 600.597 193.118   1
   6  -4   3 661.570 67.7125  30
   6  -4  -3 687.653 79.0653  13
   6   4   3 786.697 87.6740  29
  -6   4  -3 616.423 63.6271  28
   6   4  -3 699.424 93.2149  11
   7  -4  -3 610.175 75.7712  23
   7  -4   3 602.057 65.5028  23
   7   4  -3 681.815 84.7178   9
   7   4   3 496.266 60.6321   9
   7   4  -3 617.933 79.4444  19
  -7  -4  -3 649.082 63.9022  32
   7  -4  -3 564.410 72.0638  13
   7   4  -3 581.303 85.1085  11
  -7   4  -3 687.312 74.6428   3
   8  -4  -3 117.464 33.3678  24
   8  -4  -3 125.311 31.9818  23
  -8   4  -3 149.977 32.6524   3
   8   4  -3 112.854 31.4805  19
   8   4  -3 79.7723 28.0003   9
  -8  -4  -3 118.625 25.2828  32
   8  -4  -3 134.082 33.5771  13
   8   4  -3 145.669 40.1910  11
   9  -4  -3 895.301 67.7908  23
   9   4  -3 898.165 74.6483   9
  -9  -4  -3 911.554 57.4950  32
   9  -4  -3 968.223 74.8412  13
  -9   4  -3 962.186 60.8429   3
  10  -4  -3 15.8892 8.48715  14
  10   4  -3 9.38478 6.83994   9
  10  -4   3 16.9340 9.07058  18
  10  -4   3 4.07625 5.87177  13
  10   4  -3 20.8961 10.7857  11
   0   4  -4 634.481 190.703  20
   0   4  -4 574.566 74.8922  16
   0  -4  -4 689.730 188.803   5
   0   4  -4 407.570 58.6372  28
   0   4  -4 463.059 61.5732   3
   1   4  -4 2231.76 345.368  20
  -1   4  -4 2039.39 330.146  20
  -1  -4  -4 2327.16 355.331   7
   1  -4  -4 1647.06 285.484   5
   1  -4   4 2319.11 319.453   8
  -1  -4  -4 2048.99 327.125   5
   1   4  -4 2237.25 149.375  16
  -1   4  -4 2005.70 134.895  16
  -1  -4  -4 1929.48 117.572  32
   1  -4  -4 1769.85 127.086   4
  -1  -4  -4 2104.96 136.342   4
   1   4   4 1819.24 321.168  31
  -1   4   4 2155.92 346.865  31
   1  -4  -4 1466.00 284.167   7
   1   4   4 1698.76 114.435  29
  -1   4  -4 1857.72 124.751  28
   1   4  -4 2028.15 123.987  28
   1   4  -4 1783.92 117.877   3
  -1   4  -4 2012.63 129.717  27
   1   4  -4 1909.90 125.879  27
  -1   4  -4 1970.79 127.999   3
  -2  -4  -4 1074.01 87.3580  32
   2   4  -4 746.773 209.163  10
   2   4  -4 930.165 225.419  20
  -2   4  -4 1237.52 254.660  20
  -2  -4  -4 820.435 189.504   1
   2  -4  -4 982.364 219.561   5
   2   4  -4 998.521 101.618  16
  -2   4  -4 965.847 90.8343  16
   2  -4   4 866.256 206.340   8
  -2  -4  -4 959.691 236.767   5
   2  -4  -4 981.473 92.3942   4
  -2  -4  -4 901.161 88.9119   4
   2   4   4 819.232 218.618  31
  -2   4   4 637.091 192.502  31
  -2  -4  -4 1031.82 234.600   7
   2  -4  -4 865.116 214.372   7
   2   4   4 1042.82 95.3274  29
   2  -4  -4 917.220 85.8890  32
   2   4  -4 859.956 79.1410   3
  -2   4  -4 880.433 86.3375  28
   2   4  -4 891.551 80.1046  28
  -2   4  -4 898.697 86.3166  27
   2   4  -4 884.284 85.9183  27
   2  -4  -4 872.047 89.5875  25
  -2   4  -4 888.354 87.9058   3
   3   4  -4 79.7252 28.2346  11
   3   4  -4-34.1910 33.4441  10
   3   4  -4 29.1856 53.1786  20
  -3   4  -4 142.055 81.8511  20
  -3   4  -4 72.8793 28.4555   3
   3   4  -4 58.7482 23.6010   9
   3   4  -4 126.798 39.1743  16
   3  -4   4 29.1501 37.5572   8
  -3  -4  -4 28.6613 36.9274   1
  -3  -4  -4 68.5257 24.3596  32
   3  -4  -4 82.4506 29.3096  32
  -3  -4  -4 88.5021 65.8334   7
   3  -4  -4 151.831 87.4843   7
   3  -4  -4 34.2274 20.8942   4
  -3  -4  -4 87.0927 29.2398   4
   3   4   4 87.1383 29.7700  29
  -3   4  -4 87.6588 29.4298  28
   3   4  -4 63.2219 21.4283  28
  -3   4  -4 67.9759 24.7716  27
   3   4  -4 73.5633 25.8209  27
  -3  -4   4 163.000 105.005   2
   3  -4   4 157.215 113.233   2
   3  -4  -4 62.4159 26.3589  25
   4   4  -4 8392.62 623.834  20
  -4   4  -4 8103.93 610.198  20
  -4  -4  -4 7341.03 636.951   1
   4   4  -4 7439.41 260.903   9
   4  -4   4 7912.44 654.704   8
  -4  -4   4 7780.80 707.900   2
   4  -4   4 7582.28 686.268   2
  -4  -4  -4 7531.52 600.377   7
   4  -4  -4 7804.10 618.566   7
   4  -4  -4 8331.79 254.489   4
  -4  -4  -4 8527.23 246.618  32
  -4  -4  -4 8412.50 256.527   4
   4  -4  -4 7405.21 252.054  32
   4   4   4 8298.88 287.794  29
  -4   4  -4 7993.75 263.984  28
  -4   4   4 7896.72 239.455  26
   4   4  -4 7147.83 272.870  11
   4  -4  -4 7933.05 284.173  25
   5   4  -4 219.637 50.4921  11
   5   4  -4 208.027 43.6318  22
  -5   4  -4 241.159 49.3093   3
   5   4  -4 269.083 54.5894  19
   5   4  -4 214.224 46.9442   9
   5  -4   4 163.081 102.935   8
  -5  -4  -4 134.162 86.4279   1
  -5  -4  -4 247.067 43.0321  32
   5  -4  -4 291.312 52.9337  15
   5   4   4 238.865 50.3533  29
  -5   4  -4 257.432 46.6363  28
   5   4  -4 244.935 49.1699  12
   5  -4  -4 141.047 41.0554  25
   6  -4  -4 960.570 100.071  24
   6   4  -4 1027.09 84.9987  22
   6   4  -4 893.116 90.8416   9
   6   4  -4 1101.99 103.364  19
   6  -4  -4 831.034 80.4212  15
  -6  -4  -4 964.839 80.9066  32
   6  -4   4 922.373 82.8532  30
   6   4  -4 1024.00 95.8680  12
   6   4  -4 933.518 102.057  11
   6  -4  -4 944.495 100.612  25
  -6   4  -4 1114.79 99.4178   3
   7  -4  -4 1935.61 130.552  24
   7  -4  -4 1831.84 116.181  23
   7   4  -4 1795.58 119.061   9
   7   4  -4 1877.42 121.523  19
  -7  -4  -4 2159.73 111.502  32
   7  -4  -4 1981.21 114.636  13
   7   4   4 2012.64 128.286  29
   7   4  -4 1953.64 121.830  12
   7   4  -4 1831.29 134.192  11
  -7   4  -4 2093.71 127.412   3
   8  -4  -4 15.6277 12.3301  24
   8  -4  -4 36.2759 14.5732  23
  -8   4  -4 33.4298 14.9203   3
   8   4  -4 21.0725 12.7986   9
  -8  -4  -4 10.4738 9.54207  32
   8  -4  -4 21.3374 11.7820  13
   8   4  -4 40.3749 20.0222  11
  -9  -4  -4 241.432 27.0303  32
   9  -4  -4 146.265 21.6589  13
   9   4  -4 200.760 33.4338  11
  -9   4  -4 213.538 27.4380   3
   0   4  -5 459.503 179.411  20
   0   4  -5 831.256 95.1039  16
   0  -4  -5 817.045 223.653   5
   0  -4  -5 906.432 86.0206  32
   0  -4  -5 804.379 225.298   7
   0   4  -5 720.620 80.7880  28
   0   4  -5 715.602 74.9114   3
   1   4  -5 192.667 38.0860   3
  -1   4  -5 215.218 43.5717   3
   1   4  -5 195.443 118.704  20
  -1   4  -5 356.018 144.452  20
   1  -4  -5 197.759 104.019   5
   1   4  -5 213.050 51.0606  16
  -1   4  -5 262.096 53.0622  16
  -1  -4  -5 69.5017 63.3190   5
   1  -4  -5 276.368 49.1137  32
   1   4   5 215.293 130.761  31
  -1   4   5 213.674 121.396  31
   1  -4  -5 266.643 52.5944   4
  -1  -4  -5 189.379 44.2383   4
  -1  -4  -5 103.732 89.0998   7
   1  -4  -5 208.228 118.301   7
   1   4   5 162.420 36.2145  29
  -1   4  -5 227.926 48.1279  28
   1   4  -5 231.901 45.6303  28
  -1  -4  -5 211.848 42.3745  32
  -2   4  -5 461.865 57.1544  22
   2   4  -5 488.380 68.3949  22
   2   4  -5 485.032 179.864  10
   2   4  -5 379.264 152.363  20
  -2   4  -5 465.079 164.708  20
   2  -4  -5 345.159 140.046   5
   2   4  -5 438.093 71.8856  16
  -2   4  -5 469.004 68.1232  16
   2  -4   5 504.641 153.037   8
  -2  -4  -5 420.877 162.929   5
   2  -4  -5 509.536 70.8792   4
  -2  -4  -5 636.547 78.0166   4
  -2  -4  -5 462.789 60.3651  32
   2  -4  -5 471.353 63.1961  32
   2   4   5 242.524 133.916  31
  -2   4   5 553.741 189.180  31
  -2  -4  -5 635.646 192.766   7
   2  -4  -5 578.108 185.887   7
   2   4   5 455.275 64.0767  29
  -2   4  -5 449.457 64.5859  28
   2   4  -5 434.764 58.7494  28
  -2   4  -5 495.306 66.0521   3
   2  -4  -5 524.995 73.1540  25
   3   4  -5 834.781 234.459  10
  -3  -4  -5 967.477 223.006   1
   3   4  -5 747.792 200.251  20
  -3   4  -5 988.534 230.918  20
  -3   4  -5 1046.07 94.6553  16
   3  -4   5 903.985 212.229   8
  -3  -4  -5 707.442 213.760   5
   3  -4  -5 1310.32 108.199   4
  -3  -4  -5 939.387 91.8539   4
   3  -4  -5 889.780 85.3702  32
   3   4   5 929.466 229.916  31
  -3   4   5 888.660 228.362  31
  -3  -4  -5 990.022 239.925   7
   3  -4  -5 919.565 231.760   7
   3   4   5 1030.97 99.1157  29
  -3   4  -5 1031.57 97.4059  28
   3  -4  -5 1016.60 100.992  25
  -3   4  -5 1139.32 101.123   3
   4   4  -5 758.663 83.0514  22
   4   4  -5 746.805 93.5443  16
   4  -4   5 624.715 183.814   8
  -4  -4  -5 495.488 182.397   5
   4  -4  -5 729.239 77.1042  32
   4   4   5 769.121 88.9410  29
  -4   4  -5 732.384 80.0679  28
  -4   4   5 803.237 75.8172  26
   4   4  -5 671.509 75.3637  11
   4  -4  -5 881.023 96.6147  25
  -4   4  -5 805.227 85.3607   3
   5  -4  -5 235.792 47.9174  24
   5   4  -5 244.022 45.9496  22
   5   4  -5 179.586 40.5275  19
   5   4  -5 238.295 51.6224  16
   5  -4  -5 187.918 43.7506  15
  -5  -4  -5 232.472 40.6127  32
   5  -4   5 176.205 40.2349  30
   5   4   5 191.554 45.1512  29
   5   4  -5 131.585 36.7056  12
   5  -4  -5 175.065 43.6558  25
   5   4  -5 165.352 39.6290  11
   6  -4  -5 72.5241 25.6844  24
   6  -4  -5 92.6108 24.7139  23
   6   4  -5 62.8451 21.3006  22
  -6   4  -5 93.2455 28.6043   3
   6  -4  -5 51.2036 21.2921  15
  -6  -4  -5 106.221 27.3712  32
   6  -4   5 44.6215 19.5555  30
   6   4   5 92.0718 29.9426  29
   6   4  -5 65.9876 25.0387  12
   6   4  -5 32.2224 17.7924  11
   7  -4  -5 1636.23 104.382  24
  -7  -4  -5 1657.01 91.4306  32
   7   4   5 1417.67 96.4929  29
   7   4  -5 1355.61 91.3739  12
   7   4  -5 1430.49 98.5379  11
  -7   4  -5 1631.21 102.687   3
   8  -4  -5 64.0282 17.4608  24
  -8   4  -5 46.4235 16.2789   3
  -8  -4  -5 50.3570 14.8069  32
   8   4  -5 36.4269 14.8853  11
   0   4  -6 5933.18 218.837  22
   0   4  -6 5639.35 564.716  20
   0   4  -6 5564.63 242.420  16
   0  -4  -6 5709.61 600.195   7
   0  -4  -6 5970.72 220.629  32
   0   4  -6 5737.76 197.116   3
   1   4  -6 684.868 77.4499  22
  -1   4  -6 622.743 67.2117  22
   1   4  -6 638.783 84.5626  16
  -1   4  -6 620.415 80.3994  16
  -1  -4  -6 725.807 77.1332  32
   1  -4  -6 637.803 71.9211  32
  -1   4  -6 603.690 67.3594   3
   2   4  -6-4.96669 11.0836  22
  -2   4  -6-3.37089 7.52243  22
  -2   4  -6 9.03249 11.6375   3
   2   4  -6-6.23163 13.9064  16
  -2   4  -6 5.30434 6.83415  16
   2  -4  -6-4.44510 8.09934  32
   2   4   6 4.20358 7.65927  29
  -2  -4  -6 4.35303 11.2169  32
   2  -4  -6 11.3461 16.3438  25
   3   4  -6 116.554 34.2711  22
  -3   4  -6 126.396 32.9005   3
  -3   4  -6 139.239 34.8684  16
  -3  -4  -6 155.130 34.8892  32
   3  -4  -6 133.574 33.1526  32
   3   4   6 115.053 33.0135  29
   3  -4  -6 255.559 50.6142  25
   4  -4  -6 78.0183 29.6037  15
   4   4  -6 99.1759 30.7338  22
  -4   4  -6 82.6446 26.8768   3
   4   4  -6 175.305 43.7157  16
  -4  -4  -6 75.4609 23.8150  32
   4  -4   6 94.9624 31.5469  30
   4   4   6 70.4633 26.3816  29
  -4   4   6 51.5876 19.0366  26
   4  -4  -6 99.6546 33.1057  25
   5  -4  -6 12.9106 12.3984  24
   5   4  -6 7.73530 11.1426  22
  -5   4  -6 12.0224 11.5454   3
   5  -4  -6-4.67905 10.4417  15
  -5  -4  -6 20.4528 13.1758  32
   5  -4   6 8.57906 11.0533  30
   5   4   6 13.0498 12.5320  29
   5   4  -6 13.8117 11.8634  12
   6  -4  -6 1049.30 78.6316  24
   6   4  -6 1104.14 74.9088  22
   6  -4  -6 930.142 69.6700  14
   6  -4   6 1055.60 78.1947  30
   6   4   6 1108.07 83.8191  29
   6   4  -6 922.867 75.3058  12
  -6   4  -6 1037.20 79.7532   3
   6  -4  -6 1145.32 87.5918  25
   7   4  -6 6.68372 5.74091  12
   7  -4  -6 4.49858 5.79600  14
  -8   4  -6 162.998 20.7784   3
   0   4  -7 139.297 30.5250  22
   0   4  -7 154.522 38.1222  16
   0  -4  -7 143.657 31.8362  32
   1   4  -7 383.899 52.4000  22
  -1   4  -7 345.312 42.8808  22
   1   4  -7 397.525 61.8390  16
  -1   4  -7 381.514 56.6859  16
  -1  -4  -7 369.428 49.2011  32
   1  -4  -7 408.328 50.7633  32
   1  -4  -7 341.846 55.2797  25
  -2   4  -7 72.8928 21.6067   3
   2   4  -7 78.5412 24.7872  22
   2   4  -7 41.7431 23.2884  16
  -2   4  -7 43.5533 20.2323  16
  -2  -4  -7 52.3025 20.5871  32
   2  -4  -7 79.1956 22.0915  32
   2  -4   7 55.1322 25.8301  30
   2  -4  -7 38.7002 19.7095  25
   3   4  -7 146.069 32.0091  22
  -3   4  -7 115.737 26.8439   3
   3   4  -7 170.112 39.6051  16
  -3   4  -7 145.272 31.3893  16
   3  -4  -7 102.987 33.1723  15
  -3  -4  -7 149.225 29.8485  32
   3  -4   7 131.121 34.1305  30
   3   4   7 142.023 28.6850  29
  -3   4   7 127.994 28.4409  26
   3  -4  -7 163.190 37.3970  25
   4  -4  -7 30.7821 14.6152  24
  -4   4  -7 27.2892 14.0855   3
   4  -4  -7 48.2214 19.1166  17
   4   4  -7 42.1009 21.0083  16
   4  -4  -7 48.2853 21.1611  15
   4  -4   7 57.0111 21.6326  30
   4   4   7 49.4095 17.3429  29
  -4  -4  -7 51.8441 17.7969  32
   5   4  -7 144.170 26.6911  22
  -5   4  -7 134.365 26.2933   3
   5  -4  -7 123.244 27.1423  15
  -5  -4  -7 159.959 27.2224  32
   5  -4   7 144.390 29.5231  30
   5   4   7 135.176 25.8324  29
   5   4  -7 147.312 28.2381  12
   5  -4  -7 136.541 29.0194  25
  -6   4  -7 29.7082 11.1228   3
   6   4  -7 29.9572 10.4044  21
  -6  -4  -7 43.0097 12.6465  32
   6  -4   7 28.6415 11.1830  30
   0  -4  -8 773.647 73.1605  17
   0   4  -8 651.593 64.6029  16
   0  -4   8 795.442 63.8837  30
   0  -4  -8 736.422 66.2930  25
   1   4  -8-2.36069 4.30137  22
   1  -4  -8 3.79603 10.9362  17
  -1  -4  -8 3.49803 7.80615  17
   1   4  -8 3.67253 9.46344  16
  -1   4  -8-3.34335 7.46098  16
   1  -4   8 3.30912 8.52698  30
  -1  -4   8 2.27039 5.85037  30
   1  -4  -8 6.73634 10.6297  25
   2   4  -8 170.618 27.9122  22
  -2  -4  -8 160.979 29.1097  17
   2  -4  -8 139.206 30.4109  17
  -2   4  -8 139.812 27.2635  16
   2  -4   8 187.286 33.9286  30
  -2   4   8 129.523 24.1424  26
   2  -4  -8 156.168 31.0017  25
   3  -4  -8-2.82453 6.30319  17
   3   4  -8-6.02710 7.76536  16
  -3   4  -8 3.99285 4.45520  16
   3  -4  -8-3.26392 5.94714  15
   3  -4   8-3.03997 6.78396  30
   4   4  -8 121.793 20.0337  21
   4  -4  -8 94.8338 20.7816  15
   4  -4  -8 101.885 19.7493  25
   0  -5   0 1402.78 236.823   1
   0   5   0 1440.31 109.375  26
  -1   5   0 4.37514 7.97187   3
   1  -5   0-3.39782 6.19111  32
   1  -5   0-37.1771 36.9969   2
  -1  -5   0-38.3162 38.1334   2
  -1   5   0 4.84450 10.8109  27
   1   5   0 4.78891 10.6869  27
  -1  -5   0-26.9289 26.5617   1
   1   5   0-4.49160 5.78701  26
  -1   5   0-4.68901 10.4639  26
  -2  -5   0-30.7165 30.3803   1
   2  -5   0 36.2831 46.7474   2
  -2  -5   0-37.9641 37.6972   2
   2  -5   0 3.67252 8.19556  32
  -2   5   0 14.1183 13.5581  27
   2   5   0 9.42136 12.1386  27
   2   5   0-4.31231 5.55601  26
   3  -5   0 26.4336 15.0178  24
  -3   5   0 4.41308 8.04099   3
   3  -5   0-4.37742 9.76860  18
  -3  -5   0-34.2300 33.8796   1
   3  -5   0-35.3184 45.5045   2
  -3  -5   0-37.0724 36.6407   2
  -3   5   0 4.54435 10.1411  28
  -3   5   0-4.47465 11.5304  27
   3   5   0-4.55688 8.30302  27
   4  -5   0 13011.3 325.773  24
   4   5   0 13590.2 375.621  19
   4  -5   0 12713.9 842.133   2
  -4  -5   0 13404.5 887.879   2
   4  -5   0 13337.5 341.713  18
  -4  -5   0 13146.6 925.602   1
   4   5   0 12856.4 277.308  28
  -4   5   0 13127.1 318.313  28
  -4   5   0 12487.1 303.768   3
  -4   5   0 12698.6 302.362  27
   4   5   0 13184.4 308.745  27
   5  -5   0-5.01445 6.46066  24
  -5   5   0 3.90840 8.72194   3
   5   5   0 6.35403 11.5776  19
   5  -5   0-5.27371 13.5894  18
  -5   5   0 4.02338 7.33093  28
   6  -5   0 4776.96 203.391  24
   6  -5   0 4536.85 210.874  23
   6   5   0 5151.65 249.244   9
   6   5   0 4485.97 220.288  19
   6  -5   0 4737.08 209.567  18
   7  -5   0-5.08320 9.26201  23
   7   5   0-5.60311 10.2093  19
   7   5   0 6.28167 14.0181   9
   7  -5   0 9.81080 15.4812  18
   8  -5   0 873.084 79.6122  23
   8   5   0 805.806 83.2903   9
   8  -5   0 883.855 80.0163  18
   8   5   0 941.670 91.7212  11
   9  -5   0 2.84904 6.35788  23
   9   5   0-6.45304 7.20027   9
   9  -5   0-2.97179 6.63181  18
   9  -5   0 3.05141 7.86293  13
   9   5   0 3.10689 5.66102  11
   0  -5  -1 3993.20 163.154  32
   0   5  -1 4218.87 184.192  28
   0   5  -1 4643.36 194.144   3
   0   5   1 4474.20 190.760  26
  -1  -5  -1 974.396 205.808   1
   1  -5  -1 1442.97 308.938   2
  -1  -5  -1 987.959 268.151   2
  -1  -5  -1 1404.08 94.1764  32
   1  -5  -1 1215.16 92.7371  32
   1  -5   1 1390.09 310.689   2
  -1  -5   1 1692.44 347.655   2
   1   5  -1 1360.70 102.538  28
  -1   5  -1 1402.80 107.113   3
  -1   5   1 1373.81 109.775  27
   1   5   1 1339.53 108.053  27
  -1   5  -1 1343.68 107.802  27
   1   5  -1 1358.18 106.634  27
   1   5   1 1295.66 101.978  26
  -1   5   1 1292.05 103.795  26
  -2   5  -1 38.2075 21.3159   3
  -2  -5  -1 28.8655 37.1906   1
   2  -5  -1 54.1031 20.7672  18
   2  -5  -1 36.1306 46.5509   2
  -2  -5  -1 112.764 96.8574   2
  -2  -5  -1 79.7824 22.7887  32
   2  -5   1 112.267 96.4304   2
  -2  -5   1 77.0465 85.9680   2
   2  -5  -1 51.5309 21.4282  32
   2   5  -1 86.9252 26.6655  28
  -2   5  -1 74.0439 26.6648  28
  -2   5   1 72.6160 25.7169  27
   2   5   1 58.2187 23.3883  27
  -2   5  -1 69.6670 26.0835  27
   2   5  -1 78.6446 25.9806  27
   2   5   1 26.4611 17.0464  26
  -2   5   1 88.7734 28.8700  26
   3   5   1 760.209 85.7598  19
   3  -5  -1 835.377 82.9314  18
   3  -5   1 738.747 202.220   8
  -3  -5  -1 723.449 64.4073  32
   3  -5   1 651.179 208.447   2
   3  -5  -1 709.422 75.7475  32
  -3  -5   1 1308.45 296.916   2
   3   5  -1 872.458 76.8742  28
  -3   5  -1 845.828 82.9174  28
  -3   5   1 773.004 80.1958  27
   3   5   1 773.117 80.5424  27
  -3   5  -1 837.048 81.2694  27
   3   5  -1 835.289 82.3997  27
  -3   5  -1 886.024 88.0360   3
   3   5   1 853.250 79.0357  26
  -3   5   1 846.313 83.2323  26
  -3  -5  -1 685.864 201.807   1
   4  -5  -1 1548.57 120.811  24
  -4  -5   1 1681.41 337.538   1
   4   5   1 1453.52 121.272  19
   4  -5  -1 1364.39 112.472  18
   4  -5   1 1199.67 264.207   8
   4  -5   1 1542.00 302.328   2
  -4  -5   1 1081.77 262.160   2
  -4  -5  -1 1336.79 84.5008  32
  -4   5  -1 1414.88 106.120  28
  -4  -5  -1 1392.90 298.217   1
  -4   5   1 1565.44 108.652  27
   4   5   1 1450.06 104.489  27
  -4   5  -1 1529.31 104.839  27
   4   5  -1 1417.56 101.106  27
  -4   5  -1 1380.02 109.078   3
   4   5   1 1343.26 95.0160  26
   5  -5  -1 145.375 38.7945  24
   5  -5   1 165.335 37.3113  24
  -5   5  -1 129.044 32.9344   3
   5   5   1 167.014 43.4734  19
   5   5  -1 113.304 39.3513  19
   5  -5  -1 153.047 40.4555  18
   5  -5   1 162.602 102.632   8
  -5  -5  -1 224.721 127.672   1
  -5   5   1 158.294 33.7375  28
  -5   5  -1 195.295 38.6055  28
  -5  -5   1 79.0288 88.1799   1
   6  -5  -1 2858.61 166.106  24
   6  -5   1 2969.72 160.673  23
   6   5   1 2606.97 172.830   9
   6   5   1 2755.63 167.487  19
   6   5  -1 2807.68 178.184  19
   6  -5  -1 2573.17 157.574  18
  -6   5  -1 2912.20 139.064   3
   7   5  -1 145.161 41.4631  11
   7  -5  -1 185.671 40.8909  24
   7  -5  -1 171.904 40.2694  23
   7  -5   1 162.292 36.2726  23
   7   5  -1 170.711 42.7498  19
   7   5   1 193.044 45.0943   9
   7  -5  -1 182.680 40.2320  18
   7  -5   1 151.070 37.4949  18
   8  -5  -1 1079.76 88.7488  23
   8  -5   1 1126.73 84.0093  23
   8   5   1 1013.63 87.5166   9
   8   5  -1 1057.27 94.8424   9
   8  -5  -1 1077.71 88.3832  18
   8  -5   1 1142.94 88.6650  18
   8  -5  -1 936.947 81.0776  13
   8   5  -1 1050.04 95.7932  11
   8   5   1 1092.51 91.6766  11
   9  -5  -1 8.43634 8.10160  23
   9  -5   1 2.39156 4.35762  23
   9   5   1 7.79648 8.20175   9
   9   5  -1 6.50777 8.38466   9
   9  -5   1-2.76257 6.16492  18
   9  -5  -1 2.66777 5.95335  13
   9  -5   1 6.09207 8.77552  13
   9   5  -1 3.25734 8.39356  11
   9   5   1 2.26110 5.04585  11
   0   5  -2 3876.24 176.871  28
   0  -5  -2 3601.59 163.716  32
   1  -5   2 3525.86 402.693   8
   1  -5   2 3938.49 536.451   2
  -1  -5   2 3739.18 526.752   2
   1   5  -2 3508.60 180.475  16
  -1  -5  -2 3565.36 158.914  32
   1  -5  -2 3846.85 174.940  32
   1   5  -2 3856.61 172.122  28
  -1   5  -2 3901.65 184.957   3
  -1   5  -2 3616.31 175.837  27
   1   5  -2 3858.94 180.722  27
   1   5   2 3486.57 170.143  26
  -1   5   2 3702.54 177.474  26
  -2   5  -2 36.2736 20.0293   3
  -2  -5  -2 26.5452 34.2010   1
   2  -5  -2 13.6907 15.5563  18
   2  -5   2 28.8003 37.1065   8
  -2  -5  -2 50.3511 20.5752  32
   2  -5  -2 38.2366 19.4734  32
   2  -5   2 79.4980 72.4260   2
  -2  -5   2 119.745 89.0736   2
   2   5  -2 66.2549 23.2556  28
  -2   5  -2 38.1308 19.4195  28
  -2   5  -2 46.8476 21.7627  27
   2   5  -2 37.2747 19.9101  27
   2   5   2 45.9006 22.1277  26
  -2   5   2 47.7149 23.0023  26
   2  -5  -2 36.6374 17.7015  25
  -3   5  -2 222.931 46.3825   3
  -3  -5  -2 183.756 104.398   1
   3   5   2 218.615 44.2594  19
   3  -5  -2 229.886 47.0043  18
   3  -5   2 370.605 143.468   8
  -3  -5  -2 204.785 37.4675  32
   3  -5  -2 215.726 43.8396  32
   3  -5   2 340.050 153.941   2
  -3  -5   2 343.924 155.694   2
   3   5  -2 238.953 40.2977  28
  -3   5  -2 226.808 44.7371  28
  -3   5   2 214.854 43.9308  27
   3   5   2 245.247 47.5898  27
  -3   5  -2 209.010 42.1035  27
   3   5  -2 234.087 44.9265  27
   3   5   2 222.569 42.4508  26
  -3   5   2 187.112 40.8765  26
   3  -5  -2 171.042 40.4772  25
   4  -5   2 4732.77 188.817  23
   4   5  -2 4540.43 467.351  20
  -4   5  -2 4187.69 442.441  20
   4   5   2 4717.62 205.032  19
   4  -5  -2 4564.56 211.281  18
   4  -5   2 4187.09 484.092   8
   4  -5   2 4935.10 544.388   2
  -4  -5   2 4463.13 524.133   2
  -4  -5  -2 4429.52 509.734   1
  -4  -5  -2 4407.69 165.527  32
  -4   5  -2 4368.12 190.699  28
  -4   5   2 4240.68 181.164  27
   4   5   2 4687.81 187.852  27
  -4   5  -2 4580.34 181.922  27
   4   5  -2 4810.80 186.054  27
  -4   5  -2 4616.13 207.366   3
   4   5   2 4548.33 176.869  26
  -4   5   2 4324.44 185.059  26
   4  -5  -2 4744.00 220.942  24
   5  -5  -2-6.01594 10.9615  24
  -5  -5  -2-34.9332 34.1835   1
   5  -5   2 13.3436 11.4613  23
  -5   5  -2-4.90914 10.9552   3
   5   5   2 10.7687 12.0156  19
   5   5  -2 33.4736 21.1281   9
   5  -5  -2 28.1765 19.2096  18
   5  -5   2-32.4574 31.8826   8
  -5  -5  -2 3.29213 9.48450  32
  -5   5   2-3.63491 8.11162  28
  -5   5  -2 12.8748 13.5440  28
   6  -5  -2 2674.03 166.768  24
   6  -5   2 2720.29 140.306  23
   6   5  -2 2480.59 122.426  22
   6   5  -2 2401.03 166.493   9
   6   5   2 2553.91 156.527   9
   6   5  -2 2421.38 166.136  19
   6  -5  -2 2741.76 161.404  18
  -6  -5  -2 2619.60 115.593  32
   6  -5  -2 2484.36 137.142  13
  -6   5  -2 2350.58 116.395  28
  -6   5  -2 2441.79 135.795   3
   7  -5  -2 627.933 74.6418  24
   7  -5   2 759.422 68.6115  23
   7   5  -2 702.189 84.4047   9
   7   5   2 604.061 70.0116   9
   7   5  -2 707.264 82.9384  19
   7  -5  -2 614.712 72.9029  18
  -7  -5  -2 663.341 52.1583  32
   7  -5  -2 589.818 65.3904  13
  -7   5  -2 622.705 60.5231   3
   8   5   2 3.12889 5.70110  11
   8  -5  -2-3.71277 8.28536  23
   8  -5   2 5.31206 6.84409  23
   8   5   2 15.7286 10.7232   9
   8   5  -2 4.28978 9.57303   9
   8  -5  -2 3.79842 9.78782  18
   8  -5   2 10.4520 10.9953  18
   8  -5  -2-3.14354 7.01510  13
   9  -5  -2 13.9344 8.46321  23
   9   5  -2 8.04517 7.72595   9
   9  -5   2 13.9483 8.47167  18
   9   5  -2 8.65301 8.30968  11
   0   5  -3 25.7754 17.5727   3
   0   5  -3 32.3781 41.7162  20
   0   5  -3 26.6386 16.8140  16
   0  -5  -3 18.4538 16.8121  32
   0   5  -3 33.4795 18.4865  28
   1   5  -3 2459.83 377.231  20
  -1   5  -3 2473.87 379.385  20
   1  -5   3 2271.13 324.577   8
   1   5  -3 2618.89 161.309  16
  -1   5  -3 2383.20 138.985  16
  -1  -5   3 3119.13 489.778   2
   1  -5   3 2697.51 455.404   2
  -1  -5  -3 2992.46 152.281  32
   1  -5  -3 2723.57 151.228  32
   1   5  -3 2825.20 150.116  28
   1   5  -3 2879.61 159.362   3
  -1   5  -3 2719.07 159.442   3
  -1   5  -3 2599.59 151.759  27
   1   5  -3 2789.78 156.755  27
   1   5   3 2621.32 153.184  26
  -1   5   3 2689.95 154.510  26
   1  -5  -3 2605.83 143.979  25
   2   5  -3 31.2780 40.2988  20
  -2   5  -3-30.9809 30.6067  20
   2  -5   3-28.7804 28.3212   8
   2   5  -3 6.11333 13.6424  16
  -2  -5  -3 28.5364 36.7665   5
  -2  -5  -3-4.21079 10.8504  32
   2  -5  -3 4.98628 11.1273  32
   2  -5   3 41.8647 53.9388   2
  -2  -5   3 83.8034 76.3484   2
  -2   5  -3 4.97857 11.1101  28
  -2   5  -3 9.68747 12.4814  27
   2   5  -3 4.82766 8.79640  27
   2   5   3 9.76285 12.5785  26
  -2   5   3 9.92050 14.2903  26
   2  -5  -3 5.03622 6.48870  25
  -3   5  -3 1672.06 299.986  20
   3   5  -3 1208.73 255.303  20
  -3  -5  -3 2292.20 340.079   1
   3  -5   3 1255.09 261.620   8
  -3  -5  -3 1602.28 107.153  32
   3  -5  -3 1515.10 117.468  32
   3  -5  -3 1631.29 119.070   4
  -3  -5  -3 1658.93 121.622   4
   3  -5   3 1595.03 336.236   2
  -3  -5   3 2135.63 384.700   2
  -3   5  -3 1902.46 127.277  28
   3   5  -3 1732.45 108.355  28
  -3   5  -3 1699.82 117.893  27
   3   5  -3 1880.17 125.013  27
  -3   5  -3 1782.46 132.551   3
   3   5   3 1978.17 125.708  26
  -3   5   3 1732.81 121.693  26
   3  -5  -3 1728.37 127.683  25
   4   5  -3 1211.35 245.749  20
   4  -5   3 854.944 219.698   8
   4  -5  -3 1686.71 287.483   7
  -4  -5  -3 1283.63 93.4761  32
   4  -5  -3 1310.87 100.124   4
  -4  -5  -3 1235.58 99.3620   4
   4  -5   3 1056.78 259.842   2
  -4  -5  -3 837.013 215.090   1
  -4   5  -3 1294.60 104.201  28
  -4   5   3 1311.48 101.114  27
   4   5   3 1205.94 95.7020  27
  -4   5  -3 1243.03 95.6857  27
   4   5  -3 1299.26 98.6642  27
   4   5   3 1266.22 94.3672  26
  -4   5   3 1231.20 96.8651  26
  -4   5  -3 1149.34 105.091   3
   4  -5  -3 1247.65 109.036  25
   5  -5  -3 131.123 39.1557  24
   5   5  -3 152.963 41.8711  11
  -5   5  -3 189.037 41.6320   3
   5   5  -3 149.176 43.4215  19
   5   5  -3 107.862 35.3801   9
   5   5   3 117.750 32.2321   9
  -5  -5  -3 114.974 27.7750  32
  -5   5  -3 155.418 35.6159  28
   6  -5  -3 575.841 74.0729  24
   6   5  -3 524.024 56.7560  22
   6   5  -3 577.271 74.9640   9
   6   5   3 483.619 59.3539   9
   6   5  -3 552.897 75.3086  19
  -6  -5  -3 578.695 58.0180  32
  -6   5  -3 688.630 62.7927  28
  -6   5  -3 603.167 69.0083   3
   6   5  -3 707.590 87.0127  11
   7   5  -3 151.131 38.3990  11
   7   5   3 147.667 31.3549  11
   7  -5  -3 189.587 39.4450  24
   7  -5  -3 178.447 36.2019  23
  -7   5  -3 154.284 31.8540   3
   7   5  -3 181.200 39.2537  19
   7   5  -3 153.638 35.8893   9
  -7  -5  -3 196.756 29.9637  32
   8  -5  -3 6.64959 9.57862  24
   8  -5  -3 17.2656 11.1226  23
  -8   5  -3 10.4298 7.11064   3
   8   5  -3 3.18445 8.20573   9
  -8  -5  -3 11.7549 6.49074  32
   8   5  -3 11.0977 12.6099  11
   9  -5   3 3.36156 6.12505  18
   9   5  -3-2.05274 5.28954  11
   0   5  -4 5361.69 561.457  20
   0   5  -4 5788.28 240.454  16
   0  -5  -4 5702.50 590.732   7
   0  -5  -4 5603.31 221.142  32
   0   5  -4 5723.43 223.388  28
   0   5  -4 5582.76 221.149   3
   0  -5  -4 5299.30 203.193  25
   1   5  -4 2621.20 396.439  20
  -1   5  -4 2798.25 411.676  20
  -1  -5  -4 2059.37 333.018   5
   1   5  -4 2503.80 163.593  16
  -1   5  -4 2534.76 151.397  16
  -1  -5   4 3118.51 497.087   2
   1  -5   4 2533.00 447.176   2
  -1  -5  -4 3070.12 430.628   7
   1  -5  -4 3145.90 436.137   7
  -1  -5  -4 2546.23 145.596  32
   1  -5  -4 2680.17 153.255  32
   1  -5  -4 3067.31 170.884   4
  -1  -5  -4 2499.97 155.653   4
   1   5  -4 2482.28 142.723   3
  -1   5  -4 2673.49 156.054  28
   1   5  -4 2622.20 146.389  28
  -1   5  -4 2448.71 152.143   3
  -1   5  -4 2619.98 153.169  27
   1   5  -4 2546.45 153.306  27
  -1   5   4 3097.08 170.855  26
  -1  -5  -4 2452.08 131.400  25
   1  -5  -4 2373.23 143.981  25
  -2   5  -4 21.6392 17.0730   3
   2   5  -4-31.7661 31.2116  20
  -2   5  -4-31.4414 30.8729  20
   2  -5   4 54.3211 49.4888   8
   2   5  -4 12.6735 16.3286  16
  -2  -5  -4 61.8748 56.3705   5
  -2  -5  -4 22.7089 14.3336  32
   2  -5  -4 15.1714 15.9600  32
  -2  -5  -4 32.8610 42.3383   7
   2  -5  -4 33.1338 42.6899   7
   2  -5  -4 31.7893 20.4788   4
  -2  -5  -4 42.7425 21.7683   4
  -2  -5   4 43.0914 55.5193   2
  -2   5  -4 61.6338 27.2845  28
   2  -5   4-42.2243 41.4346   2
   2   5  -4 34.2948 17.4659  28
  -2   5  -4 19.8527 16.9185  27
   2   5  -4 29.7457 18.0664  27
  -2   5   4 45.6545 22.6404  26
   2  -5  -4 26.0108 16.4177  25
   3   5  -4 841.673 83.6149   9
   3   5  -4 998.572 106.258  16
  -3  -5  -4 1037.45 88.9139  32
   3  -5  -4 1064.62 95.8872   4
  -3  -5  -4 957.479 91.3182   4
  -3   5  -4 1020.37 94.6572  28
   3   5  -4 867.130 75.5458  28
  -3   5  -4 936.630 87.3130  27
   3   5  -4 1037.69 92.4655  27
   3   5   4 883.921 86.5567  26
  -3   5   4 989.914 91.2386  26
   3   5  -4 970.658 91.5301  11
   3  -5  -4 1010.18 96.8996  25
   4   5  -4 71.9188 27.2893  11
   4   5  -4 73.8429 26.9096  22
  -4   5  -4 104.528 34.3354   3
   4   5  -4 92.3614 28.7012   9
   4  -5  -4 94.8084 27.7618  15
  -4  -5  -4 137.362 32.5068  32
   4  -5  -4 109.318 29.6710   4
  -4  -5  -4 65.4813 23.8625   4
  -4   5  -4 74.0357 27.9631  28
   4   5   4 95.5617 27.6264  26
  -4   5   4 99.3213 28.0360  26
   4  -5  -4 84.9029 29.8011  25
   5   5  -4 55.5315 23.4515  11
   5  -5  -4 10.7596 12.0055  24
   5   5  -4 29.5216 16.3011  22
  -5   5  -4 52.5404 23.0260   3
   5   5  -4 44.2749 22.5487  19
   5   5  -4 27.2335 16.5406   9
  -5  -5  -4 54.1535 20.2752  32
  -5   5  -4 76.4364 24.8579  28
   5  -5  -4 70.2091 26.6405  25
   6  -5  -4 561.954 62.2166  23
   6   5  -4 539.225 54.1768  22
   6   5  -4 585.782 62.6101   9
   6   5  -4 616.491 69.8408  19
  -6  -5  -4 652.536 59.1912  32
  -6   5  -4 609.999 67.4622   3
   6   5  -4 690.429 73.7950  11
   7  -5  -4 5.86968 8.45517  23
  -7   5  -4 15.1796 11.0634   3
   7   5  -4 9.75747 9.37031  19
  -7  -5  -4 16.4516 10.0429  32
   7   5  -4 7.27631 11.4818  11
  -8  -5  -4 624.509 39.5331  32
  -8   5  -4 648.934 43.8117   3
   8   5  -4 697.827 53.0412  11
   0   5  -5 35.3007 17.9782   3
   0   5  -5 68.5880 28.5211  16
   0   5  -5 48.0079 22.3017  28
   0  -5  -5 41.5893 19.7464  25
   1   5  -5 712.972 86.9923  16
  -1   5  -5 633.198 76.2438  16
   1  -5  -5 804.440 87.9006   4
  -1  -5  -5 647.271 78.5825   4
  -1   5  -5 657.983 76.8001  28
   1   5  -5 594.470 68.5898  28
  -1   5  -5 684.616 75.2166   3
  -1  -5  -5 634.190 69.5465  25
   1  -5  -5 565.625 69.6749  25
   2   5  -5 108.256 32.9431  22
  -2   5  -5 77.4651 23.2834  22
  -2   5  -5 67.0604 28.2814   3
   2   5  -5 48.6727 24.7884  16
  -2   5  -5 91.8356 27.6027  16
  -2  -5  -5 76.7553 26.6577  32
   2  -5  -5 52.0528 22.8123  32
   2  -5  -5 90.8669 29.0872   4
  -2  -5  -5 81.1775 28.4935   4
   2   5  -5 73.8994 24.0328  28
  -2   5   5 128.399 34.6598  26
   2  -5  -5 89.8308 28.7555  25
  -3   5  -5 70.3371 28.3373   3
   3   5  -5 17.8121 17.1053  16
  -3  -5  -5 50.3102 21.6067  32
   3  -5  -5 54.0234 22.4647  32
  -3  -5  -5 27.6701 16.8057   4
  -3   5  -5 32.2833 19.7074  28
  -3   5   5 54.5141 21.6112  26
   3  -5  -5 29.7102 18.0448  25
   4   5  -5 172.166 36.7848  22
  -4   5  -5 215.789 41.6950   3
   4   5  -5 155.059 36.4031  19
  -4  -5  -5 223.434 39.9382  32
  -4   5  -5 138.650 33.6424  28
   4   5   5 145.536 31.3536  26
  -4   5   5 156.447 31.1430  26
   4  -5  -5 193.179 40.7226  25
   5   5  -5 56.3668 20.2989  22
   5   5  -5 51.2418 20.3140  19
  -5  -5  -5 85.4808 23.5846  32
   5  -5   5 71.5196 22.0959  30
   5  -5  -5 54.9329 23.0982  25
   6  -5  -5 35.2824 16.3902  24
   6   5  -5 31.6903 12.5631  22
  -6   5  -5 50.9071 17.8685   3
  -6  -5  -5 39.4089 14.7548  32
   7  -5  -5 175.439 27.7264  24
  -7  -5  -5 214.979 26.4678  32
  -7   5  -5 179.377 27.3257   3
   0   5  -6 3.80169 8.48380  22
   0   5  -6 14.5733 13.9950  16
   0  -5  -6 8.36743 10.7807  32
   0  -5  -6 4.14397 9.24762  25
   1   5  -6 260.163 44.0602  22
  -1   5  -6 239.598 37.8232  22
   1   5  -6 265.446 51.3679  16
  -1   5  -6 215.273 42.3586  16
  -1  -5  -6 343.466 49.9780  32
   1  -5  -6 208.974 39.8578  32
  -1   5  -6 247.333 40.7176   3
  -1   5   6 309.202 49.3405  26
  -1  -5  -6 273.669 44.0747  25
   1  -5  -6 245.857 43.7579  25
   2   5  -6 312.582 46.7229  22
   2   5  -6 278.876 51.0231  16
  -2   5  -6 221.412 38.5637  16
  -2  -5  -6 312.198 46.3189  32
   2  -5  -6 251.330 42.2717  32
  -2   5  -6 340.975 47.4314   3
  -2   5   6 361.993 50.0191  26
  -2  -5  -6 237.268 37.4554  25
   2  -5  -6 267.273 45.4626  25
  -3   5  -6 91.1228 24.7325   3
   3   5  -6 70.3915 22.3888  22
   3   5  -6 85.1549 24.7866  19
   3   5  -6 95.7238 29.5738  16
   3   5   6 92.5720 25.5411  26
  -3   5   6 96.8285 24.1460  26
   3  -5  -6 66.0368 24.3685  25
   4   5  -6 1128.70 79.9339  22
   4  -5   6 1026.68 79.5997  30
  -4   5  -6 922.042 72.1560   3
   4   5   6 914.100 64.6943  26
   4  -5  -6 1026.53 81.7602  25
   4  -5  -6 1115.78 87.1568  24
   5  -5  -6 3.07736 5.60720  24
  -5   5  -6-2.70896 6.98048   3
   5   5  -6-2.50918 7.22888  22
  -5  -5  -6-2.56146 7.37949  32
   5  -5   6 2.66645 5.95042  30
   6  -5  -6 30.9648 10.9662  24
  -6  -5  -6 7.32230 7.45831  32
   0   5  -7 2.30723 5.94530  22
   0   5  -7-3.40419 8.77197  16
   0  -5  -7 2.73816 7.05574  32
   0   5   7 9.08352 9.55569  26
   0  -5  -7-3.03724 5.53411  25
   1   5  -7 51.8952 16.3778  22
   1   5  -7 42.7830 18.3740  16
  -1   5  -7 47.7911 16.7748  16
  -1  -5  -7 54.3496 17.8528  32
   1  -5  -7 55.0987 16.5608  32
   1  -5   7 73.0145 22.3982  30
  -1   5   7 49.9464 16.7686  26
  -1  -5  -7 40.7408 14.8466  25
   1  -5  -7 53.5416 18.1472  25
   2   5  -7 93.1835 21.3541  22
   2   5  -7 83.8718 24.2470  16
  -2   5  -7 94.6038 19.6388  16
  -2  -5  -7 104.907 23.0766  32
   2  -5   7 96.1067 25.6189  30
   2   5   7 123.320 25.7880  26
  -2   5   7 91.6128 20.5269  26
  -2  -5  -7 80.8064 17.9659  25
   2  -5  -7 107.474 24.3883  25
   3  -5  -7 27.8103 12.4122  24
   3   5  -7 44.9164 14.6072  22
   3  -5  -7 10.9918 9.36725  17
   3  -5  -7 25.8908 12.8394  15
  -3  -5  -7 36.8836 13.9309  32
   3   5   7 26.0860 10.8474  26
  -3   5   7 20.3166 8.30204  26
   3  -5  -7 25.1094 12.9604  25
   4  -5  -7 2.08079 3.79138  24
  -4   5  -7 3.08220 4.43985   3
  -4  -5  -7 3.77426 4.86279  32
   4  -5   7 2.21058 5.69627  30
   4  -5  -7-2.28577 4.16487  25
   0  -5  -8 26.2266 10.2401  17
   0   5   8 28.2975 9.11467  26
   1   5   8-1.40768 4.79852  26
   0   6   0 13276.5 343.254  28
   1  -6   0 42.1288 54.2791   2
  -1  -6   0 43.0071 78.3625   2
   1   6   0 9.63932 15.2106  28
  -1   6   0 5.26778 15.1763  27
   1   6   0 5.21259 11.6324  27
   2  -6   0 1390.92 315.630   2
  -2  -6   0 1187.32 298.401   2
   2   6   0 1396.56 104.606  28
  -2   6   0 1502.21 113.871  28
  -2   6   0 1602.49 119.072  27
   2   6   0 1435.81 111.790  27
   3   6   0-5.71011 7.35695  19
   3   6   0-3.93889 10.1498  28
  -3   6   0 4.63234 10.3375  28
  -3   6   0 4.45930 8.12521  27
   3   6   0-4.52829 10.1053  27
   4   6   0 475.883 69.1876  19
   4  -6   0 486.895 58.5963  18
  -4   6   0 448.396 59.6364  28
  -4   6   0 431.053 54.6845  27
   4   6   0 578.755 62.1691  27
   5  -6   0-3.45376 6.29304  24
   5   6   0 5.21216 9.49699  19
   5  -6   0-4.00409 8.93548  18
  -5   6   0-3.40697 7.60295  28
   6  -6   0 1996.41 118.922  23
   6   6   0 1936.31 132.643   9
   6   6   0 2049.71 126.957  19
   6  -6   0 1847.27 108.500  18
   7   6   0-4.08023 10.5140  11
   7  -6   0 3.08122 5.61424  23
   7   6   0 4.01485 7.31540   9
   7  -6   0 5.90185 8.50152  18
   7  -6   0 2.66852 6.87627  13
   8   6   0 4.92445 7.09359  11
   8  -6   0-1.85493 4.13944  23
   8   6   0 7.34824 7.73021   9
   0  -6  -1 156.848 33.7907  32
   0   6  -1 234.519 47.6777  28
   0   6   1 163.987 40.1619  26
   1   6   1 216.404 41.8870  19
   1  -6   1 298.518 155.407   2
  -1  -6   1 472.097 191.550   2
  -1  -6  -1 213.040 37.2180  32
   1  -6  -1 179.478 36.3360  32
   1   6  -1 231.998 45.6494  28
  -1   6   1 226.747 48.0410  27
   1   6   1 192.679 44.5053  27
  -1   6  -1 227.592 46.6505  27
   1   6  -1 240.515 48.8966  27
   1   6   1 241.466 47.5125  26
  -1   6   1 257.886 50.6087  26
   2  -6  -1 497.731 61.0342  24
   2   6   1 533.231 67.1957  19
   2  -6   1 403.894 172.591   2
  -2  -6   1 856.434 251.995   2
   2   6  -1 595.295 68.1076  28
  -2   6  -1 555.041 70.4710  28
  -2   6   1 570.110 72.8974  27
   2   6   1 677.529 77.2906  27
  -2   6  -1 604.230 72.9459  27
   2   6  -1 580.976 71.9946  27
   2   6   1 622.883 71.3358  26
   3  -6  -1 4.38765 5.65308  24
  -3   6  -1 4.72687 8.61276   3
   3   6   1-4.88374 8.89858  19
  -3   6   1 4.56889 14.4192  28
  -3   6  -1-4.62466 10.3203  28
   3   6  -1 3.76169 6.85411  28
  -3   6   1-4.50607 11.6113  27
   3   6   1-4.53453 10.1192  27
  -3   6  -1 4.37454 9.76217  27
   3   6  -1-4.45566 8.11859  27
   4  -6  -1 2443.75 135.244  24
   4   6   1 2044.01 131.171  19
   4   6  -1 2321.72 157.707  19
   4  -6  -1 2155.79 123.991  18
   4  -6   1 2277.11 118.883  18
   4   6   1 2505.67 116.533  28
  -4   6   1 2477.63 134.269  28
  -4   6  -1 2421.62 134.440  28
  -4   6  -1 2327.77 131.435   3
  -4   6   1 2485.80 128.235  27
   4   6   1 2402.47 125.271  27
  -4   6  -1 2311.74 122.854  27
   4   6  -1 2400.84 125.663  27
   5  -6  -1 4.03262 8.99915  24
   5  -6   1 19.3690 12.2255  23
   5   6   1 31.7171 17.5134  19
   5   6  -1 38.7333 22.5444  19
   5   6  -1 34.9413 23.7269   9
   5  -6  -1 32.9752 17.6136  18
   5  -6   1 29.1984 14.8704  18
  -5   6   1 15.8787 11.5729  28
  -5   6  -1 35.1065 16.9241  28
   6  -6  -1 1003.48 77.7553  24
   6  -6  -1 1201.35 94.0834  23
   6  -6   1 1004.47 75.0553  23
   6   6   1 1063.85 94.5053   9
   6   6  -1 1040.67 93.0300  19
   6  -6  -1 1114.89 85.3676  18
   6  -6   1 1175.41 83.2023  18
   7  -6  -1 372.055 46.0407  23
   7  -6   1 285.811 34.7181  23
   7   6   1 321.677 44.8841   9
   7   6  -1 344.163 48.1543  19
   7  -6   1 315.355 39.4423  18
   7   6   1 347.949 48.4448  11
   8   6  -1 97.4072 21.2796  11
   8  -6  -1 65.2436 15.7025  23
   8   6   1 58.3333 14.9451   9
   8  -6   1 85.4987 16.1635  18
   0  -6  -2 4922.09 190.882  32
   0   6  -2 4967.18 205.054  28
  -1  -6  -2 581.263 64.1410  32
   1  -6  -2 539.303 65.1075  32
   1   6  -2 650.615 73.2570  28
  -1   6   2 564.248 72.8102  27
   1   6   2 659.182 77.6620  27
  -1   6  -2 605.992 74.7525  27
   1   6  -2 658.515 76.5931  27
   1   6   2 590.654 72.2070  26
  -1   6   2 634.827 76.8073  26
  -2  -6  -2 841.701 75.0814  32
   2  -6  -2 678.821 73.2047  32
  -2   6  -2 864.386 86.9200  28
   2   6  -2 760.440 74.3782  28
  -2   6  -2 766.592 83.8850   3
  -2   6   2 733.445 80.2579  27
   2   6   2 637.192 74.4539  27
  -2   6  -2 892.217 86.4731  27
   2   6  -2 764.067 80.6554  27
   2   6   2 884.388 84.4762  26
  -2   6   2 789.987 83.3517  26
  -3  -6  -2 638.182 62.3144  32
  -3   6  -2 753.273 79.1336  28
   3   6  -2 702.891 66.3942  28
  -3   6  -2 830.352 85.7089   3
  -3   6   2 630.661 70.7794  27
   3   6   2 691.925 73.8169  27
  -3   6  -2 687.815 72.7775  27
   3   6  -2 674.551 71.5625  27
   3   6   2 640.748 69.1198  26
   3  -6  -2 641.735 74.0801  24
   4  -6  -2 836.647 82.5467  24
   4   6  -2 888.912 98.1891  19
  -4  -6  -2 851.813 65.5961  32
   4  -6  -2 980.506 79.7002   4
  -4  -6  -2 866.877 78.0956   4
  -4   6   2 973.635 80.8506  28
  -4   6  -2 1000.44 85.7191  28
  -4   6  -2 1111.06 94.1150   3
  -4   6   2 857.844 74.3826  27
   4   6   2 895.648 74.7897  27
  -4   6  -2 849.925 74.0717  27
   4   6  -2 935.794 77.0036  27
   5  -6  -2 88.5576 26.0570  24
  -5   6  -2 84.2201 25.8406   3
   5   6  -2 64.4675 26.8076  19
   5   6  -2 84.1482 29.5362   9
   5   6   2 82.9352 28.1098   9
   5  -6   2 96.2893 23.3351  18
  -5   6   2 97.3651 22.3831  28
  -5   6  -2 99.6583 25.8172  28
   6  -6  -2 725.113 66.6672  24
   6  -6  -2 897.966 78.1046  23
   6   6  -2 820.872 79.4023   9
   6   6   2 671.228 67.4393   9
   6  -6   2 723.279 59.6789  18
  -6   6  -2 749.225 59.7814   3
   6   6  -2 765.501 79.2686  11
   7  -6  -2 354.226 42.6526  23
   7   6   2 271.811 34.2719   9
   7   6  -2 397.528 47.2753   9
   7  -6   2 340.547 36.6518  18
   7   6  -2 380.517 48.3832  11
   7   6   2 333.182 40.8124  11
   8   6  -2 11.5144 7.41760  11
   0  -6  -3 122.042 31.7674  32
   0   6  -3 206.123 42.2498  28
  -1  -6  -3 665.289 70.3171  32
   1  -6  -3 705.302 74.7019  32
   1  -6  -3 711.238 80.8210   4
  -1  -6  -3 714.864 82.4809   4
  -1   6  -3 800.489 84.0478  28
   1   6  -3 723.906 75.7989  28
  -1   6   3 666.913 77.8862  27
   1   6   3 694.483 79.9388  27
  -1   6  -3 712.191 79.4981  27
   1   6  -3 808.459 83.4145  27
   1   6   3 671.204 76.0644  26
  -1   6   3 694.151 78.1148  26
  -2   6  -3 65.7643 26.0712   3
  -2  -6  -3 94.8443 26.9421  32
   2  -6  -3 83.4992 26.5579  32
   2  -6  -3 77.2731 27.8276   4
  -2  -6  -3 110.922 33.1235   4
  -2   6  -3 89.4933 29.7301  28
   2   6  -3 108.852 28.7732  28
  -2   6   3 86.1384 29.5693  27
   2   6   3 108.599 32.1907  27
  -2   6  -3 109.226 31.5768  27
   2   6  -3 77.2118 27.4473  27
   2   6   3 132.070 34.0321  26
  -2   6   3 97.4147 29.8833  26
   3  -6  -3 23.9815 16.3497  24
  -3   6  -3 9.70656 15.3167   3
  -3  -6  -3 10.8152 11.3774  32
   3  -6  -3 8.54716 11.0122   4
  -3  -6  -3 18.0011 14.2026   4
  -3   6  -3 21.8797 16.9140  28
  -3   6   3 8.46069 10.9008  27
   3   6   3 12.4193 11.9266  27
  -3   6  -3 16.0710 12.6798  27
   3   6  -3 8.17268 10.5297  27
   3   6   3 46.4280 19.9394  26
  -3   6   3 4.23271 9.44565  26
   4   6  -3 256.278 47.3638  11
   4  -6  -3 215.958 41.8007  24
   4   6  -3 248.996 46.1675   9
   4  -6  -3 300.326 42.3758   4
  -4  -6  -3 224.701 39.3455   4
  -4  -6  -3 243.247 36.7894  32
  -4   6   3 303.368 43.6969  28
  -4   6  -3 260.060 43.0198  28
  -4   6  -3 314.501 51.5801   3
  -4   6   3 305.709 43.2833  27
   4   6   3 272.471 39.9955  27
  -4   6  -3 234.728 38.4969  27
   4   6  -3 246.163 38.4745  27
   5  -6  -3 237.696 41.4663  24
   5   6  -3 207.665 40.9612  11
   5   6  -3 221.465 35.0353  22
   5   6   3 206.115 35.6836   9
   5   6  -3 187.450 40.5029  19
   5   6  -3 205.458 39.6987   9
  -5  -6  -3 209.358 30.2722  32
  -5   6  -3 247.042 37.7954  28
  -5   6  -3 216.345 38.0265   3
   6   6  -3 49.5667 19.3532  11
   6  -6  -3 41.3799 16.4043  24
   6  -6  -3 65.2170 20.1488  23
  -6   6  -3 28.8519 12.6444   3
   6   6  -3 43.9190 18.2629  19
   6   6  -3 29.1649 14.4631   9
   6  -6   3 42.6640 13.0878  18
  -6  -6  -3 21.9675 8.70865  32
   7  -6  -3 754.887 53.2798  23
   7   6  -3 730.947 55.8917  19
   7   6  -3 673.657 52.6765  11
   0  -6  -4 4.18691 9.34345  32
   0   6  -4 25.7841 16.6102  28
  -1   6  -4 182.344 39.2835   3
  -1  -6  -4 203.078 38.4542  32
   1  -6  -4 163.291 34.9604  32
   1  -6  -4 210.677 43.0768   4
  -1  -6  -4 206.486 42.4155   4
  -1   6  -4 213.726 42.1566  28
   1   6  -4 200.671 38.6084  28
  -1   6  -4 243.268 45.3325  27
   1   6  -4 190.887 40.0369  27
   1   6   4 239.787 43.9451  26
  -1   6   4 209.058 41.7215  26
  -2   6  -4 83.9756 27.8970   3
  -2  -6  -4 72.4468 24.0671  32
   2  -6  -4 81.8107 25.2753  32
   2  -6  -4 86.2796 26.6560   4
  -2  -6  -4 98.9620 29.5519   4
  -2   6  -4 90.9730 29.0020  28
   2   6  -4 60.7400 20.8506  28
  -2   6   4 69.6527 24.4483  27
   2   6   4 64.8307 24.2728  27
  -2   6  -4 82.4941 26.0346  27
   2   6  -4 69.8413 24.8272  27
   2   6   4 73.6571 24.1604  26
  -2   6   4 83.1146 26.2305  26
   2  -6  -4 57.1682 19.8549  25
   3   6  -4 57.4299 22.4233  22
  -3  -6  -4 52.0918 19.5033  32
   3  -6  -4 63.1944 21.4189   4
  -3  -6  -4 43.2055 18.9349   4
  -3   6  -4 47.3071 20.3170  28
  -3   6   4 52.2007 20.3816  27
   3   6   4 46.9449 19.1833  27
   3   6   4 72.9387 22.3749  26
  -3   6   4 54.7878 21.0456  26
   4  -6  -4 1735.49 109.024  24
   4   6  -4 1588.22 98.5632  22
   4   6  -4 1438.34 105.450  19
  -4  -6  -4 1662.75 92.5410  32
  -4   6  -4 1652.15 98.2699  28
  -4   6  -4 1745.59 107.147   3
  -4   6   4 1587.05 87.5168  27
   5  -6  -4 86.9192 23.9815  24
  -5   6  -4 73.1265 21.1405   3
   5   6  -4 102.360 21.8700  22
   5   6  -4 60.4352 20.4837  19
  -5  -6  -4 65.3863 17.7998  32
   6  -6  -4 15.0363 9.68647  24
  -6   6  -4 36.0193 12.5098   3
   6  -6  -4 15.7892 8.71840  23
   6   6  -4 22.0412 9.97804  19
  -6  -6  -4 25.3475 8.59121  32
   0   6  -5 173.911 33.8336  22
   0  -6  -5 171.773 33.9557  32
   0   6  -5 174.802 34.5984  28
   0   6   5 208.601 38.7863  26
   1   6  -5 287.652 43.9492  22
  -1   6  -5 216.900 34.7617  22
   1  -6  -5 271.097 44.1302   4
  -1  -6  -5 238.146 41.9277   4
  -1  -6  -5 238.339 39.6922  32
   1  -6  -5 322.496 45.9805  32
  -1   6  -5 249.155 41.4248  28
   1   6  -5 271.415 39.3385  28
   1   6   5 302.550 44.8875  26
  -1   6   5 278.590 43.2291  26
   1  -6  -5 214.171 31.7464  25
  -2   6  -5 16.6111 10.4847   3
   2   6  -5 13.9628 11.0164  22
  -2   6  -5 24.7095 10.4351  22
  -2  -6  -5 19.8724 13.4944  32
   2  -6  -5 20.7429 13.3627  32
  -2   6   5 20.8303 14.1448  27
   2   6   5 20.9419 15.5779  27
   2   6   5 20.3038 13.0798  26
  -2   6   5 19.5668 13.9353  26
   2  -6  -5 11.2106 8.84496  25
   3  -6  -5 97.8295 25.9920  24
  -3   6  -5 65.1028 19.9712   3
   3   6  -5 59.6766 21.4908  19
  -3  -6  -5 94.9753 23.2603  32
  -3   6   5 114.672 24.7044  27
   3   6   5 59.1623 17.3239  27
   3   6   5 75.8498 19.7435  26
  -3   6   5 82.6910 20.3322  26
   4  -6  -5 9.35915 8.98780  24
   4   6  -5 2.59797 8.19904  22
   4   6  -5 11.8690 9.36447  19
  -4  -6  -5 9.71004 8.84625  32
   4  -6   5 9.68214 7.63907  30
  -4   6   5 11.5940 6.74820  27
   5  -6  -5 134.313 23.9364  24
   5   6  -5 120.810 19.2373  22
  -5  -6  -5 127.266 20.4963  32
  -5   6  -5 182.640 26.0633   3
   0   6  -6 63.2230 16.0635  22
   0   6   6 70.4180 19.5935  26
   1   6  -6 2.31952 5.17621  22
  -1   6  -6 2.99136 3.85409  22
   1  -6  -6 12.7767 9.31210  32
  -1   6   6 2.63017 6.77746  27
   1   6   6-2.70253 8.52904  27
   1   6   6 2.58154 7.43733  26
  -1   6   6 7.20885 8.19118  26
   2   6  -6 455.537 42.5042  22
   2   6  -6 446.057 43.3915  19
  -2  -6  -6 447.545 42.6945  32
  -2   6   6 436.635 41.3399  27
   2   6   6 442.238 41.9672  27
   2   6   6 437.213 41.9617  26
  -2   6   6 499.695 42.0010  26
   3  -6  -6 9.63713 7.60355  24
   3   6  -6 17.6795 8.76740  22
  -3  -6  -6 10.0084 7.73697  32
   3  -6   6-2.09406 6.03292  30
   3   6   6 6.15364 5.24414  26
   4   6  -6 89.2022 15.3715  22
  -4  -6  -6 42.1213 11.0711  32
   0   7   0 2628.99 133.360  28
   1   7   0 3.57452 6.51307  19
   1   7   0 7.18707 10.3529  28
  -1   7   0-3.95506 8.82605  27
   1   7   0 3.90104 10.0523  27
   2   7   0 1444.90 94.9959  19
  -2   7   0 1607.56 102.878  28
   2   7   0 1605.80 93.9879  28
  -2   7   0 1818.68 106.518  27
   2   7   0 1666.68 103.536  27
   3   7   0-3.38003 7.54283  19
  -3   7   0-3.25677 7.26776  28
  -3   7   0-2.99321 6.67960  27
   3   7   0-2.97015 5.41185  27
   4  -7   0 250.721 34.5604  23
   4   7   0 296.591 39.5522  19
  -4  -7   0 250.111 32.5489   4
  -4   7   0 337.678 40.0476  28
  -4   7   0 311.579 33.8659  27
   5  -7   0-2.04086 3.71862  23
   5   7   0-2.40280 4.37810  19
   5   7   0 3.37318 6.14621   9
  -5   7   0 1.56641 4.03635  28
   6   7   0 16.5100 9.11639  11
   6   7   0 22.7808 10.5826   9
   0   7   1 57.0260 21.3507  28
   0   7  -1 90.7375 26.2318  28
   1   7   1 3.56610 7.95806  28
  -1   7   1-3.81760 8.51932  28
   1   7  -1 6.98665 10.0642  28
  -1   7   1 3.90798 7.12066  27
   1   7   1 3.85092 9.92311  27
  -1   7  -1-3.89053 10.0252  27
   1   7  -1 3.84401 9.90529  27
   2   7  -1 407.961 54.9593  19
   2   7   1 407.089 48.2467  28
  -2   7   1 431.046 53.3730  28
  -2   7  -1 440.512 54.0943  28
   2   7  -1 507.082 52.1532  28
  -2   7   1 468.333 54.8549  27
   2   7   1 451.286 53.8993  27
  -2   7  -1 437.420 52.4150  27
   2   7  -1 416.782 51.2520  27
   3   7  -1 11.6737 11.2106  19
   3  -7  -1-3.17746 7.09077   4
  -3  -7  -1 3.27528 8.43978   4
  -3   7   1-3.14341 8.09999  28
  -3   7  -1-3.22578 8.31223  28
  -3   7   1-2.92741 6.53277  27
   3   7   1 2.87174 5.23254  27
  -3   7  -1 2.91329 5.30826  27
   3   7  -1-2.91549 6.50618  27
   4   7  -1 215.126 36.8090  19
   4   7  -1 195.888 37.4346   9
  -4  -7  -1 174.905 26.7231   4
  -4   7   1 210.683 30.7643  28
  -4   7  -1 198.157 30.9713  28
  -4   7   1 224.675 29.0954  27
  -4   7  -1 171.945 25.6308  27
   5  -7  -1 180.859 27.5944  23
   5   7  -1 183.143 32.5465   9
   5   7  -1 175.534 29.3534  19
   5   7   1 162.958 30.1694   9
  -5   7  -1 147.264 20.8287  28
   5   7  -1 192.071 33.4534  11
   6   7  -1 8.41298 7.16956  11
   6   7   1 12.6974 8.17970  11
   6   7  -1 4.15704 5.98815   9
   0   7   2 1693.56 103.719  28
   0   7  -2 1632.66 100.593  28
   1  -7  -2 283.072 45.0752   4
  -1  -7  -2 268.898 44.2310   4
   1   7   2 231.410 38.4744  28
  -1   7   2 309.297 45.1640  28
  -1   7  -2 240.023 40.3068  28
   1   7  -2 320.442 43.5393  28
  -1   7   2 310.397 46.6473  27
   1   7   2 288.378 44.3694  27
  -1   7  -2 297.548 44.6500  27
   1   7  -2 276.068 42.6378  27
   2   7  -2 111.337 30.2189  19
   2  -7  -2 130.735 30.1975   4
  -2  -7  -2 175.075 34.2116   4
   2   7   2 98.2807 24.2682  28
  -2   7   2 133.665 29.5161  28
  -2   7  -2 152.048 32.1057  28
   2   7  -2 128.646 25.3749  28
  -2   7   2 136.820 30.7047  27
   2   7   2 137.975 29.3242  27
  -2   7  -2 145.087 30.0411  27
   2   7  -2 121.823 27.4918  27
   3   7  -2 153.333 33.2168  19
  -3  -7  -2 182.647 31.2988   4
   3  -7  -2 147.077 27.7529   4
  -3   7   2 185.514 31.4179  28
  -3   7  -2 212.963 34.6184  28
  -3   7   2 218.301 32.9417  27
   3   7   2 234.997 33.8091  27
  -3   7  -2 178.654 29.9501  27
   3   7  -2 165.959 29.2637  27
   4   7  -2 168.204 30.7164  11
   4   7  -2 229.432 30.7198  22
   4   7  -2 208.677 34.8958   9
   4   7   2 198.163 33.3769   9
   4   7  -2 215.358 36.0129  19
  -4  -7  -2 191.106 24.8169   4
  -4   7   2 221.376 28.7097  28
  -4   7  -2 228.921 31.6616  28
  -4   7   2 201.378 24.7100  27
   5   7  -2 20.8249 9.88760  11
   5  -7  -2 40.4656 13.2732  23
   5   7  -2 12.9474 9.43648  19
   5   7  -2 41.4930 14.0635   9
   5   7   2 20.8933 9.32506   9
   0  -7  -3 32.3130 11.9826  32
   0   7  -3 21.7476 13.2759  28
  -1  -7  -3 27.0579 11.2516  32
   1  -7  -3 30.8857 15.9419   4
  -1  -7  -3 42.3204 17.5982   4
  -1   7  -3 25.7339 13.7457  28
   1   7  -3 16.5684 10.6734  28
  -1   7   3 19.7738 13.4274  27
   1   7   3 29.5386 15.8221  27
  -1   7  -3 35.9087 15.7371  27
   1   7  -3 22.5835 12.4701  27
   2  -7  -3 98.6871 19.5452  24
   2   7  -3 62.2022 22.9535  19
  -2  -7  -3 67.4919 15.4666  32
   2  -7  -3 86.9040 22.5131   4
  -2  -7  -3 90.5835 23.1186   4
   2   7   3 73.8062 19.5094  28
  -2   7   3 97.7082 23.4172  28
  -2   7  -3 110.260 25.5736  28
  -2   7   3 90.0085 22.7550  27
   2   7   3 54.5375 18.1176  27
  -2   7  -3 82.9323 21.7978  27
   2   7  -3 85.5822 22.0530  27
   3  -7  -3 9.72561 6.13869  24
   3   7  -3 16.0228 10.3220  22
   3   7  -3 13.8203 10.9040  19
   3   7   3 11.9548 8.15030   9
  -3  -7  -3 2.40971 4.39070   4
  -3   7   3 11.6209 8.98351  28
  -3   7  -3 7.88671 7.57379  28
  -3   7   3 6.63512 6.37185  27
   3   7   3 6.32057 7.67773  27
   4   7  -3 381.275 35.4165  22
   4   7  -3 331.482 40.6272  19
  -4   7  -3 325.561 33.6043  28
   0   7  -4 322.354 37.4936  22
   0  -7  -4 199.470 27.9346  32
   0   7  -4 281.912 34.8010  28
   0  -7  -4 194.794 24.2168  24
   1  -7  -4 97.7224 18.1192  24
   1   7  -4 143.508 25.7470  22
  -1   7  -4 111.368 20.5824  22
   1  -7  -4 167.832 29.1799   4
  -1  -7  -4 100.261 19.8445  32
  -1  -7  -4 139.775 26.9529   4
  -1   7  -4 122.935 24.8290  28
  -1   7   4 170.293 29.3598  27
   1   7   4 143.164 27.0384  27
   2  -7  -4 83.4718 16.5318  24
   2   7  -4 122.325 23.0823  22
  -2  -7  -4 56.6550 13.7469  32
  -2   7   4 102.788 20.4050  28
  -2   7   4 83.4910 18.2959  27
   2   7   4 74.6403 17.1590  27
   3   7  -4 11.5681 8.23875  22
  -3   7   4 17.0581 7.32592  28
   1   7  -5 9.60101 6.99753  19
   1   7   5 11.6233 6.48462  28
  -1   7   5 21.1093 8.30893  28
  -1   7   5 16.4281 7.69674  27
   1   7   5 21.2765 8.53497  27
   0   8   0 273.999 28.0037  28
   1  -8   0-1.72775 5.88958   4
  -1  -8   0 1.75955 3.20605   4
  -1   8   0 3.27932 4.72380  27
   1   8   0 1.61062 2.93469  27
  -2   8   0 42.6826 10.8447  28
   0   8   1 75.3936 14.9668  28
   0   8  -1 40.5921 10.5660  28
   1  -8  -1 1.60230 3.57566   4
  -1  -8  -1 4.90055 5.15529   4
  -1   8  -1-1.53299 4.83802  28
  -1   8   1 1.52861 3.93894  27
   1   8   1-1.50906 3.88856  27
  -1   8  -1-1.53341 3.95131  27
   1   8  -1 1.49918 3.86312  27
   0   0   0    0.00    0.00   0

TITL MKB-4-190 in Pmna
REM Pmna (#53, found as Pncm in cab setting)
CELL 1.54184   9.919569   6.447046   8.110525  90.0000  90.0000  90.0000
ZERR   10.00   0.000237   0.000160   0.000245   0.0000   0.0000   0.0000
LATT  1
SYMM -x+1/2,-y, z+1/2
SYMM -x+1/2, y,-z+1/2
SYMM  x,-y,-z
SFAC C H N O
UNIT 10.00 10.00 10.00 10.00
TREF
HKLF 4
END
;
_shelx_hkl_checksum              81205
loop_
_space_group_symop_operation_xyz
'x, y, z'
'-x+1/2, -y, z+1/2'
'-x+1/2, y, -z+1/2'
'x, -y, -z'
'-x, -y, -z'
'x-1/2, y, -z-1/2'
'x-1/2, -y, z-1/2'
'-x, y, z'
loop_
_atom_site_label
_atom_site_type_symbol
_atom_site_fract_x
_atom_site_fract_y
_atom_site_fract_z
_atom_site_U_iso_or_equiv
_atom_site_adp_type
_atom_site_occupancy
_atom_site_site_symmetry_order
_atom_site_calc_flag
_atom_site_refinement_flags_posn
_atom_site_refinement_flags_adp
_atom_site_refinement_flags_occupancy
_atom_site_disorder_assembly
_atom_site_disorder_group
N1 N 0.39161(11) 0.48838(17) 0.25318(15) 0.0462(4) Uani 1 1 d . . . . .
H1 H 0.308926 0.452098 0.239532 0.055 Uiso 0.5 1 calc R U P . .
N2 N 0.43549(12) 0.66670(18) 0.32105(17) 0.0544(5) Uani 1 1 d . . . . .
N4 N 0.500000 0.1950(3) 0.1376(3) 0.0680(7) Uani 1 2 d S T P . .
H4A H 0.424924 0.136118 0.112706 0.082 Uiso 0.5 1 calc R U P . .
H4B H 0.575076 0.134795 0.114794 0.082 Uiso 0.5 1 calc R U P . .
C3 C 0.500000 0.3788(3) 0.2112(2) 0.0419(5) Uani 1 2 d S T P . .
O7B O 0.2725(3) 1.0137(11) 0.4118(6) 0.0620(14) Uani 0.657(15) 1 d . . P A 2
H7B H 0.318097 0.922428 0.368825 0.093 Uiso 0.657(15) 1 calc R U P A 2
O7A O 0.2727(6) 0.8973(18) 0.5333(16) 0.080(2) Uani 0.343(15) 1 d . . P A 1
H7A H 0.323368 0.823593 0.478971 0.120 Uiso 0.343(15) 1 calc R U P A 1
loop_
_atom_site_aniso_label
_atom_site_aniso_U_11
_atom_site_aniso_U_22
_atom_site_aniso_U_33
_atom_site_aniso_U_23
_atom_site_aniso_U_13
_atom_site_aniso_U_12
N1 0.0245(6) 0.0460(7) 0.0680(8) -0.0052(5) 0.0015(5) 0.0001(4)
N2 0.0333(6) 0.0477(8) 0.0822(10) -0.0120(6) 0.0026(6) 0.0029(5)
N4 0.0335(9) 0.0592(12) 0.1114(17) -0.0327(11) 0.000 0.000
C3 0.0256(9) 0.0449(10) 0.0553(11) -0.0030(8) 0.000 0.000
O7B 0.0532(12) 0.073(3) 0.059(2) -0.0060(15) -0.0022(10) 0.0217(13)
O7A 0.067(3) 0.068(4) 0.105(5) -0.023(4) 0.035(3) -0.015(3)
loop_
_atom_type_symbol
_atom_type_description
_atom_type_scat_dispersion_real
_atom_type_scat_dispersion_imag
_atom_type_scat_source
C C 0.0181 0.0091 'International Tables Vol C Tables 4.2.6.8 and 6.1.1.4'
H H 0.0000 0.0000 'International Tables Vol C Tables 4.2.6.8 and 6.1.1.4'
N N 0.0311 0.0180 'International Tables Vol C Tables 4.2.6.8 and 6.1.1.4'
O O 0.0492 0.0322 'International Tables Vol C Tables 4.2.6.8 and 6.1.1.4'
loop_
_geom_angle_atom_site_label_1
_geom_angle_atom_site_label_2
_geom_angle_atom_site_label_3
_geom_angle
_geom_angle_site_symmetry_1
_geom_angle_site_symmetry_3
_geom_angle_publ_flag
C3 N1 N2 107.26(11) . . ?
C3 N1 H1 126.4 . . ?
N2 N1 H1 126.4 . . ?
N2 N2 N1 108.86(7) 8_655 . ?
C3 N4 H4A 120.0 . . ?
C3 N4 H4B 120.0 . . ?
H4A N4 H4B 120.0 . . ?
N4 C3 N1 126.11(8) . . ?
N4 C3 N1 126.11(8) . 8_655 ?
N1 C3 N1 107.77(16) . 8_655 ?
O7B O7B H7B 109.5 4_576 . ?
O7A O7A H7A 109.5 4_576 . ?
loop_
_geom_bond_atom_site_label_1
_geom_bond_atom_site_label_2
_geom_bond_distance
_geom_bond_site_symmetry_2
_geom_bond_publ_flag
N1 C3 1.3310(16) . ?
N1 N2 1.3469(17) . ?
N1 H1 0.8600 . ?
N2 N2 1.280(2) 8_655 ?
N4 C3 1.326(3) . ?
N4 H4A 0.8600 . ?
N4 H4B 0.8600 . ?
O7B O7B 1.442(8) 4_576 ?
O7B H7B 0.8200 . ?
O7A O7A 1.430(16) 4_576 ?
O7A H7A 0.8200 . ?
loop_
_geom_torsion_atom_site_label_1
_geom_torsion_atom_site_label_2
_geom_torsion_atom_site_label_3
_geom_torsion_atom_site_label_4
_geom_torsion
_geom_torsion_site_symmetry_1
_geom_torsion_site_symmetry_2
_geom_torsion_site_symmetry_3
_geom_torsion_site_symmetry_4
_geom_torsion_publ_flag
C3 N1 N2 N2 -0.10(13) . . . 8_655 ?
N2 N1 C3 N4 -178.6(2) . . . . ?
N2 N1 C3 N1 0.2(2) . . . 8_655 ?
