#------------------------------------------------------------------------------
#$Date: 2022-09-05 05:17:28 +0300 (Mon, 05 Sep 2022) $
#$Revision: 277617 $
#$URL: file:///home/coder/svn-repositories/cod/cif/7/13/06/7130643.cif $
#------------------------------------------------------------------------------
#
# This file is available in the Crystallography Open Database (COD),
# http://www.crystallography.net/
#
# All data on this site have been placed in the public domain by the
# contributors.
#
data_7130643
loop_
_publ_author_name
'Ramler, Jacqueline'
'Stoy, Andreas'
'Preitschopf, Tobias'
'Kettner, Janosch'
'Fischer, Ingo'
'Roling, Bernhard'
'Fantuzzi, Felipe'
'Lichtenberg, Crispin'
_publ_section_title
;
 Dihalo bismuth cations: unusual coordination properties and inverse
 solvent effects in Lewis acidity.
;
_journal_issue                   70
_journal_name_full               'Chemical communications (Cambridge, England)'
_journal_page_first              9826
_journal_page_last               9829
_journal_paper_doi               10.1039/d2cc04017d
_journal_volume                  58
_journal_year                    2022
_chemical_formula_moiety         'C20 H20 Bi2 I6 N4'
_chemical_formula_sum            'C20 H20 Bi2 I6 N4'
_chemical_formula_weight         1495.76
_space_group_crystal_system      triclinic
_space_group_IT_number           2
_space_group_name_Hall           '-P 1'
_space_group_name_H-M_alt        'P -1'
_atom_sites_solution_hydrogens   geom
_audit_creation_method           SHELXL-2018/3
_audit_update_record
;
2022-07-15 deposited with the CCDC.	2022-08-10 downloaded from the CCDC.
;
_cell_angle_alpha                106.444(8)
_cell_angle_beta                 90.005(7)
_cell_angle_gamma                117.801(7)
_cell_formula_units_Z            1
_cell_length_a                   8.9149(13)
_cell_length_b                   9.1675(16)
_cell_length_c                   11.3283(18)
_cell_measurement_reflns_used    9891
_cell_measurement_temperature    100(2)
_cell_measurement_theta_max      27.39
_cell_measurement_theta_min      2.61
_cell_volume                     775.9(2)
_computing_cell_refinement       'Bruker SAINT'
_computing_data_collection       'Bruker APEX2'
_computing_data_reduction        'Bruker SAINT'
_computing_molecular_graphics    'Bruker SHELXTL'
_computing_publication_material  'Bruker SHELXTL'
_computing_structure_refinement  'SHELXL-2014 (Sheldrick 2014)'
_computing_structure_solution    'SHELXS-97 (Sheldrick 2008)'
_diffrn_ambient_temperature      100(2)
_diffrn_measured_fraction_theta_full 0.998
_diffrn_measured_fraction_theta_max 0.998
_diffrn_measurement_device_type  'Bruker APEX-II CCD'
_diffrn_measurement_method       '\f and \w scans'
_diffrn_radiation_type           MoK\a
_diffrn_radiation_wavelength     0.71073
_diffrn_reflns_av_R_equivalents  0.0517
_diffrn_reflns_av_unetI/netI     0.0375
_diffrn_reflns_Laue_measured_fraction_full 0.998
_diffrn_reflns_Laue_measured_fraction_max 0.998
_diffrn_reflns_number            3048
_diffrn_reflns_point_group_measured_fraction_full 0.998
_diffrn_reflns_point_group_measured_fraction_max 0.998
_diffrn_reflns_theta_full        26.000
_diffrn_reflns_theta_max         26.019
_diffrn_reflns_theta_min         1.897
_diffrn_source                   'sealed tube micro focus'
_exptl_absorpt_coefficient_mu    17.309
_exptl_absorpt_correction_T_max  0.745490
_exptl_absorpt_correction_T_min  0.538389
_exptl_absorpt_correction_type   multi-scan
_exptl_absorpt_process_details   'TWINABS 2012/1 (Bruker AXS)'
_exptl_crystal_colour            yellow
_exptl_crystal_density_diffrn    3.201
_exptl_crystal_description       plate
_exptl_crystal_F_000             652
_exptl_crystal_size_max          0.054
_exptl_crystal_size_mid          0.048
_exptl_crystal_size_min          0.039
_refine_diff_density_max         1.240
_refine_diff_density_min         -1.462
_refine_diff_density_rms         0.274
_refine_ls_extinction_method     none
_refine_ls_goodness_of_fit_ref   1.077
_refine_ls_hydrogen_treatment    constr
_refine_ls_matrix_type           full
_refine_ls_number_parameters     145
_refine_ls_number_reflns         3048
_refine_ls_number_restraints     0
_refine_ls_restrained_S_all      1.077
_refine_ls_R_factor_all          0.0376
_refine_ls_R_factor_gt           0.0323
_refine_ls_shift/su_max          0.001
_refine_ls_shift/su_mean         0.000
_refine_ls_structure_factor_coef Fsqd
_refine_ls_weighting_details
'w=1/[\s^2^(Fo^2^)+11.8962P] where P=(Fo^2^+2Fc^2^)/3'
_refine_ls_weighting_scheme      calc
_refine_ls_wR_factor_gt          0.0631
_refine_ls_wR_factor_ref         0.0650
_reflns_Friedel_coverage         0.000
_reflns_number_gt                2855
_reflns_number_total             3048
_reflns_threshold_expression     'I > 2\s(I)'
_cod_data_source_file            d2cc04017d2.cif
_cod_data_source_block           2-I
_cod_depositor_comments
;
The following automatic conversions were performed:

data item '_exptl_absorpt_correction_type' value 'multi scan' was
changed to 'multi-scan' in accordance with the
/home/data/users/saulius/crontab/automatic-downloads/current/RSC/lib/dictionaries/cif_core.dic
dictionary named 'cif_core.dic' version 2.4.2 last updated on
2011-04-26.

Automatic conversion script
Id: cif_fix_values 7556 2019-12-06 15:28:31Z antanas 
;
_cod_database_code               7130643
_shelx_shelxl_version_number     2018/3
_shelx_space_group_comment
;
The symmetry employed for this shelxl refinement is uniquely defined
by the following loop, which should always be used as a source of
symmetry information in preference to the above space-group names.
They are only intended as comments.
;
_shelx_estimated_absorpt_t_min   0.455
_shelx_estimated_absorpt_t_max   0.552
_shelx_res_file
;
TITL AnSt220_a.res in P-1
    AnSt220_a.res
    created by SHELXL-2018/3 at 09:05:34 on 12-Jul-2022
REM Old TITL AnSt220 in P-1
REM SHELXT solution in P-1: R1 0.076, Rweak 0.016, Alpha 0.066
REM <I/s>   0.000 for    0 systematic absences,  Orientation as input
REM Formula found by SHELXT:  C12 I3 Bi
CELL  0.71073   8.9149   9.1675  11.3283  106.444   90.005  117.801
ZERR    2.000   0.0013   0.0016   0.0018    0.008    0.007    0.007
LATT  1
SFAC C H N I BI
UNIT 20 20 4 6 2
TEMP -173.150
SIZE 0.039 0.048 0.054
L.S. 10
BOND
LIST 4
acta 52
conf
shel 999 .81
FMAP 2
PLAN 20
WGHT    0.000000   11.896200
FVAR       0.23369
RESI 1 PY
N1    3    0.745518    0.922570    0.717192    11.00000    0.01831    0.01802 =
         0.01912    0.00570    0.00336    0.01037
C2    1    0.793332    0.953120    0.611962    11.00000    0.02299    0.01370 =
         0.02255    0.00502    0.00367    0.00875
AFIX  43
H2    2    0.766403    0.857031    0.539365    11.00000   -1.20000
AFIX   0
C3    1    0.880781    1.119283    0.603865    11.00000    0.02467    0.02579 =
         0.01859    0.01302    0.00617    0.01023
AFIX  43
H3    2    0.915093    1.137036    0.527463    11.00000   -1.20000
AFIX   0
C4    1    0.917678    1.259778    0.709085    11.00000    0.01992    0.00967 =
         0.02945    0.00855    0.00751    0.00731
AFIX  43
H4    2    0.976333    1.375213    0.705582    11.00000   -1.20000
AFIX   0
C5    1    0.868274    1.229610    0.818161    11.00000    0.02321    0.01275 =
         0.02308    0.00234    0.00426    0.00893
AFIX  43
H5    2    0.892199    1.324070    0.891237    11.00000   -1.20000
AFIX   0
C6    1    0.782565    1.059006    0.820923    11.00000    0.02529    0.01976 =
         0.01753    0.01136    0.01210    0.01390
AFIX  43
H6    2    0.749586    1.038048    0.896773    11.00000   -1.20000
AFIX   0
RESI 0
RESI 2 PY
N1    3    0.429579    0.302867    0.734219    11.00000    0.01568    0.01383 =
         0.01698    0.00610    0.00089    0.00564
C2    1    0.291404    0.244147    0.790096    11.00000    0.02137    0.01703 =
         0.02492    0.00616    0.00724    0.01105
AFIX  43
H2    2    0.249612    0.320877    0.830014    11.00000   -1.20000
AFIX   0
C3    1    0.206995    0.072555    0.791169    11.00000    0.01878    0.01806 =
         0.02912    0.01080    0.00763    0.00310
AFIX  43
H3    2    0.110092    0.033468    0.832677    11.00000   -1.20000
AFIX   0
C4    1    0.265885   -0.039631    0.731269    11.00000    0.02889    0.01999 =
         0.01613    0.01094    0.00277    0.01178
AFIX  43
H4    2    0.208767   -0.157716    0.729096    11.00000   -1.20000
AFIX   0
C5    1    0.409245    0.023034    0.674643    11.00000    0.02653    0.02616 =
         0.02668    0.01832    0.01138    0.01585
AFIX  43
H5    2    0.453819   -0.050877    0.634174    11.00000   -1.20000
AFIX   0
C6    1    0.486875    0.193263    0.677344    11.00000    0.01646    0.01643 =
         0.02550    0.00634    0.00312    0.00681
AFIX  43
H6    2    0.584993    0.235128    0.637393    11.00000   -1.20000
AFIX   0
RESI 0
RESI 3 CORE
BI1   5    0.577287    0.608382    0.722722    11.00000    0.01504    0.01036 =
         0.01408    0.00496    0.00414    0.00604
I2    4    0.872128    0.678806    0.883660    11.00000    0.01704    0.01527 =
         0.01999    0.00685    0.00096    0.00586
I3    4    0.409289    0.716425    0.920826    11.00000    0.02374    0.01730 =
         0.01966    0.00633    0.01006    0.01179
I4    4    0.259598    0.515336    0.520354    11.00000    0.01751    0.01608 =
         0.01647    0.00585    0.00533    0.00894
RESI 0
HKLF 4




REM  AnSt220_a.res in P-1
REM wR2 = 0.0650, GooF = S = 1.077, Restrained GooF = 1.077 for all data
REM R1 = 0.0323 for 2855 Fo > 4sig(Fo) and 0.0376 for all 3048 data
REM 145 parameters refined using 0 restraints

END

WGHT      0.0000     11.9029

REM Highest difference peak  1.240,  deepest hole -1.462,  1-sigma level  0.274
Q1    1   1.0405  1.3040  0.4924  11.00000  0.05    1.24
Q2    1   0.3813  0.5994  0.5247  11.00000  0.05    1.23
Q3    1   0.5246  0.5805  0.6355  11.00000  0.05    1.19
Q4    1   0.4788  0.6401  0.7555  11.00000  0.05    1.16
Q5    1   0.6711  0.6200  0.6991  11.00000  0.05    1.15
Q6    1   0.4654  0.5375  0.7183  11.00000  0.05    1.10
Q7    1   0.0932  0.4390  0.5483  11.00000  0.05    1.06
Q8    1   0.7308  0.5350  0.8032  11.00000  0.05    1.03
Q9    1   0.6034  0.6566  0.8072  11.00000  0.05    1.02
Q10   1   0.6988  0.7414  0.9587  11.00000  0.05    0.99
Q11   1   0.5136  0.7855  0.9202  11.00000  0.05    0.98
Q12   1   0.8731  1.4228  0.6012  11.00000  0.05    0.97
Q13   1   0.1887 -0.3229  0.6793  11.00000  0.05    0.95
Q14   1   0.8145  0.6807  0.6916  11.00000  0.05    0.94
Q15   1   0.1035  0.3658  0.4388  11.00000  0.05    0.94
Q16   1   1.2330  1.5339  0.7443  11.00000  0.05    0.94
Q17   1   1.0282  1.2853  0.6414  11.00000  0.05    0.93
Q18   1   0.2548  0.3688  0.6606  11.00000  0.05    0.93
Q19   1   0.8617  0.6666  0.9618  11.00000  0.05    0.91
Q20   1   0.8482  0.9590  0.5612  11.00000  0.05    0.91
;
_shelx_res_checksum              45532
_shelx_hkl_file
;
   1   0   0 1359.56   24.60
   2   0   0   18.60    1.30
   3   0   0  314.67    8.50
   4   0   0  315.37    6.10
   5   0   0  300.87    6.20
   6   0   0 2022.30   33.90
   7   0   0 1351.86   22.10
   8   0   0   30.10    3.00
   9   0   0   12.70    2.40
  10   0   0    1.10    6.00
 -10   1   0  230.48    8.70
  -9   1   0   12.10    2.50
  -8   1   0   12.40    1.90
  -7   1   0  614.04   11.90
  -6   1   0  118.79    4.00
  -5   1   0  103.09    2.90
  -4   1   0   31.40    2.30
  -3   1   0  122.29    2.80
  -2   1   0   87.09    2.60
  -1   1   0 1354.26   32.80
   0   1   0 2362.46   61.89
   1   1   0  110.99    5.90
   2   1   0  223.78    6.60
   3   1   0   83.89    2.90
   4   1   0  128.29    4.00
   5   1   0   30.80    1.90
   6   1   0 1619.34   27.90
   7   1   0  485.15   12.30
   8   1   0    6.30    1.90
   9   1   0    5.80    2.30
 -10   2   0  765.42   22.40
  -9   2   0   24.80    3.90
  -8   2   0   48.10    4.70
  -7   2   0    3.00    1.60
  -6   2   0   96.39    4.30
  -5   2   0   21.70    2.00
  -4   2   0 3754.12   62.09
  -3   2   0  958.60   16.00
  -2   2   0 1064.39   18.00
  -1   2   0  360.16    7.40
   0   2   0   26.80    1.40
   1   2   0  274.87    5.20
   2   2   0  771.52   15.20
   3   2   0 1594.34   27.20
   4   2   0  153.78    5.10
   5   2   0    7.10    1.30
   6   2   0  400.86   10.90
   7   2   0   68.59    5.50
   8   2   0   68.39    4.30
 -11   3   0  554.14   21.40
 -10   3   0  552.54   17.90
  -9   3   0  162.98    9.70
  -8   3   0   72.29    5.30
  -7   3   0  115.19    7.10
  -6   3   0    9.00    1.80
  -5   3   0 1083.79   21.80
  -4   3   0 6092.59   93.29
  -3   3   0  857.11   13.10
  -2   3   0   88.39    4.70
  -1   3   0   24.40    3.90
   0   3   0  862.91   21.90
   1   3   0  471.25   10.90
   2   3   0 2953.60   56.09
   3   3   0 2126.29   41.50
   4   3   0   31.60    2.50
   5   3   0    3.80    1.40
   6   3   0   54.49    3.50
   7   3   0  285.97    8.60
   8   3   0  206.68    7.50
 -11   4   0  156.48   10.30
 -10   4   0   15.50    4.00
  -9   4   0   73.49    9.70
  -8   4   0   87.29    6.30
  -7   4   0  165.08    6.90
  -6   4   0  275.47    8.80
  -5   4   0  654.93   12.80
  -4   4   0 1290.97   17.80
  -3   4   0   60.39    2.80
  -2   4   0  162.68   10.00
  -1   4   0  317.87    9.40
   0   4   0   15.80    1.60
   1   4   0    2.10   18.80
   2   4   0 2612.74   96.39
   3   4   0  446.06   11.80
   4   4   0    7.10    2.30
   5   4   0   15.10    3.10
   6   4   0   91.19    5.00
   7   4   0   26.90    3.50
 -11   5   0    6.70    3.90
 -10   5   0   15.30    4.40
  -9   5   0   36.80    5.70
  -8   5   0 1361.86   31.60
  -7   5   0  258.67    9.20
  -6   5   0  159.98    5.50
  -5   5   0   83.59    3.10
  -4   5   0   65.59    2.50
  -3   5   0  179.58   11.60
  -2   5   0  736.53   40.70
  -1   5   0 1568.84   28.00
   0   5   0  202.18    8.70
   1   5   0    0.00   20.60
   2   5   0  316.87   33.40
   3   5   0  149.79    6.50
   4   5   0   56.69    4.60
   5   5   0  184.68    7.30
   6   5   0   63.39    4.90
 -11   6   0   47.00    7.90
 -10   6   0    3.60    3.40
  -9   6   0  418.06   13.70
  -8   6   0 1856.11   46.50
  -7   6   0  260.07   10.60
  -6   6   0  112.69    4.00
  -5   6   0    8.00    1.50
  -4   6   0  359.26    8.00
  -3   6   0  172.78   33.40
  -2   6   0 2583.84   80.29
  -1   6   0 1555.54   30.50
   0   6   0   10.40    2.70
   1   6   0    2.70    6.60
   2   6   0  128.39    6.70
   3   6   0  335.77   14.30
   4   6   0  342.27   11.60
   5   6   0  731.03   20.70
 -11   7   0   67.59    9.10
 -10   7   0   75.89    9.50
  -9   7   0  202.78   10.50
  -8   7   0  452.45   16.20
  -7   7   0   57.29    3.30
  -6   7   0   34.20    3.10
  -5   7   0  272.97    9.00
  -4   7   0   47.30    5.20
  -3   7   0    7.70    9.70
  -2   7   0 2169.88   45.20
  -1   7   0  263.67    7.60
   0   7   0    0.90    1.60
   1   7   0    0.00    4.80
   2   7   0  115.59    9.20
   3   7   0   31.40    5.90
   4   7   0  361.16   17.80
 -11   8   0   78.99   15.60
 -10   8   0    2.60    4.30
  -9   8   0   34.00    6.20
  -8   8   0   55.99    3.80
  -7   8   0   79.99    5.40
  -6   8   0  527.65   14.90
  -5   8   0  606.94   17.10
  -4   8   0   36.90    5.00
  -3   8   0   13.90    6.80
  -2   8   0   54.79    6.10
  -1   8   0  107.69    6.70
   0   8   0   57.49    6.10
   1   8   0  292.47   14.50
   2   8   0   41.50    8.40
   3   8   0   49.60    7.40
 -10   9   0   33.30    6.60
  -9   9   0   34.40    6.10
  -8   9   0  144.99    7.10
  -7   9   0   71.39    5.70
  -6   9   0 1679.93   37.50
  -5   9   0  886.71   22.60
  -4   9   0   26.50    7.00
  -3   9   0    0.70   12.20
  -2   9   0  156.58   16.00
  -1   9   0  184.68   14.10
   0   9   0  439.96   22.20
   1   9   0  940.71   32.50
  -9  10   0   94.39    8.90
  -8  10   0   10.50    3.50
  -7  10   0   42.60    5.10
  -6  10   0  627.14   18.20
  -5  10   0   95.19    6.60
  -4  10   0    8.80   13.10
  -3  10   0    0.00    5.60
  -2  10   0  168.58   10.30
  -1  10   0   21.90   25.50
  -7  11   0    6.90    4.70
  -6  11   0   13.50    5.20
  -5  11   0   80.39   10.20
  -4  11   0   92.19   14.90
  -3  11   0  383.16   31.00
   3 -11   1   32.00   11.20
   4 -11   1   12.80    7.70
   5 -11   1  505.35   18.10
   6 -11   1  907.71   31.10
   7 -11   1   65.09    7.50
   8 -11   1  117.29    8.40
   0 -10   1   63.49   10.80
   1 -10   1  102.09    8.80
   2 -10   1   64.89    7.40
   3 -10   1    1.50    6.10
   4 -10   1   40.80    8.00
   5 -10   1  537.65   16.10
   6 -10   1  363.86   14.50
   7 -10   1   80.69    6.50
   8 -10   1    6.80    3.10
   9 -10   1   20.20    5.60
  -1  -9   1    0.00    7.30
   0  -9   1    0.80    2.60
   1  -9   1  167.28    8.30
   2  -9   1  942.31   44.60
   3  -9   1   25.60   13.10
   4  -9   1    0.00    4.50
   5  -9   1  212.78    8.60
   6  -9   1   44.90    5.10
   7  -9   1   44.60    6.60
   8  -9   1  284.87   10.30
   9  -9   1  171.98   10.00
  10  -9   1   60.39    8.80
  -3  -8   1  222.68   17.10
  -2  -8   1   28.00    6.50
  -1  -8   1   10.50    8.20
   0  -8   1    9.30    3.60
   1  -8   1 1170.08   28.60
   2  -8   1 1557.64   54.19
   3  -8   1  232.18   27.90
   4  -8   1  299.97   11.70
   5  -8   1    1.30    1.80
   6  -8   1   38.50    4.20
   7  -8   1  243.38    8.20
   8  -8   1 1568.34   34.80
   9  -8   1  261.77   12.00
  10  -8   1    0.30    3.50
  11  -8   1   44.60   10.20
  -4  -7   1   58.59    7.70
  -3  -7   1   63.19    5.90
  -2  -7   1  257.67   23.80
  -1  -7   1   71.99   20.90
   0  -7   1   61.09    5.20
   1  -7   1 1217.58   25.10
   2  -7   1  605.54   35.60
   3  -7   1   89.49   19.30
   4  -7   1   49.30    4.70
   5  -7   1  130.39    5.80
   6  -7   1   71.69    3.70
   7  -7   1  349.17    8.90
   8  -7   1 1320.37   35.50
   9  -7   1   52.09    6.10
  10  -7   1   33.40    6.60
  11  -7   1    1.40    3.70
  -5  -6   1   18.70    2.90
  -4  -6   1    0.00    5.10
  -3  -6   1  349.96   13.10
  -2  -6   1 1632.64   54.39
  -1  -6   1    0.00   16.40
   0  -6   1   30.80    3.40
   1  -6   1  124.09    8.10
   2  -6   1   97.79   10.30
   3  -6   1  110.59    5.80
   4  -6   1 1281.07   25.20
   5  -6   1  430.56   10.30
   6  -6   1  129.39    4.20
   7  -6   1  180.28    8.50
   8  -6   1   59.29    5.50
   9  -6   1   59.19    6.40
  10  -6   1   44.20    7.00
  11  -6   1  171.38   11.60
  -6  -5   1    5.20    2.40
  -5  -5   1   10.80    2.50
  -4  -5   1   19.90    3.60
  -3  -5   1 1680.83   38.50
  -2  -5   1 1876.51   42.80
  -1  -5   1  233.18   11.70
   0  -5   1  446.26   15.60
   1  -5   1   54.49    7.00
   2  -5   1   50.39    4.30
   3  -5   1  770.92   17.40
   4  -5   1 5639.44   84.89
   5  -5   1  549.05   11.10
   6  -5   1    5.50    1.70
   7  -5   1   74.49    4.90
   8  -5   1  101.69    5.90
   9  -5   1  181.08    9.20
  10  -5   1  811.22   28.60
  11  -5   1  539.55   21.80
  -7  -4   1   30.30    5.50
  -6  -4   1  312.57   11.00
  -5  -4   1    5.20    3.00
  -4  -4   1   26.70    2.70
  -3  -4   1 1066.69   24.90
  -2  -4   1  365.76   14.50
  -1  -4   1  205.98    6.20
   0  -4   1    4.70    0.90
   1  -4   1  321.57    7.50
   2  -4   1  168.98    4.70
   3  -4   1  900.71   18.40
   4  -4   1 2473.25   34.20
   5  -4   1   25.60    2.40
   6  -4   1  123.49    4.70
   7  -4   1   11.40    2.10
   8  -4   1  132.89    6.20
   9  -4   1   44.30    6.40
  10  -4   1  831.22   37.00
  11  -4   1  194.78   11.40
  -8  -3   1    1.40    3.10
  -7  -3   1  419.46   12.90
  -6  -3   1 1080.39   28.60
  -5  -3   1   17.50    3.80
  -4  -3   1   38.70    4.00
  -3  -3   1    7.10    2.70
  -2  -3   1  136.89    4.20
  -1  -3   1  136.89    5.80
   0  -3   1 4083.79   87.29
   1  -3   1  604.24   19.80
   2  -3   1  649.64   16.10
   3  -3   1  202.48    4.70
   4  -3   1   22.70    2.20
   5  -3   1   49.20    2.70
   6  -3   1  343.07    9.30
   7  -3   1  655.23   16.00
   8  -3   1   95.09    4.80
   9  -3   1    6.30    2.60
  10  -3   1  224.78   10.00
  11  -3   1   14.80    6.40
  -9  -2   1    2.80    4.20
  -8  -2   1   11.70    2.30
  -7  -2   1 1003.70   27.20
  -6  -2   1 1107.39   25.40
  -5  -2   1  204.68    7.20
  -4  -2   1  265.17    7.50
  -3  -2   1  104.69    4.50
  -2  -2   1   69.69    4.60
  -1  -2   1 1397.76   23.50
   1  -2   1  782.22   23.80
   2  -2   1   13.80    1.20
   3  -2   1  371.26    7.90
   4  -2   1  795.82   14.80
   5  -2   1  464.55   11.20
   6  -2   1 1978.80   40.30
   7  -2   1 1484.55   31.50
   8  -2   1   43.30    5.00
   9  -2   1   16.00    3.30
  10  -2   1    3.70    2.40
  -9  -1   1   12.10    2.40
  -8  -1   1    9.90    1.90
  -7  -1   1  487.65   11.20
  -6  -1   1   96.49    4.10
  -5  -1   1  260.77    6.90
  -4  -1   1   66.19    2.50
  -3  -1   1  237.98    6.90
  -2  -1   1  647.54   17.10
  -1  -1   1 1342.17   28.10
   0  -1   1 2127.39   49.50
   1  -1   1  167.18    3.70
   2  -1   1  113.89    2.50
   3  -1   1  387.56    7.30
   4  -1   1   13.30    0.90
   5  -1   1   64.59    2.20
   6  -1   1 2339.57   38.20
   7  -1   1  379.86    8.10
   8  -1   1    9.50    1.50
   9  -1   1    7.50    2.10
  10  -1   1   50.79   10.50
 -10   0   1  537.05   15.00
  -9   0   1    9.70    2.30
  -8   0   1   36.80    3.10
  -7   0   1    3.60    1.30
  -6   0   1   39.30    2.10
  -5   0   1   80.09    2.50
  -4   0   1 2848.01   40.10
  -3   0   1  467.65    8.10
  -2   0   1  969.00   17.60
  -1   0   1  476.75    7.50
   0   0   1    0.20    0.50
   1   0   1  253.77    4.90
   2   0   1  243.68    4.10
   3   0   1 1570.84   24.50
   4   0   1  290.37    5.40
   5   0   1   15.70    1.30
   6   0   1  373.96    7.40
   7   0   1   97.99    3.50
   8   0   1   41.80    3.70
   9   0   1   97.59    5.00
 -10   1   1  360.76   11.50
  -9   1   1  163.38    6.50
  -8   1   1  101.09    4.60
  -7   1   1  149.79    4.60
  -6   1   1    6.40    1.20
  -5   1   1 1220.58   22.40
  -4   1   1 5794.52   85.59
  -3   1   1  740.63   10.80
  -2   1   1  315.47    5.40
  -1   1   1    4.10    0.80
   0   1   1  485.55   11.40
   1   1   1  441.46   14.80
   2   1   1 5151.08   80.09
   3   1   1 2395.16   40.80
   4   1   1   62.99    2.10
   5   1   1   15.00    1.50
   6   1   1   57.29    3.20
   7   1   1  323.67    9.30
   8   1   1  297.57    9.20
   9   1   1  571.24   16.20
 -10   2   1   68.59    6.40
  -9   2   1   74.79    5.60
  -8   2   1  108.99    6.50
  -7   2   1  100.89    5.50
  -6   2   1  268.07    9.40
  -5   2   1  874.91   17.80
  -4   2   1 1747.73   27.70
  -3   2   1   35.80    1.40
  -2   2   1  181.48    4.60
  -1   2   1  458.65   13.10
   0   2   1   19.60    1.30
   1   2   1   40.20   18.80
   2   2   1 4468.95  119.49
   3   2   1  487.45   10.50
   4   2   1    1.00    0.80
   5   2   1   12.90    1.80
   6   2   1  126.69    4.60
   7   2   1   25.30    3.00
   8   2   1  362.86   10.30
 -11   3   1    5.20    3.50
 -10   3   1   19.60    6.80
  -9   3   1   45.50    5.20
  -8   3   1 1407.86   36.00
  -7   3   1  179.98    9.30
  -6   3   1   64.49    4.20
  -5   3   1  107.69    4.20
  -4   3   1  128.49    3.10
  -3   3   1   95.49    2.80
  -2   3   1 1040.90   64.79
  -1   3   1 1909.11   30.00
   0   3   1  248.68    7.20
   1   3   1    2.80   20.80
   2   3   1  315.37   45.00
   3   3   1  203.58    6.10
   4   3   1   59.69    3.10
   5   3   1  248.08    7.20
   6   3   1   82.69    4.30
   7   3   1   33.60    3.80
   8   3   1  189.38   14.90
 -11   4   1   59.39    7.60
 -10   4   1    6.70    3.30
  -9   4   1  610.24   23.70
  -8   4   1 2356.36   56.79
  -7   4   1  279.37   12.00
  -6   4   1  107.09    5.20
  -5   4   1   33.50    2.10
  -4   4   1  335.67    6.70
  -3   4   1  341.17   17.10
  -2   4   1 5659.33  128.09
  -1   4   1 2267.47   35.20
   0   4   1   55.59    3.50
   1   4   1    0.00    5.70
   2   4   1  303.17   10.00
   3   4   1  400.06   11.10
   4   4   1  679.63   16.90
   5   4   1 1340.97   30.20
   6   4   1   11.50    2.90
   7   4   1   37.70    4.30
 -11   5   1   69.79    9.10
 -10   5   1   38.70    6.00
  -9   5   1  333.87   13.60
  -8   5   1  373.66   12.10
  -7   5   1   43.60    4.50
  -6   5   1   20.40    1.70
  -5   5   1  334.07    7.10
  -4   5   1   12.90    1.50
  -3   5   1  138.89    9.30
  -2   5   1 3016.20   54.79
  -1   5   1  312.57    8.20
   0   5   1    1.40    1.10
   1   5   1   18.70    5.00
   2   5   1  312.57   22.10
   3   5   1   18.50    4.20
   4   5   1  629.24   19.20
   5   5   1  665.93   18.80
   6   5   1   12.30    3.30
 -11   6   1   64.29    9.70
 -10   6   1   15.10    4.80
  -9   6   1    8.50    3.00
  -8   6   1  115.09    7.80
  -7   6   1   37.20    2.60
  -6   6   1  872.51   15.60
  -5   6   1 1025.70   18.90
  -4   6   1  195.38    6.50
  -3   6   1   13.70    5.60
  -2   6   1   33.40    7.20
  -1   6   1  125.29    5.20
   0   6   1  115.79    5.60
   1   6   1  737.13   22.80
   2   6   1   16.10    5.10
   3   6   1  118.69   14.20
   4   6   1  248.38   22.70
   5   6   1    2.90    2.60
 -11   7   1   87.79   12.20
 -10   7   1   21.00    5.40
  -9   7   1   54.49    7.80
  -8   7   1  133.69    6.00
  -7   7   1  174.48    6.30
  -6   7   1 2326.87   48.50
  -5   7   1  918.51   21.90
  -4   7   1   47.60    5.40
  -3   7   1   16.70    8.70
  -2   7   1  359.86   13.50
  -1   7   1  514.55   29.70
   0   7   1  699.33   27.70
   1   7   1 1398.56   41.50
   2   7   1   15.70    4.80
   3   7   1   54.99   27.10
   4   7   1    1.30    3.00
 -10   8   1    3.40    4.00
  -9   8   1  156.38   10.40
  -8   8   1   27.50    3.30
  -7   8   1   67.09    5.30
  -6   8   1  915.91   22.60
  -5   8   1  107.79    5.80
  -4   8   1   37.90   16.00
  -3   8   1   98.39    6.70
  -2   8   1  137.59    7.00
  -1   8   1    9.70   27.40
   0   8   1  768.02   29.70
   1   8   1  570.14   22.70
   2   8   1   25.70    7.00
 -10   9   1  376.76   19.00
  -9   9   1  323.77   12.80
  -8   9   1   87.79    8.80
  -7   9   1    5.00    2.90
  -6   9   1   14.60    3.00
  -5   9   1  142.69    7.00
  -4   9   1   96.89   17.50
  -3   9   1  411.66   20.20
  -2   9   1    2.70    4.50
  -1   9   1   67.69   16.00
   0   9   1  123.59   12.20
  -9  10   1  197.08   12.20
  -8  10   1    2.90    2.90
  -7  10   1    7.60    3.00
  -6  10   1  242.38   10.00
  -5  10   1  153.18    8.60
  -4  10   1  525.55   46.70
  -3  10   1  813.92   26.50
  -2  10   1    0.00    6.00
  -1  10   1   10.80    6.10
  -6  11   1   66.69    8.00
  -5  11   1    4.10    4.50
   2 -11   2  571.54   27.20
   3 -11   2   24.80   10.80
   4 -11   2   26.30    9.10
   5 -11   2   77.09   10.30
   6 -11   2   15.30    4.90
   7 -11   2   31.70    5.20
   8 -11   2  225.68   11.80
   0 -10   2    8.80    3.90
   1 -10   2  913.41   27.40
   2 -10   2  962.30   41.20
   3 -10   2   78.09   22.90
   4 -10   2  135.09   11.20
   5 -10   2    4.30    2.60
   6 -10   2   28.10    4.70
   7 -10   2  278.57   10.60
   8 -10   2 1245.48   30.80
   9 -10   2  129.99   11.90
  -2  -9   2   80.49   36.00
  -1  -9   2    0.00   19.80
   0  -9   2   10.00    3.60
   1  -9   2  625.44   18.20
   2  -9   2  252.37   26.80
   3  -9   2  104.79   22.10
   4  -9   2   15.10    4.90
   5  -9   2  118.09    6.30
   6  -9   2   16.80    3.00
   7  -9   2  281.37   10.90
   8  -9   2  941.61   23.80
   9  -9   2   55.49    6.70
  10  -9   2   27.50    6.30
  -3  -8   2  246.48   12.00
  -2  -8   2  938.11   36.10
  -1  -8   2    8.10   17.10
   0  -8   2   22.00    4.20
   1  -8   2   73.09   12.90
   2  -8   2   43.50    7.70
   3  -8   2   70.09    5.20
   4  -8   2 1106.69   27.90
   5  -8   2  139.19    8.50
   6  -8   2  182.28    7.30
   7  -8   2  179.48    7.40
   8  -8   2   21.30    4.30
   9  -8   2   67.59    7.30
  10  -8   2   91.39   10.40
  11  -8   2  157.38   29.90
  -4  -7   2    5.00    5.40
  -3  -7   2  971.40   27.80
  -2  -7   2  924.31   41.20
  -1  -7   2  178.98   10.10
   0  -7   2  220.98   11.20
   1  -7   2   72.09    6.70
   2  -7   2   43.10    5.40
   3  -7   2  539.25   19.90
   4  -7   2 3029.30   61.49
   5  -7   2  264.17    7.70
   6  -7   2    9.30    2.00
   7  -7   2   46.80    2.90
   8  -7   2  210.38   10.30
   9  -7   2  152.58    8.50
  10  -7   2  638.64   25.30
  11  -7   2  417.66   19.30
  -5  -6   2   17.60    2.90
  -4  -6   2    4.50    7.30
  -3  -6   2  735.23   22.10
  -2  -6   2  205.78   10.60
  -1  -6   2  144.79    7.10
   0  -6   2    5.40    1.60
   1  -6   2  187.28    7.80
   2  -6   2  177.58    7.20
   3  -6   2  825.32   22.40
   4  -6   2 2007.10   39.30
   5  -6   2  100.19    3.70
   6  -6   2   68.29    2.80
   7  -6   2   27.70    4.10
   8  -6   2   40.30    5.20
   9  -6   2   34.60    4.40
  10  -6   2  832.02   29.60
  11  -6   2  171.18   11.70
  -6  -5   2  622.14   22.60
  -5  -5   2   10.40    3.00
  -4  -5   2   37.40    3.90
  -3  -5   2   14.90    4.90
  -2  -5   2   62.19    4.60
  -1  -5   2   71.19    7.10
   0  -5   2 2410.56   60.69
   1  -5   2  155.18   16.60
   2  -5   2  448.16   12.50
   3  -5   2  472.45   10.40
   4  -5   2    6.10    1.10
   5  -5   2   86.69    2.90
   6  -5   2  174.38    6.80
   7  -5   2  545.25   15.00
   8  -5   2  100.89    5.50
   9  -5   2    5.40    2.90
  10  -5   2  215.58   11.90
  11  -5   2   12.30    5.50
  -7  -4   2  782.92   26.60
  -6  -4   2  693.93   23.80
  -5  -4   2  198.78   10.10
  -4  -4   2  207.58   14.10
  -2  -4   2   43.50    5.20
  -1  -4   2 1087.79   25.00
   0  -4   2 4736.73   92.89
   1  -4   2  659.63   24.50
   2  -4   2   95.39    4.00
   3  -4   2   25.00    2.40
   4  -4   2  470.95    7.40
   5  -4   2  404.16   10.70
   6  -4   2 2205.88   41.50
   7  -4   2 1368.06   27.40
   8  -4   2   56.39    4.90
   9  -4   2    7.10    3.20
  10  -4   2    7.80    5.80
  11  -4   2  162.08   14.30
  -8  -3   2   12.00    4.20
  -7  -3   2  366.56   13.90
  -6  -3   2  143.89    7.70
  -5  -3   2  217.28    7.30
  -4  -3   2  118.29    5.70
  -3  -3   2  219.48   18.00
  -2  -3   2  449.46   13.70
  -1  -3   2 1658.93   32.50
   0  -3   2 3302.07   68.59
   1  -3   2  125.29    5.70
   2  -3   2  211.18    4.80
   3  -3   2  320.07    5.80
   4  -3   2   14.90    1.10
   5  -3   2  164.88    5.60
   6  -3   2 2965.70   57.99
   7  -3   2  224.78    7.00
   8  -3   2    1.40    1.40
   9  -3   2   10.90    2.90
  10  -3   2  107.69    7.10
  -9  -2   2    6.80    3.60
  -8  -2   2   49.50    5.20
  -7  -2   2    4.00    2.10
  -6  -2   2   55.69    4.80
  -5  -2   2  181.38    6.20
  -4  -2   2 2264.97   41.30
  -3  -2   2  220.28    6.80
  -2  -2   2  120.99    4.90
  -1  -2   2  320.47    6.70
   0  -2   2  102.49    3.60
   1  -2   2  138.29    3.40
   2  -2   2  327.97    6.00
   3  -2   2 1600.94   22.30
   4  -2   2  129.89    2.80
   5  -2   2   32.30    1.30
   6  -2   2  349.07    7.20
   7  -2   2   56.59    3.20
   8  -2   2   44.60    3.30
   9  -2   2  142.19    6.80
  10  -2   2   72.69   10.50
  -9  -1   2  124.99    5.10
  -8  -1   2   49.50    3.30
  -7  -1   2  152.98    7.10
  -6  -1   2    7.90    2.10
  -5  -1   2 1127.69   23.30
  -4  -1   2 5280.97   82.69
  -3  -1   2  377.86    9.20
  -2  -1   2   76.59    3.40
  -1  -1   2   29.30    2.90
   0  -1   2  510.35   12.60
   1  -1   2  698.93   12.50
   2  -1   2 9999.00  140.59
   3  -1   2 2415.06   40.50
   4  -1   2  217.28    4.20
   5  -1   2   84.89    2.20
   6  -1   2   81.89    2.90
   7  -1   2  389.06    7.70
   8  -1   2  463.65   11.40
   9  -1   2  779.92   27.00
  10  -1   2    2.20    3.70
 -10   0   2   40.40    4.50
  -9   0   2   80.39    4.60
  -8   0   2  140.29    5.50
  -7   0   2   96.59    4.30
  -6   0   2  109.69    3.40
  -5   0   2  940.91   15.50
  -4   0   2  935.21   15.70
  -3   0   2   60.59    2.10
  -2   0   2  153.18    3.20
  -1   0   2  605.34   12.80
   0   0   2  222.28    5.90
   1   0   2  260.27   28.30
   2   0   2 4333.67   92.19
   3   0   2  449.86    7.90
   4   0   2    5.50    0.70
   5   0   2    5.30    0.90
   6   0   2  344.67    8.30
   7   0   2   53.79    2.90
   8   0   2  550.84   12.40
   9   0   2  590.54   17.90
 -10   1   2   14.00    4.10
  -9   1   2  103.59    4.90
  -8   1   2 1470.85   31.20
  -7   1   2   92.99    3.20
  -6   1   2  123.39    3.60
  -5   1   2   79.89    2.80
  -4   1   2  141.79    3.10
  -3   1   2   58.99    1.90
  -2   1   2 1619.84   26.30
  -1   1   2 2257.47   37.60
   0   1   2 1299.17   29.40
   1   1   2    0.00   24.00
   2   1   2  245.08   34.10
   3   1   2  245.78    6.10
   4   1   2  160.78    5.40
   5   1   2  524.95   10.60
   6   1   2   34.80    2.60
   7   1   2   61.59    3.60
   8   1   2  270.37   10.40
   9   1   2    9.20    3.50
 -10   2   2    5.00    3.00
  -9   2   2  642.24   19.90
  -8   2   2 1895.21   40.00
  -7   2   2  188.18    6.60
  -6   2   2   87.69    3.50
  -5   2   2  112.99    3.90
  -4   2   2  460.05    8.40
  -3   2   2  533.75    8.70
  -2   2   2 7865.51  134.29
  -1   2   2 2344.97   32.40
   0   2   2  232.68    6.30
   1   2   2   24.80    6.50
   2   2   2  636.54   11.70
   3   2   2  696.23   14.00
   4   2   2  908.41   15.80
   5   2   2 1700.83   28.00
   6   2   2    9.40    1.80
   7   2   2   60.49    4.90
   8   2   2    2.20    2.50
 -11   3   2   38.90    6.10
 -10   3   2   58.09    5.80
  -9   3   2  334.57   13.20
  -8   3   2  282.57   11.10
  -7   3   2   35.60    5.20
  -6   3   2   14.40    1.40
  -5   3   2  412.76    8.60
  -4   3   2   21.90    1.60
  -3   3   2  265.67    5.80
  -2   3   2 3307.77   53.09
  -1   3   2  349.57    7.00
   0   3   2   13.80    1.30
   1   3   2    7.30    7.00
   2   3   2  243.78   17.10
   3   3   2   14.80    3.80
   4   3   2 1066.19   20.30
   5   3   2  894.41   20.50
   6   3   2   62.79    4.80
   7   3   2    9.10    2.60
 -11   4   2   36.70    6.60
 -10   4   2   11.60    3.70
  -9   4   2    5.80    4.60
  -8   4   2  101.69    7.20
  -7   4   2   11.00    2.70
  -6   4   2  982.30   20.20
  -5   4   2 1068.59   19.50
  -4   4   2  725.63   13.20
  -3   4   2   10.30    5.10
  -2   4   2   73.19    8.90
  -1   4   2  314.57    7.00
   0   4   2  121.39    5.20
   1   4   2  899.11   30.00
   2   4   2    8.50    5.30
   3   4   2   81.99   13.60
   4   4   2  344.87   18.90
   5   4   2    7.20    2.70
   6   4   2   81.19    8.00
 -11   5   2   79.59    9.70
 -10   5   2   24.10    5.60
  -9   5   2   57.79    7.20
  -8   5   2  104.79    5.90
  -7   5   2  311.37    6.90
  -6   5   2 2810.82   50.99
  -5   5   2  816.72   22.50
  -4   5   2   10.20    1.50
  -3   5   2    0.00   10.90
  -2   5   2  665.23   16.50
  -1   5   2  580.24   24.10
   0   5   2 1089.69   31.60
   1   5   2 2015.10   65.09
   2   5   2    9.60    3.40
   3   5   2  117.29   34.20
   4   5   2   13.10    5.00
   5   5   2  255.47   10.50
 -11   6   2   28.40    6.60
 -10   6   2    5.00    4.00
  -9   6   2  236.68   10.10
  -8   6   2   41.90    5.30
  -7   6   2   86.89    3.60
  -6   6   2 1510.65   25.20
  -5   6   2  133.19    6.30
  -4   6   2   28.70    3.30
  -3   6   2  109.29    6.50
  -2   6   2  125.99    7.70
  -1   6   2    0.00   29.50
   0   6   2 1669.03   47.40
   1   6   2  690.53   24.20
   2   6   2   37.80    8.60
   3   6   2   14.50   11.70
   4   6   2   91.09    8.20
 -11   7   2   25.80    6.20
 -10   7   2  477.85   21.50
  -9   7   2  284.37   13.00
  -8   7   2   88.19    5.80
  -7   7   2   13.10    2.80
  -6   7   2    1.20    2.00
  -5   7   2  151.38    6.60
  -4   7   2   94.59    8.00
  -3   7   2  598.24   15.90
  -2   7   2   11.50    3.00
  -1   7   2  101.29   13.20
   0   7   2  168.78    9.40
   1   7   2   13.60    5.30
   2   7   2   68.39    6.80
   3   7   2   62.69    9.20
 -10   8   2 1110.59   38.90
  -9   8   2  294.97   11.50
  -8   8   2    6.80    2.60
  -7   8   2   26.30    3.90
  -6   8   2  364.46   13.20
  -5   8   2  166.68    7.40
  -4   8   2 1202.88   34.90
  -3   8   2 1599.64   38.00
  -2   8   2   45.30    6.10
  -1   8   2   34.00    5.30
   0   8   2   35.40    7.50
   1   8   2  254.07   14.20
   2   8   2  179.78   14.00
  -9   9   2   36.60    5.40
  -8   9   2    3.60    2.70
  -7   9   2   89.79    7.10
  -6   9   2   89.99    6.20
  -5   9   2   15.50    3.90
  -4   9   2  769.22   27.80
  -3   9   2  369.66   17.30
  -2   9   2   14.10    5.90
  -1   9   2   32.90   12.70
   0   9   2  170.58   14.80
  -8  10   2   97.19    7.80
  -7  10   2  379.96   15.00
  -6  10   2    9.80    3.50
  -5  10   2   29.80    5.00
  -4  10   2   69.19    9.10
  -3  10   2   11.30    8.30
  -2  10   2  113.79   14.00
   2 -11   3  145.19   21.80
   3 -11   3   69.89   17.70
   4 -11   3   21.20    7.50
   5 -11   3   37.60    6.20
   6 -11   3   29.80    5.30
   7 -11   3  284.37   12.50
   8 -11   3  651.63   21.10
   0 -10   3   42.40    7.20
   1 -10   3   54.19    9.00
   2 -10   3   20.20    7.80
   3 -10   3   27.00    5.60
   4 -10   3  590.04   21.30
   5 -10   3   95.09    7.50
   6 -10   3   74.59    6.60
   7 -10   3  162.58    7.90
   8 -10   3    4.70    2.90
   9 -10   3   38.80    6.70
  -2  -9   3  548.15   21.60
  -1  -9   3   84.59    8.10
   0  -9   3   98.89    8.00
   1  -9   3   27.60    7.90
   2  -9   3   12.70    6.20
   3  -9   3  583.24   22.90
   4  -9   3 1953.10   85.09
   5  -9   3  156.38    8.20
   6  -9   3   29.30    3.90
   7  -9   3   28.10    3.80
   8  -9   3  119.29    6.10
   9  -9   3  115.29    8.80
  10  -9   3  485.95   37.10
  -3  -8   3  472.55   16.20
  -2  -8   3  118.99    7.40
  -1  -8   3  122.99   11.60
   0  -8   3   13.30    3.80
   1  -8   3  148.79    9.10
   2  -8   3   66.59    4.80
   3  -8   3  811.22   25.20
   4  -8   3 1479.75   48.00
   5  -8   3   89.89    5.60
   6  -8   3   52.89    4.40
   7  -8   3   57.19    4.50
   8  -8   3   21.30    4.40
   9  -8   3   82.89    7.50
  10  -8   3  840.52   30.70
  -5  -7   3   14.50    7.00
  -4  -7   3   59.09    6.00
  -3  -7   3    0.00    4.60
  -2  -7   3   42.30    6.00
  -1  -7   3   47.40    8.90
   0  -7   3 1472.05   45.70
   1  -7   3   97.49   20.30
   2  -7   3  131.89    8.80
   3  -7   3  285.77   12.50
   4  -7   3   21.40    3.10
   5  -7   3  133.29    5.40
   6  -7   3  180.78    6.80
   7  -7   3  516.15   11.80
   8  -7   3   56.49    6.20
   9  -7   3   11.40    3.30
  10  -7   3  189.28   12.00
  11  -7   3   22.50    5.40
  -6  -6   3  418.66   29.60
  -5  -6   3   90.79    4.90
  -4  -6   3   79.59   16.10
  -3  -6   3   60.09   13.60
  -2  -6   3   29.40    4.80
  -1  -6   3  959.10   26.90
   0  -6   3 3307.77   95.39
   1  -6   3  263.17   27.00
   2  -6   3   49.30    5.10
   3  -6   3   18.60    4.60
   4  -6   3  308.57    8.00
   5  -6   3  312.47    6.90
   6  -6   3 2487.15   45.00
   7  -6   3  853.71   21.60
   8  -6   3   75.39    6.00
   9  -6   3   10.60    3.10
  10  -6   3    8.00    5.20
  11  -6   3  190.08   16.00
  -6  -5   3   55.69    8.90
  -5  -5   3  139.49   11.20
  -3  -5   3  148.09   18.60
  -2  -5   3  134.99    6.90
  -1  -5   3 1217.78   27.30
   0  -5   3 1701.13   46.40
   1  -5   3   79.29    5.20
   2  -5   3  148.99    5.80
   3  -5   3  241.88    7.30
   4  -5   3   61.19    2.30
   5  -5   3  154.98    3.80
   6  -5   3 2316.27   47.80
   7  -5   3  154.98    5.80
   8  -5   3    0.60    1.80
   9  -5   3    1.80    3.80
  10  -5   3  231.38   11.70
  11  -5   3   57.39   10.60
  -7  -4   3    3.90    3.50
  -6  -4   3   38.10    6.00
  -5  -4   3  153.98    7.80
  -4  -4   3 1626.64   44.90
  -3  -4   3   65.89   10.10
  -2  -4   3  124.19    6.40
  -1  -4   3  144.59    6.00
   0  -4   3  111.39    3.80
   1  -4   3  125.59    3.80
   2  -4   3 1223.28   20.60
   3  -4   3 1186.58   17.70
   4  -4   3  477.85    9.70
   5  -4   3    9.70    1.10
   6  -4   3  330.97    9.80
   7  -4   3   51.29    3.20
   8  -4   3  105.39    4.90
   9  -4   3  185.08    8.30
  10  -4   3   15.30    3.70
  -8  -3   3   19.30    4.60
  -7  -3   3  109.49    6.60
  -6  -3   3    6.40    2.10
  -5  -3   3  771.02   17.50
  -4  -3   3 2788.62   62.09
  -3  -3   3  161.38    6.30
  -2  -3   3  103.49    5.60
  -1  -3   3   55.69    3.90
   0  -3   3  905.51   20.00
   1  -3   3  594.04   13.80
   2  -3   3 5866.61   89.39
   3  -3   3 1594.14   27.00
   4  -3   3  198.88    4.10
   5  -3   3  111.49    3.00
   6  -3   3  257.57    8.10
   7  -3   3  470.25   12.30
   8  -3   3  419.66   14.90
   9  -3   3  794.32   24.80
  10  -3   3   13.90    5.60
  -9  -2   3   66.39    8.60
  -8  -2   3  143.89    8.20
  -7  -2   3   59.69    5.20
  -6  -2   3  130.59    5.60
  -5  -2   3  913.01   19.50
  -4  -2   3  886.51   20.90
  -3  -2   3  131.19    7.60
  -2  -2   3   26.50   14.90
  -1  -2   3  607.14   14.60
   0  -2   3   57.69    2.40
   1  -2   3  374.66   18.50
   2  -2   3 4444.46   76.79
   3  -2   3  343.37    6.60
   4  -2   3    2.80    0.60
   5  -2   3   26.60    1.60
   6  -2   3  295.47    6.90
   7  -2   3   63.69    3.30
   8  -2   3  786.02   18.10
   9  -2   3  632.74   23.70
  10  -2   3   28.80    7.10
  -9  -1   3  134.59    5.30
  -8  -1   3  960.90   21.30
  -7  -1   3   32.50    2.40
  -6  -1   3   50.89    4.60
  -5  -1   3   66.29    4.40
  -4  -1   3  107.39    4.50
  -3  -1   3   49.80    2.20
  -2  -1   3 1192.28   25.40
  -1  -1   3 1463.55   24.00
   0  -1   3 1431.46   36.40
   1  -1   3  149.79   18.70
   2  -1   3  300.37    7.10
   3  -1   3  209.08    4.90
   4  -1   3   59.19    2.60
   5  -1   3  651.83   12.60
   6  -1   3    8.80    1.60
   7  -1   3  107.39    4.70
   8  -1   3  306.07   11.00
   9  -1   3    0.90    2.30
 -10   0   3    4.90    2.80
  -9   0   3  495.65   13.60
  -8   0   3 1360.86   26.40
  -7   0   3  119.59    4.00
  -6   0   3  104.59    3.90
  -5   0   3  141.69    4.40
  -4   0   3  313.97    6.90
  -3   0   3  573.14   11.30
  -2   0   3 7715.73  118.09
  -1   0   3 1586.64   26.30
   0   0   3  123.89    4.10
   1   0   3  158.68    7.10
   2   0   3  439.76    7.40
   3   0   3  723.83   13.40
   4   0   3 1201.28   21.10
   5   0   3 1944.41   32.80
   6   0   3   35.50    3.70
   7   0   3   70.59    4.80
   8   0   3    1.20    2.30
   9   0   3  206.08   10.80
 -10   1   3   34.60    4.90
  -9   1   3  382.06   11.10
  -8   1   3  311.37    7.60
  -7   1   3   62.99    2.90
  -6   1   3    5.40    1.20
  -5   1   3  418.16    9.40
  -4   1   3   29.90    1.60
  -3   1   3  381.36    7.90
  -2   1   3 4017.20   58.79
  -1   1   3  391.96    8.60
   0   1   3   72.69    3.00
   1   1   3  136.79    7.00
   2   1   3  390.16   12.50
   3   1   3   30.50    2.90
   4   1   3 2030.20   37.70
   5   1   3 1057.19   23.00
   6   1   3   53.69    3.60
   7   1   3    3.90    2.20
   8   1   3   50.59    5.30
 -10   2   3    3.20    2.60
  -9   2   3    2.20    2.60
  -8   2   3   88.39    3.40
  -7   2   3    7.80    1.50
  -6   2   3 1054.19   19.20
  -5   2   3  858.01   17.20
  -4   2   3  580.64    9.80
  -3   2   3   29.10    2.10
  -2   2   3   62.19    4.90
  -1   2   3  400.46    8.20
   0   2   3   94.09    3.10
   1   2   3 1141.29   22.90
   2   2   3   20.20    8.00
   3   2   3  122.49    5.80
   4   2   3  525.05   12.70
   5   2   3    7.50    1.30
   6   2   3   66.79    3.30
   7   2   3   20.30    3.40
   8   2   3  134.29    7.90
 -11   3   3   51.79    8.10
 -10   3   3   10.40    3.80
  -9   3   3   81.39    8.00
  -8   3   3  107.49    6.90
  -7   3   3  433.16   11.00
  -6   3   3 3681.93   59.99
  -5   3   3  808.92   15.40
  -4   3   3   20.30    1.90
  -3   3   3    7.10    1.40
  -2   3   3  696.83   14.60
  -1   3   3  466.65   17.90
   0   3   3 2559.14   73.69
   1   3   3 3016.20   59.59
   2   3   3   72.99    4.20
   3   3   3   44.30   25.80
   4   3   3   26.20    6.70
   5   3   3  321.47   10.00
   6   3   3  309.17   10.80
   7   3   3  493.45   19.10
 -11   4   3   31.90    7.30
 -10   4   3   13.60    4.50
  -9   4   3  295.37   14.70
  -8   4   3   15.40    3.40
  -7   4   3  229.08    6.20
  -6   4   3 1559.94   27.70
  -5   4   3   91.09    3.70
  -4   4   3   44.20    3.00
  -3   4   3  126.09    4.50
  -2   4   3  432.36   10.00
  -1   4   3   17.30   37.80
   0   4   3 2360.16   76.29
   1   4   3  932.01   25.10
   2   4   3   96.89    7.10
   3   4   3    1.00   11.10
   4   4   3  249.68   13.50
   5   4   3  193.08    9.20
   6   4   3  160.18    8.40
 -11   5   3   13.60    5.40
 -10   5   3  555.94   23.20
  -9   5   3  276.07   12.90
  -8   5   3  181.98    5.70
  -7   5   3    2.10    1.30
  -6   5   3   18.40    2.30
  -5   5   3  107.79    4.20
  -4   5   3  270.57    8.70
  -3   5   3 1283.67   25.30
  -2   5   3   33.70    4.40
  -1   5   3  101.39   19.70
   0   5   3  296.87   13.40
   1   5   3    9.80    4.00
   2   5   3  111.19    6.90
   3   5   3  153.98   13.60
   4   5   3  127.99    9.10
   5   5   3   32.80    6.00
 -11   6   3  143.19   12.70
 -10   6   3 1150.18   39.40
  -9   6   3  188.98   18.10
  -8   6   3   11.20    2.40
  -7   6   3   33.00    3.30
  -6   6   3  463.05   13.60
  -5   6   3  317.17   11.10
  -4   6   3 1628.94   35.10
  -3   6   3 1965.90   39.10
  -2   6   3   93.89    5.60
  -1   6   3   63.59    4.10
   0   6   3  114.79    7.70
   1   6   3  664.03   19.90
   2   6   3  291.47   12.30
   3   6   3  756.02   31.10
   4   6   3   96.09   10.90
 -10   7   3  347.07   17.90
  -9   7   3   28.90    4.00
  -8   7   3    9.30    3.20
  -7   7   3  178.08    7.80
  -6   7   3   78.49    5.60
  -5   7   3   17.40    3.30
  -4   7   3 1212.38   42.50
  -3   7   3  448.46   15.10
  -2   7   3   21.00    5.40
  -1   7   3    0.00   12.90
   0   7   3  236.78   14.50
   1   7   3  128.19   11.40
   2   7   3  262.37   18.60
   3   7   3  639.24   43.70
 -10   8   3   18.10    6.10
  -9   8   3   43.40    5.80
  -8   8   3  147.59   10.80
  -7   8   3  498.35   15.30
  -6   8   3   37.80    5.00
  -5   8   3   59.89    5.70
  -4   8   3   93.59   10.50
  -3   8   3   74.19   10.80
  -2   8   3   24.60   11.40
  -1   8   3  147.69   15.30
   0   8   3   97.19   10.40
   1   8   3  107.59   21.00
  -9   9   3   82.89    7.90
  -8   9   3  717.33   20.40
  -7   9   3  682.63   21.10
  -6   9   3   22.40    4.30
  -5   9   3   35.90    5.60
  -4   9   3  132.19   10.80
  -3   9   3  314.17   28.10
  -2   9   3  256.27   19.10
  -1   9   3  593.24   25.50
  -7  10   3  153.68    9.60
  -6  10   3    8.70    4.00
  -5  10   3   30.80    5.60
  -4  10   3  118.89   10.90
  -3  10   3    0.00   28.50
   2 -11   4   16.80    6.20
   3 -11   4  431.06   21.80
   4 -11   4 1397.26   56.39
   5 -11   4   58.59    6.90
   6 -11   4   13.20    3.90
   7 -11   4    2.50    3.20
   8 -11   4  106.39    8.20
   0 -10   4   15.90    5.20
   1 -10   4   52.99    9.30
   2 -10   4   18.20    6.20
   3 -10   4  467.75   21.40
   4 -10   4  685.03   39.90
   5 -10   4   45.20    5.70
   6 -10   4   22.70    4.20
   7 -10   4   78.39    6.30
   8 -10   4   23.30    4.00
   9 -10   4   99.59   11.10
  -2  -9   4   27.00    5.90
  -1  -9   4   52.59   11.90
   0  -9   4  843.62   37.50
   1  -9   4   48.90   15.90
   2  -9   4   44.00    7.60
   3  -9   4  186.78    9.10
   4  -9   4   59.59   28.70
   5  -9   4   91.99    7.70
   6  -9   4  207.28    8.50
   7  -9   4  307.37   10.70
   8  -9   4   62.79    5.00
   9  -9   4   25.90    5.20
  10  -9   4  152.08   11.40
  -3  -8   4  101.49   15.70
  -2  -8   4   10.60    5.10
  -1  -8   4  583.24   17.50
   0  -8   4 1737.13   53.79
   1  -8   4  158.48   22.60
   2  -8   4   23.80    4.30
   3  -8   4   19.50    4.70
   4  -8   4  281.97   13.60
   5  -8   4  163.18    7.10
   6  -8   4 1574.44   38.40
   7  -8   4  415.76   12.60
   8  -8   4   58.59    6.70
   9  -8   4    9.60    3.60
  10  -8   4   48.40    7.50
  -5  -7   4   60.49   12.10
  -4  -7   4   21.40   43.20
  -3  -7   4   73.79   13.10
  -2  -7   4   98.59    8.70
  -1  -7   4  928.11   25.10
   0  -7   4  854.71   28.60
   1  -7   4   56.09    5.60
   2  -7   4   73.69    5.70
   3  -7   4  188.58   10.40
   4  -7   4   18.00    3.00
   5  -7   4  158.88    5.90
   6  -7   4 1986.60   33.70
   7  -7   4  179.28    6.00
   8  -7   4    5.40    2.60
   9  -7   4    3.30    4.30
  10  -7   4  128.39    9.70
  -6  -6   4    1.70    6.10
  -5  -6   4   92.39    9.70
  -4  -6   4  871.01   34.50
  -3  -6   4   35.60    7.00
  -2  -6   4   48.40    3.90
  -1  -6   4  120.79    6.70
   0  -6   4   69.59    5.20
   1  -6   4   56.79    4.80
   2  -6   4  742.83   20.40
   3  -6   4  647.44   16.60
   4  -6   4  351.16    9.10
   5  -6   4   86.49    3.70
   6  -6   4  220.98    5.50
   7  -6   4   76.99    6.20
   8  -6   4   42.50    5.10
   9  -6   4  183.58    9.00
  10  -6   4    7.40    4.10
  11  -6   4   20.50   11.40
  -6  -5   4    7.90    3.80
  -5  -5   4  663.43   20.30
  -4  -5   4 1674.93   42.30
  -3  -5   4  105.59    5.00
  -2  -5   4   91.49    5.50
  -1  -5   4   73.29    5.20
   0  -5   4  472.15   16.50
   1  -5   4  378.76   16.40
   2  -5   4 3645.94   73.49
   3  -5   4 1111.69   20.70
   4  -5   4  113.29    3.70
   5  -5   4   29.90    2.20
   6  -5   4  194.48    5.00
   7  -5   4  365.56   10.80
   8  -5   4  432.36   13.20
   9  -5   4  803.22   26.50
  10  -5   4   14.50    4.60
  -7  -4   4   41.50    7.80
  -6  -4   4   37.20    4.90
  -5  -4   4  798.82   20.20
  -4  -4   4  729.73   20.40
  -3  -4   4  122.09    6.10
  -2  -4   4    0.00   20.50
  -1  -4   4  449.76   16.50
   0  -4   4   63.59    3.50
   1  -4   4  514.65   16.00
   2  -4   4 4947.00  133.99
   3  -4   4  224.18    6.20
   4  -4   4   13.20    1.30
   5  -4   4   34.30    1.90
   6  -4   4  290.17    6.80
   7  -4   4   69.69    3.90
   8  -4   4 1069.09   27.90
   9  -4   4  540.25   22.00
  10  -4   4   24.30    6.80
  -8  -3   4  660.93   19.70
  -7  -3   4   22.00    3.50
  -6  -3   4    8.50    2.50
  -5  -3   4   37.70    3.80
  -4  -3   4  160.58   11.30
  -3  -3   4   87.19    6.10
  -2  -3   4 1325.87   65.19
  -1  -3   4  949.71   19.10
   0  -3   4  427.56   11.70
   1  -3   4  118.09   14.20
   2  -3   4  222.68   13.20
   3  -3   4  172.28    4.20
   4  -3   4   62.99    2.10
   5  -3   4  702.03   11.30
   6  -3   4   12.40    1.60
   7  -3   4  113.29    4.00
   8  -3   4  370.16   16.20
   9  -3   4    2.10    3.60
  10  -3   4   69.29   10.70
  -9  -2   4  432.06   15.80
  -8  -2   4 1018.50   23.20
  -7  -2   4   60.39    4.90
  -6  -2   4   33.30    3.70
  -5  -2   4  154.08    8.30
  -4  -2   4  319.87   14.60
  -3  -2   4  578.14   13.90
  -2  -2   4 6061.79  145.89
  -1  -2   4 1093.39   22.30
   0  -2   4  214.98    6.20
   1  -2   4   62.19    4.20
   2  -2   4  626.14   11.30
   3  -2   4  732.73   11.50
   4  -2   4 1940.11   33.30
   5  -2   4 2004.80   40.00
   6  -2   4   89.39    3.70
   7  -2   4   47.40    3.50
   8  -2   4    5.50    2.30
   9  -2   4  218.48   13.20
  10  -2   4  167.78   14.00
  -9  -1   4  309.17   11.90
  -8  -1   4  169.18    5.40
  -7  -1   4  115.29    4.30
  -6  -1   4    4.50    1.40
  -5  -1   4  473.05   11.20
  -4  -1   4   26.40    2.00
  -3  -1   4  505.55   11.20
  -2  -1   4 2978.40   44.20
  -1  -1   4  247.48    5.50
   0  -1   4   57.69    2.50
   1  -1   4  359.96   10.50
   2  -1   4  972.60   18.50
   3  -1   4  116.59    4.40
   4  -1   4 2600.34   50.69
   5  -1   4 1046.90   20.70
   6  -1   4   57.09    4.40
   7  -1   4    2.50    2.00
   8  -1   4  160.88    7.90
   9  -1   4  143.49    9.00
 -10   0   4    9.10    3.00
  -9   0   4    2.10    2.30
  -8   0   4   85.89    4.60
  -7   0   4   44.20    3.50
  -6   0   4 1164.58   22.70
  -5   0   4  553.44   12.10
  -4   0   4  812.42   16.30
  -3   0   4   51.39    2.00
  -2   0   4   33.40    3.30
  -1   0   4  339.07   10.00
   0   0   4  264.37    7.60
   1   0   4 1496.65   29.80
   2   0   4   63.79    7.90
   3   0   4  343.67   16.60
   4   0   4  592.84   13.80
   5   0   4    6.40    1.50
   6   0   4  169.78    7.60
   7   0   4   82.19    6.00
   8   0   4  144.39    7.80
   9   0   4   16.60    4.50
 -10   1   4   10.80    4.00
  -9   1   4  170.48    6.00
  -8   1   4  118.89    4.70
  -7   1   4  397.76   10.00
  -6   1   4 2944.91   52.79
  -5   1   4  531.85   13.30
  -4   1   4   21.00    2.10
  -3   1   4   40.40    2.40
  -2   1   4  945.81   19.10
  -1   1   4  616.04   22.00
   0   1   4 3075.69   67.89
   1   1   4 2755.72   43.90
   2   1   4  339.07    9.80
   3   1   4   68.19    6.20
   4   1   4   77.69    2.90
   5   1   4  639.94   16.00
   6   1   4  287.47   10.60
   7   1   4  625.84   18.70
   8   1   4   35.80    6.60
 -10   2   4   19.10    7.40
  -9   2   4  241.38    7.20
  -8   2   4   49.90    4.50
  -7   2   4  262.87    8.50
  -6   2   4 1348.77   26.70
  -5   2   4   47.70    3.30
  -4   2   4   42.50    2.70
  -3   2   4  278.87    6.40
  -2   2   4  494.05    9.90
  -1   2   4  112.89   32.20
   0   2   4 2821.72   62.89
   1   2   4 1223.58   25.90
   2   2   4   86.79    6.00
   3   2   4    0.00   11.60
   4   2   4  293.57    7.00
   5   2   4  169.48    4.50
   6   2   4  238.08    7.10
   7   2   4  705.43   18.50
 -10   3   4  535.15   22.20
  -9   3   4  155.28    6.40
  -8   3   4  198.18    8.30
  -7   3   4    2.90    1.40
  -6   3   4   19.30    2.30
  -5   3   4   84.49    3.80
  -4   3   4  287.67    7.30
  -3   3   4 1432.86   27.90
  -2   3   4  312.97   11.40
  -1   3   4  213.08   17.80
   0   3   4  524.55   18.00
   1   3   4   65.39    5.80
   2   3   4   86.29    4.80
   3   3   4  189.08    8.50
   4   3   4  116.59    7.50
   5   3   4   66.39    5.00
   6   3   4  102.79    6.40
   7   3   4   59.49    9.70
 -11   4   4  149.69   34.50
 -10   4   4 1103.19   37.70
  -9   4   4  153.48    9.00
  -8   4   4    2.40    1.80
  -7   4   4   24.00    2.50
  -6   4   4  479.95   11.00
  -5   4   4  318.27    8.20
  -4   4   4 1910.31   36.70
  -3   4   4 1756.72   34.80
  -2   4   4  148.09    6.10
  -1   4   4  102.69    5.40
   0   4   4  218.88   10.70
   1   4   4  784.72   21.00
   2   4   4  363.86   18.30
   3   4   4 1214.68   35.40
   4   4   4   51.39    6.80
   5   4   4  244.78   11.00
   6   4   4    6.60    4.20
 -10   5   4  433.56   20.10
  -9   5   4   39.80    7.40
  -8   5   4    9.50    3.90
  -7   5   4  258.67    7.90
  -6   5   4   85.29    4.60
  -5   5   4   17.20    2.60
  -4   5   4 2181.68   50.79
  -3   5   4  620.44   13.90
  -2   5   4   30.60    4.60
  -1   5   4    4.50   11.80
   0   5   4  335.27   17.00
   1   5   4   94.89   10.90
   2   5   4  633.94   28.00
   3   5   4  933.01   26.50
   4   5   4   27.70    6.30
   5   5   4   58.99    6.30
 -10   6   4   46.60    7.60
  -9   6   4   28.60    4.10
  -8   6   4  177.58    8.30
  -7   6   4  556.54   15.80
  -6   6   4   59.99    5.70
  -5   6   4   46.70    4.90
  -4   6   4  118.79    6.20
  -3   6   4   55.29    7.40
  -2   6   4   32.90    9.10
  -1   6   4  183.78   11.80
   0   6   4  148.09    9.30
   1   6   4   80.69   34.90
   2   6   4   62.09   17.70
   3   6   4   66.19    8.80
   4   6   4   95.09    9.70
 -10   7   4  173.38   12.60
  -9   7   4  124.59    7.80
  -8   7   4 1078.79   27.40
  -7   7   4  829.62   21.80
  -6   7   4   89.79    6.70
  -5   7   4   63.99    6.00
  -4   7   4  228.38    9.80
  -3   7   4  278.97   33.50
  -2   7   4  403.66   21.30
  -1   7   4 1251.57   31.70
   0   7   4   12.00    4.20
   1   7   4  166.08   24.80
   2   7   4    0.00    7.40
  -9   8   4   21.30    4.40
  -8   8   4  626.14   18.40
  -7   8   4  151.28    7.70
  -6   8   4    6.00    3.00
  -5   8   4   54.19    5.60
  -4   8   4  301.37   15.20
  -3   8   4   26.00   20.30
  -2   8   4  496.45   26.00
  -1   8   4  750.52   30.00
   0   8   4   20.10    5.60
   1   8   4   57.29   14.00
  -8   9   4   22.70    5.70
  -7   9   4   60.29    6.20
  -6   9   4   45.80    5.50
  -5   9   4  199.78    9.50
  -4   9   4   60.09   11.50
  -3   9   4   69.29    8.10
  -2   9   4   48.70    7.40
  -5  10   4  692.83   41.60
   2 -11   5    6.70    8.40
   3 -11   5  111.19   14.00
   4 -11   5    0.00   26.70
   5 -11   5   20.20    5.40
   6 -11   5  123.59    8.40
   7 -11   5  212.78   10.80
   8 -11   5   39.90    5.80
   0 -10   5 1029.80   53.59
   1 -10   5   25.20   23.10
   2 -10   5   25.80    6.40
   3 -10   5    2.50    6.70
   4 -10   5  161.18   15.40
   5 -10   5  188.08   11.20
   6 -10   5 1126.89   35.30
   7 -10   5  239.08    9.80
   8 -10   5   27.80    5.60
   9 -10   5   10.20    4.60
  -2  -9   5    9.50    8.00
  -1  -9   5  594.84   21.50
   0  -9   5  414.46   17.70
   1  -9   5   35.80    6.30
   2  -9   5   20.10    5.80
   3  -9   5  196.48    9.00
   4  -9   5   13.10    4.60
   5  -9   5  199.88    9.90
   6  -9   5 1588.94   32.00
   7  -9   5  129.79    7.40
   8  -9   5    2.80    2.30
   9  -9   5    5.00    4.30
  10  -9   5   67.79    9.40
  -3  -8   5   28.10   11.00
  -2  -8   5    3.90    4.60
  -1  -8   5   51.89    5.50
   0  -8   5   48.70    4.90
   1  -8   5   25.70    5.60
   2  -8   5  531.25   12.80
   3  -8   5  404.76   11.70
   4  -8   5  139.69    7.80
   5  -8   5  127.39    5.50
   6  -8   5  106.39    5.20
   7  -8   5  107.29    5.30
   8  -8   5   19.40    4.00
   9  -8   5  212.68   12.50
  10  -8   5   18.50    5.80
  -5  -7   5  586.54   37.50
  -4  -7   5 1102.39   29.70
  -3  -7   5   39.10    5.10
  -2  -7   5   37.70    7.40
  -1  -7   5   91.29    6.10
   0  -7   5  279.07   12.40
   1  -7   5  335.67   12.90
   2  -7   5 2860.81   64.39
   3  -7   5  533.05   17.20
   4  -7   5  117.29    6.20
   5  -7   5    1.30    1.30
   6  -7   5  230.58    7.10
   7  -7   5  288.97    7.20
   8  -7   5  623.44   30.90
   9  -7   5  617.74   23.60
  10  -7   5   24.50    5.60
  -6  -6   5    2.20    6.30
  -5  -6   5  417.86   13.90
  -4  -6   5  235.38   11.50
  -3  -6   5   79.39    7.60
  -2  -6   5    0.00    9.80
  -1  -6   5  366.86   14.10
   0  -6   5   14.60    2.40
   1  -6   5  463.45   16.70
   2  -6   5 2812.92  108.39
   3  -6   5  121.89    9.40
   4  -6   5   16.10    2.30
   5  -6   5   47.40    3.20
   6  -6   5  368.66   10.70
   7  -6   5   66.49    3.90
   8  -6   5  944.51   30.80
   9  -6   5  401.26   17.50
  10  -6   5   34.00    8.40
  -6  -5   5    8.50    3.40
  -5  -5   5   11.90    5.40
  -4  -5   5  109.89    5.80
  -3  -5   5   62.49   15.50
  -2  -5   5 1025.40   58.49
  -1  -5   5  422.46   17.80
   0  -5   5  425.16   18.50
   1  -5   5  152.28   12.40
   2  -5   5  174.08   36.60
   3  -5   5  187.18    5.30
   4  -5   5  135.69    3.70
   5  -5   5  648.64   12.30
   6  -5   5   27.20    2.20
   7  -5   5   71.39    3.00
   8  -5   5  372.56   11.60
   9  -5   5    2.50    3.90
  10  -5   5  127.39   12.70
  -7  -4   5   50.19    5.50
  -6  -4   5   24.90    3.80
  -5  -4   5  166.88    7.70
  -4  -4   5  227.98    6.80
  -3  -4   5  316.67   15.30
  -2  -4   5 3085.39   95.39
  -1  -4   5  566.54   16.70
   0  -4   5  115.39    5.90
   1  -4   5   22.90    3.40
   2  -4   5  941.21   14.70
   3  -4   5  554.54    9.60
   4  -4   5 1409.36   21.60
   5  -4   5 1640.54   24.70
   6  -4   5  131.49    3.40
   7  -4   5   35.00    2.80
   8  -4   5    2.70    3.10
   9  -4   5  329.67   20.40
  10  -4   5  138.99   14.10
  -8  -3   5  136.79    7.50
  -7  -3   5  104.39    7.50
  -6  -3   5   13.80    2.90
  -5  -3   5  336.37   11.70
  -4  -3   5  133.79    4.70
  -3  -3   5  565.54   16.00
  -2  -3   5 2643.44   55.59
  -1  -3   5   96.79    3.80
   0  -3   5   25.70    1.80
   1  -3   5  273.57    7.20
   2  -3   5  329.27   14.80
   3  -3   5   91.59    3.40
   4  -3   5 2707.03   41.60
   5  -3   5  832.32   17.40
   6  -3   5   74.19    3.60
   7  -3   5    6.50    1.60
   8  -3   5  187.18    7.00
   9  -3   5  158.88   13.30
  10  -3   5  166.88   14.60
  -9  -2   5    3.60    6.30
  -8  -2   5   56.69    5.30
  -7  -2   5   74.19    4.30
  -6  -2   5  728.63   16.80
  -5  -2   5  263.97    7.70
  -4  -2   5  295.37    8.10
  -3  -2   5   75.19    4.70
  -2  -2   5    0.00   12.50
  -1  -2   5  177.08    7.20
   0  -2   5   98.59    4.10
   1  -2   5 1297.67   25.90
   2  -2   5  196.18   10.30
   3  -2   5  311.77    8.00
   4  -2   5  620.64   13.60
   5  -2   5   15.10    2.10
   6  -2   5  120.89    5.10
   7  -2   5  112.29    6.40
   8  -2   5   90.09    5.60
   9  -2   5   15.20    3.90
  -9  -1   5  196.88    6.30
  -8  -1   5   57.69    3.80
  -7  -1   5  271.17    8.40
  -6  -1   5 2515.45   47.70
  -5  -1   5  288.07    8.30
  -4  -1   5   10.40    2.10
  -3  -1   5   43.00    3.30
  -2  -1   5  783.42   16.20
  -1  -1   5  451.55   21.30
   0  -1   5 3348.76   70.89
   1  -1   5 2150.08   40.60
   2  -1   5  362.36    9.40
   3  -1   5   16.40    2.40
   4  -1   5   74.09    3.60
   5  -1   5  726.93   16.20
   6  -1   5  236.98    8.20
   7  -1   5  701.63   23.80
   8  -1   5   21.00    4.10
   9  -1   5  144.79    9.50
  -9   0   5  126.99    5.30
  -8   0   5   40.60    3.40
  -7   0   5  349.27   10.60
  -6   0   5 1307.07   28.70
  -5   0   5   58.89    3.70
  -4   0   5   41.00    2.30
  -3   0   5  339.57    8.30
  -2   0   5  398.36    8.80
  -1   0   5  160.68   25.90
   0   0   5 3863.81   81.89
   1   0   5 1375.96   24.30
   2   0   5   43.80    6.10
   3   0   5   44.30    7.30
   4   0   5  391.46   11.10
   5   0   5  167.98    7.70
   6   0   5  498.55   17.90
   7   0   5  897.71   24.90
   8   0   5   14.30    3.90
 -10   1   5  455.15   13.90
  -9   1   5  138.99    6.70
  -8   1   5   82.09    5.10
  -7   1   5   11.10    3.10
  -6   1   5   31.50    3.30
  -5   1   5   44.30    2.80
  -4   1   5  329.67    8.60
  -3   1   5 1346.07   23.80
  -2   1   5  294.77    9.50
  -1   1   5  173.38   17.40
   0   1   5  555.44   16.10
   1   1   5  161.28    4.80
   2   1   5   72.59    3.00
   3   1   5  217.08    7.20
   4   1   5  234.48    8.80
   5   1   5   98.59    5.20
   6   1   5  162.38    7.80
   7   1   5   83.09    6.80
   8   1   5   85.49    9.30
 -10   2   5 1003.60   28.40
  -9   2   5  112.99    6.40
  -8   2   5    7.00    2.50
  -7   2   5   44.80    3.50
  -6   2   5  492.55   11.90
  -5   2   5  338.17    8.50
  -4   2   5 2789.32   47.60
  -3   2   5 1763.62   29.30
  -2   2   5  290.17    8.20
  -1   2   5   67.09    4.40
   0   2   5  272.07    9.20
   1   2   5  754.52   21.50
   2   2   5  748.53   18.70
   3   2   5 1744.63   39.00
   4   2   5    8.20    4.10
   5   2   5  330.67   11.80
   6   2   5    1.40    2.60
   7   2   5   85.39   10.40
 -10   3   5  297.87   15.80
  -9   3   5   37.50    4.30
  -8   3   5    8.90    2.90
  -7   3   5  360.76    9.30
  -6   3   5  165.88    5.70
  -5   3   5   81.09    4.30
  -4   3   5 2343.37   44.30
  -3   3   5  605.74   14.70
  -2   3   5   17.90    3.20
  -1   3   5   57.99   16.50
   0   3   5  778.32   28.50
   1   3   5  193.98   16.10
   2   3   5  771.62   26.50
   3   3   5 1243.38   30.40
   4   3   5   61.19    6.50
   5   3   5   84.79   46.80
   6   3   5   79.89   10.00
 -10   4   5   33.60    6.70
  -9   4   5   24.80    3.60
  -8   4   5  295.87   10.40
  -7   4   5  698.93   16.70
  -6   4   5  242.58    8.10
  -5   4   5   82.59    5.50
  -4   4   5  126.59    5.80
  -3   4   5  106.49    8.80
  -2   4   5   99.39   13.10
  -1   4   5  502.75   16.40
   0   4   5  101.39    7.00
   1   4   5  140.79   28.50
   2   4   5  223.28   23.20
   3   4   5   67.89   17.50
   4   4   5  131.99    8.90
   5   4   5   36.50    4.90
 -10   5   5  203.58   13.40
  -9   5   5  170.28    8.40
  -8   5   5 1074.69   26.00
  -7   5   5  627.14   17.30
  -6   5   5  115.99    7.00
  -5   5   5   93.29    5.90
  -4   5   5  453.75   14.70
  -3   5   5  547.55   33.70
  -2   5   5  607.54   33.80
  -1   5   5 1677.93   38.80
   0   5   5    3.80    2.40
   1   5   5  346.17   25.70
   2   5   5   17.70    7.90
   3   5   5  279.37   17.20
   4   5   5  194.88   11.70
 -10   6   5   23.30    6.20
  -9   6   5   27.10    4.50
  -8   6   5  846.82   23.20
  -7   6   5  150.68    7.30
  -6   6   5    7.30    2.60
  -5   6   5   84.59    5.40
  -4   6   5  382.16   13.80
  -3   6   5    0.00   20.60
  -2   6   5  746.73   20.30
  -1   6   5  855.91   29.50
   0   6   5   85.19    8.40
   1   6   5   75.99    7.40
   2   6   5  122.29   10.20
   3   6   5  270.77   15.20
 -10   7   5   66.49   12.30
  -9   7   5   25.30    5.10
  -8   7   5   12.30    4.00
  -7   7   5   54.19    6.20
  -6   7   5   53.89    5.50
  -5   7   5  263.67   11.20
  -4   7   5   33.10    5.90
  -3   7   5  211.08   13.80
  -2   7   5   71.89    6.60
  -1   7   5    0.00    7.60
   0   7   5   73.89    9.20
   1   7   5   36.80   18.10
   2   7   5  162.68   19.60
  -9   8   5   46.60    6.00
  -8   8   5  254.27   13.40
  -7   8   5  187.58    9.00
  -6   8   5  417.66   14.30
  -5   8   5  930.61   28.70
  -4   8   5    9.60    7.00
  -3   8   5  184.88   17.50
  -2   8   5   37.20    9.70
  -1   8   5  343.77   18.40
   0   8   5  153.58   14.20
  -7   9   5   25.90    5.40
  -6   9   5  388.46   14.20
  -5   9   5  420.56   16.10
  -4   9   5   13.60   14.30
  -3   9   5   53.89   14.40
   2 -11   6   15.20    7.50
   3 -11   6  131.09   12.50
   4 -11   6   11.70    8.40
   5 -11   6  167.38   11.10
   6 -11   6  825.12   30.10
   7 -11   6   45.20    6.00
   8 -11   6    0.20    4.80
   0 -10   6   26.40    5.30
   1 -10   6   29.70    6.90
   2 -10   6  361.96   15.50
   3 -10   6  174.48   10.90
   4 -10   6  132.29   16.90
   5 -10   6  104.69    6.80
   6 -10   6   41.90    4.70
   7 -10   6   77.19    7.70
   8 -10   6   29.90    4.40
   9 -10   6  162.18   14.10
  -2  -9   6    3.10    6.00
  -1  -9   6   62.59    7.10
   0  -9   6  147.59   10.00
   1  -9   6  215.78   12.40
   2  -9   6 1090.19   63.29
   3  -9   6  265.67   15.50
   4  -9   6   57.19    5.70
   5  -9   6    3.40    2.00
   6  -9   6  219.28    7.90
   7  -9   6  156.78    6.80
   8  -9   6  404.26   14.00
   9  -9   6  388.86   18.40
  -3  -8   6   52.29    9.50
  -2  -8   6    0.00   10.10
  -1  -8   6  191.58   10.90
   0  -8   6   23.40    6.10
   1  -8   6  431.56   15.40
   2  -8   6 1649.93   51.89
   3  -8   6   60.89   12.80
   4  -8   6    6.10    4.70
   5  -8   6   44.20    4.10
   6  -8   6  145.79    6.10
   7  -8   6   57.29    4.00
   8  -8   6  896.61   22.20
   9  -8   6  312.07   15.50
  10  -8   6   51.79    7.90
  -4  -7   6   29.80    5.00
  -3  -7   6   23.10    7.50
  -2  -7   6  823.42   37.60
  -1  -7   6  244.58   15.50
   0  -7   6  201.18   10.00
   1  -7   6  137.09    9.60
   2  -7   6   68.29   31.30
   3  -7   6  130.59    6.50
   4  -7   6   57.69    6.90
   5  -7   6  513.25   14.40
   6  -7   6   12.00    3.30
   7  -7   6   11.20    2.60
   8  -7   6  322.97   10.40
   9  -7   6    3.30    3.40
  10  -7   6   59.89   10.70
  -5  -6   6  137.79    6.70
  -4  -6   6   83.39   11.30
  -3  -6   6  314.27   23.50
  -2  -6   6 2031.50   63.49
  -1  -6   6  277.57   11.50
   0  -6   6   40.30    3.90
   1  -6   6   28.90    3.60
   2  -6   6  546.85   13.80
   3  -6   6  310.97   10.70
   4  -6   6 1317.87   27.10
   5  -6   6 1225.38   27.60
   6  -6   6  149.19    6.30
   7  -6   6   24.70    2.50
   8  -6   6    1.10    2.80
   9  -6   6  246.68   11.60
  10  -6   6  130.29   14.90
  -6  -5   6   19.10    4.20
  -5  -5   6  217.38    7.00
  -4  -5   6   48.50    4.50
  -3  -5   6  605.74   17.10
  -2  -5   6 1968.30   43.20
  -1  -5   6   38.00    4.00
   0  -5   6   42.40    4.20
   1  -5   6  177.28   10.40
   2  -5   6  290.47   23.20
   3  -5   6  112.39   13.90
   4  -5   6 2595.24   44.90
   5  -5   6  597.84   12.40
   6  -5   6   55.19    2.60
   7  -5   6    4.90    1.40
   8  -5   6  247.48   17.10
   9  -5   6  144.09   13.40
  10  -5   6  244.18   18.30
  -7  -4   6   36.50    4.80
  -6  -4   6  586.94   19.90
  -5  -4   6  175.98    6.00
  -4  -4   6   82.19    5.60
  -3  -4   6   39.80    5.60
  -2  -4   6    6.70   11.40
  -1  -4   6   71.79    6.70
   0  -4   6  216.38    8.60
   1  -4   6 1145.19   28.00
   2  -4   6   56.39    7.20
   3  -4   6   59.09    4.80
   4  -4   6  599.44   13.10
   5  -4   6   27.10    2.30
   6  -4   6  102.29    3.30
   7  -4   6  136.39    6.70
   8  -4   6   98.49    5.30
   9  -4   6   26.10    8.70
  10  -4   6  126.69   13.70
  -8  -3   6   36.70    4.60
  -7  -3   6  256.57   10.20
  -6  -3   6 1978.10   40.10
  -5  -3   6   91.09    4.30
  -4  -3   6   56.49    4.00
  -3  -3   6   42.70   11.40
  -2  -3   6  841.12   50.99
  -1  -3   6  412.76   23.30
   0  -3   6 3227.58   86.39
   1  -3   6 1942.91   32.50
   2  -3   6  475.55   14.90
   3  -3   6   20.60    2.20
   4  -3   6  140.59    5.10
   5  -3   6  703.73   15.80
   6  -3   6  312.37    8.80
   7  -3   6  817.32   18.00
   8  -3   6    4.80    2.50
   9  -3   6  166.08    9.30
  -8  -2   6   11.90    2.40
  -7  -2   6  323.17    9.40
  -6  -2   6  716.63   16.90
  -5  -2   6   82.39    4.90
  -4  -2   6   16.80    2.40
  -3  -2   6  459.85   18.70
  -2  -2   6  335.67    9.50
  -1  -2   6   90.99   26.30
   0  -2   6 3164.78   75.49
   1  -2   6  931.61   16.40
   2  -2   6   46.00    5.60
   3  -2   6   81.89    5.40
   4  -2   6  763.22   20.60
   5  -2   6  230.98    8.20
   6  -2   6  679.73   18.10
   7  -2   6  946.91   26.10
   8  -2   6   18.40    4.10
   9  -2   6   26.80    5.90
  -9  -1   6   71.69    4.50
  -8  -1   6  110.89    5.20
  -7  -1   6   39.50    4.30
  -6  -1   6   39.00    3.70
  -5  -1   6   67.99    4.30
  -4  -1   6  399.56   10.70
  -3  -1   6 1084.69   26.40
  -2  -1   6  591.34   23.30
  -1  -1   6   81.69   12.50
   0  -1   6  511.25   13.90
   1  -1   6  194.68    5.90
   2  -1   6  188.68    6.40
   3  -1   6  431.76   10.00
   4  -1   6  140.59    5.90
   5  -1   6  199.18    6.90
   6  -1   6  255.27   12.00
   7  -1   6  111.29    7.00
   8  -1   6  138.69    9.00
  -9   0   6   67.39    4.70
  -8   0   6   12.90    2.70
  -7   0   6  135.09    6.00
  -6   0   6  539.55   14.10
  -5   0   6  283.67    8.60
  -4   0   6 2182.18   38.50
  -3   0   6 1329.77   27.00
  -2   0   6  351.66   10.10
  -1   0   6   79.79    5.40
   0   0   6  483.15   15.00
   1   0   6  908.91   17.60
   2   0   6  642.24   13.00
   3   0   6 1510.55   39.40
   4   0   6   26.20    3.20
   5   0   6  324.37   11.90
   6   0   6    2.10    2.30
   7   0   6  216.88   11.30
   8   0   6  171.78   10.60
 -10   1   6  229.88    8.80
  -9   1   6   20.40    3.80
  -8   1   6    2.40    2.00
  -7   1   6  363.96   11.90
  -6   1   6   53.09    4.60
  -5   1   6   86.69    4.60
  -4   1   6 2432.06   45.60
  -3   1   6  424.06   11.00
  -2   1   6   23.60    5.00
  -1   1   6  115.09   12.90
   0   1   6  881.31   23.40
   1   1   6  143.29   12.90
   2   1   6 1082.29   29.30
   3   1   6 1577.74   33.70
   4   1   6   87.29    4.90
   5   1   6  105.39    6.10
   6   1   6   90.89    7.00
   7   1   6  251.77   12.50
 -10   2   6   23.50    4.00
  -9   2   6   32.70    7.00
  -8   2   6  235.08    9.00
  -7   2   6  505.75   16.20
  -6   2   6  303.67    9.00
  -5   2   6   62.89    4.40
  -4   2   6  153.88    6.50
  -3   2   6  179.68   12.90
  -2   2   6   67.79   11.30
  -1   2   6  634.74   14.50
   0   2   6   42.70    3.50
   1   2   6  307.97   27.50
   2   2   6  345.87   25.80
   3   2   6   54.39    6.40
   4   2   6  157.68   14.20
   5   2   6   34.60    6.60
   6   2   6  125.09   10.80
   7   2   6    0.00    6.00
 -10   3   6  157.38   10.60
  -9   3   6  129.89    7.70
  -8   3   6 1122.19   29.70
  -7   3   6  478.05   14.10
  -6   3   6   87.89    5.00
  -5   3   6   71.19    4.70
  -4   3   6  505.45   14.80
  -3   3   6  542.15   31.10
  -2   3   6  642.34   33.70
  -1   3   6 1661.73   33.90
   0   3   6   40.40    5.10
   1   3   6  413.56   29.50
   2   3   6   22.40    6.60
   3   3   6  340.47   16.80
   4   3   6  236.98   13.40
   5   3   6  272.77   16.60
   6   3   6  109.29   11.50
 -10   4   6   22.80    6.00
  -9   4   6   47.90    5.60
  -8   4   6 1123.89   27.60
  -7   4   6  167.38    7.70
  -6   4   6    5.80    2.30
  -5   4   6  101.69    5.20
  -4   4   6  523.45   15.00
  -3   4   6    6.10   25.00
  -2   4   6 1213.18   27.50
  -1   4   6 1277.77   43.10
   0   4   6  104.49    7.50
   1   4   6   46.60    6.90
   2   4   6  208.98   17.20
   3   4   6  348.27   29.20
   4   4   6  126.09    9.70
   5   4   6  447.56   23.10
 -10   5   6   63.49    9.20
  -9   5   6   14.40    3.70
  -8   5   6    5.80    3.70
  -7   5   6   50.49    5.30
  -6   5   6   55.19    5.30
  -5   5   6  437.06   13.50
  -4   5   6   20.70    3.90
  -3   5   6  182.08    8.70
  -2   5   6  175.68    6.40
  -1   5   6   35.70    5.70
   0   5   6   73.89    7.40
   1   5   6   29.30   13.20
   2   5   6  169.98   19.30
   3   5   6   11.80    7.60
   4   5   6    7.30    6.60
 -10   6   6   65.59   11.00
  -9   6   6   33.90    5.70
  -8   6   6  290.27   12.60
  -7   6   6  228.78   10.70
  -6   6   6  586.24   17.10
  -5   6   6 1165.58   36.80
  -4   6   6   45.20   10.90
  -3   6   6  282.77   15.30
  -2   6   6   32.90   14.80
  -1   6   6  443.16   16.50
   0   6   6  239.88   21.50
   1   6   6  399.16   23.10
   2   6   6  104.59   12.10
  -9   7   6  110.19    8.80
  -8   7   6  230.78   11.40
  -7   7   6   37.50    5.00
  -6   7   6  563.54   17.20
  -5   7   6  488.55   16.40
  -4   7   6   39.00    8.70
  -3   7   6   47.20   17.20
  -2   7   6  295.77   34.40
  -1   7   6  262.77   27.00
   0   7   6  177.68   15.20
   1   7   6  544.05   29.70
  -8   8   6    7.60    4.30
  -7   8   6   97.39    9.40
  -6   8   6   70.39    6.80
  -5   8   6    8.70    4.00
  -4   8   6   54.39    8.60
  -3   8   6   66.69   10.70
  -2   8   6  138.29   13.30
  -1   8   6    0.00   30.70
   2 -11   7 1016.10   52.69
   3 -11   7  113.39   14.40
   4 -11   7   16.30    7.20
   5 -11   7    2.60    3.00
   6 -11   7  130.99    7.80
   7 -11   7  129.59   10.10
   0 -10   7    5.10    3.60
   1 -10   7  324.07   14.90
   2 -10   7  895.31   41.90
   3 -10   7   24.50   11.20
   4 -10   7    0.00   12.70
   5 -10   7   69.69    6.50
   6 -10   7  123.99    6.60
   7 -10   7   66.29    5.50
   8 -10   7  788.22   26.00
  -2  -9   7  363.56   50.59
  -1  -9   7  131.39   13.10
   0  -9   7   65.49    6.60
   1  -9   7   60.19    6.50
   2  -9   7    0.00   40.20
   3  -9   7   48.40    7.60
   4  -9   7   54.59    7.10
   5  -9   7  393.56   11.90
   6  -9   7    7.90    2.60
   7  -9   7    5.10    2.20
   8  -9   7  253.97    8.50
   9  -9   7    4.20    4.30
  -3  -8   7  288.97   13.80
  -2  -8   7 1428.36   41.10
  -1  -8   7   73.49    7.60
   0  -8   7   28.60    4.50
   1  -8   7   14.00    4.90
   2  -8   7  341.57   11.60
   3  -8   7  233.18   10.50
   4  -8   7 1151.58   27.90
   5  -8   7  669.93   18.40
   6  -8   7  177.28    7.90
   7  -8   7   34.30    4.20
   8  -8   7   21.00    2.90
   9  -8   7  227.68   15.60
  -4  -7   7   10.70    4.80
  -3  -7   7  347.57   12.60
  -2  -7   7  858.61   22.40
  -1  -7   7   34.90    8.10
   0  -7   7   14.60    3.90
   1  -7   7  228.58   11.10
   2  -7   7  229.88   19.70
   3  -7   7   69.09   10.00
   4  -7   7 1803.72   45.00
   5  -7   7  371.46   11.80
   6  -7   7   71.79    5.00
   7  -7   7    6.70    2.50
   8  -7   7  278.17   13.70
   9  -7   7  103.19    9.30
  10  -7   7  201.58   26.20
  -5  -6   7   57.99    4.50
  -4  -6   7  104.79    7.90
  -3  -6   7   72.79   10.50
  -2  -6   7   52.09   10.20
  -1  -6   7   25.00    7.80
   0  -6   7  289.27   13.80
   1  -6   7  690.03   19.00
   2  -6   7  139.79    6.40
   3  -6   7   60.49   23.50
   4  -6   7  435.36   21.50
   5  -6   7   63.89    4.60
   6  -6   7   91.39    5.50
   7  -6   7  137.29    6.70
   8  -6   7   62.89    4.80
   9  -6   7   34.00    8.60
  10  -6   7  138.29   15.40
  -6  -5   7  936.61   19.90
  -5  -5   7   46.80    4.10
  -4  -5   7   29.90    7.60
  -3  -5   7   59.29    8.80
  -2  -5   7  757.32   25.80
  -1  -5   7  211.38   17.50
   0  -5   7 1556.94   44.50
   1  -5   7 1170.28   27.10
   2  -5   7  398.56   14.80
   3  -5   7  139.69   16.10
   4  -5   7  248.68    9.90
   5  -5   7  560.34   13.10
   6  -5   7  230.28    7.40
   7  -5   7  752.72   21.90
   8  -5   7    2.00    2.10
   9  -5   7  151.88   14.10
  -7  -4   7  299.07   11.90
  -6  -4   7  474.25   12.00
  -5  -4   7   56.19    5.80
  -4  -4   7   17.00    5.50
  -3  -4   7  375.96   11.80
  -2  -4   7   31.10    5.60
  -1  -4   7  231.68   21.30
   0  -4   7 3015.10  109.69
   1  -4   7  360.96   11.20
   2  -4   7   81.19   10.00
   3  -4   7   63.59    7.50
   4  -4   7  483.95   11.30
   5  -4   7  160.18    5.30
   6  -4   7  744.03   21.30
   7  -4   7  845.42   23.80
   8  -4   7   52.39    6.00
   9  -4   7   43.00    7.10
  -8  -3   7   52.29    9.60
  -7  -3   7   43.40    4.40
  -6  -3   7   38.60    3.90
  -5  -3   7   61.39    4.50
  -4  -3   7  168.18    8.60
  -3  -3   7  668.53   21.80
  -2  -3   7  195.58   13.20
  -1  -3   7   20.30   11.10
   0  -3   7  359.16   12.90
   1  -3   7  141.69    5.70
   2  -3   7   45.90    3.50
   3  -3   7  394.16   10.50
   4  -3   7  105.69    4.80
   5  -3   7  219.38    8.40
   6  -3   7  293.67   11.30
   7  -3   7   75.49    5.80
   8  -3   7  158.88    9.40
   9  -3   7   21.70    5.00
  -8  -2   7    1.70    1.90
  -7  -2   7  167.38    6.90
  -6  -2   7  342.57   10.50
  -5  -2   7  156.98    7.10
  -4  -2   7 2019.40   40.90
  -3  -2   7  826.62   22.30
  -2  -2   7  304.47   10.90
  -1  -2   7   81.39    6.80
   0  -2   7  420.76   15.90
   1  -2   7  625.04   16.50
   2  -2   7  638.64   13.80
   3  -2   7 1362.06   37.30
   4  -2   7   56.19    5.00
   5  -2   7  269.27   10.10
   6  -2   7    3.30    2.10
   7  -2   7  272.77   11.60
   8  -2   7  134.29    9.20
   9  -2   7   60.89   10.20
  -9  -1   7   18.00    3.10
  -8  -1   7    1.50    2.30
  -7  -1   7  257.87    9.10
  -6  -1   7   30.70    3.50
  -5  -1   7  130.79    5.70
  -4  -1   7 2297.47   44.40
  -3  -1   7  277.87   10.10
  -2  -1   7    0.00    5.30
  -1  -1   7  177.28   14.10
   0  -1   7  926.21   24.90
   1  -1   7  129.59   12.10
   2  -1   7 1607.34   48.60
   3  -1   7 1744.33   35.90
   4  -1   7   83.09    4.90
   5  -1   7  102.89    5.40
   6  -1   7  112.89    7.20
   7  -1   7  257.37   12.80
   8  -1   7  110.89    8.70
  -9   0   7   10.00    3.10
  -8   0   7  223.48    8.60
  -7   0   7  419.76   12.30
  -6   0   7  137.49    6.10
  -5   0   7   10.10    2.50
  -4   0   7   90.29    4.60
  -3   0   7  119.19    7.20
  -2   0   7   92.59   14.20
  -1   0   7  670.83   19.30
   0   0   7   60.49    3.70
   1   0   7  282.27   25.70
   2   0   7  531.35   23.80
   3   0   7   27.10    5.90
   4   0   7  157.38    8.20
   5   0   7   40.00    5.20
   6   0   7  210.78    9.80
   7   0   7    5.20    3.60
  -9   1   7  112.89    7.30
  -8   1   7 1260.67   31.00
  -7   1   7  395.76   12.40
  -6   1   7  162.98    7.70
  -5   1   7   66.09    4.20
  -4   1   7  577.94   15.00
  -3   1   7  518.55   29.90
  -2   1   7 1082.29   50.99
  -1   1   7 1834.42   36.60
   0   1   7  180.28    7.50
   1   1   7  436.46   28.10
   2   1   7   15.90    7.30
   3   1   7  511.35   12.40
   4   1   7  325.67   13.30
   5   1   7  411.86   17.40
   6   1   7   92.29   10.20
   7   1   7  199.58   14.10
  -9   2   7   99.29    7.70
  -8   2   7  849.02   22.10
  -7   2   7  112.19    7.10
  -6   2   7    6.40    2.70
  -5   2   7  155.68    6.40
  -4   2   7  818.32   17.70
  -3   2   7  141.99   27.20
  -2   2   7 1306.07   30.90
  -1   2   7 1498.65   35.60
   0   2   7   96.39    5.50
   1   2   7  104.59    4.70
   2   2   7  399.96   12.60
   3   2   7  488.15   15.50
   4   2   7  176.58    9.50
   5   2   7  634.54   28.30
   6   2   7    3.40    4.00
 -10   3   7  100.19    9.50
  -9   3   7   10.30    3.50
  -8   3   7    2.70    2.60
  -7   3   7   48.20    5.20
  -6   3   7  115.49    5.90
  -5   3   7  721.63   17.50
  -4   3   7   27.90    4.00
  -3   3   7  236.68    8.80
  -2   3   7  379.46   10.30
  -1   3   7    0.00    4.00
   0   3   7  174.18   11.90
   1   3   7  101.59   17.30
   2   3   7  156.88   20.80
   3   3   7    0.00    9.30
   4   3   7   13.60    7.10
   5   3   7  193.58   14.30
 -10   4   7   58.49   10.60
  -9   4   7   40.80    5.90
  -8   4   7  365.56   14.40
  -7   4   7  336.67   11.90
  -6   4   7  470.65   14.60
  -5   4   7  979.50   24.60
  -4   4   7  142.49    9.50
  -3   4   7  327.27   16.20
  -2   4   7  131.69   11.20
  -1   4   7  659.13   21.00
   0   4   7  252.17   15.00
   1   4   7  545.65   32.90
   2   4   7   57.99   12.60
   3   4   7  286.97   31.10
   4   4   7   10.80    7.60
  -9   5   7  211.18   13.60
  -8   5   7  195.88   10.10
  -7   5   7   21.70    4.00
  -6   5   7  877.41   23.80
  -5   5   7  549.85   16.30
  -4   5   7   43.40   12.00
  -3   5   7   94.59   12.20
  -2   5   7  447.36   16.60
  -1   5   7  288.37   31.00
   0   5   7  274.47   16.30
   1   5   7  708.83   26.50
   2   5   7   19.20    6.60
   3   5   7  185.28   21.60
  -9   6   7  234.78   12.60
  -8   6   7   15.40    4.20
  -7   6   7  124.09    8.10
  -6   6   7  107.39    7.80
  -5   6   7    9.40    3.10
  -4   6   7   56.19   13.50
  -3   6   7  109.19    7.80
  -2   6   7  188.18   10.50
  -1   6   7   44.50   21.60
   0   6   7    4.20    4.60
   1   6   7  126.59   16.60
  -8   7   7   54.89    6.90
  -7   7   7  149.19   10.90
  -6   7   7  134.19    7.80
  -5   7   7  291.87   12.70
  -4   7   7  207.48   11.80
  -3   7   7  554.74   24.30
  -2   7   7   17.40    8.20
  -1   7   7  317.47   18.90
   0   7   7   10.70    8.20
  -7   8   7   67.89   13.60
  -6   8   7  239.78   10.90
  -5   8   7  105.69   10.60
  -4   8   7  204.68   14.80
  -3   8   7  498.95   25.60
   3 -11   8   49.70    7.90
   4 -11   8   84.49    7.90
   5 -11   8  189.58   10.00
   6 -11   8   17.90    4.20
   0 -10   8    5.20    6.50
   1 -10   8    7.70    5.20
   2 -10   8  254.07   11.90
   3 -10   8   98.49    8.80
   4 -10   8  663.53   22.40
   5 -10   8  393.66   23.70
   6 -10   8  118.19    7.30
   7 -10   8   12.10    3.50
   8 -10   8   52.09    5.40
  -1  -9   8   19.10    4.70
   0  -9   8    4.90    3.40
   1  -9   8  145.89    9.00
   2  -9   8  129.09   12.30
   3  -9   8   92.09   20.30
   4  -9   8 1204.38   42.20
   5  -9   8  188.88    9.90
   6  -9   8   73.49    6.70
   7  -9   8    6.10    2.70
   8  -9   8  115.89    6.10
   9  -9   8  115.09   24.10
  -3  -8   8   26.00    7.00
  -2  -8   8   26.80    8.80
  -1  -8   8   40.90    8.00
   0  -8   8  121.99   11.20
   2  -8   8   83.19    9.80
   3  -8   8   64.89   13.30
   4  -8   8  262.77   16.20
   5  -8   8   63.19    5.90
   6  -8   8   13.20    3.20
   7  -8   8  136.79    7.10
   8  -8   8   79.49    5.70
   9  -8   8   21.30    6.80
  -4  -7   8    0.00    5.70
  -3  -7   8   65.69    7.30
  -2  -7   8  287.07   13.20
  -1  -7   8  162.28   19.90
   0  -7   8 1168.38   49.30
   1  -7   8  696.53   22.10
   2  -7   8  266.67   14.50
   3  -7   8   95.39   12.40
   4  -7   8  131.39   10.30
   5  -7   8  377.36   12.30
   6  -7   8  317.17   10.90
   7  -7   8  630.44   20.90
   8  -7   8    7.60    2.70
   9  -7   8  132.49   17.00
  -5  -6   8   11.50    5.00
  -4  -6   8    0.00   17.60
  -3  -6   8  255.77   19.90
  -2  -6   8   41.80   19.30
  -1  -6   8  207.48   18.60
   0  -6   8 2214.38   75.09
   1  -6   8  108.09    5.50
   2  -6   8   55.79    9.40
   3  -6   8   23.10    6.40
   4  -6   8  500.05   17.50
   5  -6   8  113.39    5.90
   6  -6   8  733.63   19.70
   7  -6   8  670.53   20.80
   8  -6   8   50.69    6.20
   9  -6   8   54.99   11.10
  -6  -5   8   27.40    3.50
  -5  -5   8   22.10    4.80
  -4  -5   8  184.78   12.60
  -3  -5   8  489.05   16.00
  -2  -5   8   45.50    8.80
  -1  -5   8    0.00    5.60
   0  -5   8  194.08    8.90
   1  -5   8   64.79    4.90
   2  -5   8   21.60    4.60
   3  -5   8  428.16   14.40
   4  -5   8  120.69    7.90
   5  -5   8  109.69    4.90
   6  -5   8  321.47   10.70
   7  -5   8   53.89    6.80
   8  -5   8  153.18   10.60
   9  -5   8   40.50    9.50
  -7  -4   8  110.69    5.90
  -6  -4   8  247.28   10.50
  -5  -4   8  134.89    7.10
  -4  -4   8 1639.84   43.60
  -3  -4   8  403.46   15.00
  -2  -4   8  355.96   11.60
  -1  -4   8   43.70    4.70
   0  -4   8  513.65   17.70
   1  -4   8  598.14   18.30
   2  -4   8  810.62   21.80
   3  -4   8 1457.75   33.60
   4  -4   8  112.59    6.10
   5  -4   8  226.68    6.80
   6  -4   8    3.20    2.30
   7  -4   8  264.77   11.80
   8  -4   8  148.09   13.90
   9  -4   8  169.38   15.20
  -7  -3   8  232.18    8.70
  -6  -3   8   32.00    5.90
  -5  -3   8  131.59    8.50
  -4  -3   8 1313.77   31.60
  -3  -3   8  124.49    7.10
  -2  -3   8   32.70    5.20
  -1  -3   8  165.48   15.50
   0  -3   8  903.51   33.70
   1  -3   8  186.48   16.10
   2  -3   8 1405.76   33.00
   3  -3   8 1373.06   30.90
   4  -3   8  124.99    6.10
   5  -3   8  115.19    6.80
   6  -3   8  241.08   10.50
   7  -3   8  332.57   16.10
   8  -3   8  137.79    9.40
  -8  -2   8  217.18    8.30
  -7  -2   8  285.97   10.00
  -6  -2   8  142.49    6.60
  -5  -2   8    4.40    2.10
  -4  -2   8   60.09    7.60
  -3  -2   8   82.39   12.50
  -2  -2   8  104.69   15.60
  -1  -2   8  641.84   21.90
   0  -2   8   12.70    2.70
   1  -2   8  264.87   31.90
   2  -2   8  657.33   36.40
   3  -2   8    5.00    5.30
   4  -2   8  300.87    9.20
   5  -2   8   94.59    6.30
   6  -2   8  184.58    8.30
   7  -2   8    8.80    3.60
   8  -2   8   22.10    5.30
  -8  -1   8  892.91   22.00
  -7  -1   8  207.88    8.40
  -6  -1   8  167.88    9.80
  -5  -1   8   94.49    5.60
  -4  -1   8  616.94   15.40
  -3  -1   8  372.26   27.60
  -2  -1   8  709.83   32.60
  -1  -1   8 1464.25   33.60
   0  -1   8  247.58   11.40
   1  -1   8  395.66   26.60
   2  -1   8   87.19   11.20
   3  -1   8  627.34   20.90
   4  -1   8  178.68    8.40
   5  -1   8  383.76   14.50
   6  -1   8   57.89    7.00
   7  -1   8  256.97   13.60
  -9   0   8   94.29    7.30
  -8   0   8  627.34   17.10
  -7   0   8   57.69    5.30
  -6   0   8    7.30    2.40
  -5   0   8  256.17   10.00
  -4   0   8  514.55   13.00
  -3   0   8   79.19   22.00
  -2   0   8 1488.95   46.10
  -1   0   8 1321.57   39.20
   0   0   8  157.38    8.50
   1   0   8  182.38    6.10
   2   0   8  433.96   18.40
   3   0   8  342.27    9.60
   4   0   8  230.18   10.30
   5   0   8  785.82   23.10
   6   0   8    0.70    3.40
   7   0   8  242.48   16.20
  -9   1   8    2.50    3.00
  -8   1   8    2.30    2.60
  -7   1   8   55.69    5.30
  -6   1   8   70.39    5.70
  -5   1   8  577.44   14.00
  -4   1   8   56.99    4.70
  -3   1   8  225.38    8.50
  -2   1   8  470.25   17.10
  -1   1   8   27.50    7.50
   0   1   8  147.59    9.00
   1   1   8  146.99   12.80
   2   1   8  313.27   15.40
   3   1   8   56.79    4.90
   4   1   8   53.09    8.60
   5   1   8  211.18   16.70
   6   1   8   80.59   10.90
  -9   2   8   71.29    6.70
  -8   2   8  353.36   13.20
  -7   2   8  198.98    8.30
  -6   2   8  496.15   14.20
  -5   2   8  811.32   19.80
  -4   2   8  121.19    6.50
  -3   2   8  455.15   34.10
  -2   2   8  159.88   14.10
  -1   2   8  542.65   15.90
   0   2   8  265.17   13.10
   1   2   8  621.74   19.40
   2   2   8   23.90    9.20
   3   2   8  471.95   30.70
   4   2   8    0.00   15.20
  -9   3   8  185.48    9.90
  -8   3   8  180.88    9.70
  -7   3   8   19.90    3.70
  -6   3   8 1235.88   33.00
  -5   3   8  580.14   15.80
  -4   3   8  117.99    7.50
  -3   3   8   84.89   10.20
  -2   3   8  517.75   19.50
  -1   3   8  235.18   16.00
   0   3   8  346.27   21.90
   1   3   8 1045.50   30.30
   2   3   8   30.30    5.80
   3   3   8  160.38   24.30
   4   3   8  101.79   12.90
  -9   4   8  257.07   12.00
  -8   4   8    6.40    3.70
  -7   4   8   81.59    9.20
  -6   4   8   84.79    7.20
  -5   4   8    7.60    2.70
  -4   4   8   70.29    9.10
  -3   4   8  150.78    7.90
  -2   4   8  238.08   11.20
  -1   4   8   80.09   23.20
   0   4   8   37.70    7.60
   1   4   8  169.58   19.70
   2   4   8   83.29    8.90
   3   4   8   22.30   12.10
  -9   5   8  362.46   14.90
  -8   5   8  128.49    9.60
  -7   5   8  153.78    9.30
  -6   5   8  175.58    9.00
  -5   5   8  374.86   13.10
  -4   5   8  248.88   15.00
  -3   5   8  721.73   29.80
  -2   5   8    0.00    4.00
  -1   5   8  455.95   22.80
   0   5   8   11.40    5.20
   1   5   8  133.79   14.70
   2   5   8  161.38   14.00
  -8   6   8   11.00    8.60
  -7   6   8   94.39    9.50
  -6   6   8  382.36   13.60
  -5   6   8  161.78    8.50
  -4   6   8  278.67   16.70
  -3   6   8  726.13   31.20
  -2   6   8   17.10    8.80
  -1   6   8  134.19   22.90
   0   6   8  117.49   13.80
  -7   7   8  141.59    9.40
  -6   7   8   62.29    7.30
  -5   7   8   94.79    7.10
  -4   7   8    8.90   10.60
  -3   7   8  108.79   11.60
  -2   7   8   99.49   17.00
   4 -11   9  756.42   50.99
   5 -11   9   81.49   12.10
   1 -10   9  261.17   14.60
   2 -10   9   25.50    6.90
   3 -10   9    5.20    9.80
   4 -10   9  151.08   21.20
   5 -10   9   40.80    5.30
   6 -10   9    8.20    3.60
   7 -10   9  149.59    8.00
  -1  -9   9  164.48   16.50
   0  -9   9  916.01   41.70
   1  -9   9  228.18   14.90
   2  -9   9  190.38   12.90
   3  -9   9   12.30   18.20
   4  -9   9  137.49   19.00
   5  -9   9  264.47   10.80
   6  -9   9  315.97   12.20
   7  -9   9  397.26   13.70
   8  -9   9   21.50    4.50
  -3  -8   9  202.68   25.60
  -2  -8   9   74.89    7.40
  -1  -8   9  135.89   13.80
   0  -8   9 1107.29   48.60
   1  -8   9   50.89    5.80
   2  -8   9   40.80   12.50
   3  -8   9   63.39    6.90
   4  -8   9  481.95   15.90
   5  -8   9   69.69    6.40
   6  -8   9  495.65   15.80
   7  -8   9  452.65   14.50
   8  -8   9   89.59    7.00
  -4  -7   9  227.28   16.50
  -3  -7   9  239.88   11.30
  -2  -7   9   86.99   10.30
  -1  -7   9    9.00    5.00
   0  -7   9  103.59   12.20
   1  -7   9   48.60    6.20
   2  -7   9   84.29    6.50
   3  -7   9  328.87   12.90
   4  -7   9   36.50    6.90
   5  -7   9   32.80    4.70
   6  -7   9  306.37   11.50
   7  -7   9   10.50    3.00
   8  -7   9  113.89    7.20
   9  -7   9   34.10   13.20
  -5  -6   9  104.19    6.50
  -4  -6   9  849.41   24.70
  -3  -6   9  205.18   11.00
  -2  -6   9  196.78   12.00
  -1  -6   9   52.49    7.30
   0  -6   9  504.85   20.30
   1  -6   9  359.66   12.90
   2  -6   9  439.26   14.40
   3  -6   9 1198.68   34.70
   4  -6   9  145.19   12.10
   5  -6   9  240.38   11.00
   6  -6   9   13.40    2.60
   7  -6   9  266.47   13.50
   8  -6   9  105.49    9.40
   9  -6   9  159.88   23.30
  -6  -5   9    5.20    5.40
  -5  -5   9  109.29    7.70
  -4  -5   9  904.51   23.50
  -3  -5   9   44.70    6.90
  -2  -5   9   12.80    5.40
  -1  -5   9  135.39   13.00
   0  -5   9  362.86   14.20
   1  -5   9   86.59   12.60
   2  -5   9 1338.97   36.40
   3  -5   9  773.52   24.40
   4  -5   9  223.38    9.20
   5  -5   9   92.49    5.10
   6  -5   9  185.08    6.30
   7  -5   9  266.17   11.70
   8  -5   9  119.69    9.70
  -6  -4   9   68.89    6.20
  -5  -4   9   11.30    3.00
  -4  -4   9   26.90    7.00
  -3  -4   9   33.10   11.90
  -2  -4   9    9.60   11.60
  -1  -4   9  551.64   15.70
   0  -4   9   11.80    2.70
   1  -4   9  159.48   20.00
   2  -4   9  677.03   34.30
   3  -4   9   16.40    6.00
   4  -4   9  122.09    6.20
   5  -4   9   83.59    4.30
   6  -4   9  188.78    9.60
   7  -4   9    5.40    3.70
   8  -4   9   58.89    7.60
  -7  -3   9   94.69    6.70
  -6  -3   9  111.09    6.80
  -5  -3   9   87.19    6.50
  -4  -3   9  468.45   17.00
  -3  -3   9  150.98   24.60
  -2  -3   9  685.63   32.20
  -1  -3   9 1200.28   30.80
   0  -3   9  246.68   12.70
   1  -3   9  366.86   22.50
   2  -3   9   92.09    9.60
   3  -3   9  541.35   17.60
   4  -3   9  153.98    6.70
   5  -3   9  368.36   14.20
   6  -3   9   47.10    5.80
   7  -3   9  284.07   14.40
   8  -3   9    1.50    3.70
  -7  -2   9   31.00    4.30
  -6  -2   9    9.50    3.00
  -5  -2   9  216.58   11.00
  -4  -2   9  289.17   12.50
  -3  -2   9   32.90   18.80
  -2  -2   9 1569.54   40.20
  -1  -2   9  830.82   24.00
   0  -2   9  166.78   10.90
   1  -2   9  142.39    7.90
   2  -2   9  494.45   16.40
   3  -2   9  303.67    9.80
   4  -2   9  368.16   12.30
   5  -2   9  928.41   24.30
   6  -2   9    4.30    3.90
   7  -2   9  199.48   11.80
  -8  -1   9    0.00    2.90
  -7  -1   9   42.40    4.70
  -6  -1   9   37.50    4.60
  -5  -1   9  462.75   13.60
  -4  -1   9   12.90    4.00
  -3  -1   9  106.49    6.40
  -2  -1   9  321.57   11.60
  -1  -1   9    6.40    7.00
   0  -1   9  126.19    9.90
   1  -1   9  158.68   15.10
   2  -1   9  409.56   24.00
   3  -1   9   50.99    9.30
   4  -1   9   88.99    8.70
   5  -1   9  264.97   11.00
   6  -1   9  119.99    8.70
   7  -1   9   68.69   15.30
  -8   0   9  297.27   12.40
  -7   0   9  131.09    7.10
  -6   0   9  739.43   21.20
  -5   0   9  775.62   19.50
  -4   0   9  255.77    9.40
  -3   0   9  324.17   17.20
  -2   0   9  192.48   14.20
  -1   0   9  526.85   19.60
   0   0   9  391.26   20.60
   1   0   9  845.02   25.50
   2   0   9    0.00    5.10
   3   0   9  557.14   23.70
   4   0   9    3.10    5.80
   5   0   9   76.19    7.60
   6   0   9  254.07   16.70
  -8   1   9  199.28    9.70
  -7   1   9   63.89    6.60
  -6   1   9  979.10   32.60
  -5   1   9  425.66   12.30
  -4   1   9   95.19    6.50
  -3   1   9  122.19   11.50
  -2   1   9  945.51   44.40
  -1   1   9  284.57   21.90
   0   1   9  337.77   18.60
   1   1   9 1408.26   33.30
   2   1   9   27.00    4.20
   3   1   9  295.77   35.00
   4   1   9  155.58   22.10
   5   1   9  386.26   21.80
  -9   2   9  264.27   17.30
  -8   2   9   50.79    5.90
  -7   2   9   88.39    7.70
  -6   2   9  102.99    7.20
  -5   2   9   16.90    3.40
  -4   2   9  126.29    9.70
  -3   2   9  332.97   14.40
  -2   2   9  113.89    7.80
  -1   2   9   53.79   24.80
   0   2   9  156.08    9.80
   1   2   9  215.88   22.30
   2   2   9  166.98   11.60
   3   2   9   88.99   18.60
   4   2   9   78.59   13.90
   5   2   9   17.80    8.80
  -9   3   9  280.27   18.10
  -8   3   9  138.49    8.90
  -7   3   9  148.69    8.30
  -6   3   9  264.37    9.40
  -5   3   9  526.45   16.50
  -4   3   9  170.48    9.10
  -3   3   9  628.04   25.60
  -2   3   9    2.90    4.50
  -1   3   9  608.04   23.40
   0   3   9   55.69    7.60
   1   3   9  217.98   17.90
   2   3   9  249.78   25.80
   3   3   9  139.59   28.40
   4   3   9  113.69   19.50
  -8   4   9   27.80    6.10
  -7   4   9  156.08    9.00
  -6   4   9  375.26   12.50
  -5   4   9   88.49    7.50
  -4   4   9  363.96   14.80
  -3   4   9  871.61   63.59
  -2   4   9   64.69    8.80
  -1   4   9  292.87   16.90
   0   4   9  178.98   13.20
   1   4   9  350.86   18.50
   2   4   9  123.29   14.20
  -8   5   9   39.70    6.20
  -7   5   9  165.18    9.00
  -6   5   9   47.40    5.60
  -5   5   9  134.39    7.60
  -4   5   9   45.30   13.60
  -3   5   9   57.29    9.30
  -2   5   9   47.20   12.80
  -1   5   9   58.09   19.90
   0   5   9  139.99   13.70
   1   5   9   19.40   11.30
  -7   6   9  339.37   14.90
  -6   6   9   11.80    3.70
  -5   6   9  362.26   13.60
  -4   6   9   67.59    8.50
  -3   6   9  177.78   18.20
  -2   6   9  164.48   15.70
  -1   6   9   97.19   13.50
   2 -10  10   39.00   10.80
   3 -10  10   54.19    8.60
   4 -10  10  240.18   16.20
   5 -10  10   66.69   10.60
   6 -10  10  411.66   16.90
   0  -9  10   50.39    8.00
   1  -9  10   20.70    7.20
   2  -9  10   15.40    6.70
   3  -9  10  273.07   14.60
   4  -9  10   35.10    9.70
   5  -9  10    8.30    6.50
   6  -9  10  212.98   10.20
   7  -9  10    4.90    3.30
  -2  -8  10   65.49   10.20
  -1  -8  10   48.00    8.10
   0  -8  10  258.77   17.60
   1  -8  10  212.28   14.40
   2  -8  10  370.96   18.80
   3  -8  10  692.93   27.30
   4  -8  10  156.48   13.20
   5  -8  10  179.38    9.50
   6  -8  10    5.10    3.00
   7  -8  10  216.48   10.00
   8  -8  10  117.79    9.70
  -3  -7  10   13.80    7.60
  -2  -7  10   22.60    6.40
  -1  -7  10  128.99   13.50
   0  -7  10  281.57   16.30
   1  -7  10   55.59   16.50
   2  -7  10 1080.89   42.30
   3  -7  10  414.26   33.40
   4  -7  10  148.19    9.50
   5  -7  10   48.10    5.50
   6  -7  10  229.28    9.60
   7  -7  10  217.08    9.20
   8  -7  10  142.79   10.90
  -4  -6  10    3.40   14.10
  -3  -6  10   20.20   10.60
  -2  -6  10   19.40   12.10
  -1  -6  10  519.15   20.20
   0  -6  10   16.90    4.40
   1  -6  10   27.10   20.30
   2  -6  10  415.76   29.20
   3  -6  10   23.40    6.70
   4  -6  10   91.49   10.50
   5  -6  10   90.59    7.70
   6  -6  10  222.58   10.00
   7  -6  10    6.50    3.80
   8  -6  10   68.89    8.60
  -5  -5  10   58.09    8.10
  -4  -5  10  295.87   15.80
  -3  -5  10  231.38   21.40
  -2  -5  10  717.03   56.69
  -1  -5  10  850.41   24.10
   0  -5  10  307.57   13.20
   1  -5  10  241.38   14.90
   2  -5  10  101.09   13.70
   3  -5  10  496.15   18.60
   4  -5  10  260.37   11.70
   5  -5  10  418.56   11.70
   6  -5  10   18.80    5.30
   7  -5  10  274.27   14.40
   8  -5  10    1.30    3.90
  -6  -4  10    3.00    3.30
  -5  -4  10  201.48    9.10
  -4  -4  10  214.88   13.00
  -3  -4  10    0.00   16.20
  -2  -4  10 1143.99   34.50
  -1  -4  10  351.86   14.70
   0  -4  10  164.78    8.90
   1  -4  10  116.09    6.20
   2  -4  10  734.63   20.70
   3  -4  10  370.56   16.20
   4  -4  10  294.27   13.20
   5  -4  10  806.22   18.00
   6  -4  10   23.60    5.20
   7  -4  10  198.88   12.20
   8  -4  10   49.99   11.10
  -6  -3  10   43.20    5.10
  -5  -3  10  352.36   14.00
  -4  -3  10    7.10    4.80
  -3  -3  10   45.40    7.20
  -2  -3  10  243.08   12.10
  -1  -3  10    0.00    5.80
   0  -3  10  104.39    7.60
   1  -3  10  225.08   16.50
   2  -3  10  263.37   17.10
   3  -3  10   72.99    8.80
   4  -3  10  133.59    9.60
   5  -3  10  215.48   11.10
   6  -3  10  238.68   13.30
   7  -3  10   75.09    8.90
  -7  -2  10   82.49    8.70
  -6  -2  10  573.14   17.70
  -5  -2  10  458.35   17.30
  -4  -2  10  323.37   17.10
  -3  -2  10  208.58   19.00
  -2  -2  10  186.08   21.50
  -1  -2  10  528.75   17.50
   0  -2  10  181.08   10.20
   1  -2  10  687.93   25.50
   2  -2  10   27.90    7.30
   3  -2  10  604.04   21.90
   4  -2  10   27.60    3.70
   5  -2  10  176.58    9.80
   6  -2  10  146.59   10.30
   7  -2  10   53.49    8.00
  -7  -1  10   44.20    5.50
  -6  -1  10  689.73   19.40
  -5  -1  10  241.28   10.60
  -4  -1  10  109.79    9.00
  -3  -1  10  127.39   12.20
  -2  -1  10  628.04   21.70
  -1  -1  10  232.28   19.60
   0  -1  10  434.96   22.40
   1  -1  10 1376.26   44.60
   2  -1  10   85.39    6.50
   3  -1  10  474.25   26.10
   4  -1  10   89.89   11.30
   6  -1  10  104.39   10.10
  -8   0  10   43.10    6.00
  -7   0  10   40.10    5.60
  -6   0  10  117.49    8.40
  -5   0  10   28.50    5.30
  -4   0  10   55.99    9.40
  -3   0  10  247.68   11.70
  -2   0  10   95.89    7.20
  -1   0  10  123.89   27.30
   0   0  10  248.18   15.30
   1   0  10   90.99   20.30
   2   0  10  177.18   10.00
   3   0  10   57.09    7.70
   4   0  10  151.58   12.10
   5   0  10   17.20    6.20
  -8   1  10  113.59    8.00
  -7   1  10  154.98   10.10
  -6   1  10  247.58   11.00
  -5   1  10  341.47   11.80
  -4   1  10  147.09   10.70
  -3   1  10  566.44   25.10
  -2   1  10    0.00    5.60
  -1   1  10  774.42   25.10
   0   1  10   57.59    6.60
   1   1  10  246.88   15.10
   2   1  10  226.48   10.00
   3   1  10   97.19   18.30
   4   1  10  177.78   22.30
   5   1  10  187.38   18.10
  -8   2  10   41.70    6.20
  -7   2  10  148.89   10.10
  -6   2  10  382.16   14.30
  -5   2  10   81.59    6.80
  -4   2  10  550.64   22.70
  -3   2  10  898.21   30.20
  -2   2  10  106.59   11.10
  -1   2  10  249.08   15.60
   0   2  10  232.28   13.00
   1   2  10  361.46   14.60
   2   2  10   78.89   23.90
   3   2  10  334.27   29.70
   4   2  10    3.50    7.20
  -8   3  10   23.60    5.60
  -7   3  10  195.08   10.00
  -6   3  10   79.69    7.50
  -5   3  10  109.09    7.50
  -4   3  10  126.69   16.70
  -3   3  10   61.09    8.30
  -2   3  10   83.79   10.30
  -1   3  10   79.89   12.00
   0   3  10  220.28   17.60
   1   3  10    0.00    9.90
   2   3  10   22.40    9.10
   3   3  10  183.08   20.20
  -7   4  10  397.86   14.90
  -6   4  10   52.99    7.40
  -5   4  10  412.16   15.00
  -4   4  10   92.39   10.50
  -3   4  10  237.78   13.10
  -2   4  10  221.28   14.50
  -1   4  10  200.08   11.40
   0   4  10   64.59   10.80
   1   4  10  269.47   22.50
  -7   5  10  356.76   21.40
  -6   5  10   60.39    7.50
  -5   5  10  155.58    9.70
  -4   5  10  250.97   15.50
  -3   5  10  361.66   21.90
  -2   5  10   70.49   10.50
  -1   5  10  334.87   27.40
  -4   6  10  129.69   20.30
   4 -10  11  108.09   26.40
   1  -9  11   24.00   13.20
   2  -9  11  653.73   29.00
   3  -9  11  194.08   15.30
   4  -9  11  113.29   12.80
   5  -9  11   57.09    8.40
   6  -9  11  230.08   14.20
  -1  -8  11  306.17   15.50
   0  -8  11   11.00    4.80
   1  -8  11   28.80   14.90
   2  -8  11  290.67   31.70
   3  -8  11    0.00    9.00
   4  -8  11  109.29   13.20
   5  -8  11   80.69    8.30
   6  -8  11  128.59    8.60
   7  -8  11    3.70    5.50
  -3  -7  11  121.79   16.70
  -2  -7  11  299.07   29.90
  -1  -7  11  416.56   18.30
   0  -7  11  230.28   16.60
   1  -7  11  146.99   13.10
   2  -7  11   97.09   12.50
   3  -7  11  342.67   20.80
   4  -7  11  130.79   13.80
   5  -7  11  384.66   14.10
   6  -7  11    2.20    3.20
   7  -7  11  207.98   13.00
  -4  -6  11  127.09   10.30
  -3  -6  11   62.69   14.20
  -2  -6  11  817.32   32.20
  -1  -6  11  158.08   13.60
   0  -6  11  140.89   12.30
   1  -6  11   85.49    7.80
   2  -6  11  465.75   31.10
   3  -6  11  220.38   14.40
   4  -6  11  259.47   12.80
   5  -6  11  603.04   21.00
   6  -6  11   79.09    6.60
   7  -6  11  191.18   12.50
  -4  -5  11    7.90    7.60
  -3  -5  11   33.00    6.90
  -2  -5  11  212.28   12.70
  -1  -5  11    2.50    7.60
   0  -5  11   40.20    5.80
   1  -5  11  140.89   14.10
   2  -5  11  220.68   19.60
   3  -5  11  145.49   11.60
   4  -5  11  169.58   23.50
   5  -5  11  128.99    9.90
   6  -5  11  141.79   10.20
   7  -5  11   43.10    7.40
  -5  -4  11  268.87   12.10
  -4  -4  11  239.18   13.30
  -3  -4  11  122.59   14.80
  -2  -4  11  205.78   30.40
  -1  -4  11  470.15   20.50
   0  -4  11  156.98    9.80
   1  -4  11  666.63   20.00
   2  -4  11    0.90    7.40
   3  -4  11  486.25   33.30
   4  -4  11   43.00   13.10
   5  -4  11  139.29    7.50
   6  -4  11  118.79   11.10
   7  -4  11   65.59    9.40
  -6  -3  11  487.35   24.30
  -5  -3  11  118.79    9.60
  -4  -3  11   90.89   12.60
  -3  -3  11  163.78   16.60
  -2  -3  11  483.65   22.40
  -1  -3  11  174.28   20.80
   0  -3  11  564.24   25.00
   1  -3  11  983.70   29.80
   2  -3  11   88.29    8.20
   3  -3  11  326.47   22.00
   4  -3  11   99.79   10.00
   5  -3  11  285.87   13.10
   6  -3  11  125.69   11.30
  -6  -2  11   58.59    7.50
  -5  -2  11   28.20    5.50
  -4  -2  11   13.60    6.10
  -3  -2  11   87.39   23.10
  -2  -2  11  189.48   12.80
  -1  -2  11   72.69   21.10
   0  -2  11  214.28   13.00
   1  -2  11   86.89   16.60
   2  -2  11  163.78   13.20
   3  -2  11   39.80    6.50
   4  -2  11  284.17   23.70
   5  -2  11   25.00    5.70
   6  -2  11    1.10    3.70
  -7  -1  11  130.09    9.90
  -6  -1  11  210.28   11.50
  -5  -1  11  233.48   12.00
  -4  -1  11  245.48   15.60
  -3  -1  11  629.94   34.50
  -2  -1  11  101.39    9.80
  -1  -1  11  655.33   22.90
   0  -1  11   40.70    5.90
   1  -1  11  301.27   16.60
   2  -1  11  271.37   15.20
   3  -1  11  233.98   24.30
   4  -1  11   67.59   12.10
   5  -1  11  194.78   12.10
  -7   0  11  137.59    8.90
  -6   0  11  452.95   16.10
  -5   0  11  115.69    9.10
  -4   0  11  423.16   21.10
  -3   0  11  760.02   29.50
  -2   0  11  149.49   15.70
  -1   0  11  202.08   16.00
   0   0  11  392.66   22.00
   1   0  11  533.05   19.60
   2   0  11  107.29   10.90
   3   0  11  410.06   42.20
   4   0  11   38.00   14.50
  -7   1  11  204.48   11.40
  -6   1  11   27.70    4.80
  -5   1  11  103.59    8.10
  -4   1  11  173.38   12.90
  -3   1  11   48.40    8.80
  -2   1  11  176.78   13.40
  -1   1  11   75.09   14.70
   0   1  11  219.38   13.20
   1   1  11   14.20    9.10
   2   1  11    5.50    8.90
   3   1  11  269.17   19.80
   4   1  11   67.09   15.50
  -7   2  11  315.37   13.50
  -6   2  11   75.29    7.80
  -5   2  11  470.25   20.30
  -4   2  11  131.39   16.10
  -3   2  11  286.57   20.90
  -2   2  11  101.29    9.40
  -1   2  11  191.78   12.50
   0   2  11   49.20    6.40
   1   2  11  334.47   24.90
   2   2  11   67.89    8.80
   3   2  11   19.50    8.50
  -7   3  11  308.77   14.50
  -6   3  11  107.89    8.90
  -5   3  11  181.28   14.50
  -4   3  11  340.97   16.80
  -3   3  11  350.66   22.10
  -2   3  11  100.89   12.70
  -1   3  11  496.15   21.10
   0   3  11    4.90    5.20
   1   3  11  450.55   22.60
  -6   4  11   47.70    6.50
  -5   4  11   86.89    9.40
  -4   4  11  124.19   11.70
  -3   4  11    0.00   11.70
  -2   4  11    0.00    8.90
  -1   4  11  132.49   20.50
   2  -9  12   31.90   12.30
   3  -9  12  205.18   18.10
   4  -9  12   69.09   18.40
   0  -8  12   87.89   11.60
   1  -8  12   79.59    8.40
   2  -8  12  299.97   19.60
   3  -8  12  153.48   13.90
   4  -8  12  250.37   19.50
   5  -8  12  385.46   18.90
   6  -8  12   58.99   16.20
  -2  -7  12  137.49   14.50
  -1  -7  12    5.40    8.30
   0  -7  12   41.50    8.90
   1  -7  12  182.28   17.00
   2  -7  12  172.58   25.00
   3  -7  12    9.20   11.60
   4  -7  12  161.08   15.00
   5  -7  12   79.69    8.80
   6  -7  12   85.49    7.70
  -3  -6  12   86.59   25.30
  -2  -6  12  242.68   21.30
  -1  -6  12  303.17   18.30
   0  -6  12  184.78   13.20
   1  -6  12  511.75   32.00
   2  -6  12   44.60    8.60
   3  -6  12  366.46   35.50
   4  -6  12   29.90   12.80
   5  -6  12  126.99    8.30
   6  -6  12  170.08   12.30
  -4  -5  12  104.19   16.60
  -3  -5  12  128.49   15.40
  -2  -5  12  439.46   20.00
  -1  -5  12  146.29   18.60
   0  -5  12  397.66   30.20
   1  -5  12  431.36   17.10
   2  -5  12  129.09   13.40
   3  -5  12  249.58   19.40
   4  -5  12  250.17   16.90
   5  -5  12  344.77   15.10
   6  -5  12   73.69    9.10
  -4  -4  12    1.40    6.90
  -3  -4  12  241.68   12.60
  -2  -4  12   64.29    8.10
  -1  -4  12  168.18   26.20
   0  -4  12  190.38   12.20
   1  -4  12   76.19   13.90
   2  -4  12  154.58   12.10
   3  -4  12   68.79    8.90
   4  -4  12  184.28   13.30
   5  -4  12    9.70    4.40
   6  -4  12    5.00    4.70
  -5  -3  12  171.88   10.70
  -4  -3  12  199.98   13.20
  -3  -3  12  528.35   27.50
  -2  -3  12  122.69   12.40
  -1  -3  12  421.76   20.80
   0  -3  12   47.80    7.90
   1  -3  12  316.87   15.00
   2  -3  12  139.19    9.40
   3  -3  12  184.08   15.70
   4  -3  12   65.19   12.30
   5  -3  12  238.68   14.20
  -6  -2  12  267.07   22.70
  -5  -2  12   69.49    8.00
  -4  -2  12  339.17   16.60
  -3  -2  12  423.26   21.90
  -2  -2  12  233.58   20.60
  -1  -2  12  254.37   21.00
   0  -2  12  313.07   17.00
   1  -2  12  365.36   15.00
   2  -2  12   93.99   11.40
   3  -2  12  502.25   18.00
   4  -2  12   31.00   13.40
   5  -2  12  428.26   19.60
  -6  -1  12   19.40    5.10
  -5  -1  12  102.69    9.90
  -4  -1  12  143.19   13.90
  -3  -1  12   31.80   15.90
  -2  -1  12  107.59   13.40
  -1  -1  12   89.49   14.40
   0  -1  12  242.08   14.20
   1  -1  12   30.60   10.80
   2  -1  12   21.20    7.80
   3  -1  12  196.28    9.60
   4  -1  12   44.00   16.60
  -6   0  12   99.49    9.50
  -5   0  12  336.07   18.60
  -4   0  12  121.39   12.90
  -3   0  12  202.78   17.50
  -2   0  12  101.19   12.60
  -1   0  12  171.68    9.80
   0   0  12   38.80    6.10
   1   0  12  521.15   24.10
   2   0  12   77.39    8.30
   3   0  12   19.70   31.70
  -6   1  12  119.99   10.10
  -5   1  12  171.68   10.70
  -4   1  12  335.67   16.80
  -3   1  12  273.87   21.40
  -2   1  12  120.89   11.40
  -1   1  12  554.34   24.70
   0   1  12    8.40    4.40
   1   1  12  513.25   19.00
   2   1  12  107.19   13.00
  -6   2  12   49.99    7.20
  -5   2  12  102.69    9.80
  -4   2  12  170.18   14.90
  -3   2  12    7.60   10.30
  -2   2  12   17.30    7.30
  -1   2  12  165.88   18.90
   0   2  12   59.09    8.40
   1   2  12   85.59   10.10
  -5   3  12  202.68   11.70
  -4   3  12   14.30   10.10
  -3   3  12  492.85   24.80
  -2   3  12   60.99    9.70
  -1   3  12   31.80    9.40
   1  -8  13  216.38   34.50
   2  -8  13   53.79   13.10
   3  -8  13  257.07   31.10
   0  -7  13  314.17   21.40
   1  -7  13  242.98   14.90
   2  -7  13  165.18   13.00
   3  -7  13  122.49   22.20
   4  -7  13  188.38   15.00
   5  -7  13  216.28   26.10
  -2  -6  13   51.89   10.70
  -1  -6  13   54.59   13.20
   0  -6  13  170.68   13.20
   1  -6  13   51.99   12.70
   2  -6  13  148.49   19.80
   3  -6  13   84.99   11.40
   4  -6  13  157.68   13.00
   5  -6  13   11.30    6.50
  -3  -5  13  338.77   23.50
  -2  -5  13   74.99   11.10
  -1  -5  13  250.37   13.30
   0  -5  13   23.60    6.10
   1  -5  13  248.08   25.00
   2  -5  13  116.09   11.40
   3  -5  13  168.88   13.90
   4  -5  13   82.59   14.80
   5  -5  13  245.48   15.20
  -3  -4  13  274.77   16.00
  -2  -4  13  151.68   13.20
  -1  -4  13  215.38   17.40
   0  -4  13  330.27   32.10
   1  -4  13  266.17   14.00
   2  -4  13  125.59    9.80
   3  -4  13  415.86   21.30
   4  -4  13   12.70   15.40
   5  -4  13  359.06   21.80
  -4  -3  13  119.29   11.60
  -3  -3  13    0.00   21.20
  -2  -3  13   65.09   13.30
  -1  -3  13  104.29   16.50
   0  -3  13  283.87   18.70
   1  -3  13   17.90    9.40
   2  -3  13   18.20    8.00
   3  -3  13  217.18   11.60
   4  -3  13   83.49   11.60
  -4  -2  13   62.79   10.50
  -3  -2  13  208.78   16.00
  -2  -2  13  123.29   12.20
  -1  -2  13  228.38   12.90
   0  -2  13    3.90    4.70
   1  -2  13  498.85   24.20
   2  -2  13   34.00    6.70
   3  -2  13   17.30   21.50
   4  -2  13  168.18   14.10
  -5  -1  13  175.78   13.40
  -4  -1  13  390.56   18.70
  -3  -1  13  260.67   21.10
  -2  -1  13  116.29   13.90
  -1  -1  13  482.65   31.00
   0  -1  13   22.00    5.60
   1  -1  13  461.25   20.80
   2  -1  13  154.28   10.50
   3  -1  13  331.37   24.20
  -5   0  13  102.49    9.30
  -4   0  13  142.89   12.40
  -3   0  13    0.00   11.10
  -2   0  13   49.99    9.60
  -1   0  13  170.68   21.90
   0   0  13  123.79   11.20
   1   0  13  122.49    9.60
   2   0  13  170.78   12.80
  -4   1  13    0.00    6.40
  -3   1  13  544.15   29.80
  -2   1  13   63.19   11.10
  -1   1  13   31.70    8.80
   0   1  13  142.39   11.20
  -3   2  13  288.17   23.70
  -2   2  13  110.99   19.40
   0  -6  14  327.07   35.00
   1  -6  14  231.48   15.50
   2  -6  14   76.29   10.90
  -1  -5  14   93.49   14.40
   0  -5  14  162.68   12.70
   1  -5  14   27.20    9.40
   2  -5  14   41.60   14.50
   3  -5  14  124.49   13.50
  -2  -4  14   49.60   10.50
  -1  -4  14  175.28   11.00
   0  -4  14    5.10    5.10
   1  -4  14  384.26   22.40
   2  -4  14   24.40    7.50
   3  -4  14   78.19   24.60
  -2  -3  14   99.89   11.40
  -1  -3  14  340.47   22.70
   0  -3  14   57.89    8.30
   1  -3  14  476.45   20.60
   2  -3  14  119.29   10.70
  -3  -2  14   87.49   18.70
  -2  -2  14   21.80    8.00
  -1  -2  14   83.79   17.50
   0  -2  14  107.09   12.60
   1  -2  14   98.69   10.80
   2  -2  14  164.88   19.50
  -3  -1  14  396.06   44.60
  -2  -1  14   26.90   22.20
  -1  -1  14   27.90   10.30
   0  -1  14  118.99   13.30
   1  -1  14  212.18   24.30
  -2   0  14  199.18   23.70
   0   0   0    0.00    0.00

_computing_structure_solution     'SHELXT 2018/2 (Sheldrick, 2018)'
;
_shelx_hkl_checksum              37915
loop_
_space_group_symop_operation_xyz
'x, y, z'
'-x, -y, -z'
loop_
_atom_site_label
_atom_site_type_symbol
_atom_site_fract_x
_atom_site_fract_y
_atom_site_fract_z
_atom_site_U_iso_or_equiv
_atom_site_adp_type
_atom_site_occupancy
_atom_site_site_symmetry_order
_atom_site_calc_flag
_atom_site_refinement_flags_posn
_atom_site_refinement_flags_adp
_atom_site_refinement_flags_occupancy
_atom_site_disorder_assembly
_atom_site_disorder_group
N1_1 N 0.7455(8) 0.9226(9) 0.7172(7) 0.0179(15) Uani 1 1 d . . . . .
C2_1 C 0.7933(10) 0.9531(11) 0.6120(8) 0.0200(18) Uani 1 1 d . . . . .
H2_1 H 0.766403 0.857031 0.539365 0.024 Uiso 1 1 calc R U . . .
C3_1 C 0.8808(11) 1.1193(12) 0.6039(8) 0.0225(19) Uani 1 1 d . . . . .
H3_1 H 0.915093 1.137036 0.527463 0.027 Uiso 1 1 calc R U . . .
C4_1 C 0.9177(10) 1.2598(11) 0.7091(8) 0.0191(18) Uani 1 1 d . . . . .
H4_1 H 0.976333 1.375213 0.705582 0.023 Uiso 1 1 calc R U . . .
C5_1 C 0.8683(11) 1.2296(11) 0.8182(8) 0.0204(18) Uani 1 1 d . . . . .
H5_1 H 0.892199 1.324070 0.891237 0.024 Uiso 1 1 calc R U . . .
C6_1 C 0.7826(10) 1.0590(11) 0.8209(8) 0.0183(17) Uani 1 1 d . . . . .
H6_1 H 0.749586 1.038048 0.896773 0.022 Uiso 1 1 calc R U . . .
N1_2 N 0.4296(8) 0.3029(9) 0.7342(6) 0.0159(14) Uani 1 1 d . . . . .
C2_2 C 0.2914(10) 0.2441(11) 0.7901(8) 0.0205(18) Uani 1 1 d . . . . .
H2_2 H 0.249612 0.320877 0.830014 0.025 Uiso 1 1 calc R U . . .
C3_2 C 0.2070(11) 0.0726(12) 0.7912(9) 0.0237(19) Uani 1 1 d . . . . .
H3_2 H 0.110092 0.033468 0.832677 0.028 Uiso 1 1 calc R U . . .
C4_2 C 0.2659(11) -0.0396(12) 0.7313(8) 0.0205(18) Uani 1 1 d . . . . .
H4_2 H 0.208767 -0.157716 0.729096 0.025 Uiso 1 1 calc R U . . .
C5_2 C 0.4092(11) 0.0230(12) 0.6746(9) 0.0228(19) Uani 1 1 d . . . . .
H5_2 H 0.453819 -0.050877 0.634174 0.027 Uiso 1 1 calc R U . . .
C6_2 C 0.4869(10) 0.1933(11) 0.6773(8) 0.0201(18) Uani 1 1 d . . . . .
H6_2 H 0.584993 0.235128 0.637393 0.024 Uiso 1 1 calc R U . . .
Bi1_3 Bi 0.57729(4) 0.60838(4) 0.72272(3) 0.01297(9) Uani 1 1 d . . . . .
I2_3 I 0.87213(6) 0.67881(7) 0.88366(5) 0.01800(12) Uani 1 1 d . . . . .
I3_3 I 0.40929(7) 0.71643(7) 0.92083(5) 0.01936(13) Uani 1 1 d . . . . .
I4_3 I 0.25960(6) 0.51534(7) 0.52035(5) 0.01621(12) Uani 1 1 d . . . . .
loop_
_atom_site_aniso_label
_atom_site_aniso_U_11
_atom_site_aniso_U_22
_atom_site_aniso_U_33
_atom_site_aniso_U_23
_atom_site_aniso_U_13
_atom_site_aniso_U_12
N1_1 0.018(3) 0.018(4) 0.019(4) 0.006(3) 0.003(3) 0.010(3)
C2_1 0.023(4) 0.014(4) 0.023(5) 0.005(4) 0.004(3) 0.009(4)
C3_1 0.025(4) 0.026(5) 0.019(5) 0.013(4) 0.006(3) 0.010(4)
C4_1 0.020(4) 0.010(4) 0.029(5) 0.009(4) 0.008(3) 0.007(3)
C5_1 0.023(4) 0.013(4) 0.023(5) 0.002(4) 0.004(3) 0.009(4)
C6_1 0.025(4) 0.020(5) 0.018(4) 0.011(4) 0.012(3) 0.014(4)
N1_2 0.016(3) 0.014(4) 0.017(4) 0.006(3) 0.001(3) 0.006(3)
C2_2 0.021(4) 0.017(5) 0.025(5) 0.006(4) 0.007(3) 0.011(4)
C3_2 0.019(4) 0.018(5) 0.029(5) 0.011(4) 0.008(4) 0.003(4)
C4_2 0.029(4) 0.020(5) 0.016(4) 0.011(4) 0.003(3) 0.012(4)
C5_2 0.027(4) 0.026(5) 0.027(5) 0.018(4) 0.011(4) 0.016(4)
C6_2 0.016(4) 0.016(4) 0.025(5) 0.006(4) 0.003(3) 0.007(3)
Bi1_3 0.01504(15) 0.01036(16) 0.01408(16) 0.00496(12) 0.00414(11) 0.00604(12)
I2_3 0.0170(2) 0.0153(3) 0.0200(3) 0.0068(2) 0.0010(2) 0.0059(2)
I3_3 0.0237(3) 0.0173(3) 0.0197(3) 0.0063(2) 0.0101(2) 0.0118(2)
I4_3 0.0175(2) 0.0161(3) 0.0165(3) 0.0059(2) 0.0053(2) 0.0089(2)
loop_
_atom_type_symbol
_atom_type_description
_atom_type_scat_dispersion_real
_atom_type_scat_dispersion_imag
_atom_type_scat_source
C C 0.0033 0.0016 'International Tables Vol C Tables 4.2.6.8 and 6.1.1.4'
H H 0.0000 0.0000 'International Tables Vol C Tables 4.2.6.8 and 6.1.1.4'
N N 0.0061 0.0033 'International Tables Vol C Tables 4.2.6.8 and 6.1.1.4'
I I -0.4742 1.8119 'International Tables Vol C Tables 4.2.6.8 and 6.1.1.4'
Bi Bi -4.1077 10.2566 'International Tables Vol C Tables 4.2.6.8 and 6.1.1.4'
loop_
_geom_angle_atom_site_label_1
_geom_angle_atom_site_label_2
_geom_angle_atom_site_label_3
_geom_angle
_geom_angle_site_symmetry_1
_geom_angle_site_symmetry_3
_geom_angle_publ_flag
C2_1 N1_1 C6_1 119.0(7) . . ?
C2_1 N1_1 Bi1_3 120.4(6) . . ?
C6_1 N1_1 Bi1_3 120.5(5) . . ?
N1_1 C2_1 C3_1 122.5(8) . . ?
C2_1 C3_1 C4_1 118.9(8) . . ?
C5_1 C4_1 C3_1 119.0(8) . . ?
C4_1 C5_1 C6_1 119.4(8) . . ?
N1_1 C6_1 C5_1 121.1(8) . . ?
C2_2 N1_2 C6_2 118.8(7) . . ?
C2_2 N1_2 Bi1_3 122.2(5) . . ?
C6_2 N1_2 Bi1_3 118.9(5) . . ?
N1_2 C2_2 C3_2 121.5(8) . . ?
C4_2 C3_2 C2_2 119.2(8) . . ?
C5_2 C4_2 C3_2 118.7(8) . . ?
C6_2 C5_2 C4_2 119.3(8) . . ?
N1_2 C6_2 C5_2 122.5(8) . . ?
N1_2 Bi1_3 N1_1 176.4(2) . . ?
N1_2 Bi1_3 I3_3 90.90(15) . . ?
N1_1 Bi1_3 I3_3 90.21(15) . . ?
N1_2 Bi1_3 I2_3 88.28(15) . . ?
N1_1 Bi1_3 I2_3 88.24(15) . . ?
I3_3 Bi1_3 I2_3 96.09(2) . . ?
N1_2 Bi1_3 I4_3 91.32(15) . . ?
N1_1 Bi1_3 I4_3 92.08(15) . . ?
I3_3 Bi1_3 I4_3 89.09(2) . . ?
I2_3 Bi1_3 I4_3 174.805(18) . . ?
N1_2 Bi1_3 I4_3 90.25(16) . 2_666 ?
N1_1 Bi1_3 I4_3 88.97(15) . 2_666 ?
I3_3 Bi1_3 I4_3 174.490(18) . 2_666 ?
I2_3 Bi1_3 I4_3 89.33(2) . 2_666 ?
I4_3 Bi1_3 I4_3 85.492(19) . 2_666 ?
Bi1_3 I4_3 Bi1_3 94.508(19) . 2_666 ?
loop_
_geom_bond_atom_site_label_1
_geom_bond_atom_site_label_2
_geom_bond_distance
_geom_bond_site_symmetry_2
_geom_bond_publ_flag
N1_1 C2_1 1.326(11) . ?
N1_1 C6_1 1.355(11) . ?
N1_1 Bi1_3 2.573(7) . ?
C2_1 C3_1 1.381(12) . ?
C3_1 C4_1 1.387(12) . ?
C4_1 C5_1 1.370(12) . ?
C5_1 C6_1 1.394(12) . ?
N1_2 C2_2 1.335(10) . ?
N1_2 C6_2 1.341(11) . ?
N1_2 Bi1_3 2.522(7) . ?
C2_2 C3_2 1.396(12) . ?
C3_2 C4_2 1.379(12) . ?
C4_2 C5_2 1.378(12) . ?
C5_2 C6_2 1.371(12) . ?
Bi1_3 I3_3 2.8959(7) . ?
Bi1_3 I2_3 2.8982(7) . ?
Bi1_3 I4_3 3.2623(7) . ?
Bi1_3 I4_3 3.2794(7) 2_666 ?
loop_
_geom_torsion_atom_site_label_1
_geom_torsion_atom_site_label_2
_geom_torsion_atom_site_label_3
_geom_torsion_atom_site_label_4
_geom_torsion
_geom_torsion_site_symmetry_1
_geom_torsion_site_symmetry_2
_geom_torsion_site_symmetry_3
_geom_torsion_site_symmetry_4
_geom_torsion_publ_flag
C6_1 N1_1 C2_1 C3_1 0.4(12) . . . . ?
Bi1_3 N1_1 C2_1 C3_1 178.7(6) . . . . ?
N1_1 C2_1 C3_1 C4_1 -1.1(13) . . . . ?
C2_1 C3_1 C4_1 C5_1 0.8(12) . . . . ?
C3_1 C4_1 C5_1 C6_1 0.1(12) . . . . ?
C2_1 N1_1 C6_1 C5_1 0.6(12) . . . . ?
Bi1_3 N1_1 C6_1 C5_1 -177.7(6) . . . . ?
C4_1 C5_1 C6_1 N1_1 -0.8(12) . . . . ?
C6_2 N1_2 C2_2 C3_2 0.5(13) . . . . ?
Bi1_3 N1_2 C2_2 C3_2 177.3(6) . . . . ?
N1_2 C2_2 C3_2 C4_2 -1.2(14) . . . . ?
C2_2 C3_2 C4_2 C5_2 1.5(13) . . . . ?
C3_2 C4_2 C5_2 C6_2 -1.3(13) . . . . ?
C2_2 N1_2 C6_2 C5_2 -0.2(13) . . . . ?
Bi1_3 N1_2 C6_2 C5_2 -177.1(7) . . . . ?
C4_2 C5_2 C6_2 N1_2 0.6(14) . . . . ?
